1guw_ligand
  -I-interpret- 

270270  0  0  0  0  0  0  0  0999 V2000
    4.3460  -22.0600    3.5470 N   0  3  0  0  0
    3.3090  -22.0950    4.6110 C   0  0  0  0  0
    3.1190  -20.7180    5.2380 C   0  0  0  0  0
    1.9930  -20.3000    5.5080 O   0  0  0  0  0
    3.6800  -23.1150    5.6770 C   0  0  0  0  0
    4.2260  -20.0150    5.4660 N   0  0  0  0  0
    4.1780  -18.6840    6.0600 C   0  0  0  0  0
    3.2920  -17.7450    5.2450 C   0  0  0  0  0
    3.2710  -17.8020    4.0150 O   0  0  0  0  0
    5.5950  -18.1120    6.2120 C   0  0  0  0  0
    6.4900  -18.2980    4.9910 C   0  0  0  0  0
    6.1390  -17.3340    3.8690 C   0  0  0  0  0
    6.2580  -15.9410    4.2880 N   0  0  0  0  0
    6.0180  -14.9070    3.4900 C   0  0  0  0  0
    5.6500  -15.1060    2.2320 N   0  0  0  0  0
    6.1480  -13.6700    3.9480 N   0  0  0  0  0
    2.5450  -16.8930    5.9420 N   0  0  0  0  0
    1.6450  -15.9500    5.2900 C   0  0  0  0  0
    2.4140  -14.9010    4.4940 C   0  0  0  0  0
    3.3400  -14.2730    5.0060 O   0  0  0  0  0
    0.7360  -15.2400    6.3140 C   0  0  0  0  0
   -0.0930  -14.2780    5.6500 O   0  0  0  0  0
    1.5630  -14.5470    7.3880 C   0  0  0  0  0
    2.0210  -14.7160    3.2380 N   0  0  0  0  0
    2.6670  -13.7390    2.3690 C   0  0  0  0  0
    2.4870  -14.1260    0.9010 C   0  0  0  0  0
    1.0360  -14.2970    0.4850 C   0  0  0  0  0
    0.9280  -14.8530   -0.9260 C   0  0  0  0  0
   -0.5200  -15.0860   -1.3250 C   0  0  0  0  0
   -0.6300  -15.7190   -2.6680 N   0  3  0  0  0
   -1.7340  -16.4860   -2.7090 C   0  0  0  0  0
   -0.7210  -14.7600   -3.6050 C   0  0  0  0  0
    2.1150  -12.3380    2.6220 C   0  0  0  0  0
    0.9320  -12.1710    2.9200 O   0  0  0  0  0
    2.9860  -11.3390    2.5090 N   0  0  0  0  0
    2.6020   -9.9480    2.7300 C   0  0  0  0  0
    1.3550   -9.5710    1.9320 C   0  0  0  0  0
    1.2160   -9.9340    0.7640 O   0  0  0  0  0
    3.7560   -9.0160    2.3600 C   0  0  0  0  0
    4.9080   -9.0430    3.3540 C   0  0  0  0  0
    5.5230  -10.4200    3.5050 C   0  0  0  0  0
    6.0240  -10.9990    2.5420 O   0  0  0  0  0
    5.4890  -10.9520    4.7220 N   0  0  0  0  0
    0.4530   -8.8370    2.5810 N   0  0  0  0  0
   -0.7910   -8.3960    1.9570 C   0  0  0  0  0
   -1.2510   -7.0690    2.5510 C   0  0  0  0  0
   -1.0810   -6.8260    3.7440 O   0  0  0  0  0
   -1.9210   -9.4300    2.1420 C   0  0  0  0  0
   -2.1390   -9.6720    3.5360 O   0  0  0  0  0
   -1.5930  -10.7390    1.4430 C   0  0  0  0  0
   -1.8340   -6.2130    1.7170 N   0  0  0  0  0
   -2.3150   -4.9140    2.1750 C   0  0  0  0  0
   -3.6860   -4.5990    1.5920 C   0  0  0  0  0
   -3.8860   -4.6640    0.3780 O   0  0  0  0  0
   -1.3210   -3.8220    1.8030 C   0  0  0  0  0
   -4.6280   -4.2510    2.4640 N   0  0  0  0  0
   -5.9800   -3.9190    2.0340 C   0  0  0  0  0
   -5.9750   -2.6320    1.2190 C   0  0  0  0  0
   -5.5680   -1.5790    1.7110 O   0  0  0  0  0
   -6.8980   -3.7670    3.2490 C   0  0  0  0  0
   -6.9380   -4.9990    4.1410 C   0  0  0  0  0
   -7.8550   -4.7930    5.3360 C   0  0  0  0  0
   -7.8340   -5.9300    6.2560 N   0  0  0  0  0
   -8.2430   -7.1560    5.9340 C   0  0  0  0  0
   -8.7180   -7.4070    4.7220 N   0  0  0  0  0
   -8.1810   -8.1320    6.8310 N   0  0  0  0  0
   -6.4220   -2.7200   -0.0300 N   0  0  0  0  0
   -6.4580   -1.5560   -0.9080 C   0  0  0  0  0
   -6.3070   -1.9850   -2.3670 C   0  0  0  0  0
   -7.4260   -2.8940   -2.8510 C   0  0  0  0  0
   -7.3330   -3.1540   -4.3460 C   0  0  0  0  0
   -7.4220   -1.8560   -5.1480 C   0  0  0  0  0
   -7.4840   -2.0830   -6.6280 N   0  3  0  0  0
   -6.4140   -2.7990   -7.0280 C   0  0  0  0  0
   -8.6110   -2.7560   -6.9320 C   0  0  0  0  0
   -7.7510   -0.7660   -0.7350 C   0  0  0  0  0
   -8.2000   -0.0910   -1.6620 O   0  0  0  0  0
   -8.3440   -0.8490    0.4540 N   0  0  0  0  0
   -9.5830   -0.1350    0.7440 C   0  0  0  0  0
  -10.6080   -0.3500   -0.3700 C   0  0  0  0  0
  -11.2460    0.5960   -0.8330 O   0  0  0  0  0
   -9.3030    1.3610    0.9170 C   0  0  0  0  0
  -10.4890    2.0720    1.2310 O   0  0  0  0  0
  -10.7540   -1.6000   -0.8020 N   0  0  0  0  0
  -11.6910   -1.9370   -1.8670 C   0  0  0  0  0
  -13.1230   -1.5780   -1.4820 C   0  0  0  0  0
  -13.8030   -0.8490   -2.2050 O   0  0  0  0  0
  -11.6290   -3.4370   -2.2150 C   0  0  0  0  0
  -10.2970   -3.7970   -2.5970 O   0  0  0  0  0
  -12.5900   -3.7730   -3.3450 C   0  0  0  0  0
  -13.5730   -2.0960   -0.3430 N   0  0  0  0  0
  -14.9240   -1.8230    0.1150 C   0  0  0  0  0
  -15.9640   -2.1550   -0.9360 C   0  0  0  0  0
  -15.8200   -3.1330   -1.6700 O   0  0  0  0  0
  -17.0090   -1.3330   -1.0180 N   0  0  0  0  0
  -18.0570   -1.5590   -1.9990 C   0  0  0  0  0
  -18.6070   -2.9720   -1.9540 C   0  0  0  0  0
  -18.9470   -3.4790   -0.8860 O   0  0  0  0  0
  -18.6860   -3.6070   -3.1200 N   0  0  0  0  0
  -19.1920   -4.9710   -3.2190 C   0  0  0  0  0
  -18.8740   -5.5640   -4.5890 C   0  0  0  0  0
  -19.0180   -4.8960   -5.6130 O   0  0  0  0  0
  -20.7030   -5.0050   -2.9690 C   0  0  0  0  0
  -21.5090   -4.1910   -3.9690 C   0  0  0  0  0
  -23.0010   -4.2900   -3.6940 C   0  0  0  0  0
  -23.8090   -3.5070   -4.7150 C   0  0  0  0  0
  -23.4700   -2.0580   -4.7020 N   0  3  0  0  0
  -18.4360   -6.8200   -4.5960 N   0  0  0  0  0
  -18.0920   -7.5050   -5.8380 C   0  0  0  0  0
  -19.2880   -7.5650   -6.7860 C   0  0  0  0  0
  -20.4090   -7.8490   -6.3650 O   0  0  0  0  0
  -17.5810   -8.9060   -5.5410 C   0  0  0  0  0
  -19.0630   -7.3010   -8.0870 N   0  0  0  0  0
  -20.1290   -7.3300   -9.0950 C   0  0  0  0  0
  -20.7190   -8.7260   -9.2690 C   0  0  0  0  0
  -21.9370   -8.8890   -9.3510 O   0  0  0  0  0
  -19.4250   -6.8800  -10.3800 C   0  0  0  0  0
  -17.9830   -7.1670  -10.1480 C   0  0  0  0  0
  -17.7560   -6.9590   -8.6780 C   0  0  0  0  0
  -19.8460   -9.7270   -9.3260 N   0  0  0  0  0
  -20.2960  -11.0980   -9.4880 C   0  0  0  0  0
  -20.9940  -11.3290  -10.8140 C   0  0  0  0  0
  -20.5370  -10.8550  -11.8550 O   0  0  0  0  0
  -22.1030  -12.0610  -10.7770 N   0  0  0  0  0
  -22.8480  -12.3440  -11.9900 C   0  0  0  0  0
  -24.0370  -13.2510  -11.7430 C   0  0  0  0  0
  -24.9340  -12.8560  -10.9670 O   0  0  0  0  0
  -24.0730  -14.3550  -12.3250 O   0  0  0  0  0
    4.0836  -21.3725    2.8406 H   0  0  0  0  0
    5.2436  -21.8022    3.9571 H   0  0  0  0  0
    4.4200  -22.9813    3.1156 H   0  0  0  0  0
    2.3649  -22.3909    4.1535 H   0  0  0  0  0
    4.6091  -22.8124    6.1599 H   0  0  0  0  0
    2.8838  -23.1686    6.4195 H   0  0  0  0  0
    3.8119  -24.0923    5.2127 H   0  0  0  0  0
    5.1303  -20.4172    5.2191 H   0  0  0  0  0
    3.7357  -18.7722    7.0523 H   0  0  0  0  0
    6.0669  -18.6467    7.0364 H   0  0  0  0  0
    5.4893  -17.0384    6.3681 H   0  0  0  0  0
    6.3516  -19.3138    4.6208 H   0  0  0  0  0
    7.5196  -18.1062    5.2930 H   0  0  0  0  0
    5.1049  -17.5145    3.5754 H   0  0  0  0  0
    6.8326  -17.5026    3.0452 H   0  0  0  0  0
    6.5418  -15.7507    5.2491 H   0  0  0  0  0
    5.4684  -14.3092    1.6216 H   0  0  0  0  0
    5.5485  -16.0559    1.8745 H   0  0  0  0  0
    6.4327  -13.5113    4.9145 H   0  0  0  0  0
    2.6037  -16.8999    6.9603 H   0  0  0  0  0
    1.0270  -16.5318    4.6061 H   0  0  0  0  0
    0.1093  -15.9935    6.7911 H   0  0  0  0  0
   -0.6546  -13.8418    6.2949 H   0  0  0  0  0
    2.1696  -15.2862    7.9111 H   0  0  0  0  0
    2.2126  -13.8056    6.9227 H   0  0  0  0  0
    0.8968  -14.0547    8.0965 H   0  0  0  0  0
    1.2477  -15.2716    2.8724 H   0  0  0  0  0
    3.7325  -13.7326    2.5986 H   0  0  0  0  0
    2.9821  -15.0860    0.7551 H   0  0  0  0  0
    2.9047  -13.3192    0.2988 H   0  0  0  0  0
    0.5500  -13.3217    0.5119 H   0  0  0  0  0
    0.5583  -14.9964    1.1712 H   0  0  0  0  0
    1.4533  -15.8074   -0.9617 H   0  0  0  0  0
    1.3637  -14.1301   -1.6157 H   0  0  0  0  0
   -1.0249  -14.1206   -1.3595 H   0  0  0  0  0
   -0.9730  -15.7550   -0.5934 H   0  0  0  0  0
    0.1939  -16.2939   -2.8443 H   0  0  0  0  0
   -1.6657  -17.2601   -1.9446 H   0  0  0  0  0
   -2.6119  -15.8671   -2.5237 H   0  0  0  0  0
   -1.8160  -16.9503   -3.6918 H   0  0  0  0  0
   -1.6045  -14.1506   -3.4147 H   0  0  0  0  0
    0.1695  -14.1325   -3.5685 H   0  0  0  0  0
   -0.8016  -15.2218   -4.5891 H   0  0  0  0  0
    3.9521  -11.5514    2.2602 H   0  0  0  0  0
    2.3688   -9.8365    3.7889 H   0  0  0  0  0
    3.3621   -7.9998    2.3456 H   0  0  0  0  0
    4.1476   -9.3484    1.3986 H   0  0  0  0  0
    4.5163   -8.7444    4.3264 H   0  0  0  0  0
    5.6825   -8.3706    2.9850 H   0  0  0  0  0
    5.8885  -11.8761    4.8860 H   0  0  0  0  0
    5.0634  -10.4364    5.4923 H   0  0  0  0  0
    0.6379   -8.5735    3.5489 H   0  0  0  0  0
   -0.5843   -8.2801    0.8931 H   0  0  0  0  0
   -2.8263   -9.0204    1.6940 H   0  0  0  0  0
   -2.8431  -10.3160    3.6416 H   0  0  0  0  0
   -1.4607  -10.5567    0.3765 H   0  0  0  0  0
   -0.6738  -11.1513    1.8592 H   0  0  0  0  0
   -2.4101  -11.4445    1.5937 H   0  0  0  0  0
   -1.9473   -6.4700    0.7364 H   0  0  0  0  0
   -2.4097   -4.9527    3.2602 H   0  0  0  0  0
   -0.3599   -4.0322    2.2722 H   0  0  0  0  0
   -1.2001   -3.7960    0.7200 H   0  0  0  0  0
   -1.6940   -2.8589    2.1514 H   0  0  0  0  0
   -4.3986   -4.2157    3.4572 H   0  0  0  0  0
   -6.3545   -4.7287    1.4077 H   0  0  0  0  0
   -7.9086   -3.6009    2.8760 H   0  0  0  0  0
   -6.5126   -2.9422    3.8484 H   0  0  0  0  0
   -5.9301   -5.1916    4.5087 H   0  0  0  0  0
   -7.3171   -5.8367    3.5556 H   0  0  0  0  0
   -8.8732   -4.6780    4.9644 H   0  0  0  0  0
   -7.5099   -3.9130    5.8788 H   0  0  0  0  0
   -7.4849   -5.7745    7.2017 H   0  0  0  0  0
   -8.7717   -6.6593    4.0303 H   0  0  0  0  0
   -8.4980   -9.0702    6.5866 H   0  0  0  0  0
   -7.8164   -7.9440    7.7649 H   0  0  0  0  0
   -6.7467   -3.6207   -0.3817 H   0  0  0  0  0
   -5.6241   -0.9104   -0.6326 H   0  0  0  0  0
   -5.3736   -2.5419   -2.4498 H   0  0  0  0  0
   -6.3306   -1.0826   -2.9779 H   0  0  0  0  0
   -8.3784   -2.4049   -2.6462 H   0  0  0  0  0
   -7.3424   -3.8482   -2.3308 H   0  0  0  0  0
   -8.1640   -3.7966   -4.6366 H   0  0  0  0  0
   -6.3718   -3.6235   -4.5553 H   0  0  0  0  0
   -6.5236   -1.2752   -4.9392 H   0  0  0  0  0
   -8.3388   -1.3460   -4.8523 H   0  0  0  0  0
   -7.4826   -1.1815   -7.1051 H   0  0  0  0  0
   -5.5021   -2.2535   -6.7854 H   0  0  0  0  0
   -6.4104   -3.7613   -6.5160 H   0  0  0  0  0
   -6.4675   -2.9591   -8.1048 H   0  0  0  0  0
   -8.6096   -3.7162   -6.4161 H   0  0  0  0  0
   -9.4767   -2.1737   -6.6164 H   0  0  0  0  0
   -8.6552   -2.9206   -8.0086 H   0  0  0  0  0
   -7.9214   -1.4265    1.1809 H   0  0  0  0  0
   -9.9952   -0.5302    1.6724 H   0  0  0  0  0
   -8.9016    1.7502   -0.0187 H   0  0  0  0  0
   -8.5935    1.4898    1.7344 H   0  0  0  0  0
  -10.2842    3.0043    1.3335 H   0  0  0  0  0
  -10.1964   -2.3411   -0.3774 H   0  0  0  0  0
  -11.3964   -1.3531   -2.7390 H   0  0  0  0  0
  -11.9206   -4.0025   -1.3300 H   0  0  0  0  0
  -10.2686   -4.7323   -2.8117 H   0  0  0  0  0
  -13.6070   -3.5252   -3.0411 H   0  0  0  0  0
  -12.3233   -3.1962   -4.2306 H   0  0  0  0  0
  -12.5259   -4.8375   -3.5703 H   0  0  0  0  0
  -12.9622   -2.6921    0.2156 H   0  0  0  0  0
  -14.9970   -0.7589    0.3395 H   0  0  0  0  0
  -15.1168   -2.4434    0.9902 H   0  0  0  0  0
  -17.0743   -0.5359   -0.3850 H   0  0  0  0  0
  -17.6292   -1.3980   -2.9885 H   0  0  0  0  0
  -18.8757   -0.8742   -1.7776 H   0  0  0  0  0
  -18.3845   -3.1269   -3.9679 H   0  0  0  0  0
  -18.6982   -5.5721   -2.4555 H   0  0  0  0  0
  -20.8791   -4.5751   -1.9829 H   0  0  0  0  0
  -21.0243   -6.0426   -3.0604 H   0  0  0  0  0
  -21.3153   -4.5815   -4.9681 H   0  0  0  0  0
  -21.2108   -3.1461   -3.8839 H   0  0  0  0  0
  -23.1981   -3.8744   -2.7058 H   0  0  0  0  0
  -23.2939   -5.3383   -3.7526 H   0  0  0  0  0
  -24.8652   -3.6121   -4.4668 H   0  0  0  0  0
  -23.5808   -3.9015   -5.7052 H   0  0  0  0  0
  -24.0333   -1.5720   -5.3998 H   0  0  0  0  0
  -23.6647   -1.6728   -3.7778 H   0  0  0  0  0
  -22.4805   -1.9396   -4.9195 H   0  0  0  0  0
  -18.3380   -7.3171   -3.7107 H   0  0  0  0  0
  -17.3026   -6.9369   -6.3301 H   0  0  0  0  0
  -16.6940   -8.8418   -4.9108 H   0  0  0  0  0
  -18.3557   -9.4718   -5.0236 H   0  0  0  0  0
  -17.3283   -9.4051   -6.4765 H   0  0  0  0  0
  -20.9706   -6.6962   -8.8154 H   0  0  0  0  0
  -19.5990   -5.8243  -10.5882 H   0  0  0  0  0
  -19.8063   -7.4055  -11.2555 H   0  0  0  0  0
  -17.3474   -6.5121  -10.7440 H   0  0  0  0  0
  -17.7274   -8.1830  -10.4489 H   0  0  0  0  0
  -16.9431   -7.5703   -8.2862 H   0  0  0  0  0
  -17.4381   -5.9440   -8.4398 H   0  0  0  0  0
  -18.8478   -9.5295   -9.2551 H   0  0  0  0  0
  -21.0083  -11.3138   -8.6916 H   0  0  0  0  0
  -19.4197  -11.7453   -9.4527 H   0  0  0  0  0
  -22.4345  -12.4283   -9.8851 H   0  0  0  0  0
  -22.1783  -12.8496  -12.6856 H   0  0  0  0  0
  -23.2222  -11.3987  -12.3830 H   0  0  0  0  0
  -24.7059  -11.9855  -10.6327 H   0  0  0  0  0
  1  2  1  0  0  0
  2  3  1  0  0  0
  2  5  1  0  0  0
  3  4  2  0  0  0
  3  6  1  0  0  0
  6  7  1  0  0  0
  7  8  1  0  0  0
  7 10  1  0  0  0
  8  9  2  0  0  0
  8 17  1  0  0  0
 10 11  1  0  0  0
 11 12  1  0  0  0
 12 13  1  0  0  0
 13 14  1  0  0  0
 14 15  1  0  0  0
 14 16  2  0  0  0
 17 18  1  0  0  0
 18 19  1  0  0  0
 18 21  1  0  0  0
 19 20  2  0  0  0
 19 24  1  0  0  0
 21 22  1  0  0  0
 21 23  1  0  0  0
 24 25  1  0  0  0
 25 26  1  0  0  0
 25 33  1  0  0  0
 26 27  1  0  0  0
 27 28  1  0  0  0
 28 29  1  0  0  0
 29 30  1  0  0  0
 30 31  1  0  0  0
 30 32  1  0  0  0
 33 34  2  0  0  0
 33 35  1  0  0  0
 35 36  1  0  0  0
 36 37  1  0  0  0
 36 39  1  0  0  0
 37 38  2  0  0  0
 37 44  1  0  0  0
 39 40  1  0  0  0
 40 41  1  0  0  0
 41 42  2  0  0  0
 41 43  1  0  0  0
 44 45  1  0  0  0
 45 46  1  0  0  0
 45 48  1  0  0  0
 46 47  2  0  0  0
 46 51  1  0  0  0
 48 49  1  0  0  0
 48 50  1  0  0  0
 51 52  1  0  0  0
 52 53  1  0  0  0
 52 55  1  0  0  0
 53 54  2  0  0  0
 53 56  1  0  0  0
 56 57  1  0  0  0
 57 58  1  0  0  0
 57 60  1  0  0  0
 58 59  2  0  0  0
 58 67  1  0  0  0
 60 61  1  0  0  0
 61 62  1  0  0  0
 62 63  1  0  0  0
 63 64  1  0  0  0
 64 65  2  0  0  0
 64 66  1  0  0  0
 67 68  1  0  0  0
 68 69  1  0  0  0
 68 76  1  0  0  0
 69 70  1  0  0  0
 70 71  1  0  0  0
 71 72  1  0  0  0
 72 73  1  0  0  0
 73 74  1  0  0  0
 73 75  1  0  0  0
 76 77  2  0  0  0
 76 78  1  0  0  0
 78 79  1  0  0  0
 79 80  1  0  0  0
 79 82  1  0  0  0
 80 81  2  0  0  0
 80 84  1  0  0  0
 82 83  1  0  0  0
 84 85  1  0  0  0
 85 86  1  0  0  0
 85 88  1  0  0  0
 86 87  2  0  0  0
 86 91  1  0  0  0
 88 89  1  0  0  0
 88 90  1  0  0  0
 91 92  1  0  0  0
 92 93  1  0  0  0
 93 94  2  0  0  0
 93 95  1  0  0  0
 95 96  1  0  0  0
 96 97  1  0  0  0
 97 98  2  0  0  0
 97 99  1  0  0  0
 99100  1  0  0  0
100101  1  0  0  0
100103  1  0  0  0
101102  2  0  0  0
101108  1  0  0  0
103104  1  0  0  0
104105  1  0  0  0
105106  1  0  0  0
106107  1  0  0  0
108109  1  0  0  0
109110  1  0  0  0
109112  1  0  0  0
110111  2  0  0  0
110113  1  0  0  0
113114  1  0  0  0
113119  1  0  0  0
114115  1  0  0  0
114117  1  0  0  0
115116  2  0  0  0
115120  1  0  0  0
117118  1  0  0  0
118119  1  0  0  0
120121  1  0  0  0
121122  1  0  0  0
122123  2  0  0  0
122124  1  0  0  0
124125  1  0  0  0
125126  1  0  0  0
126127  1  0  0  0
126128  2  0  0  0
  1129  1  0  0  0
  1130  1  0  0  0
  1131  1  0  0  0
  2132  1  0  0  0
  5133  1  0  0  0
  5134  1  0  0  0
  5135  1  0  0  0
  6136  1  0  0  0
  7137  1  0  0  0
 10138  1  0  0  0
 10139  1  0  0  0
 11140  1  0  0  0
 11141  1  0  0  0
 12142  1  0  0  0
 12143  1  0  0  0
 13144  1  0  0  0
 15145  1  0  0  0
 15146  1  0  0  0
 16147  1  0  0  0
 17148  1  0  0  0
 18149  1  0  0  0
 21150  1  0  0  0
 22151  1  0  0  0
 23152  1  0  0  0
 23153  1  0  0  0
 23154  1  0  0  0
 24155  1  0  0  0
 25156  1  0  0  0
 26157  1  0  0  0
 26158  1  0  0  0
 27159  1  0  0  0
 27160  1  0  0  0
 28161  1  0  0  0
 28162  1  0  0  0
 29163  1  0  0  0
 29164  1  0  0  0
 30165  1  0  0  0
 31166  1  0  0  0
 31167  1  0  0  0
 31168  1  0  0  0
 32169  1  0  0  0
 32170  1  0  0  0
 32171  1  0  0  0
 35172  1  0  0  0
 36173  1  0  0  0
 39174  1  0  0  0
 39175  1  0  0  0
 40176  1  0  0  0
 40177  1  0  0  0
 43178  1  0  0  0
 43179  1  0  0  0
 44180  1  0  0  0
 45181  1  0  0  0
 48182  1  0  0  0
 49183  1  0  0  0
 50184  1  0  0  0
 50185  1  0  0  0
 50186  1  0  0  0
 51187  1  0  0  0
 52188  1  0  0  0
 55189  1  0  0  0
 55190  1  0  0  0
 55191  1  0  0  0
 56192  1  0  0  0
 57193  1  0  0  0
 60194  1  0  0  0
 60195  1  0  0  0
 61196  1  0  0  0
 61197  1  0  0  0
 62198  1  0  0  0
 62199  1  0  0  0
 63200  1  0  0  0
 65201  1  0  0  0
 66202  1  0  0  0
 66203  1  0  0  0
 67204  1  0  0  0
 68205  1  0  0  0
 69206  1  0  0  0
 69207  1  0  0  0
 70208  1  0  0  0
 70209  1  0  0  0
 71210  1  0  0  0
 71211  1  0  0  0
 72212  1  0  0  0
 72213  1  0  0  0
 73214  1  0  0  0
 74215  1  0  0  0
 74216  1  0  0  0
 74217  1  0  0  0
 75218  1  0  0  0
 75219  1  0  0  0
 75220  1  0  0  0
 78221  1  0  0  0
 79222  1  0  0  0
 82223  1  0  0  0
 82224  1  0  0  0
 83225  1  0  0  0
 84226  1  0  0  0
 85227  1  0  0  0
 88228  1  0  0  0
 89229  1  0  0  0
 90230  1  0  0  0
 90231  1  0  0  0
 90232  1  0  0  0
 91233  1  0  0  0
 92234  1  0  0  0
 92235  1  0  0  0
 95236  1  0  0  0
 96237  1  0  0  0
 96238  1  0  0  0
 99239  1  0  0  0
100240  1  0  0  0
103241  1  0  0  0
103242  1  0  0  0
104243  1  0  0  0
104244  1  0  0  0
105245  1  0  0  0
105246  1  0  0  0
106247  1  0  0  0
106248  1  0  0  0
107249  1  0  0  0
107250  1  0  0  0
107251  1  0  0  0
108252  1  0  0  0
109253  1  0  0  0
112254  1  0  0  0
112255  1  0  0  0
112256  1  0  0  0
114257  1  0  0  0
117258  1  0  0  0
117259  1  0  0  0
118260  1  0  0  0
118261  1  0  0  0
119262  1  0  0  0
119263  1  0  0  0
120264  1  0  0  0
121265  1  0  0  0
121266  1  0  0  0
124267  1  0  0  0
125268  1  0  0  0
125269  1  0  0  0
127270  1  0  0  0
M  END
$$$$
