### 
### Created by X-TOOL on Mon Sep 10 21:12:49 2018
### 

@<TRIPOS>MOLECULE
1guw_ligand
  271   271     1     0     0
SMALL
GAST_HUCK


@<TRIPOS>ATOM
      1 N           4.3460  -22.0600    3.5470 N.4       1 ALA         0.2377
      2 CA          3.3090  -22.0950    4.6110 C.3       1 ALA         0.0621
      3 C           3.1190  -20.7180    5.2380 C.2       1 ALA         0.2264
      4 O           1.9930  -20.3000    5.5080 O.2       1 ALA        -0.3907
      5 CB          3.6800  -23.1150    5.6770 C.3       1 ALA        -0.0040
      6 N           4.2260  -20.0150    5.4660 N.am      1 ARG        -0.2610
      7 CA          4.1780  -18.6840    6.0600 C.3       1 ARG         0.1312
      8 C           3.2920  -17.7450    5.2450 C.2       1 ARG         0.2040
      9 O           3.2710  -17.8020    4.0150 O.2       1 ARG        -0.3944
     10 CB          5.5950  -18.1120    6.2120 C.3       1 ARG        -0.0092
     11 CG          6.4900  -18.2980    4.9910 C.3       1 ARG        -0.0156
     12 CD          6.1390  -17.3340    3.8690 C.3       1 ARG         0.0627
     13 NE          6.2580  -15.9410    4.2880 N.pl3     1 ARG        -0.2723
     14 CZ          6.0180  -14.9070    3.4900 C.cat     1 ARG         0.2882
     15 NH1         5.6500  -15.1060    2.2320 N.pl3     1 ARG        -0.2849
     16 NH2         6.1480  -13.6700    3.9480 N.pl3     1 ARG        -0.2849
     17 N           2.5450  -16.8930    5.9420 N.am      1 THR        -0.2613
     18 CA          1.6450  -15.9500    5.2900 C.3       1 THR         0.1565
     19 C           2.4140  -14.9010    4.4940 C.2       1 THR         0.2065
     20 O           3.3400  -14.2730    5.0060 O.2       1 THR        -0.3943
     21 CB          0.7360  -15.2400    6.3140 C.3       1 THR         0.0924
     22 OG1        -0.0930  -14.2780    5.6500 O.3       1 THR        -0.3874
     23 CG2         1.5630  -14.5470    7.3880 C.3       1 THR        -0.0346
     24 N           2.0210  -14.7160    3.2380 N.am      1 MLY        -0.2637
     25 CA          2.6670  -13.7390    2.3690 C.3       1 MLY         0.1310
     26 CB          2.4870  -14.1260    0.9010 C.3       1 MLY        -0.0122
     27 CG          1.0360  -14.2970    0.4850 C.3       1 MLY        -0.0440
     28 CD          0.9280  -14.8530   -0.9260 C.3       1 MLY        -0.0123
     29 CE         -0.5200  -15.0860   -1.3250 C.3       1 MLY        -0.0324
     30 NZ         -0.6300  -15.7190   -2.6680 N.4       1 MLY         0.2309
     31 CH1        -1.7340  -16.4860   -2.7090 C.3       1 MLY        -0.0433
     32 CH2        -0.7210  -14.7600   -3.6050 C.3       1 MLY        -0.0433
     33 C           2.1150  -12.3380    2.6220 C.2       1 MLY         0.2039
     34 O           0.9320  -12.1710    2.9200 O.2       1 MLY        -0.3944
     35 N           2.9860  -11.3390    2.5090 N.am      1 GLN        -0.2636
     36 CA          2.6020   -9.9480    2.7300 C.3       1 GLN         0.1330
     37 C           1.3550   -9.5710    1.9320 C.2       1 GLN         0.2041
     38 O           1.2160   -9.9340    0.7640 O.2       1 GLN        -0.3944
     39 CB          3.7560   -9.0160    2.3600 C.3       1 GLN         0.0045
     40 CG          4.9080   -9.0430    3.3540 C.3       1 GLN         0.0412
     41 CD          5.5230  -10.4200    3.5050 C.2       1 GLN         0.1737
     42 OE1         6.0240  -10.9990    2.5420 O.2       1 GLN        -0.3973
     43 NE2         5.4890  -10.9520    4.7220 N.am      1 GLN        -0.3009
     44 N           0.4530   -8.8370    2.5810 N.am      1 THR        -0.2613
     45 CA         -0.7910   -8.3960    1.9570 C.3       1 THR         0.1565
     46 C          -1.2510   -7.0690    2.5510 C.2       1 THR         0.2065
     47 O          -1.0810   -6.8260    3.7440 O.2       1 THR        -0.3943
     48 CB         -1.9210   -9.4300    2.1420 C.3       1 THR         0.0924
     49 OG1        -2.1390   -9.6720    3.5360 O.3       1 THR        -0.3874
     50 CG2        -1.5930  -10.7390    1.4430 C.3       1 THR        -0.0346
     51 N          -1.8340   -6.2130    1.7170 N.am      1 ALA        -0.2639
     52 CA         -2.3150   -4.9140    2.1750 C.3       1 ALA         0.1282
     53 C          -3.6860   -4.5990    1.5920 C.2       1 ALA         0.2036
     54 O          -3.8860   -4.6640    0.3780 O.2       1 ALA        -0.3944
     55 CB         -1.3210   -3.8220    1.8030 C.3       1 ALA        -0.0244
     56 N          -4.6280   -4.2510    2.4640 N.am      1 ARG        -0.2637
     57 CA         -5.9800   -3.9190    2.0340 C.3       1 ARG         0.1311
     58 C          -5.9750   -2.6320    1.2190 C.2       1 ARG         0.2039
     59 O          -5.5680   -1.5790    1.7110 O.2       1 ARG        -0.3944
     60 CB         -6.8980   -3.7670    3.2490 C.3       1 ARG        -0.0092
     61 CG         -6.9380   -4.9990    4.1410 C.3       1 ARG        -0.0156
     62 CD         -7.8550   -4.7930    5.3360 C.3       1 ARG         0.0627
     63 NE         -7.8340   -5.9300    6.2560 N.pl3     1 ARG        -0.2723
     64 CZ         -8.2430   -7.1560    5.9340 C.cat     1 ARG         0.2882
     65 NH1        -8.7180   -7.4070    4.7220 N.pl3     1 ARG        -0.2849
     66 NH2        -8.1810   -8.1320    6.8310 N.pl3     1 ARG        -0.2849
     67 N          -6.4220   -2.7200   -0.0300 N.am      1 MLY        -0.2637
     68 CA         -6.4580   -1.5560   -0.9080 C.3       1 MLY         0.1310
     69 CB         -6.3070   -1.9850   -2.3670 C.3       1 MLY        -0.0122
     70 CG         -7.4260   -2.8940   -2.8510 C.3       1 MLY        -0.0440
     71 CD         -7.3330   -3.1540   -4.3460 C.3       1 MLY        -0.0123
     72 CE         -7.4220   -1.8560   -5.1480 C.3       1 MLY        -0.0324
     73 NZ         -7.4840   -2.0830   -6.6280 N.4       1 MLY         0.2309
     74 CH1        -6.4140   -2.7990   -7.0280 C.3       1 MLY        -0.0433
     75 CH2        -8.6110   -2.7560   -6.9320 C.3       1 MLY        -0.0433
     76 C          -7.7510   -0.7660   -0.7350 C.2       1 MLY         0.2040
     77 O          -8.2000   -0.0910   -1.6620 O.2       1 MLY        -0.3944
     78 N          -8.3440   -0.8490    0.4540 N.am      1 SER        -0.2616
     79 CA         -9.5830   -0.1350    0.7440 C.3       1 SER         0.1539
     80 C         -10.6080   -0.3500   -0.3700 C.2       1 SER         0.2063
     81 O         -11.2460    0.5960   -0.8330 O.2       1 SER        -0.3943
     82 CB         -9.3030    1.3610    0.9170 C.3       1 SER         0.0843
     83 OG        -10.4890    2.0720    1.2310 O.3       1 SER        -0.3903
     84 N         -10.7540   -1.6000   -0.8020 N.am      1 THR        -0.2613
     85 CA        -11.6910   -1.9370   -1.8670 C.3       1 THR         0.1565
     86 C         -13.1230   -1.5780   -1.4820 C.2       1 THR         0.2063
     87 O         -13.8030   -0.8490   -2.2050 O.2       1 THR        -0.3943
     88 CB        -11.6290   -3.4370   -2.2150 C.3       1 THR         0.0924
     89 OG1       -10.2970   -3.7970   -2.5970 O.3       1 THR        -0.3874
     90 CG2       -12.5900   -3.7730   -3.3450 C.3       1 THR        -0.0346
     91 N         -13.5730   -2.0960   -0.3430 N.am      1 GLY        -0.2663
     92 CA        -14.9240   -1.8230    0.1150 C.3       1 GLY         0.1201
     93 C         -15.9640   -2.1550   -0.9360 C.2       1 GLY         0.2005
     94 O         -15.8200   -3.1330   -1.6700 O.2       1 GLY        -0.3947
     95 N         -17.0090   -1.3330   -1.0180 N.am      1 GLY        -0.2666
     96 CA        -18.0570   -1.5590   -1.9990 C.3       1 GLY         0.1201
     97 C         -18.6070   -2.9720   -1.9540 C.2       1 GLY         0.2007
     98 O         -18.9470   -3.4790   -0.8860 O.2       1 GLY        -0.3947
     99 N         -18.6860   -3.6070   -3.1200 N.am      1 LYS        -0.2640
    100 CA        -19.1920   -4.9710   -3.2190 C.3       1 LYS         0.1310
    101 C         -18.8740   -5.5640   -4.5890 C.2       1 LYS         0.2039
    102 O         -19.0180   -4.8960   -5.6130 O.2       1 LYS        -0.3944
    103 CB        -20.7030   -5.0050   -2.9690 C.3       1 LYS        -0.0122
    104 CG        -21.5090   -4.1910   -3.9690 C.3       1 LYS        -0.0440
    105 CD        -23.0010   -4.2900   -3.6940 C.3       1 LYS        -0.0124
    106 CE        -23.8090   -3.5070   -4.7150 C.3       1 LYS        -0.0354
    107 NZ        -23.4700   -2.0580   -4.7020 N.4       1 LYS         0.2185
    108 N         -18.4360   -6.8200   -4.5960 N.am      1 ALA        -0.2640
    109 CA        -18.0920   -7.5050   -5.8380 C.3       1 ALA         0.1284
    110 C         -19.2880   -7.5650   -6.7860 C.2       1 ALA         0.2061
    111 O         -20.4090   -7.8490   -6.3650 O.2       1 ALA        -0.3942
    112 CB        -17.5810   -8.9060   -5.5410 C.3       1 ALA        -0.0244
    113 N         -19.0630   -7.3010   -8.0870 N.am      1 PRO        -0.2498
    114 CA        -20.1290   -7.3300   -9.0950 C.3       1 PRO         0.1338
    115 C         -20.7190   -8.7260   -9.2690 C.2       1 PRO         0.2039
    116 O         -21.9370   -8.8890   -9.3510 O.2       1 PRO        -0.3944
    117 CB        -19.4250   -6.8800  -10.3800 C.3       1 PRO        -0.0104
    118 CG        -17.9830   -7.1670  -10.1480 C.3       1 PRO        -0.0281
    119 CD        -17.7560   -6.9590   -8.6780 C.3       1 PRO         0.0369
    120 N         -19.8460   -9.7270   -9.3260 N.am      1 GLY        -0.2664
    121 CA        -20.2960  -11.0980   -9.4880 C.3       1 GLY         0.1201
    122 C         -20.9940  -11.3290  -10.8140 C.2       1 GLY         0.2000
    123 O         -20.5370  -10.8550  -11.8550 O.2       1 GLY        -0.3947
    124 N         -22.1030  -12.0610  -10.7770 N.am      1 GLY        -0.2724
    125 CA        -22.8480  -12.3440  -11.9900 C.3       1 GLY         0.0833
    126 C         -24.0370  -13.2510  -11.7430 C.2       1 GLY         0.0570
    127 O         -24.9340  -12.8560  -10.9670 O.co2     1 GLY        -0.5669
    128 OXT       -24.0730  -14.3550  -12.3250 O.co2     1 GLY        -0.5669
    129 H1          4.4514  -22.9806    3.1502 H         1 ALA         0.2015
    130 H2          5.2238  -21.7623    3.9430 H         1 ALA         0.2015
    131 H3          4.0661  -21.4135    2.8261 H         1 ALA         0.2015
    132 H4          2.3561  -22.4004    4.1542 H         1 ALA         0.1095
    133 H5          2.9041  -23.1293    6.4566 H         1 ALA         0.0310
    134 H6          4.6460  -22.8411    6.1262 H         1 ALA         0.0310
    135 H7          3.7581  -24.1121    5.2191 H         1 ALA         0.0310
    136 H8          5.1125  -20.4093    5.2240 H         1 ARG         0.1884
    137 H9          3.7385  -18.7759    7.0642 H         1 ARG         0.0800
    138 H10         6.0753  -18.6085    7.0680 H         1 ARG         0.0313
    139 H11         5.5099  -17.0340    6.4138 H         1 ARG         0.0313
    140 H12         6.3758  -19.3278    4.6217 H         1 ARG         0.0301
    141 H13         7.5353  -18.1290    5.2890 H         1 ARG         0.0301
    142 H14         5.1030  -17.5218    3.5505 H         1 ARG         0.0689
    143 H15         6.8202  -17.5099    3.0234 H         1 ARG         0.0689
    144 H16         6.5446  -15.7489    5.2585 H         1 ARG         0.2642
    145 H17         5.4648  -14.3014    1.6162 H         1 ARG         0.2615
    146 H18         5.5493  -16.0652    1.8704 H         1 ARG         0.2615
    147 H19         6.4336  -13.5098    4.9245 H         1 ARG         0.2615
    148 H20         5.9634  -12.8690    3.3274 H         1 ARG         0.2615
    149 H21         2.6025  -16.8997    6.9403 H         1 THR         0.1884
    150 H22         1.0083  -16.5157    4.5939 H         1 THR         0.0826
    151 H23         0.0935  -15.9925    6.7945 H         1 THR         0.0639
    152 H24        -0.6487  -13.8463    6.2882 H         1 THR         0.2101
    153 H25         0.8918  -14.0497    8.1037 H         1 THR         0.0257
    154 H26         2.2190  -13.7985    6.9197 H         1 THR         0.0257
    155 H27         2.1757  -15.2920    7.9167 H         1 THR         0.0257
    156 H28         1.2628  -15.2607    2.8795 H         1 MLY         0.1883
    157 H29         3.7432  -13.7327    2.5966 H         1 MLY         0.0800
    158 H30         3.0121  -15.0766    0.7261 H         1 MLY         0.0312
    159 H31         2.9360  -13.3389    0.2774 H         1 MLY         0.0312
    160 H32         0.5343  -13.3189    0.5241 H         1 MLY         0.0269
    161 H33         0.5426  -14.9903    1.1821 H         1 MLY         0.0269
    162 H34         1.4704  -15.8087   -0.9759 H         1 MLY         0.0317
    163 H35         1.3810  -14.1372   -1.6277 H         1 MLY         0.0317
    164 H36        -1.0440  -14.1190   -1.3435 H         1 MLY         0.0814
    165 H37        -0.9923  -15.7448   -0.5815 H         1 MLY         0.0814
    166 H38         0.1841  -16.2872   -2.8425 H         1 MLY         0.2028
    167 H39        -1.8179  -16.9551   -3.7004 H         1 MLY         0.0777
    168 H40        -2.6208  -15.8626   -2.5222 H         1 MLY         0.0777
    169 H41        -1.6663  -17.2677   -1.9381 H         1 MLY         0.0777
    170 H42         0.1806  -14.1306   -3.5742 H         1 MLY         0.0777
    171 H43        -1.6081  -14.1395   -3.4097 H         1 MLY         0.0777
    172 H44        -0.8100  -15.2248   -4.5980 H         1 MLY         0.0777
    173 H45         3.9332  -11.5473    2.2651 H         1 GLN         0.1883
    174 H46         2.3781   -9.8199    3.7993 H         1 GLN         0.0801
    175 H47         3.3683   -7.9880    2.3059 H         1 GLN         0.0337
    176 H48         4.1413   -9.3150    1.3740 H         1 GLN         0.0337
    177 H49         4.5330   -8.7164    4.3352 H         1 GLN         0.0504
    178 H50         5.6864   -8.3467    3.0086 H         1 GLN         0.0504
    179 H51         5.8795  -11.8585    4.8825 H         1 GLN         0.1814
    180 H52         5.0729  -10.4459    5.4775 H         1 GLN         0.1814
    181 H53         0.6343   -8.5786    3.5299 H         1 THR         0.1884
    182 H54        -0.6083   -8.2612    0.8807 H         1 THR         0.0826
    183 H55        -2.8433   -9.0208    1.7041 H         1 THR         0.0639
    184 H56        -2.8358  -10.3093    3.6405 H         1 THR         0.2101
    185 H57        -2.4169  -11.4519    1.5943 H         1 THR         0.0257
    186 H58        -0.6655  -11.1562    1.8622 H         1 THR         0.0257
    187 H59        -1.4592  -10.5564    0.3666 H         1 THR         0.0257
    188 H60        -1.9451   -6.4649    0.7556 H         1 ALA         0.1883
    189 H61        -2.4044   -4.9455    3.2709 H         1 ALA         0.0797
    190 H62        -1.6963   -2.8495    2.1541 H         1 ALA         0.0277
    191 H63        -1.1982   -3.7947    0.7102 H         1 ALA         0.0277
    192 H64        -0.3505   -4.0329    2.2760 H         1 ALA         0.0277
    193 H65        -4.4031   -4.2164    3.4378 H         1 ARG         0.1883
    194 H66        -6.3604   -4.7357    1.4029 H         1 ARG         0.0800
    195 H67        -7.9180   -3.5640    2.8908 H         1 ARG         0.0313
    196 H68        -6.5435   -2.9154    3.8482 H         1 ARG         0.0313
    197 H69        -5.9212   -5.2110    4.5033 H         1 ARG         0.0301
    198 H70        -7.3036   -5.8539    3.5533 H         1 ARG         0.0301
    199 H71        -8.8834   -4.6517    4.9722 H         1 ARG         0.0689
    200 H72        -7.5312   -3.8929    5.8791 H         1 ARG         0.0689
    201 H73        -7.4815   -5.7730    7.2110 H         1 ARG         0.2642
    202 H74        -9.0328   -8.3571    4.4788 H         1 ARG         0.2615
    203 H75        -8.7723   -6.6519    4.0236 H         1 ARG         0.2615
    204 H76        -7.8128   -7.9422    7.7740 H         1 ARG         0.2615
    205 H77        -8.5011   -9.0794    6.5842 H         1 ARG         0.2615
    206 H78        -6.7403   -3.6031   -0.3748 H         1 MLY         0.1883
    207 H79        -5.6140   -0.9010   -0.6461 H         1 MLY         0.0800
    208 H80        -5.3522   -2.5203   -2.4755 H         1 MLY         0.0312
    209 H81        -6.2950   -1.0826   -2.9958 H         1 MLY         0.0312
    210 H82        -8.3927   -2.4171   -2.6317 H         1 MLY         0.0269
    211 H83        -7.3613   -3.8539   -2.3177 H         1 MLY         0.0269
    212 H84        -8.1587   -3.8162   -4.6455 H         1 MLY         0.0317
    213 H85        -6.3725   -3.6437   -4.5644 H         1 MLY         0.0317
    214 H86        -6.5353   -1.2447   -4.9244 H         1 MLY         0.0814
    215 H87        -8.3282   -1.3146   -4.8386 H         1 MLY         0.0814
    216 H88        -7.4865   -1.1934   -7.1020 H         1 MLY         0.2028
    217 H89        -6.4669   -2.9613   -8.1147 H         1 MLY         0.0777
    218 H90        -6.4092   -3.7705   -6.5121 H         1 MLY         0.0777
    219 H91        -5.4929   -2.2495   -6.7837 H         1 MLY         0.0777
    220 H92        -9.4852   -2.1732   -6.6063 H         1 MLY         0.0777
    221 H93        -8.6070   -3.7288   -6.4186 H         1 MLY         0.0777
    222 H94        -8.6610   -2.9153   -8.0192 H         1 MLY         0.0777
    223 H95        -7.9297   -1.4152    1.1666 H         1 SER         0.1884
    224 H96       -10.0000   -0.5263    1.6836 H         1 SER         0.0823
    225 H97        -8.8839    1.7582   -0.0193 H         1 SER         0.0606
    226 H98        -8.5763    1.4982    1.7313 H         1 SER         0.0606
    227 H99       -11.1191    1.9604    0.5289 H         1 SER         0.2097
    228 H100      -10.2073   -2.3266   -0.3858 H         1 THR         0.1884
    229 H101      -11.4137   -1.3588   -2.7607 H         1 THR         0.0826
    230 H102      -11.9139   -4.0167   -1.3246 H         1 THR         0.0639
    231 H103      -10.2689   -4.7225   -2.8094 H         1 THR         0.2101
    232 H104      -12.5262   -4.8472   -3.5733 H         1 THR         0.0257
    233 H105      -12.3219   -3.1915   -4.2394 H         1 THR         0.0257
    234 H106      -13.6168   -3.5234   -3.0395 H         1 THR         0.0257
    235 H107      -12.9742   -2.6804    0.2047 H         1 GLY         0.1881
    236 H108      -15.0035   -0.7552    0.3667 H         1 GLY         0.0763
    237 H109      -15.1224   -2.4271    1.0126 H         1 GLY         0.0763
    238 H110      -17.0730   -0.5515   -0.3974 H         1 GLY         0.1881
    239 H111      -17.6458   -1.3734   -3.0022 H         1 GLY         0.0763
    240 H112      -18.8794   -0.8551   -1.8038 H         1 GLY         0.0763
    241 H113      -18.3904   -3.1363   -3.9513 H         1 LYS         0.1883
    242 H114      -18.6967   -5.5822   -2.4501 H         1 LYS         0.0800
    243 H115      -20.8969   -4.6075   -1.9618 H         1 LYS         0.0312
    244 H116      -21.0398   -6.0508   -3.0216 H         1 LYS         0.0312
    245 H117      -21.3066   -4.5678   -4.9824 H         1 LYS         0.0269
    246 H118      -21.2023   -3.1368   -3.9016 H         1 LYS         0.0269
    247 H119      -23.2070   -3.8880   -2.6910 H         1 LYS         0.0317
    248 H120      -23.3025   -5.3471   -3.7344 H         1 LYS         0.0317
    249 H121      -24.8786   -3.6234   -4.4863 H         1 LYS         0.0813
    250 H122      -23.6022   -3.9110   -5.7170 H         1 LYS         0.0813
    251 H123      -24.0261   -1.5767   -5.3913 H         1 LYS         0.1994
    252 H124      -22.4923   -1.9397   -4.9169 H         1 LYS         0.1994
    253 H125      -23.6620   -1.6762   -3.7891 H         1 LYS         0.1994
    254 H126      -18.3400   -7.3073   -3.7281 H         1 ALA         0.1883
    255 H127      -17.2887   -6.9394   -6.3327 H         1 ALA         0.0797
    256 H128      -17.3256   -9.4108   -6.4844 H         1 ALA         0.0277
    257 H129      -18.3620   -9.4782   -5.0188 H         1 ALA         0.0277
    258 H130      -16.6857   -8.8426   -4.9050 H         1 ALA         0.0277
    259 H131      -20.9333   -6.6300   -8.8245 H         1 PRO         0.0802
    260 H132      -19.5828   -5.8050  -10.5515 H         1 PRO         0.0313
    261 H133      -19.7982   -7.4480  -11.2449 H         1 PRO         0.0313
    262 H134      -17.3563   -6.4783  -10.7336 H         1 PRO         0.0287
    263 H135      -17.7489   -8.2045  -10.4287 H         1 PRO         0.0287
    264 H136      -16.9659   -7.6256   -8.3021 H         1 PRO         0.0524
    265 H137      -17.4868   -5.9142   -8.4638 H         1 PRO         0.0524
    266 H138      -18.8674   -9.5334   -9.2565 H         1 GLY         0.1881
    267 H139      -20.9967  -11.3374   -8.6745 H         1 GLY         0.0763
    268 H140      -19.4232  -11.7648   -9.4284 H         1 GLY         0.0763
    269 H141      -22.4280  -12.4211   -9.9025 H         1 GLY         0.1873
    270 H142      -22.1758  -12.8322  -12.7110 H         1 GLY         0.0689
    271 H143      -23.2102  -11.3945  -12.4111 H         1 GLY         0.0689
@<TRIPOS>BOND
     1    1    2 1  
     2    2    3 1  
     3    2    5 1  
     4    3    4 2  
     5    3    6 am 
     6    6    7 1  
     7    7    8 1  
     8    7   10 1  
     9    8    9 2  
    10    8   17 am 
    11   10   11 1  
    12   11   12 1  
    13   12   13 1  
    14   13   14 ar 
    15   14   15 ar 
    16   14   16 ar 
    17   17   18 1  
    18   18   19 1  
    19   18   21 1  
    20   19   20 2  
    21   19   24 am 
    22   21   22 1  
    23   21   23 1  
    24   24   25 1  
    25   25   26 1  
    26   25   33 1  
    27   26   27 1  
    28   27   28 1  
    29   28   29 1  
    30   29   30 1  
    31   30   31 1  
    32   30   32 1  
    33   33   34 2  
    34   33   35 am 
    35   35   36 1  
    36   36   37 1  
    37   36   39 1  
    38   37   38 2  
    39   37   44 am 
    40   39   40 1  
    41   40   41 1  
    42   41   42 2  
    43   41   43 am 
    44   44   45 1  
    45   45   46 1  
    46   45   48 1  
    47   46   47 2  
    48   46   51 am 
    49   48   49 1  
    50   48   50 1  
    51   51   52 1  
    52   52   53 1  
    53   52   55 1  
    54   53   54 2  
    55   53   56 am 
    56   56   57 1  
    57   57   58 1  
    58   57   60 1  
    59   58   59 2  
    60   58   67 am 
    61   60   61 1  
    62   61   62 1  
    63   62   63 1  
    64   63   64 ar 
    65   64   65 ar 
    66   64   66 ar 
    67   67   68 1  
    68   68   69 1  
    69   68   76 1  
    70   69   70 1  
    71   70   71 1  
    72   71   72 1  
    73   72   73 1  
    74   73   74 1  
    75   73   75 1  
    76   76   77 2  
    77   76   78 am 
    78   78   79 1  
    79   79   80 1  
    80   79   82 1  
    81   80   81 2  
    82   80   84 am 
    83   82   83 1  
    84   84   85 1  
    85   85   86 1  
    86   85   88 1  
    87   86   87 2  
    88   86   91 am 
    89   88   89 1  
    90   88   90 1  
    91   91   92 1  
    92   92   93 1  
    93   93   94 2  
    94   93   95 am 
    95   95   96 1  
    96   96   97 1  
    97   97   98 2  
    98   97   99 am 
    99   99  100 1  
   100  100  101 1  
   101  100  103 1  
   102  101  102 2  
   103  101  108 am 
   104  103  104 1  
   105  104  105 1  
   106  105  106 1  
   107  106  107 1  
   108  108  109 1  
   109  109  110 1  
   110  109  112 1  
   111  110  111 2  
   112  110  113 am 
   113  113  114 1  
   114  113  119 1  
   115  114  115 1  
   116  114  117 1  
   117  115  116 2  
   118  115  120 am 
   119  117  118 1  
   120  118  119 1  
   121  120  121 1  
   122  121  122 1  
   123  122  123 2  
   124  122  124 am 
   125  124  125 1  
   126  125  126 1  
   127  126  127 ar 
   128  126  128 ar 
   129    1  129 1  
   130    1  130 1  
   131    1  131 1  
   132    2  132 1  
   133    5  133 1  
   134    5  134 1  
   135    5  135 1  
   136    6  136 1  
   137    7  137 1  
   138   10  138 1  
   139   10  139 1  
   140   11  140 1  
   141   11  141 1  
   142   12  142 1  
   143   12  143 1  
   144   13  144 1  
   145   15  145 1  
   146   15  146 1  
   147   16  147 1  
   148   16  148 1  
   149   17  149 1  
   150   18  150 1  
   151   21  151 1  
   152   22  152 1  
   153   23  153 1  
   154   23  154 1  
   155   23  155 1  
   156   24  156 1  
   157   25  157 1  
   158   26  158 1  
   159   26  159 1  
   160   27  160 1  
   161   27  161 1  
   162   28  162 1  
   163   28  163 1  
   164   29  164 1  
   165   29  165 1  
   166   30  166 1  
   167   31  167 1  
   168   31  168 1  
   169   31  169 1  
   170   32  170 1  
   171   32  171 1  
   172   32  172 1  
   173   35  173 1  
   174   36  174 1  
   175   39  175 1  
   176   39  176 1  
   177   40  177 1  
   178   40  178 1  
   179   43  179 1  
   180   43  180 1  
   181   44  181 1  
   182   45  182 1  
   183   48  183 1  
   184   49  184 1  
   185   50  185 1  
   186   50  186 1  
   187   50  187 1  
   188   51  188 1  
   189   52  189 1  
   190   55  190 1  
   191   55  191 1  
   192   55  192 1  
   193   56  193 1  
   194   57  194 1  
   195   60  195 1  
   196   60  196 1  
   197   61  197 1  
   198   61  198 1  
   199   62  199 1  
   200   62  200 1  
   201   63  201 1  
   202   65  202 1  
   203   65  203 1  
   204   66  204 1  
   205   66  205 1  
   206   67  206 1  
   207   68  207 1  
   208   69  208 1  
   209   69  209 1  
   210   70  210 1  
   211   70  211 1  
   212   71  212 1  
   213   71  213 1  
   214   72  214 1  
   215   72  215 1  
   216   73  216 1  
   217   74  217 1  
   218   74  218 1  
   219   74  219 1  
   220   75  220 1  
   221   75  221 1  
   222   75  222 1  
   223   78  223 1  
   224   79  224 1  
   225   82  225 1  
   226   82  226 1  
   227   83  227 1  
   228   84  228 1  
   229   85  229 1  
   230   88  230 1  
   231   89  231 1  
   232   90  232 1  
   233   90  233 1  
   234   90  234 1  
   235   91  235 1  
   236   92  236 1  
   237   92  237 1  
   238   95  238 1  
   239   96  239 1  
   240   96  240 1  
   241   99  241 1  
   242  100  242 1  
   243  103  243 1  
   244  103  244 1  
   245  104  245 1  
   246  104  246 1  
   247  105  247 1  
   248  105  248 1  
   249  106  249 1  
   250  106  250 1  
   251  107  251 1  
   252  107  252 1  
   253  107  253 1  
   254  108  254 1  
   255  109  255 1  
   256  112  256 1  
   257  112  257 1  
   258  112  258 1  
   259  114  259 1  
   260  117  260 1  
   261  117  261 1  
   262  118  262 1  
   263  118  263 1  
   264  119  264 1  
   265  119  265 1  
   266  120  266 1  
   267  121  267 1  
   268  121  268 1  
   269  124  269 1  
   270  125  270 1  
   271  125  271 1  
@<TRIPOS>SUBSTRUCTURE
     1 ALA         1

