### 
### Created by X-TOOL on Mon Sep 10 21:13:06 2018
### 

@<TRIPOS>MOLECULE
3ro0_ligand
   30    34     1     0     0
SMALL
GAST_HUCK


@<TRIPOS>ATOM
      1 PT1        25.1930   -4.6850   23.7280 Pt        1 TPT         2.0000
      2 N1         25.7830   -5.8210   25.3020 N.ar      1 TPT        -0.2877
      3 N2         27.0530   -5.1900   23.1760 N.ar      1 TPT        -0.2796
      4 N3         25.3670   -3.7160   21.8940 N.ar      1 TPT        -0.2877
      5 C1         24.9930   -6.0700   26.3810 C.ar      1 TPT         0.0122
      6 C2         25.4320   -6.8040   27.4450 C.ar      1 TPT        -0.0327
      7 C3         26.7370   -7.3000   27.3810 C.ar      1 TPT        -0.0402
      8 C4         27.5120   -7.0540   26.2820 C.ar      1 TPT        -0.0235
      9 C5         27.0660   -6.3040   25.2030 C.ar      1 TPT         0.0704
     10 C6         27.8220   -5.9550   23.9480 C.ar      1 TPT         0.0706
     11 C7         29.1130   -6.3160   23.5760 C.ar      1 TPT        -0.0229
     12 C8         29.6260   -5.8620   22.3440 C.ar      1 TPT        -0.0387
     13 C9         28.8710   -5.0570   21.5110 C.ar      1 TPT        -0.0229
     14 C10        27.5650   -4.7200   21.9430 C.ar      1 TPT         0.0706
     15 C11        26.5890   -3.8760   21.2370 C.ar      1 TPT         0.0704
     16 C12        26.8190   -3.2450   19.9860 C.ar      1 TPT        -0.0235
     17 C13        25.8140   -2.4560   19.4150 C.ar      1 TPT        -0.0402
     18 C14        24.5400   -2.2760   20.0800 C.ar      1 TPT        -0.0327
     19 C15        24.3950   -2.9530   21.3330 C.ar      1 TPT         0.0122
     20 H1         23.9842   -5.6735   26.3964 H         1 TPT         0.0832
     21 H2         24.7961   -6.9938   28.3021 H         1 TPT         0.0719
     22 H3         27.1356   -7.8811   28.2047 H         1 TPT         0.0740
     23 H4         28.5161   -7.4615   26.2522 H         1 TPT         0.0732
     24 H5         29.7171   -6.9389   24.2257 H         1 TPT         0.0738
     25 H6         30.6278   -6.1484   22.0450 H         1 TPT         0.0739
     26 H7         29.2627   -4.6985   20.5659 H         1 TPT         0.0738
     27 H8         27.7671   -3.3736   19.4764 H         1 TPT         0.0732
     28 H9         25.9917   -1.9726   18.4612 H         1 TPT         0.0740
     29 H10        23.7483   -1.6685   19.6567 H         1 TPT         0.0719
     30 H11        23.4554   -2.8503   21.8638 H         1 TPT         0.0832
@<TRIPOS>BOND
     1    2    5 ar 
     2    9    2 ar 
     3    3   10 ar 
     4   14    3 ar 
     5   15    4 ar 
     6    4   19 ar 
     7    5    6 ar 
     8    7    6 ar 
     9    8    7 ar 
    10    9    8 ar 
    11   10    9 1  
    12   10   11 ar 
    13   12   11 ar 
    14   13   12 ar 
    15   14   13 ar 
    16   15   14 1  
    17   15   16 ar 
    18   16   17 ar 
    19   17   18 ar 
    20   18   19 ar 
    21    5   20 1  
    22    6   21 1  
    23    7   22 1  
    24    8   23 1  
    25   11   24 1  
    26   12   25 1  
    27   13   26 1  
    28   16   27 1  
    29   17   28 1  
    30   18   29 1  
    31   19   30 1  
    32    3    1 1  
    33    2    1 1  
    34    4    1 1  
@<TRIPOS>SUBSTRUCTURE
     1 TPT         1

