3ro0_ligand
  -I-interpret- 

 30 34  0  0  0  0  0  0  0  0999 V2000
   25.1930   -4.6850   23.7280 Pt  0  0  0  0  0
   25.7830   -5.8210   25.3020 N   0  0  0  0  0
   27.0530   -5.1900   23.1760 N   0  0  0  0  0
   25.3670   -3.7160   21.8940 N   0  0  0  0  0
   24.9930   -6.0700   26.3810 C   0  0  0  0  0
   25.4320   -6.8040   27.4450 C   0  0  0  0  0
   26.7370   -7.3000   27.3810 C   0  0  0  0  0
   27.5120   -7.0540   26.2820 C   0  0  0  0  0
   27.0660   -6.3040   25.2030 C   0  0  0  0  0
   27.8220   -5.9550   23.9480 C   0  0  0  0  0
   29.1130   -6.3160   23.5760 C   0  0  0  0  0
   29.6260   -5.8620   22.3440 C   0  0  0  0  0
   28.8710   -5.0570   21.5110 C   0  0  0  0  0
   27.5650   -4.7200   21.9430 C   0  0  0  0  0
   26.5890   -3.8760   21.2370 C   0  0  0  0  0
   26.8190   -3.2450   19.9860 C   0  0  0  0  0
   25.8140   -2.4560   19.4150 C   0  0  0  0  0
   24.5400   -2.2760   20.0800 C   0  0  0  0  0
   24.3950   -2.9530   21.3330 C   0  0  0  0  0
   23.9786   -5.6713   26.3965 H   0  0  0  0  0
   24.7926   -6.9949   28.3069 H   0  0  0  0  0
   27.1378   -7.8843   28.2092 H   0  0  0  0  0
   28.5216   -7.4638   26.2521 H   0  0  0  0  0
   29.7205   -6.9423   24.2293 H   0  0  0  0  0
   30.6334   -6.1500   22.0434 H   0  0  0  0  0
   29.2649   -4.6965   20.5607 H   0  0  0  0  0
   27.7723   -3.3743   19.4736 H   0  0  0  0  0
   25.9926   -1.9699   18.4559 H   0  0  0  0  0
   23.7439   -1.6652   19.6544 H   0  0  0  0  0
   23.4503   -2.8498   21.8668 H   0  0  0  0  0
  2  5  4  0  0  0
  9  2  4  0  0  0
  3 10  4  0  0  0
 14  3  4  0  0  0
 15  4  4  0  0  0
  4 19  4  0  0  0
  5  6  4  0  0  0
  7  6  4  0  0  0
  8  7  4  0  0  0
  9  8  4  0  0  0
 10  9  1  0  0  0
 10 11  4  0  0  0
 12 11  4  0  0  0
 13 12  4  0  0  0
 14 13  4  0  0  0
 15 14  1  0  0  0
 15 16  4  0  0  0
 16 17  4  0  0  0
 17 18  4  0  0  0
 18 19  4  0  0  0
  3  1  1  0  0  0
  2  1  1  0  0  0
  4  1  1  0  0  0
  5 20  1  0  0  0
  6 21  1  0  0  0
  7 22  1  0  0  0
  8 23  1  0  0  0
 11 24  1  0  0  0
 12 25  1  0  0  0
 13 26  1  0  0  0
 16 27  1  0  0  0
 17 28  1  0  0  0
 18 29  1  0  0  0
 19 30  1  0  0  0
M  END
$$$$
