5ak3_ligand
  -I-interpret- 

 22 23  0  0  0  0  0  0  0  0999 V2000
  -13.8210  -13.9230   26.9620 C   0  0  0  0  0
  -13.0560  -14.6210   27.9840 C   0  0  0  0  0
  -11.9430  -13.8950   28.6260 C   0  0  0  0  0
  -11.5820  -12.5070   28.2490 C   0  0  0  0  0
  -12.3610  -11.8390   27.2230 C   0  0  0  0  0
  -13.5090  -12.5350   26.5480 C   0  0  0  0  0
  -11.8030  -10.4470   27.0280 C   0  0  0  0  0
  -10.5860  -10.3240   27.9860 C   0  0  0  0  0
  -10.4680  -11.6080   28.7930 C   0  0  0  0  0
   -9.3600  -10.2620   27.2300 N   0  3  0  0  0
  -14.6533  -14.4396   26.4839 H   0  0  0  0  0
  -13.2969  -15.6459   28.2661 H   0  0  0  0  0
  -11.3667  -14.3961   29.4037 H   0  0  0  0  0
  -14.0945  -12.0339   25.7771 H   0  0  0  0  0
  -12.5545   -9.6896   27.2511 H   0  0  0  0  0
  -11.5031  -10.2874   25.9923 H   0  0  0  0  0
  -10.7319   -9.4364   28.6016 H   0  0  0  0  0
   -9.4850  -12.0672   28.6885 H   0  0  0  0  0
  -10.5735  -11.4290   29.8630 H   0  0  0  0  0
   -8.5705  -10.1815   27.8708 H   0  0  0  0  0
   -9.2621  -11.1108   26.6730 H   0  0  0  0  0
   -9.3830   -9.4499   26.6132 H   0  0  0  0  0
  1  2  4  0  0  0
  1  6  4  0  0  0
  2  3  4  0  0  0
  3  4  4  0  0  0
  4  5  4  0  0  0
  4  9  1  0  0  0
  5  6  4  0  0  0
  5  7  1  0  0  0
  7  8  1  0  0  0
  8  9  1  0  0  0
  8 10  1  0  0  0
  1 11  1  0  0  0
  2 12  1  0  0  0
  3 13  1  0  0  0
  6 14  1  0  0  0
  7 15  1  0  0  0
  7 16  1  0  0  0
  8 17  1  0  0  0
  9 18  1  0  0  0
  9 19  1  0  0  0
 10 20  1  0  0  0
 10 21  1  0  0  0
 10 22  1  0  0  0
M  END
$$$$
