3eio_ligand
  -I-interpret- 

 58 60  0  0  0  0  0  0  0  0999 V2000
   47.1420   12.6010   25.7920 C   0  0  0  0  0
   48.2620   13.3960   26.0230 C   0  0  0  0  0
   49.4480   12.8340   26.4830 C   0  0  0  0  0
   50.6800   13.7150   26.7320 C   0  0  0  0  0
   51.3530   13.5240   27.7710 O   0  0  0  0  0
   50.9230   14.6170   25.9020 O   0  0  0  0  0
   49.5030   11.4630   26.7020 C   0  0  0  0  0
   48.3860   10.6680   26.4550 C   0  0  0  0  0
   47.1800   11.2160   25.9980 C   0  0  0  0  0
   46.0970   10.4340   25.9740 C   0  0  0  0  0
   46.3140    9.2230   25.9940 O   0  0  0  0  0
   44.8490   10.8940   25.8590 N   0  0  0  0  0
   44.5380   12.3120   26.0820 C   0  0  0  0  0
   44.3550   12.5150   27.5900 C   0  0  0  0  0
   43.7150    9.9610   25.7600 C   0  0  0  0  0
   43.3280    9.3210   27.0980 C   0  0  0  0  0
   43.6260   10.1780   28.3340 C   0  0  0  0  0
   43.3280   11.6040   28.1220 N   0  0  0  0  0
   42.1270   12.1140   28.4300 C   0  0  0  0  0
   41.8570   13.3010   28.2770 O   0  0  0  0  0
   41.0720   11.1610   29.0030 C   0  0  0  0  0
   39.7140   11.8580   29.1450 C   0  0  0  0  0
   38.7830   11.0590   29.9550 N   0  3  0  0  0
   39.1140   12.1380   27.7660 C   0  0  0  0  0
   37.6740   12.6500   27.8790 C   0  0  0  0  0
   37.5060   13.9820   28.2430 C   0  0  0  0  0
   36.2430   14.5630   28.3470 C   0  0  0  0  0
   36.1480   15.8530   28.7240 F   0  0  0  0  0
   35.1200   13.7810   28.0760 C   0  0  0  0  0
   33.8770   14.2970   28.0310 F   0  0  0  0  0
   35.2830   12.4410   27.7350 C   0  0  0  0  0
   36.5480   11.8800   27.6290 C   0  0  0  0  0
   36.6430   10.5820   27.2530 F   0  0  0  0  0
   46.2190   13.0651   25.4445 H   0  0  0  0  0
   48.2084   14.4694   25.8414 H   0  0  0  0  0
   50.9865   12.7812   28.2563 H   0  0  0  0  0
   50.4233   11.0080   27.0683 H   0  0  0  0  0
   48.4518    9.5928   26.6214 H   0  0  0  0  0
   43.6295   12.5904   25.5480 H   0  0  0  0  0
   45.3459   12.9415   25.7090 H   0  0  0  0  0
   44.0389   13.5426   27.7695 H   0  0  0  0  0
   45.3012   12.3062   28.0891 H   0  0  0  0  0
   44.0114    9.1567   25.0867 H   0  0  0  0  0
   42.8539   10.5294   25.4085 H   0  0  0  0  0
   43.9197    8.4108   27.1951 H   0  0  0  0  0
   42.2492    9.1669   27.0736 H   0  0  0  0  0
   44.6895   10.0877   28.5554 H   0  0  0  0  0
   42.9950    9.8217   29.1483 H   0  0  0  0  0
   41.3992   10.8323   29.9894 H   0  0  0  0  0
   40.9602   10.3164   28.3231 H   0  0  0  0  0
   39.8763   12.8050   29.6598 H   0  0  0  0  0
   37.8919   11.5496   30.0296 H   0  0  0  0  0
   38.6375   10.1532   29.5092 H   0  0  0  0  0
   39.1760   10.9218   30.8862 H   0  0  0  0  0
   39.1084   11.2096   27.1950 H   0  0  0  0  0
   39.7163   12.9018   27.2741 H   0  0  0  0  0
   38.3869   14.5887   28.4529 H   0  0  0  0  0
   34.4043   11.8235   27.5486 H   0  0  0  0  0
  1  2  4  0  0  0
  1  9  4  0  0  0
  2  3  4  0  0  0
  3  4  1  0  0  0
  3  7  4  0  0  0
  4  5  1  0  0  0
  4  6  2  0  0  0
  7  8  4  0  0  0
  8  9  4  0  0  0
  9 10  1  0  0  0
 10 11  2  0  0  0
 10 12  1  0  0  0
 12 13  1  0  0  0
 12 15  1  0  0  0
 13 14  1  0  0  0
 14 18  1  0  0  0
 15 16  1  0  0  0
 16 17  1  0  0  0
 17 18  1  0  0  0
 18 19  1  0  0  0
 19 20  2  0  0  0
 19 21  1  0  0  0
 21 22  1  0  0  0
 22 23  1  0  0  0
 22 24  1  0  0  0
 24 25  1  0  0  0
 25 26  4  0  0  0
 25 32  4  0  0  0
 26 27  4  0  0  0
 27 28  1  0  0  0
 27 29  4  0  0  0
 29 30  1  0  0  0
 29 31  4  0  0  0
 31 32  4  0  0  0
 32 33  1  0  0  0
  1 34  1  0  0  0
  2 35  1  0  0  0
  5 36  1  0  0  0
  7 37  1  0  0  0
  8 38  1  0  0  0
 13 39  1  0  0  0
 13 40  1  0  0  0
 14 41  1  0  0  0
 14 42  1  0  0  0
 15 43  1  0  0  0
 15 44  1  0  0  0
 16 45  1  0  0  0
 16 46  1  0  0  0
 17 47  1  0  0  0
 17 48  1  0  0  0
 21 49  1  0  0  0
 21 50  1  0  0  0
 22 51  1  0  0  0
 23 52  1  0  0  0
 23 53  1  0  0  0
 23 54  1  0  0  0
 24 55  1  0  0  0
 24 56  1  0  0  0
 26 57  1  0  0  0
 31 58  1  0  0  0
M  END
$$$$
