4u0i_ligand
  -I-interpret- 

 68 72  0  0  0  0  0  0  0  0999 V2000
   34.5450   14.9950   38.5350 N   0  0  0  0  0
   35.3820    6.6870   52.5870 N   0  3  0  0  0
   35.2620   10.9050   40.8230 C   0  0  0  0  0
   34.9380    9.6780   41.5510 C   0  0  0  0  0
   34.4960    8.4170   40.9130 C   0  0  0  0  0
   34.1880    7.2550   41.7570 C   0  0  0  0  0
   34.3190    7.3560   43.2100 C   0  0  0  0  0
   35.0580    9.7460   42.9550 C   0  0  0  0  0
   34.6850    7.7090   47.4910 C   0  0  0  0  0
   34.9570    6.4910   49.6580 C   0  0  0  0  0
   33.9920    8.8310   49.6560 C   0  0  0  0  0
   34.3120    7.4800   51.9630 C   0  0  0  0  0
   36.7400    7.3360   52.5280 C   0  0  0  0  0
   37.8400    6.3420   53.0320 C   0  0  0  0  0
   35.0350    6.1990   53.9750 C   0  0  0  0  0
   36.8240   15.9620   37.9630 C   0  0  0  0  0
   38.1890   15.6700   38.1020 C   0  0  0  0  0
   38.6010   14.4420   38.7700 C   0  0  0  0  0
   37.7650   13.5240   39.2940 N   0  0  0  0  0
   36.4350   13.8600   39.1340 N   0  0  0  0  0
   35.8650   15.0310   38.4970 C   0  0  0  0  0
   34.2230   13.8230   39.1930 C   0  0  0  0  0
   35.3520   13.1430   39.5490 C   0  0  0  0  0
   35.3660   11.9400   40.2250 C   0  0  0  0  0
   34.7600    8.6200   43.8100 C   0  0  0  0  0
   34.3390    8.2910   39.3860 C   0  0  0  0  0
   34.9140    8.8350   45.2770 C   0  0  0  0  0
   35.0780    9.9780   45.6940 O   0  0  0  0  0
   34.8330    7.7340   46.0670 N   0  0  0  0  0
   35.0950    6.5350   48.2150 C   0  0  0  0  0
   34.4140    7.6170   50.4070 C   0  0  0  0  0
   34.1410    8.8330   48.2360 C   0  0  0  0  0
   33.4080   10.1070   50.3060 C   0  0  0  0  0
   34.3540   10.7030   51.0250 F   0  0  0  0  0
   32.9700   10.9910   49.4120 F   0  0  0  0  0
   32.3530    9.7900   51.0610 F   0  0  0  0  0
   36.1900    5.3120   54.6120 C   0  0  0  0  0
   38.6690    5.1440   55.0120 C   0  0  0  0  0
   37.5700    5.9440   54.4460 N   0  3  0  0  0
   35.4534    5.8545   52.0020 H   0  0  0  0  0
   33.8626    6.3197   41.3015 H   0  0  0  0  0
   34.0906    6.4983   43.8427 H   0  0  0  0  0
   35.3868   10.6801   43.4104 H   0  0  0  0  0
   35.2668    5.5945   50.1951 H   0  0  0  0  0
   34.3855    8.4870   52.3736 H   0  0  0  0  0
   33.3745    6.9653   52.1734 H   0  0  0  0  0
   36.7399    8.2198   53.1659 H   0  0  0  0  0
   36.9571    7.6137   51.4966 H   0  0  0  0  0
   38.8127    6.8310   52.9794 H   0  0  0  0  0
   37.8300    5.4515   52.4035 H   0  0  0  0  0
   34.1386    5.5833   53.9016 H   0  0  0  0  0
   34.8892    7.0711   54.6124 H   0  0  0  0  0
   36.4971   16.8732   37.4620 H   0  0  0  0  0
   38.9384   16.3587   37.7120 H   0  0  0  0  0
   39.6709   14.2507   38.8524 H   0  0  0  0  0
   33.2067   13.4875   39.3995 H   0  0  0  0  0
   33.6024    9.0146   39.0368 H   0  0  0  0  0
   35.2980    8.4864   38.9061 H   0  0  0  0  0
   34.0059    7.2831   39.1382 H   0  0  0  0  0
   34.8828    6.8301   45.5971 H   0  0  0  0  0
   35.5086    5.6802   47.6798 H   0  0  0  0  0
   33.8319    9.7203   47.6835 H   0  0  0  0  0
   36.1966    4.3497   54.1002 H   0  0  0  0  0
   35.9903    5.2149   55.6791 H   0  0  0  0  0
   38.7986    4.2374   54.4209 H   0  0  0  0  0
   39.5895    5.7275   54.9913 H   0  0  0  0  0
   38.4296    4.8770   56.0413 H   0  0  0  0  0
   37.5412    6.7962   55.0057 H   0  0  0  0  0
  1 21  4  0  0  0
 22  1  4  0  0  0
 12  2  1  0  0  0
  2 13  1  0  0  0
  2 15  1  0  0  0
  4  3  1  0  0  0
  3 24  3  0  0  0
  4  5  4  0  0  0
  8  4  4  0  0  0
  6  5  4  0  0  0
  5 26  1  0  0  0
  7  6  4  0  0  0
 25  7  4  0  0  0
 25  8  4  0  0  0
 29  9  1  0  0  0
  9 30  4  0  0  0
  9 32  4  0  0  0
 30 10  4  0  0  0
 10 31  4  0  0  0
 11 31  4  0  0  0
 32 11  4  0  0  0
 11 33  1  0  0  0
 31 12  1  0  0  0
 13 14  1  0  0  0
 14 39  1  0  0  0
 15 37  1  0  0  0
 16 17  4  0  0  0
 21 16  4  0  0  0
 18 17  4  0  0  0
 19 18  4  0  0  0
 20 19  4  0  0  0
 20 21  4  0  0  0
 23 20  4  0  0  0
 23 22  4  0  0  0
 24 23  1  0  0  0
 27 25  1  0  0  0
 27 28  2  0  0  0
 27 29  1  0  0  0
 33 34  1  0  0  0
 33 35  1  0  0  0
 33 36  1  0  0  0
 37 39  1  0  0  0
 39 38  1  0  0  0
  2 40  1  0  0  0
  6 41  1  0  0  0
  7 42  1  0  0  0
  8 43  1  0  0  0
 10 44  1  0  0  0
 12 45  1  0  0  0
 12 46  1  0  0  0
 13 47  1  0  0  0
 13 48  1  0  0  0
 14 49  1  0  0  0
 14 50  1  0  0  0
 15 51  1  0  0  0
 15 52  1  0  0  0
 16 53  1  0  0  0
 17 54  1  0  0  0
 18 55  1  0  0  0
 22 56  1  0  0  0
 26 57  1  0  0  0
 26 58  1  0  0  0
 26 59  1  0  0  0
 29 60  1  0  0  0
 30 61  1  0  0  0
 32 62  1  0  0  0
 37 63  1  0  0  0
 37 64  1  0  0  0
 38 65  1  0  0  0
 38 66  1  0  0  0
 38 67  1  0  0  0
 39 68  1  0  0  0
M  END
$$$$
