6ijh_ligand
  -I-interpret- 

 45 49  0  0  0  0  0  0  0  0999 V2000
  -20.0430  -12.5010   33.1640 C   0  0  0  0  0
  -19.3510  -11.2640   33.1850 C   0  0  0  0  0
  -18.8640  -10.7580   34.3560 C   0  0  0  0  0
  -19.0420  -11.4300   35.5560 C   0  0  0  0  0
  -19.7210  -12.6300   35.5890 C   0  0  0  0  0
  -20.2330  -13.1890   34.3960 C   0  0  0  0  0
  -20.9590  -14.4030   34.4130 C   0  0  0  0  0
  -21.4560  -14.9250   33.2370 C   0  0  0  0  0
  -21.2600  -14.2600   32.0330 C   0  0  0  0  0
  -20.5780  -13.0770   31.9830 C   0  0  0  0  0
  -19.9620  -13.3040   36.8850 C   0  0  0  0  0
  -20.7440  -14.4670   36.8630 N   0  0  0  0  0
  -21.2280  -15.0870   35.6990 C   0  0  0  0  0
  -21.8170  -16.1480   35.7610 O   0  0  0  0  0
  -19.5030  -12.8910   37.9340 O   0  0  0  0  0
  -21.2940  -14.8910   38.1750 C   0  0  0  0  0
  -21.7470  -16.3420   38.2820 C   0  0  0  0  0
  -21.6890  -16.8600   39.6820 C   0  0  0  0  0
  -22.3100  -16.2720   40.7890 N   0  0  0  0  0
  -22.0170  -17.0660   41.8780 C   0  0  0  0  0
  -21.2780  -18.0520   41.3670 N   0  0  0  0  0
  -21.0620  -17.9440   40.0310 N   0  0  0  0  0
  -23.1600  -15.1040   40.8570 C   0  0  0  0  0
  -22.4650  -16.8300   43.4760 S   0  0  0  0  0
  -22.6240  -13.8290   40.6850 C   0  0  0  0  0
  -23.4610  -12.7230   40.7120 C   0  0  0  0  0
  -24.8120  -12.8740   40.9560 C   0  0  0  0  0
  -25.3350  -14.1330   41.1790 C   0  0  0  0  0
  -24.5180  -15.2510   41.1320 C   0  0  0  0  0
  -19.2062  -10.7111   32.2569 H   0  0  0  0  0
  -18.3263   -9.8099   34.3475 H   0  0  0  0  0
  -18.6431  -11.0074   36.4782 H   0  0  0  0  0
  -22.0063  -15.8657   33.2524 H   0  0  0  0  0
  -21.6569  -14.6891   31.1130 H   0  0  0  0  0
  -20.4438  -12.5712   31.0269 H   0  0  0  0  0
  -22.1832  -14.2830   38.3415 H   0  0  0  0  0
  -20.4846  -14.7724   38.8954 H   0  0  0  0  0
  -21.0775  -16.9483   37.6719 H   0  0  0  0  0
  -22.7829  -16.3956   37.9471 H   0  0  0  0  0
  -20.9084  -18.8184   41.9296 H   0  0  0  0  0
  -21.5526  -13.7015   40.5301 H   0  0  0  0  0
  -23.0498  -11.7284   40.5395 H   0  0  0  0  0
  -25.4646  -12.0011   40.9726 H   0  0  0  0  0
  -26.3975  -14.2476   41.3934 H   0  0  0  0  0
  -24.9361  -16.2419   41.3095 H   0  0  0  0  0
  1  2  4  0  0  0
  1  6  4  0  0  0
  1 10  4  0  0  0
  2  3  4  0  0  0
  3  4  4  0  0  0
  4  5  4  0  0  0
  5  6  4  0  0  0
  5 11  1  0  0  0
  6  7  4  0  0  0
  7  8  4  0  0  0
  7 13  1  0  0  0
  8  9  4  0  0  0
  9 10  4  0  0  0
 11 12  1  0  0  0
 11 15  2  0  0  0
 12 13  1  0  0  0
 12 16  1  0  0  0
 13 14  2  0  0  0
 16 17  1  0  0  0
 17 18  1  0  0  0
 18 19  1  0  0  0
 18 22  2  0  0  0
 19 20  1  0  0  0
 19 23  1  0  0  0
 20 21  1  0  0  0
 20 24  2  0  0  0
 21 22  1  0  0  0
 23 25  4  0  0  0
 23 29  4  0  0  0
 25 26  4  0  0  0
 26 27  4  0  0  0
 27 28  4  0  0  0
 28 29  4  0  0  0
  2 30  1  0  0  0
  3 31  1  0  0  0
  4 32  1  0  0  0
  8 33  1  0  0  0
  9 34  1  0  0  0
 10 35  1  0  0  0
 16 36  1  0  0  0
 16 37  1  0  0  0
 17 38  1  0  0  0
 17 39  1  0  0  0
 21 40  1  0  0  0
 25 41  1  0  0  0
 26 42  1  0  0  0
 27 43  1  0  0  0
 28 44  1  0  0  0
 29 45  1  0  0  0
M  END
$$$$
