2pvv_ligand
  -I-interpret- 

 16 15  0  0  0  0  0  0  0  0999 V2000
   16.1140   44.9720   43.0010 N   0  0  0  0  0
   15.8500   44.7730   41.6870 C   0  0  0  0  0
   14.4700   45.0540   41.2170 C   0  0  0  0  0
   14.6210   46.5040   41.2920 O   0  0  0  0  0
   16.8660   44.6740   40.6470 C   0  0  0  0  0
   17.7540   45.5610   40.6870 O   0  0  0  0  0
   13.9870   47.4220   40.1320 S   0  0  0  0  0
   14.4100   46.8740   38.8510 O   0  0  0  0  0
   14.4670   48.7770   40.3020 O   0  0  0  0  0
   12.5610   47.0900   40.2710 O   0  0  0  0  0
   16.7890   43.8970   39.6750 O   0  0  0  0  0
   17.0788   45.0632   43.3192 H   0  0  0  0  0
   13.6472   44.6038   41.7723 H   0  0  0  0  0
   14.1669   44.6278   40.2606 H   0  0  0  0  0
   17.6661   46.0638   41.5001 H   0  0  0  0  0
   12.2338   47.4326   41.1060 H   0  0  0  0  0
  1  2  2  0  0  0
  2  3  1  0  0  0
  2  5  1  0  0  0
  3  4  1  0  0  0
  4  7  1  0  0  0
  5  6  1  0  0  0
  5 11  2  0  0  0
  7  8  2  0  0  0
  7  9  2  0  0  0
  7 10  1  0  0  0
  1 12  1  0  0  0
  3 13  1  0  0  0
  3 14  1  0  0  0
  6 15  1  0  0  0
 10 16  1  0  0  0
M  END
$$$$
