### 
### Created by X-TOOL on Mon Sep 10 21:12:55 2018
### 

@<TRIPOS>MOLECULE
2pvv_ligand
   14    13     1     0     0
SMALL
GAST_HUCK


@<TRIPOS>ATOM
      1 N          16.1140   44.9720   43.0010 N.2       1 OSE        -0.3449
      2 CA         15.8500   44.7730   41.6870 C.2       1 OSE         0.0967
      3 CB         14.4700   45.0540   41.2170 C.3       1 OSE         0.1425
      4 OG         14.6210   46.5040   41.2920 O.3       1 OSE        -0.2427
      5 C          16.8660   44.6740   40.6470 C.2       1 OSE         0.1097
      6 O          17.7540   45.5610   40.6870 O.co2     1 OSE        -0.5470
      7 S          13.9870   47.4220   40.1320 S.o2      1 OSE        -0.0705
      8 O1S        14.4100   46.8740   38.8510 O.co2     1 OSE        -0.4610
      9 O2S        14.4670   48.7770   40.3020 O.co2     1 OSE        -0.4610
     10 O3S        12.5610   47.0900   40.2710 O.co2     1 OSE        -0.4610
     11 OXT        16.7890   43.8970   39.6750 O.co2     1 OSE        -0.5470
     12 H1         15.3570   45.0299   43.6640 H         1 OSE         0.1135
     13 H2         13.6955   44.6650   41.8944 H         1 OSE         0.0863
     14 H3         14.2795   44.6920   40.1959 H         1 OSE         0.0863
@<TRIPOS>BOND
     1    1    2 2  
     2    2    3 1  
     3    2    5 1  
     4    3    4 1  
     5    4    7 1  
     6    5    6 ar 
     7    5   11 ar 
     8    7    8 ar 
     9    7    9 ar 
    10    7   10 ar 
    11    1   12 1  
    12    3   13 1  
    13    3   14 1  
@<TRIPOS>SUBSTRUCTURE
     1 OSE         1

