6d6t_ligand
  -I-interpret- 

 36 38  0  0  0  0  0  0  0  0999 V2000
  123.9620  171.0260  157.0500 C   0  0  0  0  0
  123.6070  171.7740  155.8170 C   0  0  0  0  0
  122.4610  171.3290  153.8070 C   0  0  0  0  0
  121.4090  170.5410  153.1570 C   0  0  0  0  0
  120.3830  169.8190  153.6590 C   0  0  0  0  0
  119.8360  169.4580  154.9770 C   0  0  0  0  0
  119.5310  167.0680  154.5380 C   0  0  0  0  0
  118.5010  167.4460  153.5450 C   0  0  0  0  0
  118.5770  168.4840  152.6400 C   0  0  0  0  0
  120.3800  169.7480  151.4770 C   0  0  0  0  0
  117.5340  168.7480  151.7670 C   0  0  0  0  0
  116.4140  167.9590  151.7990 C   0  0  0  0  0
  116.3680  166.9480  152.7020 C   0  0  0  0  0
  117.3550  166.6620  153.5670 C   0  0  0  0  0
  121.1400  167.7210  156.1870 C   0  0  0  0  0
  115.2640  166.1680  152.7440 F   0  0  0  0  0
  120.1270  168.0590  155.1990 N   0  0  0  0  0
  119.7230  169.3080  152.5820 N   0  0  0  0  0
  121.4000  170.4970  151.7770 N   0  0  0  0  0
  122.7790  170.8820  155.0130 O   0  0  0  0  0
  122.9800  172.2860  153.3080 O   0  0  0  0  0
  119.7670  165.8950  154.7160 O   0  0  0  0  0
  123.0511  170.7540  157.5833 H   0  0  0  0  0
  124.5102  170.1232  156.7806 H   0  0  0  0  0
  124.5843  171.6538  157.6878 H   0  0  0  0  0
  124.5020  172.0722  155.2710 H   0  0  0  0  0
  123.0702  172.6913  156.0588 H   0  0  0  0  0
  118.7605  169.6331  155.0047 H   0  0  0  0  0
  120.2871  170.0701  155.7580 H   0  0  0  0  0
  120.0860  169.5016  150.4567 H   0  0  0  0  0
  117.6037  169.5757  151.0612 H   0  0  0  0  0
  115.5827  168.1390  151.1173 H   0  0  0  0  0
  117.2587  165.8342  154.2695 H   0  0  0  0  0
  120.6960  167.0953  156.9613 H   0  0  0  0  0
  121.9523  167.1797  155.7021 H   0  0  0  0  0
  121.5279  168.6357  156.6353 H   0  0  0  0  0
  2  1  1  0  0  0
 20  2  1  0  0  0
  4  3  1  0  0  0
  3 20  1  0  0  0
  3 21  2  0  0  0
  5  4  4  0  0  0
  4 19  4  0  0  0
  6  5  1  0  0  0
  5 18  4  0  0  0
 17  6  1  0  0  0
  7  8  1  0  0  0
  7 17  1  0  0  0
  7 22  2  0  0  0
  8  9  4  0  0  0
  8 14  4  0  0  0
  9 11  4  0  0  0
  9 18  1  0  0  0
 18 10  4  0  0  0
 10 19  4  0  0  0
 11 12  4  0  0  0
 12 13  4  0  0  0
 13 14  4  0  0  0
 13 16  1  0  0  0
 17 15  1  0  0  0
  1 23  1  0  0  0
  1 24  1  0  0  0
  1 25  1  0  0  0
  2 26  1  0  0  0
  2 27  1  0  0  0
  6 28  1  0  0  0
  6 29  1  0  0  0
 10 30  1  0  0  0
 11 31  1  0  0  0
 12 32  1  0  0  0
 14 33  1  0  0  0
 15 34  1  0  0  0
 15 35  1  0  0  0
 15 36  1  0  0  0
M  END
$$$$
