5q0p_ligand
  -I-interpret- 

 61 65  0  0  0  0  0  0  0  0999 V2000
   13.2160   24.1850    3.9470 N   0  0  0  0  0
   13.4990   25.6820    2.2890 N   0  0  0  0  0
   11.9940   24.8660    3.8110 C   0  0  0  0  0
   12.1930   25.7860    2.7800 C   0  0  0  0  0
   10.7890   24.7450    4.4920 C   0  0  0  0  0
   13.5760   23.0860    4.8930 C   0  0  0  0  0
   11.1430   26.6310    2.4020 C   0  0  0  0  0
   15.4560   24.2620    2.8250 C   0  0  0  0  0
   12.7070   21.8560    4.6300 C   0  0  0  0  0
   13.5840   23.5520    6.3530 C   0  0  0  0  0
   10.0300   19.0820    2.9600 C   0  0  0  0  0
   10.7710   19.7040    0.7660 C   0  0  0  0  0
   11.6390   20.8500    2.6930 C   0  0  0  0  0
   18.0590   23.3580    2.5020 C   0  0  0  0  0
   11.5960   20.6770    1.3150 C   0  0  0  0  0
   12.4730   21.8220    3.2040 O   0  0  0  0  0
   10.8520   20.0510    3.5150 C   0  0  0  0  0
    9.9760   18.8950    1.5790 C   0  0  0  0  0
    9.0880   17.8520    0.9840 C   0  0  0  0  0
    8.8890   17.9590   -0.2980 O   0  0  0  0  0
    8.5820   16.9590    1.6500 O   0  0  0  0  0
   13.9200   22.4180    7.3220 C   0  0  0  0  0
   13.9000   22.8890    8.7770 C   0  0  0  0  0
   14.8510   24.0520    9.0010 C   0  0  0  0  0
   14.5600   25.1980    8.0350 C   0  0  0  0  0
   14.5540   24.7170    6.5760 C   0  0  0  0  0
    9.7780   25.5850    4.1030 C   0  0  0  0  0
    9.9480   26.5040    3.0840 C   0  0  0  0  0
   14.0640   24.7240    3.0020 C   0  0  0  0  0
   15.7260   23.1170    2.0750 C   0  0  0  0  0
   17.0260   22.6620    1.9100 C   0  0  0  0  0
   17.8220   24.4900    3.2540 C   0  0  0  0  0
   16.5190   24.9370    3.4160 C   0  0  0  0  0
   19.6990   22.7930    2.3020 Cl  0  0  0  0  0
    8.9160   27.2930    2.7570 F   0  0  0  0  0
    8.5570   25.5080    4.7410 F   0  0  0  0  0
   10.6545   24.0195    5.2943 H   0  0  0  0  0
   14.6064   22.7848    4.7041 H   0  0  0  0  0
   11.2633   27.3605    1.6011 H   0  0  0  0  0
   11.7678   21.9146    5.1801 H   0  0  0  0  0
   13.2030   20.9461    4.9677 H   0  0  0  0  0
   12.5699   23.8935    6.5604 H   0  0  0  0  0
    9.4180   18.4583    3.6116 H   0  0  0  0  0
   10.7441   19.5703   -0.3154 H   0  0  0  0  0
   12.2083   21.3035    0.6664 H   0  0  0  0  0
   10.8813   20.1865    4.5962 H   0  0  0  0  0
    9.3699   18.7193   -0.6330 H   0  0  0  0  0
   14.9227   22.0573    7.0926 H   0  0  0  0  0
   13.1711   21.6346    7.2053 H   0  0  0  0  0
   14.2137   22.0603    9.4117 H   0  0  0  0  0
   12.8895   23.2188    9.0185 H   0  0  0  0  0
   15.8704   23.7051    8.8319 H   0  0  0  0  0
   14.7218   24.4154   10.0205 H   0  0  0  0  0
   15.3404   25.9506    8.1471 H   0  0  0  0  0
   13.5761   25.6048    8.2684 H   0  0  0  0  0
   14.2354   25.5481    5.9468 H   0  0  0  0  0
   15.5584   24.3734    6.3286 H   0  0  0  0  0
   14.9034   22.5720    1.6119 H   0  0  0  0  0
   17.2281   21.7674    1.3210 H   0  0  0  0  0
   18.6501   25.0275    3.7160 H   0  0  0  0  0
   16.3257   25.8279    4.0136 H   0  0  0  0  0
  1  3  4  0  0  0
  1  6  1  0  0  0
 29  1  4  0  0  0
  2  4  4  0  0  0
 29  2  4  0  0  0
  4  3  4  0  0  0
  3  5  4  0  0  0
  4  7  4  0  0  0
  5 27  4  0  0  0
  6  9  1  0  0  0
  6 10  1  0  0  0
  7 28  4  0  0  0
  8 29  1  0  0  0
 30  8  4  0  0  0
  8 33  4  0  0  0
  9 16  1  0  0  0
 10 22  1  0  0  0
 10 26  1  0  0  0
 17 11  4  0  0  0
 11 18  4  0  0  0
 15 12  4  0  0  0
 12 18  4  0  0  0
 13 15  4  0  0  0
 16 13  1  0  0  0
 13 17  4  0  0  0
 31 14  4  0  0  0
 14 32  4  0  0  0
 14 34  1  0  0  0
 18 19  1  0  0  0
 19 20  1  0  0  0
 19 21  2  0  0  0
 22 23  1  0  0  0
 23 24  1  0  0  0
 25 24  1  0  0  0
 26 25  1  0  0  0
 28 27  4  0  0  0
 27 36  1  0  0  0
 28 35  1  0  0  0
 30 31  4  0  0  0
 32 33  4  0  0  0
  5 37  1  0  0  0
  6 38  1  0  0  0
  7 39  1  0  0  0
  9 40  1  0  0  0
  9 41  1  0  0  0
 10 42  1  0  0  0
 11 43  1  0  0  0
 12 44  1  0  0  0
 15 45  1  0  0  0
 17 46  1  0  0  0
 20 47  1  0  0  0
 22 48  1  0  0  0
 22 49  1  0  0  0
 23 50  1  0  0  0
 23 51  1  0  0  0
 24 52  1  0  0  0
 24 53  1  0  0  0
 25 54  1  0  0  0
 25 55  1  0  0  0
 26 56  1  0  0  0
 26 57  1  0  0  0
 30 58  1  0  0  0
 31 59  1  0  0  0
 32 60  1  0  0  0
 33 61  1  0  0  0
M  END
$$$$
