### 
### Created by X-TOOL on Mon Sep 10 21:12:48 2018
### 

@<TRIPOS>MOLECULE
1jif_ligand
  182   187     1     0     0
SMALL
GAST_HUCK


@<TRIPOS>ATOM
      1 NA         22.2180   -3.1030    0.1840 N.am      1 BLM        -0.2961
      2 C2         21.7510   -1.7170    2.3540 C.3       1 BLM         0.1051
      3 C1         21.7410   -2.9750    1.4820 C.2       1 BLM         0.2273
      4 O1         21.2750   -3.9840    1.9130 O.2       1 BLM        -0.3909
      5 NC         19.2770   -2.0160    3.0510 N.4       1 BLM         0.2527
      6 C3         20.6650   -1.9030    3.4470 C.3       1 BLM         0.0301
      7 NB         21.3140   -0.5490    1.6110 N.4       1 BLM         0.2418
      8 ND         18.9300   -4.2180    6.3080 N.am      1 BLM        -0.3005
      9 C5         18.6490   -1.8460    5.5080 C.3       1 BLM         0.0942
     10 C4         18.2330   -3.3270    5.7700 C.2       1 BLM         0.1815
     11 O4         17.0360   -3.6030    5.3850 O.2       1 BLM        -0.3968
     12 C8         18.2380    2.3110    4.8910 C.ar      1 BLM         0.1276
     13 C9         18.4120    2.8440    3.4620 C.ar      1 BLM         0.0372
     14 C10        18.5820    1.9880    2.5390 C.ar      1 BLM         0.1171
     15 NG         18.6430    0.5360    2.7550 N.ar      1 BLM        -0.2694
     16 C7         18.4050    0.0760    4.0500 C.ar      1 BLM         0.1334
     17 NE         18.2350    0.8560    5.0660 N.ar      1 BLM        -0.2506
     18 C6         18.4000   -1.4130    4.0030 C.3       1 BLM         0.0566
     19 NF         18.0090    3.1440    5.9700 N.pl3     1 BLM        -0.3176
     20 CA         18.3580    4.3880    3.3120 C.3       1 BLM        -0.0229
     21 C12        18.7300    2.1510    1.0980 C.2       1 BLM         0.2230
     22 O12        18.6640    3.2930    0.6290 O.2       1 BLM        -0.3790
     23 NH         18.8780    1.0190    0.3150 N.am      1 BLM        -0.2591
     24 C13        19.0630    1.2110   -1.1160 C.3       1 BLM         0.1683
     25 C30        17.7130    1.3790   -1.8490 C.2       1 BLM         0.2067
     26 O30        17.6270    1.8420   -3.0120 O.2       1 BLM        -0.3942
     27 C14        19.8250    0.0360   -1.7510 C.3       1 BLM         0.1562
     28 C27        19.2980   -1.3590   -1.3500 C.2       1 BLM         0.0854
     29 OH1        21.1940    0.1700   -1.3830 O.3       1 BLM        -0.3260
     30 NJ         18.9300   -1.7250   -0.1260 N.pl3     1 BLM        -0.2601
     31 C28        19.1080   -2.4140   -2.2250 C.2       1 BLM        -0.0249
     32 C29        18.6410   -3.0200   -0.2020 C.2       1 BLM         0.0876
     33 NI         18.6560   -3.4200   -1.4920 N.2       1 BLM        -0.3436
     34 NK         16.5750    0.9730   -1.2410 N.am      1 BLM        -0.2794
     35 C34        15.5450   -1.5750   -2.2400 C.3       1 BLM         0.0740
     36 C36        14.8420   -2.8710   -1.9030 C.2       1 BLM         0.1837
     37 O36        14.2500   -3.5990   -2.6960 O.2       1 BLM        -0.3965
     38 OH2        13.4680   -0.3340   -2.3810 O.3       1 BLM        -0.3869
     39 C31        15.2780    1.0120   -1.9170 C.3       1 BLM         0.0675
     40 CB         14.4360    2.1200   -1.2900 C.3       1 BLM        -0.0394
     41 C33        14.7060   -0.3710   -1.6850 C.3       1 BLM         0.0969
     42 CC         15.7070   -1.5280   -3.7580 C.3       1 BLM        -0.0428
     43 NL         14.9270   -3.2380   -0.6190 N.am      1 BLM        -0.2630
     44 C37        14.4290   -4.5440   -0.1870 C.3       1 BLM         0.1563
     45 C40        12.9150   -4.5770   -0.0490 C.2       1 BLM         0.2044
     46 O40        12.2610   -3.5810    0.2130 O.2       1 BLM        -0.3944
     47 C38        15.1470   -4.8130    1.1530 C.3       1 BLM         0.0924
     48 OH3        16.4870   -5.1120    0.7760 O.3       1 BLM        -0.3874
     49 CD         14.5210   -5.9450    1.9360 C.3       1 BLM        -0.0346
     50 NM         12.2570   -5.7060   -0.3130 N.am      1 BLM        -0.2821
     51 C42        10.5100   -6.2810    1.1830 C.3       1 BLM         0.0392
     52 C49         3.3650  -10.8050    0.8670 C.2       1 BLM         0.2011
     53 O49         3.1240  -11.8970    0.3540 O.2       1 BLM        -0.3919
     54 C43         9.0940   -6.6900    1.4140 C.2       1 BLM         0.0982
     55 C41        10.8010   -5.8100   -0.2650 C.3       1 BLM         0.0475
     56 S43         8.0720   -5.7350    2.4150 S.3       1 BLM         0.0091
     57 C44         6.7720   -6.7940    2.0780 C.2       1 BLM         0.0297
     58 C45         7.2590   -7.8320    1.2700 C.2       1 BLM         0.0572
     59 NN          8.5830   -7.7500    0.9050 N.2       1 BLM        -0.3091
     60 C47         5.5660  -10.8660   -0.2040 C.2       1 BLM         0.0342
     61 C48         4.7110  -10.2000    0.6180 C.2       1 BLM         0.0916
     62 NO          5.1740   -9.0300    1.1610 N.2       1 BLM        -0.3022
     63 C46         6.4280   -8.8970    0.8660 C.2       1 BLM         0.1098
     64 S46         7.1310  -10.1550   -0.1070 S.3       1 BLM         0.0009
     65 NP          2.5670  -10.1180    1.6430 N.am      1 BLM        -0.2880
     66 C50         1.2300  -10.5750    1.8670 C.3       1 BLM         0.0343
     67 C51         0.7700   -9.9840    3.1660 C.3       1 BLM         0.0123
     68 C52         0.2560   -8.5640    2.8830 C.3       1 BLM         0.1111
     69 S53        -1.1990   -8.5880    1.8190 S.3       1 BLM        -0.0162
     70 C55        -2.0280  -10.1380    2.1010 C.3       1 BLM         0.0991
     71 C54        -0.6020   -8.6910    0.1390 C.3       1 BLM         0.0991
     72 O59        24.9200   -0.2820   -3.8660 O.3       1 BLM        -0.3865
     73 O58        23.7460   -0.6340   -0.3720 O.3       1 BLM        -0.3864
     74 C61        23.1120   -2.3400   -4.3780 C.3       1 BLM         0.0730
     75 O61        21.7750   -2.7640   -4.5430 O.3       1 BLM        -0.3924
     76 O56        23.0840    1.9930   -0.7270 O.3       1 BLM        -0.3377
     77 C60        23.0060   -1.3700   -3.1690 C.3       1 BLM         0.1130
     78 O62        22.2010   -0.2160   -3.4980 O.3       1 BLM        -0.3404
     79 C63        21.9880    0.7500   -2.4420 C.3       1 BLM         0.1912
     80 C57        23.3370    1.2220   -1.8910 C.3       1 BLM         0.1408
     81 C58        24.2560    0.0280   -1.5260 C.3       1 BLM         0.1144
     82 C59        24.3850   -0.9240   -2.7270 C.3       1 BLM         0.1119
     83 C69        23.5960    3.7090    0.8150 C.3       1 BLM         0.1387
     84 C68        22.1390    4.0600    1.0810 C.3       1 BLM         0.1468
     85 C67        21.6640    5.1320    0.1090 C.3       1 BLM         0.1164
     86 C65        21.8560    4.5910   -1.3120 C.3       1 BLM         0.1133
     87 O64        23.2270    4.1980   -1.5170 O.3       1 BLM        -0.3405
     88 C64        23.7700    3.2360   -0.6360 C.3       1 BLM         0.1889
     89 O68        21.9710    4.6000    2.3900 O.3       1 BLM        -0.2553
     90 O67        20.3230    5.4310    0.3600 O.3       1 BLM        -0.3861
     91 O69        24.3780    4.8800    1.0030 O.3       1 BLM        -0.3837
     92 NQ         21.6040    4.3170    4.5310 N.am      1 BLM        -0.2763
     93 C70        21.8250    3.6720    3.3560 C.2       1 BLM         0.3173
     94 O70        21.8630    2.4670    3.1750 O.2       1 BLM        -0.3777
     95 O66        21.5890    5.0580   -3.6090 O.3       1 BLM        -0.3924
     96 C66        21.5360    5.6850   -2.3480 C.3       1 BLM         0.0730
     97 H1         22.1561   -3.9830   -0.2870 H         1 BLM         0.1816
     98 H2         22.6234   -2.3152   -0.2797 H         1 BLM         0.1816
     99 H3         22.7489   -1.5584    2.7887 H         1 BLM         0.1153
    100 H4         19.0415   -2.9922    2.9639 H         1 BLM         0.2040
    101 H5         19.1542   -1.5600    2.1605 H         1 BLM         0.2040
    102 H6         20.7371   -1.0378    4.1224 H         1 BLM         0.0898
    103 H7         20.9177   -2.8207    3.9984 H         1 BLM         0.0898
    104 H8         21.9717   -0.3554    0.8721 H         1 BLM         0.2017
    105 H9         21.2626    0.2439    2.2312 H         1 BLM         0.2017
    106 H10        20.4044   -0.7244    1.2137 H         1 BLM         0.2017
    107 H11        18.5596   -5.1393    6.4262 H         1 BLM         0.1814
    108 H12        19.8568   -4.0080    6.6193 H         1 BLM         0.1814
    109 H13        19.7188   -1.7323    5.7372 H         1 BLM         0.0588
    110 H14        18.0611   -1.1906    6.1674 H         1 BLM         0.0588
    111 H15        17.3873   -1.7357    3.7197 H         1 BLM         0.1104
    112 H16        17.8978    2.7459    6.9134 H         1 BLM         0.1792
    113 H17        17.9496    4.1628    5.8306 H         1 BLM         0.1792
    114 H18        18.1984    4.8469    4.2989 H         1 BLM         0.0392
    115 H19        17.5301    4.6626    2.6418 H         1 BLM         0.0392
    116 H20        19.3072    4.7488    2.8892 H         1 BLM         0.0392
    117 H21        18.8585    0.1037    0.7174 H         1 BLM         0.1882
    118 H22        19.6537    2.1277   -1.2600 H         1 BLM         0.0851
    119 H23        19.7381    0.1223   -2.8442 H         1 BLM         0.0828
    120 H24        18.8792   -1.1267    0.7109 H         1 BLM         0.2387
    121 H25        19.2926   -2.4165   -3.2982 H         1 BLM         0.0325
    122 H26        18.4242   -3.6633    0.6496 H         1 BLM         0.1149
    123 H27        16.6216    0.6359   -0.3007 H         1 BLM         0.1855
    124 H28        16.5399   -1.5580   -1.7710 H         1 BLM         0.0562
    125 H29        13.0021   -1.1498   -2.2398 H         1 BLM         0.2101
    126 H30        15.3935    1.2036   -2.9940 H         1 BLM         0.0580
    127 H31        13.4561    2.1623   -1.7881 H         1 BLM         0.0253
    128 H32        14.9506    3.0846   -1.4109 H         1 BLM         0.0253
    129 H33        14.2943    1.9116   -0.2193 H         1 BLM         0.0253
    130 H34        14.5491   -0.5243   -0.6071 H         1 BLM         0.0644
    131 H35        16.3009   -2.3922   -4.0903 H         1 BLM         0.0257
    132 H36        16.2212   -0.5984   -4.0433 H         1 BLM         0.0257
    133 H37        14.7157   -1.5596   -4.2337 H         1 BLM         0.0257
    134 H38        15.3336   -2.6155    0.0497 H         1 BLM         0.1884
    135 H39        14.7204   -5.3095   -0.9212 H         1 BLM         0.0826
    136 H40        15.1242   -3.9071    1.7765 H         1 BLM         0.0639
    137 H41        17.0012   -5.2918    1.5544 H         1 BLM         0.2101
    138 H42        15.0728   -6.0893    2.8766 H         1 BLM         0.0257
    139 H43        14.5626   -6.8693    1.3411 H         1 BLM         0.0257
    140 H44        13.4723   -5.6999    2.1600 H         1 BLM         0.0257
    141 H45        12.7851   -6.5199   -0.5553 H         1 BLM         0.1854
    142 H46        11.1591   -7.1410    1.4042 H         1 BLM         0.0543
    143 H47        10.7483   -5.4555    1.8699 H         1 BLM         0.0543
    144 H48        10.4366   -6.5459   -0.9968 H         1 BLM         0.0552
    145 H49        10.3320   -4.8345   -0.4612 H         1 BLM         0.0552
    146 H50         5.7471   -6.6822    2.4288 H         1 BLM         0.0822
    147 H51         5.3012  -11.7184   -0.8279 H         1 BLM         0.0857
    148 H52         2.8900   -9.2773    2.0776 H         1 BLM         0.1839
    149 H53         1.2122  -11.6733    1.9256 H         1 BLM         0.0520
    150 H54         0.5756  -10.2408    1.0485 H         1 BLM         0.0520
    151 H55         1.6092   -9.9431    3.8760 H         1 BLM         0.0330
    152 H56        -0.0393  -10.5968    3.5897 H         1 BLM         0.0330
    153 H57         1.0515   -7.9880    2.3877 H         1 BLM         0.0840
    154 H58        -0.0063   -8.0822    3.8364 H         1 BLM         0.0840
    155 H59        -2.9260  -10.1940    1.4681 H         1 BLM         0.0803
    156 H60        -2.3200  -10.2105    3.1590 H         1 BLM         0.0803
    157 H61        -1.3503  -10.9673    1.8500 H         1 BLM         0.0803
    158 H62        -0.0713   -7.7627   -0.1191 H         1 BLM         0.0803
    159 H63        -1.4526   -8.8292   -0.5446 H         1 BLM         0.0803
    160 H64         0.0857   -9.5445    0.0459 H         1 BLM         0.0803
    161 H65        24.3658    0.4519   -4.1040 H         1 BLM         0.2100
    162 H66        22.8699   -0.9536   -0.5529 H         1 BLM         0.2100
    163 H67        23.4783   -1.8195   -5.2751 H         1 BLM         0.0584
    164 H68        23.7737   -3.1888   -4.1507 H         1 BLM         0.0584
    165 H69        21.4798   -3.1934   -3.7486 H         1 BLM         0.2095
    166 H70        22.5258   -1.9047   -2.3363 H         1 BLM         0.0647
    167 H71        21.4494    1.6155   -2.8553 H         1 BLM         0.0939
    168 H72        23.8406    1.8432   -2.6463 H         1 BLM         0.0675
    169 H73        25.2572    0.4154   -1.2864 H         1 BLM         0.0648
    170 H74        25.0070   -1.7861   -2.4442 H         1 BLM         0.0647
    171 H75        23.9226    2.9188    1.5070 H         1 BLM         0.0675
    172 H76        21.5256    3.1537    0.9698 H         1 BLM         0.0702
    173 H77        22.2655    6.0439    0.2378 H         1 BLM         0.0650
    174 H78        21.1927    3.7268   -1.4638 H         1 BLM         0.0647
    175 H79        24.8360    3.0941   -0.8672 H         1 BLM         0.0938
    176 H80        19.8005    4.6436    0.2622 H         1 BLM         0.2100
    177 H81        24.2801    5.1846    1.8975 H         1 BLM         0.2101
    178 H82        21.4700    3.7925    5.3718 H         1 BLM         0.1831
    179 H83        21.5753    5.3163    4.5551 H         1 BLM         0.1831
    180 H84        22.4578    4.6993   -3.7468 H         1 BLM         0.2095
    181 H85        22.2803    6.4930   -2.2921 H         1 BLM         0.0584
    182 H86        20.5323    6.0980   -2.1692 H         1 BLM         0.0584
@<TRIPOS>BOND
     1    3    1 am 
     2    2    3 1  
     3    6    2 1  
     4    2    7 1  
     5    3    4 2  
     6    5    6 1  
     7   18    5 1  
     8   10    8 am 
     9    9   10 1  
    10   18    9 1  
    11   10   11 2  
    12   13   12 ar 
    13   12   17 ar 
    14   12   19 1  
    15   14   13 ar 
    16   13   20 1  
    17   14   15 ar 
    18   21   14 1  
    19   15   16 ar 
    20   16   17 ar 
    21   16   18 1  
    22   21   22 2  
    23   23   21 am 
    24   24   23 1  
    25   24   25 1  
    26   27   24 1  
    27   25   26 2  
    28   25   34 am 
    29   27   28 1  
    30   29   27 1  
    31   28   30 1  
    32   28   31 2  
    33   79   29 1  
    34   30   32 1  
    35   31   33 1  
    36   33   32 2  
    37   34   39 1  
    38   35   36 1  
    39   41   35 1  
    40   35   42 1  
    41   36   37 2  
    42   36   43 am 
    43   41   38 1  
    44   39   40 1  
    45   39   41 1  
    46   43   44 1  
    47   44   45 1  
    48   44   47 1  
    49   45   46 2  
    50   45   50 am 
    51   47   48 1  
    52   47   49 1  
    53   50   55 1  
    54   51   54 1  
    55   55   51 1  
    56   52   53 2  
    57   61   52 1  
    58   52   65 am 
    59   54   56 1  
    60   54   59 2  
    61   56   57 1  
    62   58   57 2  
    63   59   58 1  
    64   58   63 1  
    65   60   61 2  
    66   64   60 1  
    67   62   61 1  
    68   63   62 2  
    69   63   64 1  
    70   65   66 1  
    71   66   67 1  
    72   67   68 1  
    73   68   69 1  
    74   69   70 1  
    75   69   71 1  
    76   82   72 1  
    77   81   73 1  
    78   74   75 1  
    79   77   74 1  
    80   76   80 1  
    81   88   76 1  
    82   78   77 1  
    83   82   77 1  
    84   79   78 1  
    85   80   79 1  
    86   80   81 1  
    87   81   82 1  
    88   83   84 1  
    89   83   88 1  
    90   83   91 1  
    91   84   85 1  
    92   84   89 1  
    93   85   86 1  
    94   85   90 1  
    95   86   87 1  
    96   86   96 1  
    97   87   88 1  
    98   89   93 1  
    99   93   92 am 
   100   93   94 2  
   101   96   95 1  
   102    1   97 1  
   103    1   98 1  
   104    2   99 1  
   105    5  100 1  
   106    5  101 1  
   107    6  102 1  
   108    6  103 1  
   109    7  104 1  
   110    7  105 1  
   111    7  106 1  
   112    8  107 1  
   113    8  108 1  
   114    9  109 1  
   115    9  110 1  
   116   18  111 1  
   117   19  112 1  
   118   19  113 1  
   119   20  114 1  
   120   20  115 1  
   121   20  116 1  
   122   23  117 1  
   123   24  118 1  
   124   27  119 1  
   125   30  120 1  
   126   31  121 1  
   127   32  122 1  
   128   34  123 1  
   129   35  124 1  
   130   38  125 1  
   131   39  126 1  
   132   40  127 1  
   133   40  128 1  
   134   40  129 1  
   135   41  130 1  
   136   42  131 1  
   137   42  132 1  
   138   42  133 1  
   139   43  134 1  
   140   44  135 1  
   141   47  136 1  
   142   48  137 1  
   143   49  138 1  
   144   49  139 1  
   145   49  140 1  
   146   50  141 1  
   147   51  142 1  
   148   51  143 1  
   149   55  144 1  
   150   55  145 1  
   151   57  146 1  
   152   60  147 1  
   153   65  148 1  
   154   66  149 1  
   155   66  150 1  
   156   67  151 1  
   157   67  152 1  
   158   68  153 1  
   159   68  154 1  
   160   70  155 1  
   161   70  156 1  
   162   70  157 1  
   163   71  158 1  
   164   71  159 1  
   165   71  160 1  
   166   72  161 1  
   167   73  162 1  
   168   74  163 1  
   169   74  164 1  
   170   75  165 1  
   171   77  166 1  
   172   79  167 1  
   173   80  168 1  
   174   81  169 1  
   175   82  170 1  
   176   83  171 1  
   177   84  172 1  
   178   85  173 1  
   179   86  174 1  
   180   88  175 1  
   181   90  176 1  
   182   91  177 1  
   183   92  178 1  
   184   92  179 1  
   185   95  180 1  
   186   96  181 1  
   187   96  182 1  
@<TRIPOS>SUBSTRUCTURE
     1 BLM         1

