1jif_ligand
  -I-interpret- 

181186  0  0  0  0  0  0  0  0999 V2000
   22.2180   -3.1030    0.1840 N   0  0  0  0  0
   21.7510   -1.7170    2.3540 C   0  0  0  0  0
   21.7410   -2.9750    1.4820 C   0  0  0  0  0
   21.2750   -3.9840    1.9130 O   0  0  0  0  0
   19.2770   -2.0160    3.0510 N   0  3  0  0  0
   20.6650   -1.9030    3.4470 C   0  0  0  0  0
   21.3140   -0.5490    1.6110 N   0  3  0  0  0
   18.9300   -4.2180    6.3080 N   0  0  0  0  0
   18.6490   -1.8460    5.5080 C   0  0  0  0  0
   18.2330   -3.3270    5.7700 C   0  0  0  0  0
   17.0360   -3.6030    5.3850 O   0  0  0  0  0
   18.2380    2.3110    4.8910 C   0  0  0  0  0
   18.4120    2.8440    3.4620 C   0  0  0  0  0
   18.5820    1.9880    2.5390 C   0  0  0  0  0
   18.6430    0.5360    2.7550 N   0  0  0  0  0
   18.4050    0.0760    4.0500 C   0  0  0  0  0
   18.2350    0.8560    5.0660 N   0  0  0  0  0
   18.4000   -1.4130    4.0030 C   0  0  0  0  0
   18.0090    3.1440    5.9700 N   0  0  0  0  0
   18.3580    4.3880    3.3120 C   0  0  0  0  0
   18.7300    2.1510    1.0980 C   0  0  0  0  0
   18.6640    3.2930    0.6290 O   0  0  0  0  0
   18.8780    1.0190    0.3150 N   0  0  0  0  0
   19.0630    1.2110   -1.1160 C   0  0  0  0  0
   17.7130    1.3790   -1.8490 C   0  0  0  0  0
   17.6270    1.8420   -3.0120 O   0  0  0  0  0
   19.8250    0.0360   -1.7510 C   0  0  0  0  0
   19.2980   -1.3590   -1.3500 C   0  0  0  0  0
   21.1940    0.1700   -1.3830 O   0  0  0  0  0
   18.9300   -1.7250   -0.1260 N   0  0  0  0  0
   19.1080   -2.4140   -2.2250 C   0  0  0  0  0
   18.6410   -3.0200   -0.2020 C   0  0  0  0  0
   18.6560   -3.4200   -1.4920 N   0  0  0  0  0
   16.5750    0.9730   -1.2410 N   0  0  0  0  0
   15.5450   -1.5750   -2.2400 C   0  0  0  0  0
   14.8420   -2.8710   -1.9030 C   0  0  0  0  0
   14.2500   -3.5990   -2.6960 O   0  0  0  0  0
   13.4680   -0.3340   -2.3810 O   0  0  0  0  0
   15.2780    1.0120   -1.9170 C   0  0  0  0  0
   14.4360    2.1200   -1.2900 C   0  0  0  0  0
   14.7060   -0.3710   -1.6850 C   0  0  0  0  0
   15.7070   -1.5280   -3.7580 C   0  0  0  0  0
   14.9270   -3.2380   -0.6190 N   0  0  0  0  0
   14.4290   -4.5440   -0.1870 C   0  0  0  0  0
   12.9150   -4.5770   -0.0490 C   0  0  0  0  0
   12.2610   -3.5810    0.2130 O   0  0  0  0  0
   15.1470   -4.8130    1.1530 C   0  0  0  0  0
   16.4870   -5.1120    0.7760 O   0  0  0  0  0
   14.5210   -5.9450    1.9360 C   0  0  0  0  0
   12.2570   -5.7060   -0.3130 N   0  0  0  0  0
   10.5100   -6.2810    1.1830 C   0  0  0  0  0
    3.3650  -10.8050    0.8670 C   0  0  0  0  0
    3.1240  -11.8970    0.3540 O   0  0  0  0  0
    9.0940   -6.6900    1.4140 C   0  0  0  0  0
   10.8010   -5.8100   -0.2650 C   0  0  0  0  0
    8.0720   -5.7350    2.4150 S   0  0  0  0  0
    6.7720   -6.7940    2.0780 C   0  0  0  0  0
    7.2590   -7.8320    1.2700 C   0  0  0  0  0
    8.5830   -7.7500    0.9050 N   0  0  0  0  0
    5.5660  -10.8660   -0.2040 C   0  0  0  0  0
    4.7110  -10.2000    0.6180 C   0  0  0  0  0
    5.1740   -9.0300    1.1610 N   0  0  0  0  0
    6.4280   -8.8970    0.8660 C   0  0  0  0  0
    7.1310  -10.1550   -0.1070 S   0  0  0  0  0
    2.5670  -10.1180    1.6430 N   0  0  0  0  0
    1.2300  -10.5750    1.8670 C   0  0  0  0  0
    0.7700   -9.9840    3.1660 C   0  0  0  0  0
    0.2560   -8.5640    2.8830 C   0  0  0  0  0
   -1.1990   -8.5880    1.8190 S   0  0  0  0  0
   -2.0280  -10.1380    2.1010 C   0  0  0  0  0
   -0.6020   -8.6910    0.1390 C   0  0  0  0  0
   24.9200   -0.2820   -3.8660 O   0  0  0  0  0
   23.7460   -0.6340   -0.3720 O   0  0  0  0  0
   23.1120   -2.3400   -4.3780 C   0  0  0  0  0
   21.7750   -2.7640   -4.5430 O   0  0  0  0  0
   23.0840    1.9930   -0.7270 O   0  0  0  0  0
   23.0060   -1.3700   -3.1690 C   0  0  0  0  0
   22.2010   -0.2160   -3.4980 O   0  0  0  0  0
   21.9880    0.7500   -2.4420 C   0  0  0  0  0
   23.3370    1.2220   -1.8910 C   0  0  0  0  0
   24.2560    0.0280   -1.5260 C   0  0  0  0  0
   24.3850   -0.9240   -2.7270 C   0  0  0  0  0
   23.5960    3.7090    0.8150 C   0  0  0  0  0
   22.1390    4.0600    1.0810 C   0  0  0  0  0
   21.6640    5.1320    0.1090 C   0  0  0  0  0
   21.8560    4.5910   -1.3120 C   0  0  0  0  0
   23.2270    4.1980   -1.5170 O   0  0  0  0  0
   23.7700    3.2360   -0.6360 C   0  0  0  0  0
   21.9710    4.6000    2.3900 O   0  0  0  0  0
   20.3230    5.4310    0.3600 O   0  0  0  0  0
   24.3780    4.8800    1.0030 O   0  0  0  0  0
   21.6040    4.3170    4.5310 N   0  0  0  0  0
   21.8250    3.6720    3.3560 C   0  0  0  0  0
   21.8630    2.4670    3.1750 O   0  0  0  0  0
   21.5890    5.0580   -3.6090 O   0  0  0  0  0
   21.5360    5.6850   -2.3480 C   0  0  0  0  0
   22.1476   -3.9985   -0.2992 H   0  0  0  0  0
   22.6388   -2.3015   -0.2861 H   0  0  0  0  0
   22.7636   -1.5792    2.7332 H   0  0  0  0  0
   19.0435   -3.0066    2.9841 H   0  0  0  0  0
   19.1591   -1.5357    2.1589 H   0  0  0  0  0
   20.7116   -0.9927    4.0448 H   0  0  0  0  0
   20.9006   -2.8588    3.9150 H   0  0  0  0  0
   21.9802   -0.3541    0.8636 H   0  0  0  0  0
   20.3935   -0.7277    1.2095 H   0  0  0  0  0
   21.2623    0.2526    2.2396 H   0  0  0  0  0
   18.5483   -5.1548    6.4385 H   0  0  0  0  0
   19.8793   -4.0067    6.6156 H   0  0  0  0  0
   19.7144   -1.7503    5.7172 H   0  0  0  0  0
   18.0453   -1.2048    6.1503 H   0  0  0  0  0
   17.4507   -1.7858    3.6182 H   0  0  0  0  0
   17.9502    4.1529    5.8320 H   0  0  0  0  0
   17.8989    2.7498    6.9043 H   0  0  0  0  0
   17.3915    4.7520    3.6605 H   0  0  0  0  0
   19.1530    4.8376    3.9069 H   0  0  0  0  0
   18.4917    4.6548    2.2636 H   0  0  0  0  0
   18.8582    0.0854    0.7254 H   0  0  0  0  0
   19.6486    2.1236   -1.2270 H   0  0  0  0  0
   19.6806    0.0883   -2.8301 H   0  0  0  0  0
   19.2928   -2.4165   -3.2992 H   0  0  0  0  0
   18.4240   -3.6638    0.6503 H   0  0  0  0  0
   16.6225    0.6291   -0.2819 H   0  0  0  0  0
   16.5308   -1.5102   -1.7796 H   0  0  0  0  0
   12.9401    0.3981   -2.0540 H   0  0  0  0  0
   15.3225    1.2343   -2.9832 H   0  0  0  0  0
   14.2964    1.9123   -0.2291 H   0  0  0  0  0
   14.9470    3.0752   -1.4104 H   0  0  0  0  0
   13.4654    2.1609   -1.7843 H   0  0  0  0  0
   14.6618   -0.5560   -0.6117 H   0  0  0  0  0
   16.2999   -2.3820   -4.0855 H   0  0  0  0  0
   14.7244   -1.5645   -4.2283 H   0  0  0  0  0
   16.2120   -0.6040   -4.0398 H   0  0  0  0  0
   15.3417   -2.6030    0.0630 H   0  0  0  0  0
   14.6404   -5.3184   -0.9244 H   0  0  0  0  0
   15.0792   -3.9568    1.8242 H   0  0  0  0  0
   17.0065   -5.2937    1.5625 H   0  0  0  0  0
   13.4820   -5.7010    2.1573 H   0  0  0  0  0
   14.5628   -6.8602    1.3454 H   0  0  0  0  0
   15.0686   -6.0870    2.8677 H   0  0  0  0  0
   12.7957   -6.5361   -0.5601 H   0  0  0  0  0
   11.1340   -7.1548    1.3707 H   0  0  0  0  0
   10.7159   -5.4396    1.8446 H   0  0  0  0  0
   10.4099   -6.5007   -1.0120 H   0  0  0  0  0
   10.3100   -4.8657   -0.5003 H   0  0  0  0  0
    5.7462   -6.6821    2.4291 H   0  0  0  0  0
    5.3009  -11.7192   -0.8285 H   0  0  0  0  0
    2.8964   -9.2605    2.0863 H   0  0  0  0  0
    1.1989  -11.6638    1.9087 H   0  0  0  0  0
    0.5768  -10.2641    1.0516 H   0  0  0  0  0
    1.5938   -9.9522    3.8790 H   0  0  0  0  0
   -0.0236  -10.5936    3.5981 H   0  0  0  0  0
    1.0441   -8.0058    2.3777 H   0  0  0  0  0
   -0.0170   -8.1003    3.8309 H   0  0  0  0  0
   -1.3555  -10.9588    1.8520 H   0  0  0  0  0
   -2.3168  -10.2086    3.1497 H   0  0  0  0  0
   -2.9175  -10.1923    1.4734 H   0  0  0  0  0
    0.0234   -7.8247   -0.0768 H   0  0  0  0  0
   -0.0166   -9.6025    0.0180 H   0  0  0  0  0
   -1.4497   -8.7085   -0.5460 H   0  0  0  0  0
   25.8044    0.0345   -3.6677 H   0  0  0  0  0
   24.3176   -1.3724   -0.1493 H   0  0  0  0  0
   23.5255   -1.8694   -5.2700 H   0  0  0  0  0
   23.8048   -3.1639   -4.2069 H   0  0  0  0  0
   21.7239   -3.3790   -5.2784 H   0  0  0  0  0
   22.5239   -1.9063   -2.3517 H   0  0  0  0  0
   21.4499    1.6056   -2.8499 H   0  0  0  0  0
   23.8482    1.8086   -2.6543 H   0  0  0  0  0
   25.2563    0.3897   -1.2878 H   0  0  0  0  0
   25.0285   -1.7389   -2.3954 H   0  0  0  0  0
   23.9081    2.9146    1.4930 H   0  0  0  0  0
   21.5683    3.1383    0.9674 H   0  0  0  0  0
   22.2353    6.0526    0.2284 H   0  0  0  0  0
   21.1885    3.7379   -1.4332 H   0  0  0  0  0
   24.8176    3.1130   -0.9109 H   0  0  0  0  0
   20.0266    6.1068   -0.2541 H   0  0  0  0  0
   25.3017    4.6763    0.8390 H   0  0  0  0  0
   21.4470    3.7817    5.3849 H   0  0  0  0  0
   21.5951    5.3366    4.5593 H   0  0  0  0  0
   21.3953    5.7023   -4.2938 H   0  0  0  0  0
   22.2502    6.5061   -2.2865 H   0  0  0  0  0
   20.5544    6.1230   -2.1673 H   0  0  0  0  0
  3  1  1  0  0  0
  2  3  1  0  0  0
  6  2  1  0  0  0
  2  7  1  0  0  0
  3  4  2  0  0  0
  5  6  1  0  0  0
 18  5  1  0  0  0
 10  8  1  0  0  0
  9 10  1  0  0  0
 18  9  1  0  0  0
 10 11  2  0  0  0
 13 12  4  0  0  0
 12 17  4  0  0  0
 12 19  1  0  0  0
 14 13  4  0  0  0
 13 20  1  0  0  0
 14 15  4  0  0  0
 21 14  1  0  0  0
 15 16  4  0  0  0
 16 17  4  0  0  0
 16 18  1  0  0  0
 21 22  2  0  0  0
 23 21  1  0  0  0
 24 23  1  0  0  0
 24 25  1  0  0  0
 27 24  1  0  0  0
 25 26  2  0  0  0
 25 34  1  0  0  0
 27 28  1  0  0  0
 29 27  1  0  0  0
 28 30  4  0  0  0
 28 31  4  0  0  0
 79 29  1  0  0  0
 30 32  4  0  0  0
 31 33  4  0  0  0
 33 32  4  0  0  0
 34 39  1  0  0  0
 35 36  1  0  0  0
 41 35  1  0  0  0
 35 42  1  0  0  0
 36 37  2  0  0  0
 36 43  1  0  0  0
 41 38  1  0  0  0
 39 40  1  0  0  0
 39 41  1  0  0  0
 43 44  1  0  0  0
 44 45  1  0  0  0
 44 47  1  0  0  0
 45 46  2  0  0  0
 45 50  1  0  0  0
 47 48  1  0  0  0
 47 49  1  0  0  0
 50 55  1  0  0  0
 51 54  1  0  0  0
 55 51  1  0  0  0
 52 53  2  0  0  0
 61 52  1  0  0  0
 52 65  1  0  0  0
 54 56  4  0  0  0
 54 59  4  0  0  0
 56 57  4  0  0  0
 58 57  4  0  0  0
 59 58  4  0  0  0
 58 63  1  0  0  0
 60 61  4  0  0  0
 64 60  4  0  0  0
 62 61  4  0  0  0
 63 62  4  0  0  0
 63 64  4  0  0  0
 65 66  1  0  0  0
 66 67  1  0  0  0
 67 68  1  0  0  0
 68 69  1  0  0  0
 69 70  1  0  0  0
 69 71  1  0  0  0
 82 72  1  0  0  0
 81 73  1  0  0  0
 74 75  1  0  0  0
 77 74  1  0  0  0
 76 80  1  0  0  0
 88 76  1  0  0  0
 78 77  1  0  0  0
 82 77  1  0  0  0
 79 78  1  0  0  0
 80 79  1  0  0  0
 80 81  1  0  0  0
 81 82  1  0  0  0
 83 84  1  0  0  0
 83 88  1  0  0  0
 83 91  1  0  0  0
 84 85  1  0  0  0
 84 89  1  0  0  0
 85 86  1  0  0  0
 85 90  1  0  0  0
 86 87  1  0  0  0
 86 96  1  0  0  0
 87 88  1  0  0  0
 89 93  1  0  0  0
 93 92  1  0  0  0
 93 94  2  0  0  0
 96 95  1  0  0  0
  1 97  1  0  0  0
  1 98  1  0  0  0
  2 99  1  0  0  0
  5100  1  0  0  0
  5101  1  0  0  0
  6102  1  0  0  0
  6103  1  0  0  0
  7104  1  0  0  0
  7105  1  0  0  0
  7106  1  0  0  0
  8107  1  0  0  0
  8108  1  0  0  0
  9109  1  0  0  0
  9110  1  0  0  0
 18111  1  0  0  0
 19112  1  0  0  0
 19113  1  0  0  0
 20114  1  0  0  0
 20115  1  0  0  0
 20116  1  0  0  0
 23117  1  0  0  0
 24118  1  0  0  0
 27119  1  0  0  0
 31120  1  0  0  0
 32121  1  0  0  0
 34122  1  0  0  0
 35123  1  0  0  0
 38124  1  0  0  0
 39125  1  0  0  0
 40126  1  0  0  0
 40127  1  0  0  0
 40128  1  0  0  0
 41129  1  0  0  0
 42130  1  0  0  0
 42131  1  0  0  0
 42132  1  0  0  0
 43133  1  0  0  0
 44134  1  0  0  0
 47135  1  0  0  0
 48136  1  0  0  0
 49137  1  0  0  0
 49138  1  0  0  0
 49139  1  0  0  0
 50140  1  0  0  0
 51141  1  0  0  0
 51142  1  0  0  0
 55143  1  0  0  0
 55144  1  0  0  0
 57145  1  0  0  0
 60146  1  0  0  0
 65147  1  0  0  0
 66148  1  0  0  0
 66149  1  0  0  0
 67150  1  0  0  0
 67151  1  0  0  0
 68152  1  0  0  0
 68153  1  0  0  0
 70154  1  0  0  0
 70155  1  0  0  0
 70156  1  0  0  0
 71157  1  0  0  0
 71158  1  0  0  0
 71159  1  0  0  0
 72160  1  0  0  0
 73161  1  0  0  0
 74162  1  0  0  0
 74163  1  0  0  0
 75164  1  0  0  0
 77165  1  0  0  0
 79166  1  0  0  0
 80167  1  0  0  0
 81168  1  0  0  0
 82169  1  0  0  0
 83170  1  0  0  0
 84171  1  0  0  0
 85172  1  0  0  0
 86173  1  0  0  0
 88174  1  0  0  0
 90175  1  0  0  0
 91176  1  0  0  0
 92177  1  0  0  0
 92178  1  0  0  0
 95179  1  0  0  0
 96180  1  0  0  0
 96181  1  0  0  0
M  END
$$$$
