4mi9_ligand
  -I-interpret- 

 52 53  0  0  0  0  0  0  0  0999 V2000
   40.6330   27.3750   34.9600 C   0  0  0  0  0
   39.2230   27.9340   34.7000 C   0  0  0  0  0
   38.4250   27.0200   33.9530 C   0  0  0  0  0
   37.2250   26.5120   34.4530 C   0  0  0  0  0
   36.4570   25.6280   33.6840 C   0  0  0  0  0
   38.8360   26.6310   32.6770 C   0  0  0  0  0
   38.0820   25.7390   31.9120 C   0  0  0  0  0
   36.8900   25.2270   32.4170 C   0  0  0  0  0
   36.1100   24.3230   31.6410 C   0  0  0  0  0
   36.9970   23.2480   31.0330 C   0  0  0  0  0
   35.3850   25.1140   30.5890 C   0  0  0  0  0
   34.3230   24.2300   29.8790 C   0  0  0  0  0
   33.2220   24.0900   30.4060 O   0  0  0  0  0
   34.6320   23.7290   28.6690 N   0  0  0  0  0
   33.6060   22.9820   27.9000 C   0  0  0  0  0
   33.5700   21.5550   28.1610 O   0  0  0  0  0
   32.3990   20.9750   27.5370 C   0  0  0  0  0
   32.2700   19.5220   27.9620 C   0  0  0  0  0
   33.3400   18.7750   27.3520 O   0  0  0  0  0
   32.4750   21.1490   25.9590 C   0  0  0  0  0
   31.2860   20.6450   25.3350 O   0  0  0  0  0
   32.6970   22.5890   25.5540 C   0  0  0  0  0
   33.0540   22.6400   24.1460 O   0  0  0  0  0
   33.8540   23.2070   26.3990 C   0  0  0  0  0
   33.9750   24.5880   26.1280 O   0  0  0  0  0
   40.5556   26.4452   35.5235 H   0  0  0  0  0
   41.1281   27.1841   34.0078 H   0  0  0  0  0
   41.2105   28.1011   35.5321 H   0  0  0  0  0
   39.3187   28.8558   34.1262 H   0  0  0  0  0
   38.7390   28.1074   35.6611 H   0  0  0  0  0
   36.8839   26.8043   35.4461 H   0  0  0  0  0
   35.5135   25.2496   34.0772 H   0  0  0  0  0
   39.7642   27.0317   32.2696 H   0  0  0  0  0
   38.4262   25.4439   30.9208 H   0  0  0  0  0
   35.3789   23.8110   32.2666 H   0  0  0  0  0
   37.7442   23.7152   30.3916 H   0  0  0  0  0
   37.4947   22.6957   31.8301 H   0  0  0  0  0
   36.3857   22.5652   30.4430 H   0  0  0  0  0
   36.1056   25.4642   29.8499 H   0  0  0  0  0
   34.8837   25.9578   31.0631 H   0  0  0  0  0
   35.5665   23.8620   28.2824 H   0  0  0  0  0
   32.6407   23.3711   28.2241 H   0  0  0  0  0
   31.4995   21.4953   27.8660 H   0  0  0  0  0
   31.3069   19.1235   27.6430 H   0  0  0  0  0
   32.3309   19.4434   29.0475 H   0  0  0  0  0
   33.2731   17.8530   27.6108 H   0  0  0  0  0
   33.3338   20.5710   25.6179 H   0  0  0  0  0
   31.3519   20.7593   24.3841 H   0  0  0  0  0
   31.7824   23.1561   25.7274 H   0  0  0  0  0
   33.1956   23.5532   23.8858 H   0  0  0  0  0
   34.7846   22.7112   26.1227 H   0  0  0  0  0
   34.1294   24.7164   25.1892 H   0  0  0  0  0
  1  2  1  0  0  0
  2  3  1  0  0  0
  3  4  4  0  0  0
  3  6  4  0  0  0
  4  5  4  0  0  0
  5  8  4  0  0  0
  6  7  4  0  0  0
  7  8  4  0  0  0
  8  9  1  0  0  0
  9 10  1  0  0  0
  9 11  1  0  0  0
 11 12  1  0  0  0
 12 13  2  0  0  0
 12 14  1  0  0  0
 14 15  1  0  0  0
 15 16  1  0  0  0
 15 24  1  0  0  0
 16 17  1  0  0  0
 17 18  1  0  0  0
 17 20  1  0  0  0
 18 19  1  0  0  0
 20 21  1  0  0  0
 20 22  1  0  0  0
 22 23  1  0  0  0
 22 24  1  0  0  0
 24 25  1  0  0  0
  1 26  1  0  0  0
  1 27  1  0  0  0
  1 28  1  0  0  0
  2 29  1  0  0  0
  2 30  1  0  0  0
  4 31  1  0  0  0
  5 32  1  0  0  0
  6 33  1  0  0  0
  7 34  1  0  0  0
  9 35  1  0  0  0
 10 36  1  0  0  0
 10 37  1  0  0  0
 10 38  1  0  0  0
 11 39  1  0  0  0
 11 40  1  0  0  0
 14 41  1  0  0  0
 15 42  1  0  0  0
 17 43  1  0  0  0
 18 44  1  0  0  0
 18 45  1  0  0  0
 19 46  1  0  0  0
 20 47  1  0  0  0
 21 48  1  0  0  0
 22 49  1  0  0  0
 23 50  1  0  0  0
 24 51  1  0  0  0
 25 52  1  0  0  0
M  END
$$$$
