3v7t_ligand
  -I-interpret- 

 59 62  0  0  0  0  0  0  0  0999 V2000
   50.7940   -9.3510   -7.2960 C   0  0  0  0  0
   50.3620   -9.9000   -5.9450 C   0  0  0  0  0
   50.8420  -11.3410   -5.7950 C   0  0  0  0  0
   50.4700  -11.8350   -4.5040 O   0  0  0  0  0
   49.1420  -12.1150   -4.4490 C   0  0  0  0  0
   48.2740  -13.0790   -5.5360 S   0  0  0  0  0
   48.2710  -11.6490   -3.4690 C   0  0  0  0  0
   48.8340  -10.5280   -2.0510 Br  0  0  0  0  0
   46.9470  -12.0780   -3.6450 C   0  0  0  0  0
   45.8120  -11.6970   -2.6870 C   0  0  0  0  0
   46.7880  -12.9270   -4.7450 C   0  0  0  0  0
   45.4730  -13.4890   -5.2730 C   0  0  0  0  0
   45.0740  -13.1170   -6.3760 O   0  0  0  0  0
   44.7450  -14.3650   -4.5760 N   0  0  0  0  0
   43.4690  -14.9460   -5.0020 C   0  0  0  0  0
   43.7090  -16.4240   -5.3640 C   0  0  0  0  0
   42.6460  -14.8500   -3.7060 C   0  0  0  0  0
   43.6870  -14.8430   -2.5620 C   0  0  0  0  0
   45.0550  -14.9330   -3.2620 C   0  0  0  0  0
   45.4330  -16.4150   -3.4680 C   0  0  0  0  0
   44.2790  -17.1860   -4.1500 C   0  0  0  0  0
   44.7010  -18.6200   -4.5010 C   0  0  0  0  0
   45.2030  -18.9550   -5.7640 C   0  0  0  0  0
   44.5770  -19.6030   -3.5190 C   0  0  0  0  0
   44.0930  -19.2720   -2.3050 F   0  0  0  0  0
   44.9470  -20.9210   -3.7900 C   0  0  0  0  0
   45.4470  -21.2560   -5.0480 C   0  0  0  0  0
   45.5760  -20.2740   -6.0350 C   0  0  0  0  0
   46.1330  -20.6540   -7.4100 C   0  0  0  0  0
   45.0980  -20.4520   -8.4320 N   0  3  0  0  0
   51.8813   -9.3786   -7.3671 H   0  0  0  0  0
   50.3612   -9.9601   -8.0895 H   0  0  0  0  0
   50.4480   -8.3222   -7.3962 H   0  0  0  0  0
   49.2745   -9.8734   -5.8762 H   0  0  0  0  0
   50.7971   -9.2909   -5.1527 H   0  0  0  0  0
   51.9265  -11.3758   -5.8990 H   0  0  0  0  0
   50.3836  -11.9592   -6.5669 H   0  0  0  0  0
   46.0452  -12.0612   -1.6864 H   0  0  0  0  0
   45.7058  -10.6124   -2.6647 H   0  0  0  0  0
   44.8811  -12.1475   -3.0312 H   0  0  0  0  0
   42.9989  -14.4673   -5.8611 H   0  0  0  0  0
   44.4232  -16.4780   -6.1857 H   0  0  0  0  0
   42.7618  -16.8774   -5.6563 H   0  0  0  0  0
   41.9496  -15.6830   -3.6100 H   0  0  0  0  0
   42.0256  -13.9539   -3.6898 H   0  0  0  0  0
   43.5325  -15.6727   -1.8722 H   0  0  0  0  0
   43.6064  -13.9447   -1.9500 H   0  0  0  0  0
   45.8642  -14.4467   -2.7172 H   0  0  0  0  0
   45.6307  -16.8659   -2.4955 H   0  0  0  0  0
   46.3158  -16.4674   -4.1053 H   0  0  0  0  0
   43.4633  -17.2594   -3.4307 H   0  0  0  0  0
   45.3026  -18.1895   -6.5335 H   0  0  0  0  0
   44.8455  -21.6864   -3.0206 H   0  0  0  0  0
   45.7376  -22.2845   -5.2621 H   0  0  0  0  0
   46.4355  -21.7011   -7.4021 H   0  0  0  0  0
   46.9952  -20.0273   -7.6380 H   0  0  0  0  0
   45.4711  -20.7057   -9.3468 H   0  0  0  0  0
   44.2914  -21.0385   -8.2179 H   0  0  0  0  0
   44.8151  -19.4720   -8.4387 H   0  0  0  0  0
  1  2  1  0  0  0
  2  3  1  0  0  0
  3  4  1  0  0  0
  4  5  1  0  0  0
  5  6  4  0  0  0
  5  7  4  0  0  0
  6 11  4  0  0  0
  7  8  1  0  0  0
  7  9  4  0  0  0
  9 10  1  0  0  0
  9 11  4  0  0  0
 11 12  1  0  0  0
 12 13  2  0  0  0
 12 14  1  0  0  0
 14 15  1  0  0  0
 14 19  1  0  0  0
 15 16  1  0  0  0
 15 17  1  0  0  0
 16 21  1  0  0  0
 17 18  1  0  0  0
 18 19  1  0  0  0
 19 20  1  0  0  0
 20 21  1  0  0  0
 21 22  1  0  0  0
 22 23  4  0  0  0
 22 24  4  0  0  0
 23 28  4  0  0  0
 24 25  1  0  0  0
 24 26  4  0  0  0
 26 27  4  0  0  0
 27 28  4  0  0  0
 28 29  1  0  0  0
 29 30  1  0  0  0
  1 31  1  0  0  0
  1 32  1  0  0  0
  1 33  1  0  0  0
  2 34  1  0  0  0
  2 35  1  0  0  0
  3 36  1  0  0  0
  3 37  1  0  0  0
 10 38  1  0  0  0
 10 39  1  0  0  0
 10 40  1  0  0  0
 15 41  1  0  0  0
 16 42  1  0  0  0
 16 43  1  0  0  0
 17 44  1  0  0  0
 17 45  1  0  0  0
 18 46  1  0  0  0
 18 47  1  0  0  0
 19 48  1  0  0  0
 20 49  1  0  0  0
 20 50  1  0  0  0
 21 51  1  0  0  0
 23 52  1  0  0  0
 26 53  1  0  0  0
 27 54  1  0  0  0
 29 55  1  0  0  0
 29 56  1  0  0  0
 30 57  1  0  0  0
 30 58  1  0  0  0
 30 59  1  0  0  0
M  END
$$$$
