4i8w_ligand
  -I-interpret- 

 79 82  0  0  0  0  0  0  0  0999 V2000
    8.4010   15.2230    2.6770 O   0  0  0  0  0
    8.1760   16.3880    2.8940 C   0  0  0  0  0
    8.5700   16.8000    4.1420 O   0  0  0  0  0
    8.1010   16.1300    5.3470 C   0  0  0  0  0
    6.8090   16.6640    6.0030 C   0  0  0  0  0
    5.7350   17.3060    5.2100 C   0  0  0  0  0
    5.8150   18.7720    5.6410 C   0  0  0  0  0
    7.0300   18.8790    6.4080 O   0  0  0  0  0
    7.3290   17.6580    6.9230 C   0  0  0  0  0
    8.7090   17.4590    7.0820 O   0  0  0  0  0
    8.9980   16.1460    6.6370 C   0  0  0  0  0
    8.4710   17.4250    2.0780 N   0  3  0  0  0
    8.5600   17.3050    0.6360 C   0  0  0  0  0
    7.6160   18.3020    0.0540 C   0  0  0  0  0
    6.2300   18.0050    0.6060 C   0  0  0  0  0
    5.6240   16.7910    0.2830 C   0  0  0  0  0
    4.3480   16.4940    0.7850 C   0  0  0  0  0
    3.7160   17.4070    1.5950 C   0  0  0  0  0
    4.3060   18.6090    1.9340 C   0  0  0  0  0
    5.5680   18.9270    1.4390 C   0  0  0  0  0
   10.0170   17.6650    0.1800 C   0  0  0  0  0
   10.2640   18.9930    0.4620 O   0  0  0  0  0
   10.3940   17.2930   -1.2740 C   0  0  0  0  0
   10.3850   15.8160   -1.2800 N   0  0  0  0  0
   11.6790   15.3020   -1.7470 C   0  0  0  0  0
   12.5360   14.7600   -0.6030 C   0  0  0  0  0
   13.0380   13.4140   -1.0160 C   0  0  0  0  0
   11.7030   14.6020    0.6320 C   0  0  0  0  0
    9.1010   15.2050   -2.1910 S   0  0  0  0  0
    7.9320   16.0230   -2.1840 O   0  0  0  0  0
    8.6630   13.9350   -1.6790 O   0  0  0  0  0
    9.6580   15.0700   -3.9030 C   0  0  0  0  0
   10.1260   13.8550   -4.3470 C   0  0  0  0  0
   10.5700   13.7180   -5.6670 C   0  0  0  0  0
    9.5640   16.2440   -4.6750 C   0  0  0  0  0
   10.0310   16.0900   -5.9990 C   0  0  0  0  0
   10.5080   14.8560   -6.4760 C   0  0  0  0  0
   10.9650   14.8010   -7.7760 C   0  0  0  0  0
   10.8700   15.9680   -8.2080 O   0  0  0  0  0
   11.3770   13.6610   -8.0760 O   0  0  0  0  0
    8.0916   14.6953    3.4168 H   0  0  0  0  0
    7.1147   16.2325    2.7004 H   0  0  0  0  0
    8.0342   15.1619    4.8507 H   0  0  0  0  0
    6.2761   15.7879    6.3726 H   0  0  0  0  0
    4.7549   16.8656    5.3933 H   0  0  0  0  0
    5.8678   17.1745    4.1361 H   0  0  0  0  0
    4.9441   19.0651    6.2273 H   0  0  0  0  0
    5.8237   19.4422    4.7815 H   0  0  0  0  0
    6.8830   17.5788    7.9144 H   0  0  0  0  0
   10.0543   15.9364    6.4687 H   0  0  0  0  0
    8.7863   15.3561    7.3576 H   0  0  0  0  0
    9.4251   17.6648    2.3476 H   0  0  0  0  0
    7.6769   18.0519    2.2074 H   0  0  0  0  0
    8.3180   16.2927    0.3123 H   0  0  0  0  0
    7.6138   18.2318   -1.0337 H   0  0  0  0  0
    7.9214   19.3138    0.3208 H   0  0  0  0  0
    6.1400   16.0755   -0.3572 H   0  0  0  0  0
    3.8634   15.5500    0.5355 H   0  0  0  0  0
    2.7227   17.1764    1.9801 H   0  0  0  0  0
    3.7844   19.3077    2.5881 H   0  0  0  0  0
    6.0373   19.8774    1.6931 H   0  0  0  0  0
   10.6782   17.0218    0.7606 H   0  0  0  0  0
   11.1551   19.2176    0.1843 H   0  0  0  0  0
   11.3614   17.7010   -1.5668 H   0  0  0  0  0
    9.6988   17.7129   -2.0009 H   0  0  0  0  0
   12.2204   16.1245   -2.2144 H   0  0  0  0  0
   11.4869   14.4845   -2.4419 H   0  0  0  0  0
   13.3572   15.4451   -0.3924 H   0  0  0  0  0
   12.1913   12.7538   -1.2041 H   0  0  0  0  0
   13.6324   13.5123   -1.9243 H   0  0  0  0  0
   13.6550   12.9977   -0.2197 H   0  0  0  0  0
   11.2929   15.5704    0.9184 H   0  0  0  0  0
   10.8885   13.9056    0.4327 H   0  0  0  0  0
   12.3237   14.2154    1.4403 H   0  0  0  0  0
   10.1510   13.0000   -3.6714 H   0  0  0  0  0
   10.9466   12.7681   -6.0465 H   0  0  0  0  0
    9.1683   17.1828   -4.2874 H   0  0  0  0  0
   10.0215   16.9500   -6.6686 H   0  0  0  0  0
   11.2036   13.0579   -7.3495 H   0  0  0  0  0
  1  2  1  0  0  0
  2  3  1  0  0  0
  2 12  1  0  0  0
  3  4  1  0  0  0
  4  5  1  0  0  0
  4 11  1  0  0  0
  5  6  1  0  0  0
  5  9  1  0  0  0
  6  7  1  0  0  0
  7  8  1  0  0  0
  8  9  1  0  0  0
  9 10  1  0  0  0
 10 11  1  0  0  0
 12 13  1  0  0  0
 13 14  1  0  0  0
 13 21  1  0  0  0
 14 15  1  0  0  0
 15 16  4  0  0  0
 15 20  4  0  0  0
 16 17  4  0  0  0
 17 18  4  0  0  0
 18 19  4  0  0  0
 19 20  4  0  0  0
 21 22  1  0  0  0
 21 23  1  0  0  0
 23 24  1  0  0  0
 24 25  1  0  0  0
 24 29  1  0  0  0
 25 26  1  0  0  0
 26 27  1  0  0  0
 26 28  1  0  0  0
 29 30  2  0  0  0
 29 31  2  0  0  0
 29 32  1  0  0  0
 32 33  4  0  0  0
 32 35  4  0  0  0
 33 34  4  0  0  0
 34 37  4  0  0  0
 35 36  4  0  0  0
 36 37  4  0  0  0
 37 38  1  0  0  0
 38 39  2  0  0  0
 38 40  1  0  0  0
  1 41  1  0  0  0
  2 42  1  0  0  0
  4 43  1  0  0  0
  5 44  1  0  0  0
  6 45  1  0  0  0
  6 46  1  0  0  0
  7 47  1  0  0  0
  7 48  1  0  0  0
  9 49  1  0  0  0
 11 50  1  0  0  0
 11 51  1  0  0  0
 12 52  1  0  0  0
 12 53  1  0  0  0
 13 54  1  0  0  0
 14 55  1  0  0  0
 14 56  1  0  0  0
 16 57  1  0  0  0
 17 58  1  0  0  0
 18 59  1  0  0  0
 19 60  1  0  0  0
 20 61  1  0  0  0
 21 62  1  0  0  0
 22 63  1  0  0  0
 23 64  1  0  0  0
 23 65  1  0  0  0
 25 66  1  0  0  0
 25 67  1  0  0  0
 26 68  1  0  0  0
 27 69  1  0  0  0
 27 70  1  0  0  0
 27 71  1  0  0  0
 28 72  1  0  0  0
 28 73  1  0  0  0
 28 74  1  0  0  0
 33 75  1  0  0  0
 34 76  1  0  0  0
 35 77  1  0  0  0
 36 78  1  0  0  0
 40 79  1  0  0  0
M  END
$$$$
