5hbh_ligand
  -I-interpret- 

 65 69  0  0  0  0  0  0  0  0999 V2000
    3.6550   18.3150   15.8440 C   0  0  0  0  0
    4.3030   17.4620   13.7590 C   0  0  0  0  0
    4.8240   16.2780   12.9370 C   0  0  0  0  0
    2.7200   15.8870   11.6490 C   0  0  0  0  0
    1.9910   14.6430   11.0790 C   0  0  0  0  0
    3.2190   13.8080   10.6250 C   0  0  0  0  0
    6.1830   13.2630   10.1180 C   0  0  0  0  0
    6.9190   10.8780   10.3640 C   0  0  0  0  0
    7.8750   10.2500   11.2080 C   0  0  0  0  0
    8.6030    9.1700   10.7140 C   0  0  0  0  0
    6.7450   10.3230    9.0510 C   0  0  0  0  0
    4.3810   10.7150    8.1370 C   0  0  0  0  0
    3.5430   11.3530    7.2200 C   0  0  0  0  0
    0.6690   13.0730    5.4960 O   0  0  0  0  0
    3.3600   13.3520    4.0580 C   0  0  0  0  0
    4.0730   12.2090    6.2710 C   0  0  0  0  0
    5.4620   12.4360    6.2590 C   0  0  0  0  0
    6.2940   11.8070    7.1490 C   0  0  0  0  0
    3.8890   17.1300   15.0770 O   0  0  0  0  0
    3.8270   15.3030   12.4350 N   0  3  0  0  0
    4.3360   14.1470   11.6490 C   0  0  0  0  0
    5.6720   14.4320   10.9560 C   0  0  0  0  0
    6.1190   11.9640   10.7930 N   0  0  0  0  0
    5.1340   11.7230   11.8710 C   0  0  0  0  0
    4.6040   12.9740   12.5850 C   0  0  0  0  0
    8.2130   10.7690   12.8440 Cl  0  0  0  0  0
    8.4190    8.7050    9.4850 N   0  0  0  0  0
    7.5380    9.2450    8.6520 C   0  0  0  0  0
    5.7710   10.9260    8.1000 C   0  0  0  0  0
    2.0290   11.2730    7.0380 C   0  0  0  0  0
    1.7990   12.9420    6.3490 S   0  0  0  0  0
    2.1430   13.9290    7.3140 O   0  0  0  0  0
    3.1580   12.8390    5.4170 N   0  0  0  0  0
    4.5740   18.8987   15.8980 H   0  0  0  0  0
    2.8745   18.9072   15.3663 H   0  0  0  0  0
    3.3389   18.0387   16.8499 H   0  0  0  0  0
    3.4273   17.8499   13.2386 H   0  0  0  0  0
    5.1257   18.1708   13.8529 H   0  0  0  0  0
    5.4716   15.7158   13.6098 H   0  0  0  0  0
    5.2802   16.7152   12.0488 H   0  0  0  0  0
    2.0654   16.5174   12.2509 H   0  0  0  0  0
    3.0706   16.5619   10.8682 H   0  0  0  0  0
    1.2726   14.8604   10.2886 H   0  0  0  0  0
    1.3349   14.1372   11.7874 H   0  0  0  0  0
    3.5182   14.0511    9.6055 H   0  0  0  0  0
    2.9977   12.7409   10.6071 H   0  0  0  0  0
    7.2326   13.4596    9.8995 H   0  0  0  0  0
    5.5459   13.1979    9.2360 H   0  0  0  0  0
    9.3447    8.6935   11.3551 H   0  0  0  0  0
    3.9547   10.0486    8.8869 H   0  0  0  0  0
    2.6405   12.8863    3.3845 H   0  0  0  0  0
    3.2168   14.4325    4.0539 H   0  0  0  0  0
    4.3723   13.1171    3.7291 H   0  0  0  0  0
    5.8845   13.1253    5.5279 H   0  0  0  0  0
    7.3672   11.9946    7.1149 H   0  0  0  0  0
    3.4951   14.9584   13.3358 H   0  0  0  0  0
    5.5193   15.2760   10.2833 H   0  0  0  0  0
    6.4105   14.6256   11.7340 H   0  0  0  0  0
    5.6465   11.1304   12.6288 H   0  0  0  0  0
    4.2725   11.2496   11.4000 H   0  0  0  0  0
    3.6559   12.7060   13.0511 H   0  0  0  0  0
    5.3674   13.2918   13.2952 H   0  0  0  0  0
    7.4322    8.8423    7.6446 H   0  0  0  0  0
    1.4513   11.0411    7.9327 H   0  0  0  0  0
    1.6637   10.4483    6.4259 H   0  0  0  0  0
 19  1  1  0  0  0
  3  2  1  0  0  0
  2 19  1  0  0  0
 20  3  1  0  0  0
  4  5  1  0  0  0
 20  4  1  0  0  0
  6  5  1  0  0  0
 21  6  1  0  0  0
  7 22  1  0  0  0
 23  7  1  0  0  0
  8  9  4  0  0  0
 11  8  4  0  0  0
  8 23  1  0  0  0
  9 10  4  0  0  0
  9 26  1  0  0  0
 27 10  4  0  0  0
 11 28  4  0  0  0
 29 11  1  0  0  0
 13 12  4  0  0  0
 12 29  4  0  0  0
 13 16  4  0  0  0
 30 13  1  0  0  0
 31 14  2  0  0  0
 33 15  1  0  0  0
 16 17  4  0  0  0
 16 33  1  0  0  0
 17 18  4  0  0  0
 29 18  4  0  0  0
 21 20  1  0  0  0
 22 21  1  0  0  0
 25 21  1  0  0  0
 23 24  1  0  0  0
 24 25  1  0  0  0
 28 27  4  0  0  0
 30 31  1  0  0  0
 31 32  2  0  0  0
 31 33  1  0  0  0
  1 34  1  0  0  0
  1 35  1  0  0  0
  1 36  1  0  0  0
  2 37  1  0  0  0
  2 38  1  0  0  0
  3 39  1  0  0  0
  3 40  1  0  0  0
  4 41  1  0  0  0
  4 42  1  0  0  0
  5 43  1  0  0  0
  5 44  1  0  0  0
  6 45  1  0  0  0
  6 46  1  0  0  0
  7 47  1  0  0  0
  7 48  1  0  0  0
 10 49  1  0  0  0
 12 50  1  0  0  0
 15 51  1  0  0  0
 15 52  1  0  0  0
 15 53  1  0  0  0
 17 54  1  0  0  0
 18 55  1  0  0  0
 20 56  1  0  0  0
 22 57  1  0  0  0
 22 58  1  0  0  0
 24 59  1  0  0  0
 24 60  1  0  0  0
 25 61  1  0  0  0
 25 62  1  0  0  0
 28 63  1  0  0  0
 30 64  1  0  0  0
 30 65  1  0  0  0
M  END
$$$$
