2wd7_ligand
  -I-interpret- 

 16 17  0  0  0  0  0  0  0  0999 V2000
    6.1950  -13.4710   13.6130 Cl  0  0  0  0  0
    6.9170  -11.9450   14.2070 C   0  0  0  0  0
    6.2080  -11.0070   14.9780 C   0  0  0  0  0
    6.8570   -9.8340   15.3870 C   0  0  0  0  0
    8.1940   -9.6190   15.0220 C   0  0  0  0  0
    8.8890  -10.5810   14.2520 C   0  0  0  0  0
    8.2440  -11.7350   13.8490 C   0  0  0  0  0
    9.0670   -8.6120   15.2830 N   0  0  0  0  0
   10.2180   -8.9940   14.6750 C   0  0  0  0  0
   10.1680  -10.1810   14.0440 N   0  0  0  0  0
   11.3540   -8.2510   14.6940 N   0  0  0  0  0
    5.1693  -11.1893   15.2535 H   0  0  0  0  0
    6.3259   -9.0935   15.9850 H   0  0  0  0  0
    8.7737  -12.4779   13.2526 H   0  0  0  0  0
   11.3700   -7.3561   15.1832 H   0  0  0  0  0
   12.1916   -8.5877   14.2191 H   0  0  0  0  0
  1  2  1  0  0  0
  2  3  4  0  0  0
  2  7  4  0  0  0
  3  4  4  0  0  0
  4  5  4  0  0  0
  5  6  4  0  0  0
  5  8  4  0  0  0
  6  7  4  0  0  0
  6 10  4  0  0  0
  8  9  4  0  0  0
  9 10  4  0  0  0
  9 11  1  0  0  0
  3 12  1  0  0  0
  4 13  1  0  0  0
  7 14  1  0  0  0
 11 15  1  0  0  0
 11 16  1  0  0  0
M  END
$$$$
