6n5f_ligand
  -I-interpret- 

 55 54  0  0  0  0  0  0  0  0999 V2000
    9.8040    7.1780   20.4950 C   0  0  0  0  0
   11.7860    6.1910   21.9530 C   0  0  0  0  0
   13.3000    4.3420   23.1950 C   0  0  0  0  0
    6.3980   12.4860   11.6110 C   0  0  0  0  0
    4.9750   12.3160   12.1730 C   0  0  0  0  0
    4.7300   13.3180   13.2950 C   0  0  0  0  0
    5.7950   13.1730   14.3840 C   0  0  0  0  0
    5.6750   11.8500   15.1730 C   0  0  0  0  0
    6.7160   11.8440   16.3020 C   0  0  0  0  0
    6.5720   10.6210   17.2230 C   0  0  0  0  0
    7.4090   10.8690   18.4660 C   0  0  0  0  0
    7.4190    9.6770   19.4100 C   0  0  0  0  0
    6.4220    9.0340   19.6050 O   0  0  0  0  0
    8.6690    9.3460   20.0480 N   0  0  0  0  0
    8.7690    8.2040   20.9820 C   0  0  0  0  0
   10.2740    6.1800   21.5920 C   0  0  0  0  0
   12.4900    4.7880   21.9490 C   0  0  0  0  0
   14.1040    2.9950   23.1470 C   0  0  0  0  0
   15.5300    3.2000   22.6030 C   0  0  0  0  0
   15.6200    4.0000   21.4060 N   0  0  0  0  0
   16.5490    2.7290   23.0810 O   0  0  0  0  0
   10.6820    7.7356   20.1688 H   0  0  0  0  0
    9.3309    6.5918   19.7071 H   0  0  0  0  0
   11.8599    6.5732   22.9711 H   0  0  0  0  0
   12.2834    6.7908   21.1908 H   0  0  0  0  0
   12.5523    4.1921   23.9738 H   0  0  0  0  0
   14.0583    5.1141   23.3248 H   0  0  0  0  0
    6.5144   13.4967   11.2198 H   0  0  0  0  0
    7.1240   12.3170   12.4063 H   0  0  0  0  0
    6.5597   11.7642   10.8104 H   0  0  0  0  0
    4.8648   11.3054   12.5663 H   0  0  0  0  0
    4.2529   12.4896   11.3752 H   0  0  0  0  0
    3.7491   13.1288   13.7311 H   0  0  0  0  0
    4.7770   14.3271   12.8855 H   0  0  0  0  0
    5.6628   13.9935   15.0893 H   0  0  0  0  0
    6.7706   13.1825   13.8979 H   0  0  0  0  0
    5.8524   11.0068   14.5054 H   0  0  0  0  0
    4.6741   11.7641   15.5959 H   0  0  0  0  0
    6.5665   12.7401   16.9043 H   0  0  0  0  0
    7.7065   11.8105   15.8482 H   0  0  0  0  0
    6.9146    9.7216   16.7113 H   0  0  0  0  0
    5.5267   10.4755   17.4955 H   0  0  0  0  0
    6.9764   11.7158   18.9988 H   0  0  0  0  0
    8.4351   11.0546   18.1485 H   0  0  0  0  0
    9.4971    9.9083   19.8520 H   0  0  0  0  0
    9.0814    8.5779   21.9570 H   0  0  0  0  0
    7.7961    7.7161   21.0409 H   0  0  0  0  0
   10.0690    5.1849   21.1973 H   0  0  0  0  0
    9.7481    6.4682   22.5022 H   0  0  0  0  0
   13.2246    4.8473   21.1459 H   0  0  0  0  0
   11.6753    4.0678   21.8740 H   0  0  0  0  0
   13.5799    2.3064   22.4843 H   0  0  0  0  0
   14.1771    2.6030   24.1615 H   0  0  0  0  0
   16.5273    4.1656   20.9703 H   0  0  0  0  0
   14.7764    4.4001   20.9953 H   0  0  0  0  0
 15  1  1  0  0  0
  1 16  1  0  0  0
 16  2  1  0  0  0
  2 17  1  0  0  0
 17  3  1  0  0  0
  3 18  1  0  0  0
  5  4  1  0  0  0
  6  5  1  0  0  0
  7  6  1  0  0  0
  8  7  1  0  0  0
  9  8  1  0  0  0
 10  9  1  0  0  0
 11 10  1  0  0  0
 12 11  1  0  0  0
 12 13  2  0  0  0
 14 12  1  0  0  0
 14 15  1  0  0  0
 18 19  1  0  0  0
 19 20  1  0  0  0
 19 21  2  0  0  0
  1 22  1  0  0  0
  1 23  1  0  0  0
  2 24  1  0  0  0
  2 25  1  0  0  0
  3 26  1  0  0  0
  3 27  1  0  0  0
  4 28  1  0  0  0
  4 29  1  0  0  0
  4 30  1  0  0  0
  5 31  1  0  0  0
  5 32  1  0  0  0
  6 33  1  0  0  0
  6 34  1  0  0  0
  7 35  1  0  0  0
  7 36  1  0  0  0
  8 37  1  0  0  0
  8 38  1  0  0  0
  9 39  1  0  0  0
  9 40  1  0  0  0
 10 41  1  0  0  0
 10 42  1  0  0  0
 11 43  1  0  0  0
 11 44  1  0  0  0
 14 45  1  0  0  0
 15 46  1  0  0  0
 15 47  1  0  0  0
 16 48  1  0  0  0
 16 49  1  0  0  0
 17 50  1  0  0  0
 17 51  1  0  0  0
 18 52  1  0  0  0
 18 53  1  0  0  0
 20 54  1  0  0  0
 20 55  1  0  0  0
M  END
$$$$
