### 
### Created by X-TOOL on Mon Sep 10 21:13:28 2018
### 

@<TRIPOS>MOLECULE
5iyv_ligand
  170   173     1     0     0
SMALL
GAST_HUCK


@<TRIPOS>ATOM
      1 N          -4.4820   59.2040   -5.7620 N.4       1 LEU         0.2357
      2 CA         -3.6790   59.3000   -7.0140 C.3       1 LEU         0.0545
      3 C          -2.2400   58.8310   -6.7930 C.2       1 LEU         0.2236
      4 O          -1.7570   57.9620   -7.5370 O.2       1 LEU        -0.3910
      5 N          -1.5650   59.4170   -5.7950 N.am      1 VAL        -0.2610
      6 CA         -0.1440   59.1070   -5.4840 C.3       1 VAL         0.1336
      7 C           0.0090   58.8410   -3.9730 C.2       1 VAL         0.2067
      8 O          -0.4860   59.6290   -3.1640 O.2       1 VAL        -0.3942
      9 CB          0.8290   60.2630   -5.8730 C.3       1 VAL        -0.0062
     10 CG1         2.2460   59.7420   -5.9510 C.3       1 VAL        -0.0584
     11 CG2         0.4320   60.9220   -7.1890 C.3       1 VAL        -0.0584
     12 N           0.6920   57.7370   -3.5800 N.am      1 PRO        -0.2498
     13 CA          0.9850   57.5620   -2.1360 C.3       1 PRO         0.1340
     14 C           2.0270   58.5840   -1.6400 C.2       1 PRO         0.2066
     15 O           2.8700   59.0160   -2.4310 O.2       1 PRO        -0.3942
     16 CB          1.5360   56.1250   -2.0430 C.3       1 PRO        -0.0104
     17 CG          1.2360   55.4740   -3.3630 C.3       1 PRO        -0.0281
     18 CD          1.1490   56.5790   -4.3790 C.3       1 PRO         0.0369
     19 N           1.9770   58.9660   -0.3470 N.am      1 PRO        -0.2498
     20 CA          2.9230   59.9790    0.1460 C.3       1 PRO         0.1338
     21 C           4.3470   59.4350    0.3210 C.2       1 PRO         0.2042
     22 O           4.5320   58.2130    0.4110 O.2       1 PRO        -0.3944
     23 CB          2.3370   60.3610    1.5150 C.3       1 PRO        -0.0104
     24 CG          1.6690   59.1140    1.9870 C.3       1 PRO        -0.0281
     25 CD          1.1600   58.4070    0.7520 C.3       1 PRO         0.0369
     26 N           5.3290   60.3420    0.3420 N.am      1 SER        -0.2616
     27 CA          6.7060   59.9960    0.6960 C.3       1 SER         0.1539
     28 C           6.8030   59.9190    2.2180 C.2       1 SER         0.2060
     29 O           6.8830   60.9420    2.8880 O.2       1 SER        -0.3943
     30 CB          7.6960   61.0270    0.1370 C.3       1 SER         0.0843
     31 OG          9.0250   60.6810    0.4610 O.3       1 SER        -0.3903
     32 N           6.7550   58.7010    2.7550 N.am      1 GLY        -0.2663
     33 CA          6.8800   58.4680    4.1950 C.3       1 GLY         0.1203
     34 C           6.9680   56.9850    4.5420 C.2       1 GLY         0.2033
     35 O           7.0280   56.1370    3.6410 O.2       1 GLY        -0.3945
     36 N           7.0180   56.6690    5.8490 N.am      1 HYP        -0.2475
     37 CA          6.9530   55.3220    6.3980 C.3       1 HYP         0.1362
     38 C           5.9100   54.3420    6.0340 C.2       1 HYP         0.2043
     39 O           4.8090   54.7680    5.7080 O.2       1 HYP        -0.3944
     40 CB          7.5430   55.2410    7.7790 C.3       1 HYP         0.0158
     41 CG          7.9610   56.6790    8.0500 C.3       1 HYP         0.0799
     42 CD          7.3610   57.5600    6.9470 C.3       1 HYP         0.0629
     43 OD1         9.3880   56.7120    7.9930 O.3       1 HYP        -0.3896
     44 N           6.2240   53.0460    6.1530 N.am      1 SER        -0.2616
     45 CA          5.2600   51.9460    5.9400 C.3       1 SER         0.1539
     46 C           4.3960   51.7350    7.1850 C.2       1 SER         0.2062
     47 O           4.9460   51.6310    8.2910 O.2       1 SER        -0.3943
     48 CB          6.0210   50.6580    5.6180 C.3       1 SER         0.0843
     49 OG          5.1330   49.6270    5.2350 O.3       1 SER        -0.3903
     50 N           3.0640   51.6820    7.0210 N.am      1 MET        -0.2636
     51 CA          2.1560   51.3220    8.1420 C.3       1 MET         0.1317
     52 C           1.6770   49.8690    8.0100 C.2       1 MET         0.2039
     53 O           0.5010   49.5630    8.2220 O.2       1 MET        -0.3944
     54 CB          0.9820   52.3120    8.3120 C.3       1 MET        -0.0034
     55 CG          0.1970   52.1830    9.6470 C.3       1 MET        -0.0024
     56 SD          1.0850   52.0520   11.2440 S.3       1 MET        -0.1639
     57 CE          1.5920   53.7630   11.3610 C.3       1 MET        -0.0181
     58 N           2.6030   48.9780    7.6410 N.am      1 ARG        -0.2637
     59 CA          2.3930   47.5330    7.7410 C.3       1 ARG         0.1311
     60 C           2.7570   47.1440    9.1850 C.2       1 ARG         0.2040
     61 O           3.8180   47.4800    9.6740 O.2       1 ARG        -0.3944
     62 CB          3.1950   46.7730    6.6520 C.3       1 ARG        -0.0092
     63 CG          3.5310   45.2960    6.9090 C.3       1 ARG        -0.0156
     64 CD          2.3480   44.3730    7.2340 C.3       1 ARG         0.0627
     65 NE          2.8040   43.0950    7.8120 N.pl3     1 ARG        -0.2723
     66 CZ          2.0810   42.2600    8.5750 C.cat     1 ARG         0.2882
     67 NH1         0.8220   42.5130    8.9040 N.pl3     1 ARG        -0.2849
     68 NH2         2.6360   41.1450    9.0290 N.pl3     1 ARG        -0.2849
     69 N           1.8260   46.4950    9.8730 N.am      1 HIS        -0.2625
     70 CA          2.0070   46.0250   11.2560 C.3       1 HIS         0.1369
     71 C           1.1890   44.7250   11.4490 C.2       1 HIS         0.2049
     72 O           0.3310   44.3940   10.6210 O.2       1 HIS        -0.3943
     73 CB          1.5400   47.1030   12.2530 C.3       1 HIS         0.0145
     74 CG          0.0970   47.4890   12.0900 C.2       1 HIS        -0.0027
     75 ND1        -0.9230   46.8860   12.7950 N.2       1 HIS        -0.3252
     76 CD2        -0.4990   48.3890   11.2740 C.2       1 HIS         0.0291
     77 CE1        -2.0810   47.4100   12.4320 C.2       1 HIS         0.0907
     78 NE2        -1.8500   48.3250   11.5090 N.pl3     1 HIS        -0.2752
     79 N           1.4470   44.0130   12.5450 N.am      1 ASN        -0.2672
     80 CA          0.6180   42.8570   12.9450 C.3       1 ASN         0.1110
     81 C          -0.5160   43.3050   13.8940 C.2       1 ASN         0.0624
     82 O          -1.3760   42.5110   14.2720 O.co2     1 ASN        -0.5665
     83 CB          1.4640   41.7630   13.6230 C.3       1 ASN         0.0718
     84 CG          2.7270   41.4280   12.8530 C.2       1 ASN         0.1774
     85 OD1         3.7430   42.1150   12.9850 O.2       1 ASN        -0.3971
     86 ND2         2.6770   40.3580   12.0600 N.am      1 ASN        -0.3007
     87 OXT        -0.6200   44.4570   14.3350 O.co2     1 ASN        -0.5665
     88 H1         -5.4225   59.5195   -5.9410 H         1 LEU         0.2012
     89 H2         -4.0638   59.7815   -5.0495 H         1 LEU         0.2012
     90 H3         -4.5029   58.2461   -5.4488 H         1 LEU         0.2012
     91 H4         -3.6661   60.3469   -7.3512 H         1 LEU         0.1061
     92 H5         -4.1452   58.6715   -7.7870 H         1 LEU         0.1061
     93 H6         -2.0389   60.0947   -5.2327 H         1 VAL         0.1884
     94 H7          0.1429   58.2039   -6.0426 H         1 VAL         0.0803
     95 H8          0.7837   61.0273   -5.0832 H         1 VAL         0.0343
     96 H9          2.9241   60.5635   -6.2256 H         1 VAL         0.0234
     97 H10         2.3039   58.9492   -6.7113 H         1 VAL         0.0234
     98 H11         2.5412   59.3344   -4.9729 H         1 VAL         0.0234
     99 H12        -0.6002   61.2951   -7.1155 H         1 VAL         0.0234
    100 H13         0.4983   60.1850   -8.0028 H         1 VAL         0.0234
    101 H14         1.1113   61.7615   -7.3983 H         1 VAL         0.0234
    102 H15         0.0661   57.6653   -1.5403 H         1 PRO         0.0802
    103 H16         1.0401   55.5787   -1.2272 H         1 PRO         0.0313
    104 H17         2.6214   56.1437   -1.8652 H         1 PRO         0.0313
    105 H18         0.2805   54.9316   -3.3099 H         1 PRO         0.0287
    106 H19         2.0406   54.7739   -3.6322 H         1 PRO         0.0287
    107 H20         2.1315   56.7759   -4.8328 H         1 PRO         0.0524
    108 H21         0.4232   56.3331   -5.1681 H         1 PRO         0.0524
    109 H22         2.9479   60.8454   -0.5313 H         1 PRO         0.0802
    110 H23         1.6089   61.1792    1.4133 H         1 PRO         0.0313
    111 H24         3.1341   60.6637    2.2100 H         1 PRO         0.0313
    112 H25         0.8314   59.3612    2.6559 H         1 PRO         0.0287
    113 H26         2.3886   58.4759    2.5208 H         1 PRO         0.0287
    114 H27         1.3087   57.3203    0.8352 H         1 PRO         0.0524
    115 H28         0.0927   58.6200    0.5923 H         1 PRO         0.0524
    116 H29         5.1149   61.2903    0.1075 H         1 SER         0.1884
    117 H30         6.9493   59.0115    0.2699 H         1 SER         0.0823
    118 H31         7.4670   62.0141    0.5650 H         1 SER         0.0606
    119 H32         7.5920   61.0687   -0.9573 H         1 SER         0.0606
    120 H33         9.2290   59.8304    0.0903 H         1 SER         0.2097
    121 H34         6.6286   57.9144    2.1506 H         1 GLY         0.1881
    122 H35         6.0013   58.8966    4.6992 H         1 GLY         0.0763
    123 H36         7.7904   58.9691    4.5556 H         1 GLY         0.0763
    124 H37         7.7755   54.8732    5.8217 H         1 HYP         0.0803
    125 H38         8.4106   54.5652    7.8005 H         1 HYP         0.0338
    126 H39         6.7951   54.9010    8.5104 H         1 HYP         0.0338
    127 H40         7.6080   57.0121    9.0371 H         1 HYP         0.0616
    128 H41         6.4603   58.0717    7.3170 H         1 HYP         0.0550
    129 H42         8.0968   58.3071    6.6148 H         1 HYP         0.0550
    130 H43         9.6776   56.3900    7.1474 H         1 HYP         0.2099
    131 H44         7.1636   52.8088    6.3999 H         1 SER         0.1884
    132 H45         4.6075   52.2017    5.0922 H         1 SER         0.0823
    133 H46         6.5803   50.3382    6.5096 H         1 SER         0.0606
    134 H47         6.7238   50.8518    4.7943 H         1 SER         0.0606
    135 H48         5.6283   48.8399    5.0408 H         1 SER         0.2097
    136 H49         2.6738   51.8895    6.1239 H         1 MET         0.1883
    137 H50         2.7512   51.3812    9.0651 H         1 MET         0.0800
    138 H51         0.2759   52.1481    7.4847 H         1 MET         0.0320
    139 H52         1.3864   53.3332    8.2522 H         1 MET         0.0320
    140 H53        -0.4265   51.2811    9.5592 H         1 MET         0.0378
    141 H54        -0.4494   53.0702    9.7186 H         1 MET         0.0378
    142 H55         2.1653   53.9130   12.2877 H         1 MET         0.0340
    143 H56         0.7019   54.4093   11.3719 H         1 MET         0.0340
    144 H57         2.2206   54.0192   10.4955 H         1 MET         0.0340
    145 H58         3.4744   49.3124    7.2821 H         1 ARG         0.1883
    146 H59         1.3274   47.3128    7.5799 H         1 ARG         0.0800
    147 H60         4.1469   47.3065    6.5134 H         1 ARG         0.0313
    148 H61         2.6099   46.8191    5.7217 H         1 ARG         0.0313
    149 H62         4.2304   45.2546    7.7570 H         1 ARG         0.0301
    150 H63         4.0240   44.9032    6.0075 H         1 ARG         0.0301
    151 H64         1.7896   44.1680    6.3087 H         1 ARG         0.0689
    152 H65         1.6889   44.8771    7.9561 H         1 ARG         0.0689
    153 H66         3.7744   42.8151    7.6100 H         1 ARG         0.2642
    154 H67         0.2996   41.8477    9.4916 H         1 ARG         0.2615
    155 H68         0.3662   43.3749    8.5720 H         1 ARG         0.2615
    156 H69         3.6127   40.9215    8.7900 H         1 ARG         0.2615
    157 H70         2.0906   40.5021    9.6207 H         1 ARG         0.2615
    158 H71         0.9501   46.3147    9.4255 H         1 HIS         0.1885
    159 H72         3.0721   45.8135   11.4313 H         1 HIS         0.0817
    160 H73         2.1585   48.0011   12.1090 H         1 HIS         0.0420
    161 H74         1.6839   46.7185   13.2735 H         1 HIS         0.0420
    162 H75         0.0011   49.0437   10.5618 H         1 HIS         0.0729
    163 H76        -3.0578   47.1342   12.8266 H         1 HIS         0.1199
    164 H77        -2.5669   48.8978   11.0412 H         1 HIS         0.2361
    165 H78         2.2272   44.2692   13.1157 H         1 ASN         0.1877
    166 H79         0.1651   42.4303   12.0379 H         1 ASN         0.0752
    167 H80         0.8542   40.8516   13.7096 H         1 ASN         0.0544
    168 H81         1.7477   42.1112   14.6271 H         1 ASN         0.0544
    169 H82         3.4813   40.0912   11.5290 H         1 ASN         0.1814
    170 H83         1.8352   39.8220   11.9960 H         1 ASN         0.1814
@<TRIPOS>BOND
     1    1    2 1  
     2    2    3 1  
     3    3    4 2  
     4    3    5 am 
     5    5    6 1  
     6    6    7 1  
     7    6    9 1  
     8    7    8 2  
     9    7   12 am 
    10    9   10 1  
    11    9   11 1  
    12   12   13 1  
    13   12   18 1  
    14   13   14 1  
    15   13   16 1  
    16   14   15 2  
    17   14   19 am 
    18   16   17 1  
    19   17   18 1  
    20   19   20 1  
    21   19   25 1  
    22   20   21 1  
    23   20   23 1  
    24   21   22 2  
    25   21   26 am 
    26   23   24 1  
    27   24   25 1  
    28   26   27 1  
    29   27   28 1  
    30   27   30 1  
    31   28   29 2  
    32   28   32 am 
    33   30   31 1  
    34   32   33 1  
    35   33   34 1  
    36   34   35 2  
    37   34   36 am 
    38   36   37 1  
    39   36   42 1  
    40   37   38 1  
    41   37   40 1  
    42   38   39 2  
    43   38   44 am 
    44   40   41 1  
    45   41   42 1  
    46   41   43 1  
    47   44   45 1  
    48   45   46 1  
    49   45   48 1  
    50   46   47 2  
    51   46   50 am 
    52   48   49 1  
    53   50   51 1  
    54   51   52 1  
    55   51   54 1  
    56   52   53 2  
    57   52   58 am 
    58   54   55 1  
    59   55   56 1  
    60   56   57 1  
    61   58   59 1  
    62   59   60 1  
    63   59   62 1  
    64   60   61 2  
    65   60   69 am 
    66   62   63 1  
    67   63   64 1  
    68   64   65 1  
    69   65   66 ar 
    70   66   67 ar 
    71   66   68 ar 
    72   69   70 1  
    73   70   71 1  
    74   70   73 1  
    75   71   72 2  
    76   71   79 am 
    77   73   74 1  
    78   74   75 1  
    79   74   76 2  
    80   75   77 2  
    81   76   78 1  
    82   77   78 1  
    83   79   80 1  
    84   80   81 1  
    85   80   83 1  
    86   81   82 ar 
    87   81   87 ar 
    88   83   84 1  
    89   84   85 2  
    90   84   86 am 
    91    1   88 1  
    92    1   89 1  
    93    1   90 1  
    94    2   91 1  
    95    2   92 1  
    96    5   93 1  
    97    6   94 1  
    98    9   95 1  
    99   10   96 1  
   100   10   97 1  
   101   10   98 1  
   102   11   99 1  
   103   11  100 1  
   104   11  101 1  
   105   13  102 1  
   106   16  103 1  
   107   16  104 1  
   108   17  105 1  
   109   17  106 1  
   110   18  107 1  
   111   18  108 1  
   112   20  109 1  
   113   23  110 1  
   114   23  111 1  
   115   24  112 1  
   116   24  113 1  
   117   25  114 1  
   118   25  115 1  
   119   26  116 1  
   120   27  117 1  
   121   30  118 1  
   122   30  119 1  
   123   31  120 1  
   124   32  121 1  
   125   33  122 1  
   126   33  123 1  
   127   37  124 1  
   128   40  125 1  
   129   40  126 1  
   130   41  127 1  
   131   42  128 1  
   132   42  129 1  
   133   43  130 1  
   134   44  131 1  
   135   45  132 1  
   136   48  133 1  
   137   48  134 1  
   138   49  135 1  
   139   50  136 1  
   140   51  137 1  
   141   54  138 1  
   142   54  139 1  
   143   55  140 1  
   144   55  141 1  
   145   57  142 1  
   146   57  143 1  
   147   57  144 1  
   148   58  145 1  
   149   59  146 1  
   150   62  147 1  
   151   62  148 1  
   152   63  149 1  
   153   63  150 1  
   154   64  151 1  
   155   64  152 1  
   156   65  153 1  
   157   67  154 1  
   158   67  155 1  
   159   68  156 1  
   160   68  157 1  
   161   69  158 1  
   162   70  159 1  
   163   73  160 1  
   164   73  161 1  
   165   76  162 1  
   166   77  163 1  
   167   78  164 1  
   168   79  165 1  
   169   80  166 1  
   170   83  167 1  
   171   83  168 1  
   172   86  169 1  
   173   86  170 1  
@<TRIPOS>SUBSTRUCTURE
     1 LEU         1

