5iyv_ligand
  -I-interpret- 

169172  0  0  0  0  0  0  0  0999 V2000
   -4.4820   59.2040   -5.7620 N   0  3  0  0  0
   -3.6790   59.3000   -7.0140 C   0  0  0  0  0
   -2.2400   58.8310   -6.7930 C   0  0  0  0  0
   -1.7570   57.9620   -7.5370 O   0  0  0  0  0
   -1.5650   59.4170   -5.7950 N   0  0  0  0  0
   -0.1440   59.1070   -5.4840 C   0  0  0  0  0
    0.0090   58.8410   -3.9730 C   0  0  0  0  0
   -0.4860   59.6290   -3.1640 O   0  0  0  0  0
    0.8290   60.2630   -5.8730 C   0  0  0  0  0
    2.2460   59.7420   -5.9510 C   0  0  0  0  0
    0.4320   60.9220   -7.1890 C   0  0  0  0  0
    0.6920   57.7370   -3.5800 N   0  0  0  0  0
    0.9850   57.5620   -2.1360 C   0  0  0  0  0
    2.0270   58.5840   -1.6400 C   0  0  0  0  0
    2.8700   59.0160   -2.4310 O   0  0  0  0  0
    1.5360   56.1250   -2.0430 C   0  0  0  0  0
    1.2360   55.4740   -3.3630 C   0  0  0  0  0
    1.1490   56.5790   -4.3790 C   0  0  0  0  0
    1.9770   58.9660   -0.3470 N   0  0  0  0  0
    2.9230   59.9790    0.1460 C   0  0  0  0  0
    4.3470   59.4350    0.3210 C   0  0  0  0  0
    4.5320   58.2130    0.4110 O   0  0  0  0  0
    2.3370   60.3610    1.5150 C   0  0  0  0  0
    1.6690   59.1140    1.9870 C   0  0  0  0  0
    1.1600   58.4070    0.7520 C   0  0  0  0  0
    5.3290   60.3420    0.3420 N   0  0  0  0  0
    6.7060   59.9960    0.6960 C   0  0  0  0  0
    6.8030   59.9190    2.2180 C   0  0  0  0  0
    6.8830   60.9420    2.8880 O   0  0  0  0  0
    7.6960   61.0270    0.1370 C   0  0  0  0  0
    9.0250   60.6810    0.4610 O   0  0  0  0  0
    6.7550   58.7010    2.7550 N   0  0  0  0  0
    6.8800   58.4680    4.1950 C   0  0  0  0  0
    6.9680   56.9850    4.5420 C   0  0  0  0  0
    7.0280   56.1370    3.6410 O   0  0  0  0  0
    7.0180   56.6690    5.8490 N   0  0  0  0  0
    6.9530   55.3220    6.3980 C   0  0  0  0  0
    5.9100   54.3420    6.0340 C   0  0  0  0  0
    4.8090   54.7680    5.7080 O   0  0  0  0  0
    7.5430   55.2410    7.7790 C   0  0  0  0  0
    7.9610   56.6790    8.0500 C   0  0  0  0  0
    7.3610   57.5600    6.9470 C   0  0  0  0  0
    9.3880   56.7120    7.9930 O   0  0  0  0  0
    6.2240   53.0460    6.1530 N   0  0  0  0  0
    5.2600   51.9460    5.9400 C   0  0  0  0  0
    4.3960   51.7350    7.1850 C   0  0  0  0  0
    4.9460   51.6310    8.2910 O   0  0  0  0  0
    6.0210   50.6580    5.6180 C   0  0  0  0  0
    5.1330   49.6270    5.2350 O   0  0  0  0  0
    3.0640   51.6820    7.0210 N   0  0  0  0  0
    2.1560   51.3220    8.1420 C   0  0  0  0  0
    1.6770   49.8690    8.0100 C   0  0  0  0  0
    0.5010   49.5630    8.2220 O   0  0  0  0  0
    0.9820   52.3120    8.3120 C   0  0  0  0  0
    0.1970   52.1830    9.6470 C   0  0  0  0  0
    1.0850   52.0520   11.2440 S   0  0  0  0  0
    1.5920   53.7630   11.3610 C   0  0  0  0  0
    2.6030   48.9780    7.6410 N   0  0  0  0  0
    2.3930   47.5330    7.7410 C   0  0  0  0  0
    2.7570   47.1440    9.1850 C   0  0  0  0  0
    3.8180   47.4800    9.6740 O   0  0  0  0  0
    3.1950   46.7730    6.6520 C   0  0  0  0  0
    3.5310   45.2960    6.9090 C   0  0  0  0  0
    2.3480   44.3730    7.2340 C   0  0  0  0  0
    2.8040   43.0950    7.8120 N   0  0  0  0  0
    2.0810   42.2600    8.5750 C   0  0  0  0  0
    0.8220   42.5130    8.9040 N   0  0  0  0  0
    2.6360   41.1450    9.0290 N   0  0  0  0  0
    1.8260   46.4950    9.8730 N   0  0  0  0  0
    2.0070   46.0250   11.2560 C   0  0  0  0  0
    1.1890   44.7250   11.4490 C   0  0  0  0  0
    0.3310   44.3940   10.6210 O   0  0  0  0  0
    1.5400   47.1030   12.2530 C   0  0  0  0  0
    0.0970   47.4890   12.0900 C   0  0  0  0  0
   -0.9230   46.8860   12.7950 N   0  0  0  0  0
   -0.4990   48.3890   11.2740 C   0  0  0  0  0
   -2.0810   47.4100   12.4320 C   0  0  0  0  0
   -1.8500   48.3250   11.5090 N   0  0  0  0  0
    1.4470   44.0130   12.5450 N   0  0  0  0  0
    0.6180   42.8570   12.9450 C   0  0  0  0  0
   -0.5160   43.3050   13.8940 C   0  0  0  0  0
   -1.3760   42.5110   14.2720 O   0  0  0  0  0
    1.4640   41.7630   13.6230 C   0  0  0  0  0
    2.7270   41.4280   12.8530 C   0  0  0  0  0
    3.7430   42.1150   12.9850 O   0  0  0  0  0
    2.6770   40.3580   12.0600 N   0  0  0  0  0
   -0.6200   44.4570   14.3350 O   0  0  0  0  0
   -5.4334   59.5235   -5.9443 H   0  0  0  0  0
   -4.5024   58.2344   -5.4461 H   0  0  0  0  0
   -4.0579   59.7887   -5.0418 H   0  0  0  0  0
   -3.6579   60.3424   -7.3320 H   0  0  0  0  0
   -4.1384   58.6621   -7.7691 H   0  0  0  0  0
   -2.0484   60.1083   -5.2215 H   0  0  0  0  0
    0.1189   58.2288   -6.0737 H   0  0  0  0  0
    0.7668   61.0253   -5.0963 H   0  0  0  0  0
    2.3179   59.0070   -6.7527 H   0  0  0  0  0
    2.9255   60.5699   -6.1534 H   0  0  0  0  0
    2.5127   59.2748   -5.0030 H   0  0  0  0  0
    1.1058   61.7536   -7.3952 H   0  0  0  0  0
    0.4982   60.1907   -7.9946 H   0  0  0  0  0
   -0.5909   61.2913   -7.1149 H   0  0  0  0  0
    0.1046   57.7211   -1.5134 H   0  0  0  0  0
    1.0721   55.5790   -1.2215 H   0  0  0  0  0
    2.6071   56.1275   -1.8409 H   0  0  0  0  0
    0.3020   54.9140   -3.3168 H   0  0  0  0  0
    2.0154   54.7605   -3.6305 H   0  0  0  0  0
    2.0981   56.7634   -4.8822 H   0  0  0  0  0
    0.4735   56.3423   -5.2011 H   0  0  0  0  0
    3.0235   60.8091   -0.5533 H   0  0  0  0  0
    1.6432   61.1989    1.4464 H   0  0  0  0  0
    3.1035   60.7054    2.2092 H   0  0  0  0  0
    0.8515   59.3435    2.6705 H   0  0  0  0  0
    2.3653   58.4829    2.5392 H   0  0  0  0  0
    1.2574   57.3240    0.8278 H   0  0  0  0  0
    0.0934   58.5681    0.5953 H   0  0  0  0  0
    5.1107   61.3092    0.1028 H   0  0  0  0  0
    6.9670   59.0329    0.2575 H   0  0  0  0  0
    7.4717   61.9997    0.5748 H   0  0  0  0  0
    7.5967   61.0538   -0.9481 H   0  0  0  0  0
    9.6229   61.3400    0.1008 H   0  0  0  0  0
    6.6260   57.8987    2.1385 H   0  0  0  0  0
    5.9922   58.8744    4.6795 H   0  0  0  0  0
    7.7980   58.9477    4.5346 H   0  0  0  0  0
    7.6054   54.8191    5.6842 H   0  0  0  0  0
    8.3729   54.5375    7.8459 H   0  0  0  0  0
    6.8413   54.8559    8.5189 H   0  0  0  0  0
    7.6163   57.0385    9.0196 H   0  0  0  0  0
    6.4809   58.0924    7.3077 H   0  0  0  0  0
    8.0717   58.3212    6.6251 H   0  0  0  0  0
    9.6932   57.6068    8.1596 H   0  0  0  0  0
    7.1824   52.8041    6.4048 H   0  0  0  0  0
    4.6080   52.2084    5.1068 H   0  0  0  0  0
    6.5626   50.3399    6.5088 H   0  0  0  0  0
    6.7062   50.8536    4.7931 H   0  0  0  0  0
    5.6335   48.8316    5.0387 H   0  0  0  0  0
    2.6660   51.8937    6.1060 H   0  0  0  0  0
    2.7366   51.4018    9.0611 H   0  0  0  0  0
    0.2744   52.0994    7.5107 H   0  0  0  0  0
    1.4120   53.3135    8.2969 H   0  0  0  0  0
   -0.3304   51.2335    9.5560 H   0  0  0  0  0
   -0.3545   53.1200    9.7241 H   0  0  0  0  0
    2.2147   54.0156   10.5028 H   0  0  0  0  0
    0.7092   54.4023   11.3717 H   0  0  0  0  0
    2.1600   53.9103   12.2796 H   0  0  0  0  0
    3.4918   49.3191    7.2750 H   0  0  0  0  0
    1.3582   47.2507    7.5473 H   0  0  0  0  0
    4.1562   47.2832    6.5897 H   0  0  0  0  0
    2.5589   46.7767    5.7669 H   0  0  0  0  0
    4.1766   45.2809    7.7871 H   0  0  0  0  0
    3.9637   44.9185    5.9825 H   0  0  0  0  0
    1.8100   44.1620    6.3098 H   0  0  0  0  0
    1.7091   44.8732    7.9618 H   0  0  0  0  0
    3.7650   42.8178    7.6119 H   0  0  0  0  0
    0.3706   43.3666    8.5752 H   0  0  0  0  0
    2.0959   40.5084    9.6150 H   0  0  0  0  0
    3.6032   40.9237    8.7923 H   0  0  0  0  0
    0.9326   46.3111    9.4165 H   0  0  0  0  0
    3.0626   45.8268   11.4417 H   0  0  0  0  0
    2.1392   47.9956   12.0734 H   0  0  0  0  0
    1.6572   46.6930   13.2561 H   0  0  0  0  0
    0.0016   49.0443   10.5612 H   0  0  0  0  0
   -3.0587   47.1340   12.8270 H   0  0  0  0  0
    2.2428   44.2743   13.1271 H   0  0  0  0  0
    0.1824   42.4381   12.0379 H   0  0  0  0  0
    0.8574   40.8589   13.6753 H   0  0  0  0  0
    1.7616   42.1336   14.6039 H   0  0  0  0  0
    3.5021   40.0768   11.5303 H   0  0  0  0  0
    1.8137   39.8203   11.9828 H   0  0  0  0  0
    0.0919   44.9978   13.9852 H   0  0  0  0  0
  1  2  1  0  0  0
  2  3  1  0  0  0
  3  4  2  0  0  0
  3  5  1  0  0  0
  5  6  1  0  0  0
  6  7  1  0  0  0
  6  9  1  0  0  0
  7  8  2  0  0  0
  7 12  1  0  0  0
  9 10  1  0  0  0
  9 11  1  0  0  0
 12 13  1  0  0  0
 12 18  1  0  0  0
 13 14  1  0  0  0
 13 16  1  0  0  0
 14 15  2  0  0  0
 14 19  1  0  0  0
 16 17  1  0  0  0
 17 18  1  0  0  0
 19 20  1  0  0  0
 19 25  1  0  0  0
 20 21  1  0  0  0
 20 23  1  0  0  0
 21 22  2  0  0  0
 21 26  1  0  0  0
 23 24  1  0  0  0
 24 25  1  0  0  0
 26 27  1  0  0  0
 27 28  1  0  0  0
 27 30  1  0  0  0
 28 29  2  0  0  0
 28 32  1  0  0  0
 30 31  1  0  0  0
 32 33  1  0  0  0
 33 34  1  0  0  0
 34 35  2  0  0  0
 34 36  1  0  0  0
 36 37  1  0  0  0
 36 42  1  0  0  0
 37 38  1  0  0  0
 37 40  1  0  0  0
 38 39  2  0  0  0
 38 44  1  0  0  0
 40 41  1  0  0  0
 41 42  1  0  0  0
 41 43  1  0  0  0
 44 45  1  0  0  0
 45 46  1  0  0  0
 45 48  1  0  0  0
 46 47  2  0  0  0
 46 50  1  0  0  0
 48 49  1  0  0  0
 50 51  1  0  0  0
 51 52  1  0  0  0
 51 54  1  0  0  0
 52 53  2  0  0  0
 52 58  1  0  0  0
 54 55  1  0  0  0
 55 56  1  0  0  0
 56 57  1  0  0  0
 58 59  1  0  0  0
 59 60  1  0  0  0
 59 62  1  0  0  0
 60 61  2  0  0  0
 60 69  1  0  0  0
 62 63  1  0  0  0
 63 64  1  0  0  0
 64 65  1  0  0  0
 65 66  1  0  0  0
 66 67  2  0  0  0
 66 68  1  0  0  0
 69 70  1  0  0  0
 70 71  1  0  0  0
 70 73  1  0  0  0
 71 72  2  0  0  0
 71 79  1  0  0  0
 73 74  1  0  0  0
 74 75  4  0  0  0
 74 76  4  0  0  0
 75 77  4  0  0  0
 76 78  4  0  0  0
 77 78  4  0  0  0
 79 80  1  0  0  0
 80 81  1  0  0  0
 80 83  1  0  0  0
 81 82  2  0  0  0
 81 87  1  0  0  0
 83 84  1  0  0  0
 84 85  2  0  0  0
 84 86  1  0  0  0
  1 88  1  0  0  0
  1 89  1  0  0  0
  1 90  1  0  0  0
  2 91  1  0  0  0
  2 92  1  0  0  0
  5 93  1  0  0  0
  6 94  1  0  0  0
  9 95  1  0  0  0
 10 96  1  0  0  0
 10 97  1  0  0  0
 10 98  1  0  0  0
 11 99  1  0  0  0
 11100  1  0  0  0
 11101  1  0  0  0
 13102  1  0  0  0
 16103  1  0  0  0
 16104  1  0  0  0
 17105  1  0  0  0
 17106  1  0  0  0
 18107  1  0  0  0
 18108  1  0  0  0
 20109  1  0  0  0
 23110  1  0  0  0
 23111  1  0  0  0
 24112  1  0  0  0
 24113  1  0  0  0
 25114  1  0  0  0
 25115  1  0  0  0
 26116  1  0  0  0
 27117  1  0  0  0
 30118  1  0  0  0
 30119  1  0  0  0
 31120  1  0  0  0
 32121  1  0  0  0
 33122  1  0  0  0
 33123  1  0  0  0
 37124  1  0  0  0
 40125  1  0  0  0
 40126  1  0  0  0
 41127  1  0  0  0
 42128  1  0  0  0
 42129  1  0  0  0
 43130  1  0  0  0
 44131  1  0  0  0
 45132  1  0  0  0
 48133  1  0  0  0
 48134  1  0  0  0
 49135  1  0  0  0
 50136  1  0  0  0
 51137  1  0  0  0
 54138  1  0  0  0
 54139  1  0  0  0
 55140  1  0  0  0
 55141  1  0  0  0
 57142  1  0  0  0
 57143  1  0  0  0
 57144  1  0  0  0
 58145  1  0  0  0
 59146  1  0  0  0
 62147  1  0  0  0
 62148  1  0  0  0
 63149  1  0  0  0
 63150  1  0  0  0
 64151  1  0  0  0
 64152  1  0  0  0
 65153  1  0  0  0
 67154  1  0  0  0
 68155  1  0  0  0
 68156  1  0  0  0
 69157  1  0  0  0
 70158  1  0  0  0
 73159  1  0  0  0
 73160  1  0  0  0
 76161  1  0  0  0
 77162  1  0  0  0
 79163  1  0  0  0
 80164  1  0  0  0
 83165  1  0  0  0
 83166  1  0  0  0
 86167  1  0  0  0
 86168  1  0  0  0
 87169  1  0  0  0
M  END
$$$$
