6ft8_ligand
  -I-interpret- 

 31 34  0  0  0  0  0  0  0  0999 V2000
  -19.7230   19.3540   12.3640 C   0  0  0  0  0
  -19.0310   18.2540   13.0300 C   0  0  0  0  0
  -18.4580   17.5050   12.0270 C   0  0  0  0  0
  -20.4520   21.3830    8.2600 N   0  0  0  0  0
  -19.5100   19.1770   10.9840 C   0  0  0  0  0
  -19.9970   20.1280   10.0860 C   0  0  0  0  0
  -19.7970   20.2590    8.6290 C   0  0  0  0  0
  -18.9240   17.8880   14.4720 C   0  0  0  0  0
  -19.9610   18.1670   15.3390 C   0  0  0  0  0
  -19.8650   17.8260   16.6780 C   0  0  0  0  0
  -18.7320   17.1930   17.1590 C   0  0  0  0  0
  -17.6960   16.8950   16.2890 C   0  0  0  0  0
  -17.7810   17.2450   14.9510 C   0  0  0  0  0
  -19.2230   19.4820    7.8610 O   0  0  0  0  0
  -21.0760   22.0850    9.3660 C   0  0  0  0  0
  -20.6800   21.2380   10.5410 C   0  0  0  0  0
  -20.4350   20.4740   12.8150 C   0  0  0  0  0
  -20.9130   21.4080   11.9050 C   0  0  0  0  0
  -18.7530   18.0450   10.7990 N   0  0  0  0  0
  -16.5840   16.2440   16.7460 O   0  0  0  0  0
  -17.8557   16.6104   12.1850 H   0  0  0  0  0
  -20.5027   21.7071    7.2942 H   0  0  0  0  0
  -20.8604   18.6584   14.9679 H   0  0  0  0  0
  -20.6861   18.0574   17.3565 H   0  0  0  0  0
  -18.6555   16.9310   18.2143 H   0  0  0  0  0
  -16.9573   17.0188   14.2739 H   0  0  0  0  0
  -22.1553   22.1899    9.2552 H   0  0  0  0  0
  -20.7529   23.1222    9.4547 H   0  0  0  0  0
  -20.6138   20.6121   13.8813 H   0  0  0  0  0
  -21.4712   22.2752   12.2578 H   0  0  0  0  0
  -15.9684   16.1166   16.0205 H   0  0  0  0  0
  1  2  4  0  0  0
  5  1  4  0  0  0
  1 17  4  0  0  0
  3  2  4  0  0  0
  2  8  1  0  0  0
 19  3  4  0  0  0
  7  4  1  0  0  0
  4 15  1  0  0  0
  6  5  4  0  0  0
  5 19  4  0  0  0
  6  7  1  0  0  0
  6 16  4  0  0  0
  7 14  2  0  0  0
  8  9  4  0  0  0
  8 13  4  0  0  0
  9 10  4  0  0  0
 10 11  4  0  0  0
 11 12  4  0  0  0
 12 13  4  0  0  0
 12 20  1  0  0  0
 15 16  1  0  0  0
 16 18  4  0  0  0
 17 18  4  0  0  0
  3 21  1  0  0  0
  4 22  1  0  0  0
  9 23  1  0  0  0
 10 24  1  0  0  0
 11 25  1  0  0  0
 13 26  1  0  0  0
 15 27  1  0  0  0
 15 28  1  0  0  0
 17 29  1  0  0  0
 18 30  1  0  0  0
 20 31  1  0  0  0
M  END
$$$$
