5w8h_ligand
  -I-interpret- 

 31 33  0  0  0  0  0  0  0  0999 V2000
   44.6780   23.2710   48.4400 C   0  0  0  0  0
   43.4220   23.7000   48.8480 C   0  0  0  0  0
   42.3420   22.8270   48.7950 C   0  0  0  0  0
   41.4240   19.3800   47.6550 N   0  0  0  0  0
   39.8170   17.5660   47.4030 C   0  0  0  0  0
   38.6130   15.8600   46.6500 C   0  0  0  0  0
   37.3340   15.1790   46.1690 C   0  0  0  0  0
   39.8090   15.2160   46.7490 C   0  0  0  0  0
   37.0860   19.4000   48.1580 F   0  0  0  0  0
   38.0220   19.3960   49.1040 C   0  0  0  0  0
   37.6040   20.2660   50.0360 F   0  0  0  0  0
   37.9190   18.1890   49.6900 F   0  0  0  0  0
   39.4240   19.6740   48.6480 C   0  0  0  0  0
   40.1680   20.8020   48.9220 C   0  0  0  0  0
   41.4150   20.6020   48.2820 C   0  0  0  0  0
   42.5200   21.5220   48.3210 C   0  0  0  0  0
   43.7910   21.0890   47.9220 C   0  0  0  0  0
   44.8630   21.9610   47.9760 C   0  0  0  0  0
   45.7050   24.1030   48.4920 F   0  0  0  0  0
   40.2220   18.8340   47.8690 N   0  0  0  0  0
   38.6190   17.2170   47.0330 N   0  0  0  0  0
   36.3620   15.9380   46.0620 O   0  0  0  0  0
   37.4180   13.9550   45.9590 O   0  0  0  0  0
   41.0550   16.2660   47.3340 S   0  0  0  0  0
   43.2834   24.7191   49.2090 H   0  0  0  0  0
   41.3566   23.1584   49.1224 H   0  0  0  0  0
   39.9628   14.1681   46.4915 H   0  0  0  0  0
   39.8603   21.6674   49.5090 H   0  0  0  0  0
   43.9347   20.0675   47.5699 H   0  0  0  0  0
   45.8516   21.6299   47.6579 H   0  0  0  0  0
   38.3151   13.6621   46.1349 H   0  0  0  0  0
  2  1  4  0  0  0
  1 18  4  0  0  0
  1 19  1  0  0  0
  3  2  4  0  0  0
 16  3  4  0  0  0
 15  4  4  0  0  0
  4 20  4  0  0  0
 20  5  1  0  0  0
  5 21  4  0  0  0
  5 24  4  0  0  0
  6  7  1  0  0  0
  8  6  4  0  0  0
 21  6  4  0  0  0
  7 22  2  0  0  0
  7 23  1  0  0  0
 24  8  4  0  0  0
 10  9  1  0  0  0
 10 11  1  0  0  0
 10 12  1  0  0  0
 13 10  1  0  0  0
 14 13  4  0  0  0
 13 20  4  0  0  0
 15 14  4  0  0  0
 15 16  1  0  0  0
 16 17  4  0  0  0
 17 18  4  0  0  0
  2 25  1  0  0  0
  3 26  1  0  0  0
  8 27  1  0  0  0
 14 28  1  0  0  0
 17 29  1  0  0  0
 18 30  1  0  0  0
 23 31  1  0  0  0
M  END
$$$$
