4dt2_ligand
  -I-interpret- 

 27 28  0  0  0  0  0  0  0  0999 V2000
  -69.5250   33.1940  -43.7540 C   0  0  0  0  0
  -70.4460   34.2930  -44.1210 C   0  0  0  0  0
  -71.2910   33.9520  -45.3250 C   0  0  0  0  0
  -69.6110   35.5670  -44.3900 C   0  0  0  0  0
  -71.2780   34.4920  -42.9920 O   0  0  0  0  0
  -70.8050   33.6530  -41.9410 C   0  0  0  0  0
  -69.7760   32.8770  -42.3660 C   0  0  0  0  0
  -69.1560   31.9480  -41.4450 C   0  0  0  0  0
  -69.5840   31.8230  -40.1290 C   0  0  0  0  0
  -70.6360   32.6230  -39.7080 C   0  0  0  0  0
  -71.2370   33.5410  -40.6140 C   0  0  0  0  0
  -72.3650   34.4160  -40.2380 C   0  0  0  0  0
  -73.5060   34.2500  -40.9660 O   0  0  0  0  0
  -68.4877   33.4958  -43.8989 H   0  0  0  0  0
  -69.6948   32.3218  -44.3853 H   0  0  0  0  0
  -71.8537   33.0400  -45.1258 H   0  0  0  0  0
  -71.9823   34.7705  -45.5257 H   0  0  0  0  0
  -70.6448   33.8003  -46.1896 H   0  0  0  0  0
  -70.2809   36.4057  -44.5794 H   0  0  0  0  0
  -68.9917   35.7844  -43.5198 H   0  0  0  0  0
  -68.9741   35.4055  -45.2597 H   0  0  0  0  0
  -68.3296   31.3287  -41.7939 H   0  0  0  0  0
  -69.1075   31.1177  -39.4481 H   0  0  0  0  0
  -71.0020   32.5485  -38.6840 H   0  0  0  0  0
  -72.0337   35.4401  -40.4101 H   0  0  0  0  0
  -72.6171   34.1707  -39.2063 H   0  0  0  0  0
  -74.1775   34.8587  -40.6496 H   0  0  0  0  0
  1  2  1  0  0  0
  1  7  1  0  0  0
  2  3  1  0  0  0
  2  4  1  0  0  0
  2  5  1  0  0  0
  5  6  1  0  0  0
  6  7  4  0  0  0
  6 11  4  0  0  0
  7  8  4  0  0  0
  8  9  4  0  0  0
  9 10  4  0  0  0
 10 11  4  0  0  0
 11 12  1  0  0  0
 12 13  1  0  0  0
  1 14  1  0  0  0
  1 15  1  0  0  0
  3 16  1  0  0  0
  3 17  1  0  0  0
  3 18  1  0  0  0
  4 19  1  0  0  0
  4 20  1  0  0  0
  4 21  1  0  0  0
  8 22  1  0  0  0
  9 23  1  0  0  0
 10 24  1  0  0  0
 12 25  1  0  0  0
 12 26  1  0  0  0
 13 27  1  0  0  0
M  END
$$$$
