3p3r_ligand
  -I-interpret- 

 28 29  0  0  0  0  0  0  0  0999 V2000
   -1.2280    1.4440   -8.0960 O   0  0  0  0  0
   -1.8900    1.6250   -2.6190 O   0  0  0  0  0
    1.7500   -1.6200   -3.8200 O   0  0  0  0  0
    0.0430    0.0010   -2.2860 O   0  0  0  0  0
   -2.5760    2.1570   -4.7620 O   0  0  0  0  0
    0.2550    1.0800  -10.3730 F   0  0  0  0  0
    0.4790   -2.5440  -10.6670 C   0  0  0  0  0
   -0.0420   -2.8650   -9.4430 C   0  0  0  0  0
    0.5520   -1.1990  -10.9790 C   0  0  0  0  0
   -0.3910   -1.9290   -8.4910 C   0  0  0  0  0
    0.7340   -0.7320   -5.8370 C   0  0  0  0  0
   -0.9750    0.8440   -5.6470 C   0  0  0  0  0
   -0.6120    0.4150   -7.7900 C   0  0  0  0  0
    0.8540   -0.8080   -4.4170 C   0  0  0  0  0
    0.1660   -0.2040  -10.0550 C   0  0  0  0  0
    0.0260   -0.0210   -3.6480 C   0  0  0  0  0
   -0.2190    0.1260   -6.3760 C   0  0  0  0  0
   -0.2700   -0.5900   -8.7930 C   0  0  0  0  0
   -0.8520    0.7840   -4.3220 C   0  0  0  0  0
   -1.7180    1.5600   -3.8730 N   0  0  0  0  0
    1.6771   -1.5294   -2.8671 H   0  0  0  0  0
   -0.6178    0.6209   -1.9688 H   0  0  0  0  0
    0.8198   -3.3113  -11.3621 H   0  0  0  0  0
   -0.1895   -3.9188   -9.2069 H   0  0  0  0  0
    0.9163   -0.8998  -11.9618 H   0  0  0  0  0
   -0.7572   -2.2444   -7.5140 H   0  0  0  0  0
    1.3740   -1.3321   -6.4839 H   0  0  0  0  0
   -1.7158    1.5015   -6.1020 H   0  0  0  0  0
 13  1  2  0  0  0
 20  2  2  0  0  0
 14  3  1  0  0  0
 16  4  1  0  0  0
 20  5  2  0  0  0
 15  6  1  0  0  0
  8  7  4  0  0  0
  9  7  4  0  0  0
 10  8  4  0  0  0
 15  9  4  0  0  0
 18 10  4  0  0  0
 14 11  4  0  0  0
 17 11  4  0  0  0
 12 17  4  0  0  0
 19 12  4  0  0  0
 17 13  1  0  0  0
 13 18  1  0  0  0
 16 14  4  0  0  0
 18 15  4  0  0  0
 19 16  4  0  0  0
 19 20  1  0  0  0
  3 21  1  0  0  0
  4 22  1  0  0  0
  7 23  1  0  0  0
  8 24  1  0  0  0
  9 25  1  0  0  0
 10 26  1  0  0  0
 11 27  1  0  0  0
 12 28  1  0  0  0
M  END
$$$$
