2gni_ligand
  -I-interpret- 

 38 40  0  0  0  0  0  0  0  0999 V2000
    8.6630   11.0830    5.1390 O   0  0  0  0  0
    8.5630   10.0750    4.0780 S   0  0  0  0  0
    9.5790   10.2220    3.0610 O   0  0  0  0  0
    8.7470    8.5900    4.6610 N   0  0  0  0  0
    8.6400    7.4430    3.7020 C   0  0  0  0  0
    9.8160    7.4110    2.7170 C   0  0  0  0  0
   11.1150    7.1450    3.4660 N   0  3  0  0  0
   11.3480    7.9200    4.7470 C   0  0  0  0  0
   10.4640    7.5710    5.9470 C   0  0  0  0  0
    9.1740    8.4300    6.0430 C   0  0  0  0  0
    7.0820   10.0850    3.1460 C   0  0  0  0  0
    7.2290   10.1470    1.7680 C   0  0  0  0  0
    6.0790   10.1340    0.9240 C   0  0  0  0  0
    4.8170   10.1030    1.5120 C   0  0  0  0  0
    4.6530   10.0680    2.9120 C   0  0  0  0  0
    5.7840   10.0280    3.7640 C   0  0  0  0  0
    5.5290    9.9710    5.1760 C   0  0  0  0  0
    3.3890   10.0080    3.5140 C   0  0  0  0  0
    3.1880    9.9250    4.8300 N   0  0  0  0  0
    4.2550    9.9320    5.6800 C   0  0  0  0  0
    7.7186    7.5588    3.1313 H   0  0  0  0  0
    8.6482    6.5158    4.2750 H   0  0  0  0  0
    9.8851    8.3731    2.2094 H   0  0  0  0  0
    9.6526    6.6166    1.9888 H   0  0  0  0  0
   11.8626    7.4272    2.8321 H   0  0  0  0  0
   11.0806    6.1629    3.7393 H   0  0  0  0  0
   11.1254    8.9599    4.5082 H   0  0  0  0  0
   12.3677    7.6861    5.0529 H   0  0  0  0  0
   11.0483    7.7588    6.8478 H   0  0  0  0  0
   10.1557    6.5317    5.8333 H   0  0  0  0  0
    8.4089    7.9553    6.6572 H   0  0  0  0  0
    9.3534    9.3879    6.5313 H   0  0  0  0  0
    8.2251   10.2058    1.3293 H   0  0  0  0  0
    6.1861   10.1481   -0.1606 H   0  0  0  0  0
    3.9335   10.1059    0.8737 H   0  0  0  0  0
    6.3723    9.9584    5.8664 H   0  0  0  0  0
    2.5136   10.0306    2.8650 H   0  0  0  0  0
    4.0947    9.9066    6.7578 H   0  0  0  0  0
  1  2  2  0  0  0
  2  3  2  0  0  0
  2  4  1  0  0  0
  2 11  1  0  0  0
  4  5  1  0  0  0
  4 10  1  0  0  0
  5  6  1  0  0  0
  6  7  1  0  0  0
  7  8  1  0  0  0
  8  9  1  0  0  0
  9 10  1  0  0  0
 11 12  4  0  0  0
 11 16  4  0  0  0
 12 13  4  0  0  0
 13 14  4  0  0  0
 14 15  4  0  0  0
 15 16  4  0  0  0
 15 18  4  0  0  0
 16 17  4  0  0  0
 17 20  4  0  0  0
 18 19  4  0  0  0
 19 20  4  0  0  0
  5 21  1  0  0  0
  5 22  1  0  0  0
  6 23  1  0  0  0
  6 24  1  0  0  0
  7 25  1  0  0  0
  7 26  1  0  0  0
  8 27  1  0  0  0
  8 28  1  0  0  0
  9 29  1  0  0  0
  9 30  1  0  0  0
 10 31  1  0  0  0
 10 32  1  0  0  0
 12 33  1  0  0  0
 13 34  1  0  0  0
 14 35  1  0  0  0
 17 36  1  0  0  0
 18 37  1  0  0  0
 20 38  1  0  0  0
M  END
$$$$
