3n2u_ligand
  -I-interpret- 

 57 58  0  0  0  0  0  0  0  0999 V2000
    2.5610   -2.6240    0.1610 C   0  0  0  0  0
    1.5680   -2.0230    5.5050 N   0  0  0  0  0
    3.2150   -2.6630    4.1170 O   0  0  0  0  0
    1.4800   -5.9750    4.8860 S   0  0  0  0  0
    2.1250   -1.1970    0.4310 C   0  0  0  0  0
    1.7050   -4.9750    3.7320 N   0  0  0  0  0
    0.2280   -5.6700    5.5190 O   0  0  0  0  0
    2.0390   -2.7320    4.4790 C   0  0  0  0  0
    1.4350   -7.3320    4.4160 O   0  0  0  0  0
    5.3840   -2.1200   -2.2030 C   0  0  0  0  0
    0.8080   -1.2680    0.9560 O   0  0  0  0  0
    3.9620   -1.9360   -1.6630 C   0  0  0  0  0
    1.8520    1.0020   -0.4860 O   0  0  0  0  0
    3.5150   -0.4750   -1.5560 C   0  0  0  0  0
    3.3970    0.0100   -2.8780 O   0  0  0  0  0
    2.1610   -0.3530   -0.8360 C   0  0  0  0  0
    5.4190   -5.6800    9.1320 O   0  0  0  0  0
    2.1350   -4.6670    1.3530 C   0  0  0  0  0
    3.8780   -2.6070   -0.3950 O   0  0  0  0  0
    2.5920   -5.3590    2.6350 C   0  0  0  0  0
    6.3250   -1.2940   -1.5030 O   0  0  0  0  0
    1.0680   -3.6540    3.7830 C   0  0  0  0  0
    2.5930   -3.3190    1.4060 O   0  0  0  0  0
    3.3640   -5.0060    8.1510 C   0  0  0  0  0
    2.4990   -1.2500    6.1770 O   0  0  0  0  0
    2.6220   -5.8950    6.0180 C   0  0  0  0  0
    3.7940   -6.6820    5.9530 C   0  0  0  0  0
    2.4190   -5.0590    7.1260 C   0  0  0  0  0
    4.7530   -6.6100    6.9770 C   0  0  0  0  0
    4.5320   -5.7710    8.0820 C   0  0  0  0  0
    6.4510   -6.6470    9.3830 C   0  0  0  0  0
    1.8746   -3.1111   -0.5316 H   0  0  0  0  0
    0.5853   -2.0485    5.7772 H   0  0  0  0  0
    2.8036   -0.7162    1.1356 H   0  0  0  0  0
    5.3924   -1.8362   -3.2554 H   0  0  0  0  0
    5.6722   -3.1623   -2.0667 H   0  0  0  0  0
    0.8107   -1.8040    1.7525 H   0  0  0  0  0
    3.2700   -2.3754   -2.3814 H   0  0  0  0  0
    1.0020    1.0304   -0.0407 H   0  0  0  0  0
    4.2392    0.0978   -0.9767 H   0  0  0  0  0
    3.1171    0.9281   -2.8571 H   0  0  0  0  0
    1.4154   -0.7158   -1.5435 H   0  0  0  0  0
    1.0485   -4.6970    1.2706 H   0  0  0  0  0
    2.5448   -5.1743    0.4796 H   0  0  0  0  0
    2.5582   -6.4399    2.4989 H   0  0  0  0  0
    3.6134   -5.0584    2.8685 H   0  0  0  0  0
    7.2030   -1.4335   -1.8653 H   0  0  0  0  0
    0.1212   -3.6995    4.3212 H   0  0  0  0  0
    0.8403   -3.2933    2.7800 H   0  0  0  0  0
    3.1900   -4.3624    9.0133 H   0  0  0  0  0
    2.0660   -0.7806    6.8938 H   0  0  0  0  0
    3.9545   -7.3476    5.1049 H   0  0  0  0  0
    1.5185   -4.4478    7.1864 H   0  0  0  0  0
    5.6654   -7.2030    6.9144 H   0  0  0  0  0
    5.9985   -7.6246    9.5493 H   0  0  0  0  0
    7.1185   -6.6958    8.5226 H   0  0  0  0  0
    7.0165   -6.3519   10.2669 H   0  0  0  0  0
  1  5  1  0  0  0
  1 19  1  0  0  0
 23  1  1  0  0  0
  8  2  1  0  0  0
  2 25  1  0  0  0
  8  3  2  0  0  0
  4  6  1  0  0  0
  4  7  2  0  0  0
  4  9  2  0  0  0
 26  4  1  0  0  0
  5 11  1  0  0  0
  5 16  1  0  0  0
  6 20  1  0  0  0
  6 22  1  0  0  0
 22  8  1  0  0  0
 12 10  1  0  0  0
 10 21  1  0  0  0
 12 14  1  0  0  0
 19 12  1  0  0  0
 16 13  1  0  0  0
 14 15  1  0  0  0
 16 14  1  0  0  0
 30 17  1  0  0  0
 17 31  1  0  0  0
 20 18  1  0  0  0
 18 23  1  0  0  0
 28 24  4  0  0  0
 24 30  4  0  0  0
 26 27  4  0  0  0
 26 28  4  0  0  0
 27 29  4  0  0  0
 29 30  4  0  0  0
  1 32  1  0  0  0
  2 33  1  0  0  0
  5 34  1  0  0  0
 10 35  1  0  0  0
 10 36  1  0  0  0
 11 37  1  0  0  0
 12 38  1  0  0  0
 13 39  1  0  0  0
 14 40  1  0  0  0
 15 41  1  0  0  0
 16 42  1  0  0  0
 18 43  1  0  0  0
 18 44  1  0  0  0
 20 45  1  0  0  0
 20 46  1  0  0  0
 21 47  1  0  0  0
 22 48  1  0  0  0
 22 49  1  0  0  0
 24 50  1  0  0  0
 25 51  1  0  0  0
 27 52  1  0  0  0
 28 53  1  0  0  0
 29 54  1  0  0  0
 31 55  1  0  0  0
 31 56  1  0  0  0
 31 57  1  0  0  0
M  END
$$$$
