3i4b_ligand
  -I-interpret- 

 53 56  0  0  0  0  0  0  0  0999 V2000
   38.4000   33.0030   52.0490 C   0  0  0  0  0
   38.9580   34.3780   52.0940 C   0  0  0  0  0
   39.7460   34.7770   51.0680 C   0  0  0  0  0
   40.2290   35.9720   51.0760 N   0  0  0  0  0
   40.0020   36.8110   52.0320 C   0  0  0  0  0
   40.6060   38.0220   51.8940 N   0  0  0  0  0
   40.7210   39.1250   52.7260 C   0  0  0  0  0
   41.1950   40.2830   52.1490 C   0  0  0  0  0
   41.3600   41.4220   52.8790 C   0  0  0  0  0
   41.0540   41.4160   54.2080 C   0  0  0  0  0
   40.5800   40.2710   54.7960 C   0  0  0  0  0
   40.4160   39.1320   54.0640 C   0  0  0  0  0
   39.2650   36.4810   53.0390 N   0  0  0  0  0
   38.7440   35.3020   53.1210 C   0  0  0  0  0
   37.8900   35.1510   54.2880 C   0  0  0  0  0
   37.4650   36.2350   54.9500 C   0  0  0  0  0
   36.6760   35.8230   55.9020 N   0  0  0  0  0
   36.5470   34.4770   55.8990 C   0  0  0  0  0
   37.2980   34.0350   54.8750 C   0  0  0  0  0
   35.7410   33.7050   56.8630 C   0  0  0  0  0
   35.2910   32.6460   56.6180 O   0  0  0  0  0
   35.5180   34.2260   58.0590 N   0  0  0  0  0
   34.7490   33.6710   59.1420 C   0  0  0  0  0
   34.3460   34.8700   59.9520 C   0  0  0  0  0
   33.4180   35.5590   59.1980 O   0  0  0  0  0
   35.5000   32.7840   60.0650 C   0  0  0  0  0
   34.7950   31.9220   60.8430 C   0  0  0  0  0
   35.4210   31.1050   61.7080 C   0  0  0  0  0
   36.7760   31.1540   61.7850 C   0  0  0  0  0
   37.4840   32.0180   61.0100 C   0  0  0  0  0
   36.8430   32.8400   60.1420 C   0  0  0  0  0
   37.7836   32.8914   51.1570 H   0  0  0  0  0
   39.2166   32.2816   52.0204 H   0  0  0  0  0
   37.7915   32.8300   52.9366 H   0  0  0  0  0
   39.9690   34.0967   50.2461 H   0  0  0  0  0
   41.0694   38.1435   50.9935 H   0  0  0  0  0
   41.4429   40.2882   51.0876 H   0  0  0  0  0
   41.7332   42.3297   52.4048 H   0  0  0  0  0
   41.1860   42.3201   54.8023 H   0  0  0  0  0
   40.3323   40.2714   55.8575 H   0  0  0  0  0
   40.0424   38.2265   54.5421 H   0  0  0  0  0
   37.7299   37.2698   54.7328 H   0  0  0  0  0
   37.4206   32.9979   54.5628 H   0  0  0  0  0
   35.9448   35.1354   58.2357 H   0  0  0  0  0
   33.9492   33.0636   58.7184 H   0  0  0  0  0
   35.2089   35.4969   60.1767 H   0  0  0  0  0
   33.9236   34.5690   60.9107 H   0  0  0  0  0
   33.1307   36.3381   59.6798 H   0  0  0  0  0
   33.7082   31.8923   60.7650 H   0  0  0  0  0
   34.8527   30.4175   62.3345 H   0  0  0  0  0
   37.3013   30.4939   62.4752 H   0  0  0  0  0
   38.5708   32.0503   61.0864 H   0  0  0  0  0
   37.4056   33.5340   59.5175 H   0  0  0  0  0
  1  2  1  0  0  0
  2  3  4  0  0  0
  2 14  4  0  0  0
  3  4  4  0  0  0
  4  5  4  0  0  0
  5  6  1  0  0  0
  5 13  4  0  0  0
  6  7  1  0  0  0
  7  8  4  0  0  0
  7 12  4  0  0  0
  8  9  4  0  0  0
  9 10  4  0  0  0
 10 11  4  0  0  0
 11 12  4  0  0  0
 13 14  4  0  0  0
 14 15  1  0  0  0
 15 16  4  0  0  0
 15 19  4  0  0  0
 16 17  4  0  0  0
 17 18  4  0  0  0
 18 19  4  0  0  0
 18 20  1  0  0  0
 20 21  2  0  0  0
 20 22  1  0  0  0
 22 23  1  0  0  0
 23 24  1  0  0  0
 23 26  1  0  0  0
 24 25  1  0  0  0
 26 27  4  0  0  0
 26 31  4  0  0  0
 27 28  4  0  0  0
 28 29  4  0  0  0
 29 30  4  0  0  0
 30 31  4  0  0  0
  1 32  1  0  0  0
  1 33  1  0  0  0
  1 34  1  0  0  0
  3 35  1  0  0  0
  6 36  1  0  0  0
  8 37  1  0  0  0
  9 38  1  0  0  0
 10 39  1  0  0  0
 11 40  1  0  0  0
 12 41  1  0  0  0
 16 42  1  0  0  0
 19 43  1  0  0  0
 22 44  1  0  0  0
 23 45  1  0  0  0
 24 46  1  0  0  0
 24 47  1  0  0  0
 25 48  1  0  0  0
 27 49  1  0  0  0
 28 50  1  0  0  0
 29 51  1  0  0  0
 30 52  1  0  0  0
 31 53  1  0  0  0
M  END
$$$$
