5uey_ligand
  -I-interpret- 

 54 56  0  0  0  0  0  0  0  0999 V2000
    9.9870   11.2120   20.3230 C   0  0  0  0  0
   11.1690   11.1520   21.0280 C   0  0  0  0  0
   13.3040   12.7930   22.8720 C   0  0  0  0  0
   13.3830   13.0410   24.2270 C   0  0  0  0  0
   11.1970   11.6850   18.3230 C   0  0  0  0  0
   14.1530   10.8000   24.6030 C   0  0  0  0  0
   12.3850   11.6130   19.0230 C   0  0  0  0  0
    9.9930   11.4750   18.9690 C   0  0  0  0  0
   12.3730   11.3480   20.3790 C   0  0  0  0  0
   13.6470   11.5470   22.3880 C   0  0  0  0  0
   13.8060   12.0450   25.0820 C   0  0  0  0  0
   14.0740   10.5590   23.2480 C   0  0  0  0  0
   15.5900   12.9400   17.4690 C   0  0  0  0  0
   13.9920   10.6770   17.5850 C   0  0  0  0  0
   13.6300   11.7570   18.2780 C   0  0  0  0  0
   14.4720   12.9210   18.2120 C   0  0  0  0  0
   15.9830   11.7290   16.7110 C   0  0  0  0  0
   14.8670   15.6160   20.5010 C   0  0  0  0  0
    8.4360    8.4010   17.6750 C   0  0  0  0  0
   15.4320    9.4270   16.1090 C   0  0  0  0  0
   14.9450   14.1840   20.0330 C   0  0  0  0  0
    9.2030    9.3180   16.7520 C   0  0  0  0  0
   15.1320   10.6420   16.8250 N   0  0  0  0  0
    8.7160   11.5450   18.2950 N   0  0  0  0  0
   17.0110   11.7650   16.0480 O   0  0  0  0  0
    7.0530   10.7840   16.4870 O   0  0  0  0  0
    9.2450   11.7450   15.7630 O   0  0  0  0  0
   13.5990   11.2580   21.0320 O   0  0  0  0  0
   14.0470   14.0190   18.9380 O   0  0  0  0  0
   13.8810   12.2890   26.3990 F   0  0  0  0  0
   14.4100    9.3510   22.7680 F   0  0  0  0  0
    8.4800   10.9440   16.6980 S   0  0  0  0  0
    9.0404   11.0505   20.8388 H   0  0  0  0  0
   11.1544   10.9497   22.0990 H   0  0  0  0  0
   12.9732   13.5754   22.1890 H   0  0  0  0  0
   13.1120   14.0208   24.6203 H   0  0  0  0  0
   11.2086   11.9084   17.2562 H   0  0  0  0  0
   14.4849   10.0176   25.2855 H   0  0  0  0  0
   16.2040   13.8395   17.4237 H   0  0  0  0  0
   13.3589    9.7906   17.6243 H   0  0  0  0  0
   15.1486   16.2799   19.6837 H   0  0  0  0  0
   13.8478   15.8387   20.8169 H   0  0  0  0  0
   15.5484   15.7605   21.3394 H   0  0  0  0  0
    8.4414    8.8151   18.6833 H   0  0  0  0  0
    7.4082    8.3105   17.3235 H   0  0  0  0  0
    8.9068    7.4180   17.6820 H   0  0  0  0  0
   15.5384    8.6059   16.8179 H   0  0  0  0  0
   14.6213    9.2064   15.4146 H   0  0  0  0  0
   16.3623    9.5534   15.5552 H   0  0  0  0  0
   14.6707   13.5107   20.8451 H   0  0  0  0  0
   15.9622   13.9488   19.7199 H   0  0  0  0  0
    9.1783    8.8958   15.7474 H   0  0  0  0  0
   10.2239    9.4064   17.1236 H   0  0  0  0  0
    7.9254   11.9659   18.7832 H   0  0  0  0  0
  1  2  4  0  0  0
  8  1  4  0  0  0
  2  9  4  0  0  0
  3  4  4  0  0  0
 10  3  4  0  0  0
  4 11  4  0  0  0
  5  7  4  0  0  0
  8  5  4  0  0  0
  6 11  4  0  0  0
 12  6  4  0  0  0
  7  9  4  0  0  0
  7 15  1  0  0  0
 24  8  1  0  0  0
  9 28  1  0  0  0
 10 12  4  0  0  0
 28 10  1  0  0  0
 11 30  1  0  0  0
 12 31  1  0  0  0
 16 13  2  0  0  0
 13 17  1  0  0  0
 15 14  2  0  0  0
 14 23  1  0  0  0
 15 16  1  0  0  0
 16 29  1  0  0  0
 23 17  1  0  0  0
 17 25  2  0  0  0
 21 18  1  0  0  0
 22 19  1  0  0  0
 23 20  1  0  0  0
 29 21  1  0  0  0
 32 22  1  0  0  0
 24 32  1  0  0  0
 32 26  2  0  0  0
 32 27  2  0  0  0
  1 33  1  0  0  0
  2 34  1  0  0  0
  3 35  1  0  0  0
  4 36  1  0  0  0
  5 37  1  0  0  0
  6 38  1  0  0  0
 13 39  1  0  0  0
 14 40  1  0  0  0
 18 41  1  0  0  0
 18 42  1  0  0  0
 18 43  1  0  0  0
 19 44  1  0  0  0
 19 45  1  0  0  0
 19 46  1  0  0  0
 20 47  1  0  0  0
 20 48  1  0  0  0
 20 49  1  0  0  0
 21 50  1  0  0  0
 21 51  1  0  0  0
 22 52  1  0  0  0
 22 53  1  0  0  0
 24 54  1  0  0  0
M  END
$$$$
