4qp6_ligand
  -I-interpret- 

 13 14  0  0  0  0  0  0  0  0999 V2000
  -17.4120  -33.3110  -28.4420 N   0  0  0  0  0
  -17.4250  -34.6790  -28.3190 C   0  0  0  0  0
  -16.8210  -34.9930  -27.0810 C   0  0  0  0  0
  -17.1490  -37.2220  -27.4880 C   0  0  0  0  0
  -16.4470  -33.7110  -26.4790 C   0  0  0  0  0
  -16.8280  -32.7510  -27.3380 C   0  0  0  0  0
  -16.7000  -36.2620  -26.7020 N   0  0  0  0  0
  -17.7440  -36.9140  -28.7050 C   0  0  0  0  0
  -17.8690  -35.6580  -29.0960 N   0  0  0  0  0
  -17.0525  -38.2633  -27.1805 H   0  0  0  0  0
  -15.9540  -33.5641  -25.5180 H   0  0  0  0  0
  -16.6918  -31.6813  -27.1789 H   0  0  0  0  0
  -18.1116  -37.7169  -29.3441 H   0  0  0  0  0
  1  2  4  0  0  0
  1  6  4  0  0  0
  2  3  4  0  0  0
  2  9  4  0  0  0
  3  5  4  0  0  0
  3  7  4  0  0  0
  7  4  4  0  0  0
  4  8  4  0  0  0
  5  6  4  0  0  0
  8  9  4  0  0  0
  4 10  1  0  0  0
  5 11  1  0  0  0
  6 12  1  0  0  0
  8 13  1  0  0  0
M  END
$$$$
