### 
### Created by X-TOOL on Mon Sep 10 21:13:28 2018
### 

@<TRIPOS>MOLECULE
5eom_ligand
   41    42     1     0     0
SMALL
GAST_HUCK


@<TRIPOS>ATOM
      1 N1        167.7310   58.5180   -5.4040 N.am      1 CTP        -0.1467
      2 C2        167.0920   59.2840   -6.3560 C.2       1 CTP         0.3488
      3 N3        166.0030   58.7770   -7.0390 N.am      1 CTP        -0.1924
      4 C4        165.5470   57.5040   -6.7680 C.2       1 CTP         0.0853
      5 C5        166.1770   56.7440   -5.7870 C.2       1 CTP         0.0019
      6 C6        167.3340   57.2260   -5.1860 C.2       1 CTP         0.0739
      7 O2        167.4830   60.4250   -6.6040 O.2       1 CTP        -0.3777
      8 N4        164.5130   57.0110   -7.4440 N.2       1 CTP        -0.4291
      9 C1'       168.8480   59.0860   -4.6180 C.3       1 CTP         0.2109
     10 C2'       168.3010   59.6470   -3.3190 C.3       1 CTP         0.1399
     11 O2'       168.7760   60.9570   -3.1260 O.3       1 CTP        -0.3835
     12 C3'       168.8400   58.7400   -2.2300 C.3       1 CTP         0.1150
     13 C4'       170.0250   58.0560   -2.8840 C.3       1 CTP         0.1190
     14 O4'       169.7740   58.0700   -4.2790 O.3       1 CTP        -0.3353
     15 O3'       169.2320   59.4730   -1.0940 O.3       1 CTP        -0.3864
     16 C5'       170.1930   56.6320   -2.3780 C.3       1 CTP         0.1131
     17 O5'       168.9730   55.9490   -2.5280 O.3       1 CTP        -0.2441
     18 PA        168.6940   54.6230   -1.6760 P.3       1 CTP         0.3266
     19 O1A       169.5840   53.5270   -2.1940 O.co2     1 CTP        -0.5692
     20 O2A       167.2410   54.2200   -1.7530 O.co2     1 CTP        -0.5692
     21 O3A       169.1810   54.9740   -0.1780 O.3       1 CTP        -0.1171
     22 PB        168.1950   55.5740    0.9420 P.3       1 CTP         0.3553
     23 O1B       166.9630   54.7200    1.1070 O.co2     1 CTP        -0.5652
     24 O2B       168.9680   55.6730    2.2250 O.co2     1 CTP        -0.5652
     25 O3B       167.7880   57.0470    0.4450 O.3       1 CTP        -0.1546
     26 PG        166.3810   57.7080    0.8690 P.3       1 CTP         0.1879
     27 O1G       165.2680   56.9570    0.1790 O.co2     1 CTP        -0.6091
     28 O2G       166.1830   57.6530    2.3650 O.co2     1 CTP        -0.6091
     29 O3G       166.3550   59.1480    0.4240 O.co2     1 CTP        -0.6091
     30 H1        165.5446   59.3344   -7.7313 H         1 CTP         0.2412
     31 H2        165.7667   55.7792   -5.4925 H         1 CTP         0.0330
     32 H3        167.9245   56.5761   -4.5419 H         1 CTP         0.1288
     33 H4        164.1791   56.0806   -7.2465 H         1 CTP         0.0340
     34 H5        169.3476   59.8765   -5.1972 H         1 CTP         0.1013
     35 H6        167.2010   59.6430   -3.3233 H         1 CTP         0.0677
     36 H7        168.4295   61.3015   -2.3112 H         1 CTP         0.2101
     37 H8        168.0819   57.9998   -1.9345 H         1 CTP         0.0648
     38 H9        170.9441   58.6196   -2.6658 H         1 CTP         0.0651
     39 H10       169.8611   60.1375   -1.3489 H         1 CTP         0.2100
     40 H11       170.4787   56.6487   -1.3159 H         1 CTP         0.0648
     41 H12       170.9752   56.1230   -2.9602 H         1 CTP         0.0648
@<TRIPOS>BOND
     1    1    2 am 
     2    1    6 1  
     3    1    9 1  
     4    2    3 am 
     5    2    7 2  
     6    3    4 1  
     7    4    5 1  
     8    4    8 2  
     9    5    6 2  
    10    9   10 1  
    11    9   14 1  
    12   10   11 1  
    13   10   12 1  
    14   12   13 1  
    15   12   15 1  
    16   13   14 1  
    17   13   16 1  
    18   16   17 1  
    19   17   18 1  
    20   18   19 ar 
    21   18   20 ar 
    22   18   21 1  
    23   21   22 1  
    24   22   23 ar 
    25   22   24 ar 
    26   22   25 1  
    27   25   26 1  
    28   26   27 ar 
    29   26   28 ar 
    30   26   29 ar 
    31    3   30 1  
    32    5   31 1  
    33    6   32 1  
    34    8   33 1  
    35    9   34 1  
    36   10   35 1  
    37   11   36 1  
    38   12   37 1  
    39   13   38 1  
    40   15   39 1  
    41   16   40 1  
    42   16   41 1  
@<TRIPOS>SUBSTRUCTURE
     1 CTP         1

