5eom_ligand
  -I-interpret- 

 45 46  0  0  0  0  0  0  0  0999 V2000
  167.7310   58.5180   -5.4040 N   0  0  0  0  0
  167.0920   59.2840   -6.3560 C   0  0  0  0  0
  166.0030   58.7770   -7.0390 N   0  0  0  0  0
  165.5470   57.5040   -6.7680 C   0  0  0  0  0
  166.1770   56.7440   -5.7870 C   0  0  0  0  0
  167.3340   57.2260   -5.1860 C   0  0  0  0  0
  167.4830   60.4250   -6.6040 O   0  0  0  0  0
  164.5130   57.0110   -7.4440 N   0  0  0  0  0
  168.8480   59.0860   -4.6180 C   0  0  0  0  0
  168.3010   59.6470   -3.3190 C   0  0  0  0  0
  168.7760   60.9570   -3.1260 O   0  0  0  0  0
  168.8400   58.7400   -2.2300 C   0  0  0  0  0
  170.0250   58.0560   -2.8840 C   0  0  0  0  0
  169.7740   58.0700   -4.2790 O   0  0  0  0  0
  169.2320   59.4730   -1.0940 O   0  0  0  0  0
  170.1930   56.6320   -2.3780 C   0  0  0  0  0
  168.9730   55.9490   -2.5280 O   0  0  0  0  0
  168.6940   54.6230   -1.6760 P   0  0  0  0  0
  169.5840   53.5270   -2.1940 O   0  0  0  0  0
  167.2410   54.2200   -1.7530 O   0  0  0  0  0
  169.1810   54.9740   -0.1780 O   0  0  0  0  0
  168.1950   55.5740    0.9420 P   0  0  0  0  0
  166.9630   54.7200    1.1070 O   0  0  0  0  0
  168.9680   55.6730    2.2250 O   0  0  0  0  0
  167.7880   57.0470    0.4450 O   0  0  0  0  0
  166.3810   57.7080    0.8690 P   0  0  0  0  0
  165.2680   56.9570    0.1790 O   0  0  0  0  0
  166.1830   57.6530    2.3650 O   0  0  0  0  0
  166.3550   59.1480    0.4240 O   0  0  0  0  0
  165.5354   59.3455   -7.7451 H   0  0  0  0  0
  165.7663   55.7783   -5.4922 H   0  0  0  0  0
  167.9250   56.5755   -4.5413 H   0  0  0  0  0
  164.1760   56.0691   -7.2450 H   0  0  0  0  0
  169.3351   59.8581   -5.2135 H   0  0  0  0  0
  167.2117   59.6850   -3.3181 H   0  0  0  0  0
  168.4259   61.3051   -2.3027 H   0  0  0  0  0
  168.0941   58.0328   -1.8674 H   0  0  0  0  0
  170.9522   58.5760   -2.6433 H   0  0  0  0  0
  169.5673   58.8706   -0.4259 H   0  0  0  0  0
  170.4810   56.6458   -1.3268 H   0  0  0  0  0
  170.9711   56.1268   -2.9502 H   0  0  0  0  0
  166.6939   54.9340   -1.4176 H   0  0  0  0  0
  166.4913   54.6760    0.2720 H   0  0  0  0  0
  165.2809   56.0390    0.4597 H   0  0  0  0  0
  166.1985   56.7381    2.6553 H   0  0  0  0  0
  1  2  1  0  0  0
  1  6  1  0  0  0
  1  9  1  0  0  0
  2  3  1  0  0  0
  2  7  2  0  0  0
  3  4  1  0  0  0
  4  5  1  0  0  0
  4  8  2  0  0  0
  5  6  2  0  0  0
  9 10  1  0  0  0
  9 14  1  0  0  0
 10 11  1  0  0  0
 10 12  1  0  0  0
 12 13  1  0  0  0
 12 15  1  0  0  0
 13 14  1  0  0  0
 13 16  1  0  0  0
 16 17  1  0  0  0
 17 18  1  0  0  0
 18 19  2  0  0  0
 18 20  1  0  0  0
 18 21  1  0  0  0
 21 22  1  0  0  0
 22 23  1  0  0  0
 22 24  2  0  0  0
 22 25  1  0  0  0
 25 26  1  0  0  0
 26 27  1  0  0  0
 26 28  1  0  0  0
 26 29  2  0  0  0
  3 30  1  0  0  0
  5 31  1  0  0  0
  6 32  1  0  0  0
  8 33  1  0  0  0
  9 34  1  0  0  0
 10 35  1  0  0  0
 11 36  1  0  0  0
 12 37  1  0  0  0
 13 38  1  0  0  0
 15 39  1  0  0  0
 16 40  1  0  0  0
 16 41  1  0  0  0
 20 42  1  0  0  0
 23 43  1  0  0  0
 27 44  1  0  0  0
 28 45  1  0  0  0
M  END
$$$$
