4ycl_ligand
  -I-interpret- 

 47 51  0  0  0  0  0  0  0  0999 V2000
   25.0180  -17.9540   15.6270 O   0  0  0  0  0
   25.0750  -17.6690   14.4050 C   0  0  0  0  0
   26.1220  -17.7680   13.3650 C   0  0  0  0  0
   27.4220  -18.4530   13.4790 C   0  0  0  0  0
   28.1780  -18.0680   14.3440 O   0  0  0  0  0
   28.0260  -19.2160   12.2540 C   0  0  0  0  0
   23.8280  -17.3920   13.5910 C   0  0  0  0  0
   22.9280  -18.5970   13.3540 C   0  0  0  0  0
   21.9010  -18.9400   14.4040 C   0  0  0  0  0
   21.7980  -19.8380   15.4100 C   0  0  0  0  0
   20.5640  -19.6650   16.0470 N   0  0  0  0  0
   19.8270  -18.6420   15.4640 C   0  0  0  0  0
   20.6880  -18.2050   14.4340 C   0  0  0  0  0
   18.5680  -18.0010   15.6270 C   0  0  0  0  0
   18.1770  -16.9290   14.7620 C   0  0  0  0  0
   19.0680  -16.5200   13.7430 C   0  0  0  0  0
   20.3190  -17.1680   13.5910 C   0  0  0  0  0
   21.3430  -16.8090   12.5390 C   0  0  0  0  0
   22.2480  -18.0230   12.0720 C   0  0  0  0  0
   23.4530  -17.5940   11.1540 C   0  0  0  0  0
   24.0010  -18.7080   10.2630 C   0  0  0  0  0
   23.2070  -16.3760   10.2820 C   0  0  0  0  0
   24.3570  -17.2210   12.2480 N   0  3  0  0  0
   25.6810  -17.0710   12.2950 C   0  0  0  0  0
   26.3800  -16.7710   11.1660 O   0  0  0  0  0
   26.9818  -18.4348   13.4300 H   0  0  0  0  0
   28.7369  -18.5695   11.7394 H   0  0  0  0  0
   28.5360  -20.1141   12.6025 H   0  0  0  0  0
   27.2245  -19.4941   11.5697 H   0  0  0  0  0
   23.2755  -16.5981   14.0935 H   0  0  0  0  0
   23.4632  -19.5460   13.3231 H   0  0  0  0  0
   22.5530  -20.5761   15.6805 H   0  0  0  0  0
   17.8940  -18.3290   16.4183 H   0  0  0  0  0
   17.2118  -16.4380   14.8865 H   0  0  0  0  0
   18.7922  -15.7052   13.0736 H   0  0  0  0  0
   22.0064  -16.0634   12.9773 H   0  0  0  0  0
   20.7956  -16.4606   11.6632 H   0  0  0  0  0
   21.6023  -18.7105   11.5256 H   0  0  0  0  0
   24.3542  -19.5295   10.8863 H   0  0  0  0  0
   23.2108  -19.0651    9.6025 H   0  0  0  0  0
   24.8275  -18.3212    9.6668 H   0  0  0  0  0
   22.3661  -16.5711    9.6165 H   0  0  0  0  0
   22.9800  -15.5178   10.9145 H   0  0  0  0  0
   24.0989  -16.1677    9.6911 H   0  0  0  0  0
   24.3175  -16.4344   11.5999 H   0  0  0  0  0
   26.0588  -16.0644   12.4740 H   0  0  0  0  0
   27.3135  -16.6996   11.3784 H   0  0  0  0  0
  1  2  2  0  0  0
  2  3  1  0  0  0
  2  7  1  0  0  0
  3  4  1  0  0  0
  3 24  1  0  0  0
  4  5  2  0  0  0
  4  6  1  0  0  0
  7  8  1  0  0  0
  7 23  1  0  0  0
  8  9  1  0  0  0
  8 19  1  0  0  0
  9 10  4  0  0  0
  9 13  4  0  0  0
 10 11  4  0  0  0
 11 12  4  0  0  0
 12 13  4  0  0  0
 12 14  4  0  0  0
 13 17  4  0  0  0
 14 15  4  0  0  0
 15 16  4  0  0  0
 16 17  4  0  0  0
 17 18  1  0  0  0
 18 19  1  0  0  0
 19 20  1  0  0  0
 20 21  1  0  0  0
 20 22  1  0  0  0
 20 23  1  0  0  0
 23 24  1  0  0  0
 24 25  1  0  0  0
  3 26  1  0  0  0
  6 27  1  0  0  0
  6 28  1  0  0  0
  6 29  1  0  0  0
  7 30  1  0  0  0
  8 31  1  0  0  0
 10 32  1  0  0  0
 14 33  1  0  0  0
 15 34  1  0  0  0
 16 35  1  0  0  0
 18 36  1  0  0  0
 18 37  1  0  0  0
 19 38  1  0  0  0
 21 39  1  0  0  0
 21 40  1  0  0  0
 21 41  1  0  0  0
 22 42  1  0  0  0
 22 43  1  0  0  0
 22 44  1  0  0  0
 23 45  1  0  0  0
 24 46  1  0  0  0
 25 47  1  0  0  0
M  END
$$$$
