5u8a_ligand
  -I-interpret- 

 54 57  0  0  0  0  0  0  0  0999 V2000
  -16.7710  -24.3620   25.7200 C   0  0  0  0  0
  -15.8180  -25.3630   25.6630 C   0  0  0  0  0
  -15.3190  -25.8590   26.8490 C   0  0  0  0  0
  -15.7390  -25.3770   28.0700 C   0  0  0  0  0
  -16.6820  -24.3750   28.1540 C   0  0  0  0  0
  -17.4810  -23.6540   24.7150 C   0  0  0  0  0
  -16.0190  -23.4210   22.7010 C   0  0  0  0  0
  -14.3080  -24.4600   21.3450 C   0  0  0  0  0
  -12.4680  -26.0020   22.1760 C   0  0  0  0  0
  -11.8330  -27.9750   21.0230 C   0  0  0  0  0
  -12.7990  -27.7050   20.0830 C   0  0  0  0  0
  -13.5780  -26.5700   20.1950 C   0  0  0  0  0
  -16.5120  -25.3730   21.6390 C   0  0  0  0  0
  -19.1370  -26.5780   21.2080 C   0  0  0  0  0
  -11.6630  -27.1110   22.0830 C   0  0  0  0  0
  -18.2980  -22.7640   25.3870 C   0  0  0  0  0
  -13.4380  -25.6820   21.2440 C   0  0  0  0  0
  -17.1810  -23.8960   26.9630 C   0  0  0  0  0
  -17.3970  -23.7900   23.2290 C   0  0  0  0  0
  -17.6070  -25.2080   22.6630 C   0  0  0  0  0
  -18.8020  -22.1510   27.7400 C   0  0  0  0  0
  -19.9870  -25.3120   23.1360 C   0  0  0  0  0
  -18.1050  -22.9210   26.7260 N   0  0  0  0  0
  -15.4180  -24.6680   22.2650 N   0  3  0  0  0
  -18.9600  -25.3590   22.0420 N   0  3  0  0  0
  -14.5160  -26.3590   19.2610 F   0  0  0  0  0
  -12.1390  -24.9320   23.6770 Br  0  0  0  0  0
  -15.4704  -25.7498   24.7051 H   0  0  0  0  0
  -14.5729  -26.6531   26.8201 H   0  0  0  0  0
  -15.3185  -25.7951   28.9846 H   0  0  0  0  0
  -17.0158  -23.9818   29.1142 H   0  0  0  0  0
  -15.4160  -22.9364   23.4689 H   0  0  0  0  0
  -16.0860  -22.7046   21.8822 H   0  0  0  0  0
  -14.7148  -24.2438   20.3571 H   0  0  0  0  0
  -13.7013  -23.6347   21.7176 H   0  0  0  0  0
  -11.2080  -28.8633   20.9309 H   0  0  0  0  0
  -12.9505  -28.3882   19.2473 H   0  0  0  0  0
  -16.7742  -24.9833   20.6554 H   0  0  0  0  0
  -16.2841  -26.4140   21.4101 H   0  0  0  0  0
  -18.4171  -26.5645   20.3897 H   0  0  0  0  0
  -18.9743  -27.4637   21.8222 H   0  0  0  0  0
  -20.1489  -26.5959   20.8032 H   0  0  0  0  0
  -10.9003  -27.3050   22.8372 H   0  0  0  0  0
  -18.9828  -22.0546   24.9224 H   0  0  0  0  0
  -18.2028  -23.1276   22.9129 H   0  0  0  0  0
  -17.5620  -25.9690   23.4421 H   0  0  0  0  0
  -18.5836  -21.0918   27.6040 H   0  0  0  0  0
  -19.8752  -22.3169   27.6466 H   0  0  0  0  0
  -18.4687  -22.4681   28.7282 H   0  0  0  0  0
  -20.9842  -25.2973   22.6961 H   0  0  0  0  0
  -19.8811  -26.1923   23.7701 H   0  0  0  0  0
  -19.8387  -24.4124   23.7334 H   0  0  0  0  0
  -15.0036  -25.1879   23.0386 H   0  0  0  0  0
  -19.0737  -24.5861   21.3862 H   0  0  0  0  0
  1  2  4  0  0  0
  6  1  4  0  0  0
  1 18  4  0  0  0
  2  3  4  0  0  0
  3  4  4  0  0  0
  5  4  4  0  0  0
 18  5  4  0  0  0
  6 16  4  0  0  0
 19  6  1  0  0  0
 19  7  1  0  0  0
  7 24  1  0  0  0
  8 17  1  0  0  0
 24  8  1  0  0  0
  9 15  4  0  0  0
 17  9  4  0  0  0
  9 27  1  0  0  0
 11 10  4  0  0  0
 15 10  4  0  0  0
 12 11  4  0  0  0
 17 12  4  0  0  0
 12 26  1  0  0  0
 20 13  1  0  0  0
 13 24  1  0  0  0
 25 14  1  0  0  0
 16 23  4  0  0  0
 23 18  4  0  0  0
 20 19  1  0  0  0
 20 25  1  0  0  0
 23 21  1  0  0  0
 25 22  1  0  0  0
  2 28  1  0  0  0
  3 29  1  0  0  0
  4 30  1  0  0  0
  5 31  1  0  0  0
  7 32  1  0  0  0
  7 33  1  0  0  0
  8 34  1  0  0  0
  8 35  1  0  0  0
 10 36  1  0  0  0
 11 37  1  0  0  0
 13 38  1  0  0  0
 13 39  1  0  0  0
 14 40  1  0  0  0
 14 41  1  0  0  0
 14 42  1  0  0  0
 15 43  1  0  0  0
 16 44  1  0  0  0
 19 45  1  0  0  0
 20 46  1  0  0  0
 21 47  1  0  0  0
 21 48  1  0  0  0
 21 49  1  0  0  0
 22 50  1  0  0  0
 22 51  1  0  0  0
 22 52  1  0  0  0
 24 53  1  0  0  0
 25 54  1  0  0  0
M  END
$$$$
