5j27_ligand
  -I-interpret- 

 48 50  0  0  0  0  0  0  0  0999 V2000
   -0.0300   32.1400   25.6650 C   0  0  0  0  0
   -1.2670   32.3590   25.0200 C   0  0  0  0  0
   -1.2890   33.0820   23.8290 C   0  0  0  0  0
   -0.1250   34.5120   22.1330 C   0  0  0  0  0
    0.2430   36.2620   20.8280 C   0  0  0  0  0
    1.1710   36.4400   23.0940 C   0  0  0  0  0
    2.5470   36.6260   22.9550 C   0  0  0  0  0
    3.2800   37.2980   23.9500 C   0  0  0  0  0
    0.5100   36.9670   24.2170 C   0  0  0  0  0
    6.0810   29.8770   23.0000 C   0  0  0  0  0
   -0.1040   33.6540   23.3310 C   0  0  0  0  0
    1.1170   33.4000   23.9570 C   0  0  0  0  0
    1.1540   32.7320   25.1710 C   0  0  0  0  0
   -0.0150   31.4360   26.8220 O   0  0  0  0  0
   -2.4500   33.2770   23.1520 O   0  0  0  0  0
   -0.7270   34.2500   20.9940 N   0  0  0  0  0
   -0.4830   35.3420   20.1510 N   0  0  0  0  0
    0.4650   35.7710   22.0690 N   0  0  0  0  0
    2.6150   37.7990   25.0690 C   0  0  0  0  0
    1.2400   37.6290   25.2070 C   0  0  0  0  0
    0.6300   37.3490   20.4100 O   0  0  0  0  0
    2.7570   32.4630   25.8940 S   0  0  0  0  0
    3.6420   33.4630   25.3670 O   0  0  0  0  0
    2.5060   32.3690   27.2960 O   0  0  0  0  0
    3.1750   30.9950   25.2380 N   0  0  0  0  0
    4.1100   30.9340   24.0970 C   0  0  0  0  0
    5.3150   29.9990   24.3180 C   0  0  0  0  0
    2.4640   29.7790   25.6750 C   0  0  0  0  0
    3.1460   36.1130   21.8630 F   0  0  0  0  0
   -2.1906   31.9684   25.4473 H   0  0  0  0  0
    4.3576   37.4260   23.8474 H   0  0  0  0  0
   -0.5702   36.8593   24.3151 H   0  0  0  0  0
    5.4230   29.4633   22.2358 H   0  0  0  0  0
    6.4260   30.8631   22.6891 H   0  0  0  0  0
    6.9380   29.2179   23.1390 H   0  0  0  0  0
    2.0453   33.7282   23.4895 H   0  0  0  0  0
    0.8875   31.3680   27.1422 H   0  0  0  0  0
   -2.2753   33.7926   22.3613 H   0  0  0  0  0
   -0.8004   35.4294   19.1856 H   0  0  0  0  0
    3.1754   38.3271   25.8405 H   0  0  0  0  0
    0.7313   38.0139   26.0908 H   0  0  0  0  0
    4.5052   31.9392   23.9506 H   0  0  0  0  0
    3.5528   30.5450   23.2447 H   0  0  0  0  0
    5.9663   30.4070   25.0910 H   0  0  0  0  0
    4.9700   29.0167   24.6407 H   0  0  0  0  0
    2.6017   29.6449   26.7479 H   0  0  0  0  0
    1.4016   29.8815   25.4538 H   0  0  0  0  0
    2.8650   28.9150   25.1452 H   0  0  0  0  0
  1  2  4  0  0  0
 13  1  4  0  0  0
  1 14  1  0  0  0
  2  3  4  0  0  0
 11  3  4  0  0  0
  3 15  1  0  0  0
 11  4  1  0  0  0
  4 16  2  0  0  0
  4 18  1  0  0  0
  5 17  1  0  0  0
 18  5  1  0  0  0
  5 21  2  0  0  0
  6  7  4  0  0  0
  6  9  4  0  0  0
 18  6  1  0  0  0
  7  8  4  0  0  0
  7 29  1  0  0  0
  8 19  4  0  0  0
  9 20  4  0  0  0
 27 10  1  0  0  0
 12 11  4  0  0  0
 13 12  4  0  0  0
 22 13  1  0  0  0
 16 17  1  0  0  0
 20 19  4  0  0  0
 22 23  2  0  0  0
 22 24  2  0  0  0
 25 22  1  0  0  0
 26 25  1  0  0  0
 25 28  1  0  0  0
 26 27  1  0  0  0
  2 30  1  0  0  0
  8 31  1  0  0  0
  9 32  1  0  0  0
 10 33  1  0  0  0
 10 34  1  0  0  0
 10 35  1  0  0  0
 12 36  1  0  0  0
 14 37  1  0  0  0
 15 38  1  0  0  0
 17 39  1  0  0  0
 19 40  1  0  0  0
 20 41  1  0  0  0
 26 42  1  0  0  0
 26 43  1  0  0  0
 27 44  1  0  0  0
 27 45  1  0  0  0
 28 46  1  0  0  0
 28 47  1  0  0  0
 28 48  1  0  0  0
M  END
$$$$
