3c7q_ligand
  -I-interpret- 

 75 79  0  0  0  0  0  0  0  0999 V2000
   21.3310   64.4740   30.7450 C   0  0  0  0  0
   20.9760   63.1320   31.1930 C   0  0  0  0  0
   20.8030   65.3580   29.8830 C   0  0  0  0  0
   22.5800   64.8020   31.4790 C   0  0  0  0  0
   21.9510   62.7530   32.0920 C   0  0  0  0  0
   19.9510   62.2800   30.9270 C   0  0  0  0  0
   19.5670   65.0430   29.1840 C   0  0  0  0  0
   21.9460   61.5360   32.7280 C   0  0  0  0  0
   19.9250   61.0470   31.5410 C   0  0  0  0  0
   21.0950   67.6490   28.8550 C   0  0  0  0  0
   20.8970   60.6570   32.4460 C   0  0  0  0  0
   17.2270   64.6330   29.3230 C   0  0  0  0  0
   18.3210   64.6410   27.2250 C   0  0  0  0  0
   22.1550   68.4590   28.7880 C   0  0  0  0  0
   20.8490   59.3010   33.0550 C   0  0  0  0  0
   22.1340   69.6170   28.0560 C   0  0  0  0  0
   19.9460   69.1960   27.3650 C   0  0  0  0  0
   21.9080   58.9770   33.7750 O   0  0  0  0  0
   19.9910   58.5370   32.8490 O   0  0  0  0  0
   21.0450   70.0310   27.3330 C   0  0  0  0  0
   20.6560   72.4280   27.1380 C   0  0  0  0  0
   21.8660   71.3300   25.3760 C   0  0  0  0  0
   20.1990   72.3990   28.6000 C   0  0  0  0  0
   19.6040   74.0660   30.2000 C   0  0  0  0  0
   21.8290   73.3870   30.1250 C   0  0  0  0  0
   19.9350   75.4220   30.7970 C   0  0  0  0  0
   22.2460   74.7440   30.6790 C   0  0  0  0  0
   21.6020   76.7500   31.7510 C   0  0  0  0  0
   20.6590   73.4410   26.5050 O   0  0  0  0  0
   20.6530   73.5700   29.3270 N   0  3  0  0  0
   21.2120   75.3920   31.4700 N   0  3  0  0  0
   21.1430   71.2580   26.6250 N   0  0  0  0  0
   19.9940   68.0210   28.1170 C   0  0  0  0  0
   21.3550   66.5720   29.6290 N   0  0  0  0  0
   19.5140   64.9250   27.8200 C   0  0  0  0  0
   17.1770   64.4780   27.9650 C   0  0  0  0  0
   18.4160   64.9180   29.9220 C   0  0  0  0  0
   21.8240   57.6660   34.2350 C   0  0  0  0  0
   22.8730   63.7300   32.2230 N   0  0  0  0  0
   23.1970   65.7690   31.4040 O   0  0  0  0  0
   19.1590   62.5688   30.2361 H   0  0  0  0  0
   22.7345   61.2645   33.4299 H   0  0  0  0  0
   19.1140   60.3573   31.3069 H   0  0  0  0  0
   16.3218   64.5291   29.9212 H   0  0  0  0  0
   18.2748   64.5415   26.1405 H   0  0  0  0  0
   23.0617   68.1914   29.3306 H   0  0  0  0  0
   23.0280   70.2405   28.0480 H   0  0  0  0  0
   19.0460   69.4528   26.8063 H   0  0  0  0  0
   22.9045   71.0436   25.5418 H   0  0  0  0  0
   21.4112   70.6510   24.6547 H   0  0  0  0  0
   21.8257   72.3495   24.9926 H   0  0  0  0  0
   20.6226   71.5141   29.0749 H   0  0  0  0  0
   19.1093   72.3837   28.6192 H   0  0  0  0  0
   18.6960   74.1731   29.6065 H   0  0  0  0  0
   19.4869   73.3577   31.0201 H   0  0  0  0  0
   21.6227   72.6963   30.9426 H   0  0  0  0  0
   22.6316   72.9678   29.5181 H   0  0  0  0  0
   19.1636   75.6834   31.5213 H   0  0  0  0  0
   19.9800   76.1569   29.9932 H   0  0  0  0  0
   22.4619   75.3918   29.8294 H   0  0  0  0  0
   23.1034   74.5812   31.3320 H   0  0  0  0  0
   21.6826   77.3044   30.8160 H   0  0  0  0  0
   20.8517   77.2176   32.3886 H   0  0  0  0  0
   22.5657   76.7519   32.2603 H   0  0  0  0  0
   20.8933   74.2342   28.5911 H   0  0  0  0  0
   21.1097   74.8477   32.3266 H   0  0  0  0  0
   19.1207   67.3688   28.1200 H   0  0  0  0  0
   22.2048   66.7101   30.1760 H   0  0  0  0  0
   20.4137   65.0565   27.2188 H   0  0  0  0  0
   16.2364   64.2271   27.4747 H   0  0  0  0  0
   18.4547   65.0489   31.0034 H   0  0  0  0  0
   20.9347   57.5564   34.8557 H   0  0  0  0  0
   21.7609   56.9872   33.3845 H   0  0  0  0  0
   22.7108   57.4314   34.8237 H   0  0  0  0  0
   23.6971   63.6590   32.8198 H   0  0  0  0  0
  1  2  1  0  0  0
  3  1  2  0  0  0
  1  4  1  0  0  0
  2  5  4  0  0  0
  2  6  4  0  0  0
  3  7  1  0  0  0
 34  3  1  0  0  0
  4 39  1  0  0  0
  4 40  2  0  0  0
  5  8  4  0  0  0
 39  5  1  0  0  0
  6  9  4  0  0  0
  7 35  4  0  0  0
  7 37  4  0  0  0
  8 11  4  0  0  0
  9 11  4  0  0  0
 14 10  4  0  0  0
 33 10  4  0  0  0
 10 34  1  0  0  0
 11 15  1  0  0  0
 12 36  4  0  0  0
 37 12  4  0  0  0
 35 13  4  0  0  0
 13 36  4  0  0  0
 16 14  4  0  0  0
 15 18  1  0  0  0
 15 19  2  0  0  0
 20 16  4  0  0  0
 20 17  4  0  0  0
 17 33  4  0  0  0
 18 38  1  0  0  0
 32 20  1  0  0  0
 23 21  1  0  0  0
 21 29  2  0  0  0
 21 32  1  0  0  0
 32 22  1  0  0  0
 30 23  1  0  0  0
 24 26  1  0  0  0
 30 24  1  0  0  0
 25 27  1  0  0  0
 25 30  1  0  0  0
 26 31  1  0  0  0
 27 31  1  0  0  0
 31 28  1  0  0  0
  6 41  1  0  0  0
  8 42  1  0  0  0
  9 43  1  0  0  0
 12 44  1  0  0  0
 13 45  1  0  0  0
 14 46  1  0  0  0
 16 47  1  0  0  0
 17 48  1  0  0  0
 22 49  1  0  0  0
 22 50  1  0  0  0
 22 51  1  0  0  0
 23 52  1  0  0  0
 23 53  1  0  0  0
 24 54  1  0  0  0
 24 55  1  0  0  0
 25 56  1  0  0  0
 25 57  1  0  0  0
 26 58  1  0  0  0
 26 59  1  0  0  0
 27 60  1  0  0  0
 27 61  1  0  0  0
 28 62  1  0  0  0
 28 63  1  0  0  0
 28 64  1  0  0  0
 30 65  1  0  0  0
 31 66  1  0  0  0
 33 67  1  0  0  0
 34 68  1  0  0  0
 35 69  1  0  0  0
 36 70  1  0  0  0
 37 71  1  0  0  0
 38 72  1  0  0  0
 38 73  1  0  0  0
 38 74  1  0  0  0
 39 75  1  0  0  0
M  END
$$$$
