4g0l_ligand
  -I-interpret- 

 38 37  0  0  0  0  0  0  0  0999 V2000
  -65.5350   34.5080   32.4700 N   0  3  0  0  0
  -64.5430   33.6370   33.0700 C   0  0  0  0  0
  -65.0250   33.1830   34.4160 C   0  0  0  0  0
  -65.2190   34.0070   35.3360 O   0  0  0  0  0
  -65.2380   31.9700   34.6300 O   0  0  0  0  0
  -63.2310   34.3960   33.2310 C   0  0  0  0  0
  -62.0980   33.4530   33.6170 C   0  0  0  0  0
  -60.8610   33.7990   32.8220 C   0  0  0  0  0
  -60.8510   34.9190   31.9670 O   0  0  0  0  0
  -59.8120   32.9970   32.9790 N   0  0  0  0  0
  -58.5460   33.2700   32.3270 C   0  0  0  0  0
  -58.4950   32.6790   30.9500 C   0  0  0  0  0
  -58.8770   31.3390   30.7310 O   0  0  0  0  0
  -57.3990   32.7120   33.1620 C   0  0  0  0  0
  -56.7230   33.9320   34.3150 S   0  0  0  0  0
  -58.0780   33.4810   29.9750 N   0  0  0  0  0
  -57.5820   32.9530   28.7190 C   0  0  0  0  0
  -57.6380   33.9870   27.6200 C   0  0  0  0  0
  -58.2330   35.0720   27.7990 O   0  0  0  0  0
  -57.0910   33.7710   26.5170 O   0  0  0  0  0
  -66.4124   33.9990   32.3628 H   0  0  0  0  0
  -65.6821   35.3187   33.0713 H   0  0  0  0  0
  -65.2058   34.8169   31.5553 H   0  0  0  0  0
  -64.3854   32.7701   32.4283 H   0  0  0  0  0
  -65.0134   34.8904   35.0215 H   0  0  0  0  0
  -63.3514   35.1389   34.0195 H   0  0  0  0  0
  -62.9828   34.8704   32.2816 H   0  0  0  0  0
  -62.3918   32.4255   33.4025 H   0  0  0  0  0
  -61.8863   33.5563   34.6812 H   0  0  0  0  0
  -59.8999   32.1713   33.5713 H   0  0  0  0  0
  -58.4471   34.3518   32.2369 H   0  0  0  0  0
  -56.6013   32.4148   32.4813 H   0  0  0  0  0
  -57.7838   31.8754   33.7452 H   0  0  0  0  0
  -55.7306   33.3818   35.0087 H   0  0  0  0  0
  -58.1077   34.4911   30.1138 H   0  0  0  0  0
  -58.2077   32.1087   28.4295 H   0  0  0  0  0
  -56.5430   32.6540   28.8576 H   0  0  0  0  0
  -58.5990   35.0924   28.6862 H   0  0  0  0  0
  1  2  1  0  0  0
  2  3  1  0  0  0
  2  6  1  0  0  0
  3  4  1  0  0  0
  3  5  2  0  0  0
  6  7  1  0  0  0
  7  8  1  0  0  0
  8  9  2  0  0  0
  8 10  1  0  0  0
 10 11  1  0  0  0
 11 12  1  0  0  0
 11 14  1  0  0  0
 12 13  2  0  0  0
 12 16  1  0  0  0
 14 15  1  0  0  0
 16 17  1  0  0  0
 17 18  1  0  0  0
 18 19  1  0  0  0
 18 20  2  0  0  0
  1 21  1  0  0  0
  1 22  1  0  0  0
  1 23  1  0  0  0
  2 24  1  0  0  0
  4 25  1  0  0  0
  6 26  1  0  0  0
  6 27  1  0  0  0
  7 28  1  0  0  0
  7 29  1  0  0  0
 10 30  1  0  0  0
 11 31  1  0  0  0
 14 32  1  0  0  0
 14 33  1  0  0  0
 15 34  1  0  0  0
 16 35  1  0  0  0
 17 36  1  0  0  0
 17 37  1  0  0  0
 19 38  1  0  0  0
M  END
$$$$
