5nzf_ligand
  -I-interpret- 

 45 45  0  0  0  0  0  0  0  0999 V2000
   42.8970   -1.2810   17.5140 C   0  0  0  0  0
   42.6260   -0.5050   16.5380 O   0  0  0  0  0
   42.9350   -2.5390   17.4050 O   0  0  0  0  0
   43.1380   -0.7350   18.8640 C   0  0  0  0  0
   42.9210    0.7420   19.0680 C   0  0  0  0  0
   42.5940    1.1170   20.5150 C   0  0  0  0  0
   43.5750    0.4120   21.4590 C   0  0  0  0  0
   43.2620    0.7470   22.8340 N   0  0  0  0  0
   44.1090    1.4530   23.6000 C   0  0  0  0  0
   45.1820    1.8830   23.2360 O   0  0  0  0  0
   43.6110    1.7690   25.0160 C   0  0  0  0  0
   43.5610   -1.0800   21.3370 C   0  0  0  0  0
   43.4840   -1.5420   19.8890 C   0  0  0  0  0
   44.7330   -1.6040   21.9960 O   0  0  0  0  0
   44.3440   -2.6850   22.8740 C   0  0  0  0  0
   43.9980   -3.9880   22.1250 C   0  0  0  0  0
   45.4510   -2.9160   23.8750 C   0  0  0  0  0
   45.7130   -1.7020   24.7450 C   0  0  0  0  0
   45.0880   -4.5080   21.2090 C   0  0  0  0  0
   42.6780    2.5920   20.5900 N   0  3  0  0  0
   42.6511    0.4063   16.8387 H   0  0  0  0  0
   42.0703    1.0360   18.4532 H   0  0  0  0  0
   43.8477    1.2493   18.7996 H   0  0  0  0  0
   41.5978    0.7973   20.8206 H   0  0  0  0  0
   44.5662    0.7622   21.1709 H   0  0  0  0  0
   42.3744    0.4381   23.2303 H   0  0  0  0  0
   44.3200    1.3769   25.7451 H   0  0  0  0  0
   43.5237    2.8488   25.1365 H   0  0  0  0  0
   42.6366    1.3051   25.1690 H   0  0  0  0  0
   42.6622   -1.4647   21.8189 H   0  0  0  0  0
   43.7215   -2.5825   19.6674 H   0  0  0  0  0
   43.4258   -2.3896   23.3817 H   0  0  0  0  0
   43.1351   -3.7700   21.4957 H   0  0  0  0  0
   43.8325   -4.7530   22.8836 H   0  0  0  0  0
   46.3638   -3.1350   23.3211 H   0  0  0  0  0
   45.1488   -3.7363   24.5260 H   0  0  0  0  0
   46.0008   -0.8604   24.1150 H   0  0  0  0  0
   44.8079   -1.4507   25.2980 H   0  0  0  0  0
   46.5179   -1.9253   25.4452 H   0  0  0  0  0
   45.3098   -3.7591   20.4487 H   0  0  0  0  0
   45.9854   -4.7114   21.7932 H   0  0  0  0  0
   44.7498   -5.4261   20.7287 H   0  0  0  0  0
   42.0052    3.0030   19.9428 H   0  0  0  0  0
   42.4664    2.8955   21.5405 H   0  0  0  0  0
   43.6201    2.8909   20.3382 H   0  0  0  0  0
  1  2  1  0  0  0
  1  3  2  0  0  0
  1  4  1  0  0  0
  4  5  1  0  0  0
  4 13  2  0  0  0
  5  6  1  0  0  0
  6  7  1  0  0  0
  6 20  1  0  0  0
  7  8  1  0  0  0
  7 12  1  0  0  0
  8  9  1  0  0  0
  9 10  2  0  0  0
  9 11  1  0  0  0
 12 13  1  0  0  0
 12 14  1  0  0  0
 14 15  1  0  0  0
 15 16  1  0  0  0
 15 17  1  0  0  0
 16 19  1  0  0  0
 17 18  1  0  0  0
  2 21  1  0  0  0
  5 22  1  0  0  0
  5 23  1  0  0  0
  6 24  1  0  0  0
  7 25  1  0  0  0
  8 26  1  0  0  0
 11 27  1  0  0  0
 11 28  1  0  0  0
 11 29  1  0  0  0
 12 30  1  0  0  0
 13 31  1  0  0  0
 15 32  1  0  0  0
 16 33  1  0  0  0
 16 34  1  0  0  0
 17 35  1  0  0  0
 17 36  1  0  0  0
 18 37  1  0  0  0
 18 38  1  0  0  0
 18 39  1  0  0  0
 19 40  1  0  0  0
 19 41  1  0  0  0
 19 42  1  0  0  0
 20 43  1  0  0  0
 20 44  1  0  0  0
 20 45  1  0  0  0
M  END
$$$$
