6qm7_ligand
  -I-interpret- 

 53 57  0  0  0  0  0  0  0  0999 V2000
  165.3050  142.8590  129.2900 N   0  0  0  0  0
  172.3130  145.9230  131.9520 N   0  0  0  0  0
  166.3320  142.9200  130.1620 C   0  0  0  0  0
  164.8310  144.0810  128.6550 C   0  0  0  0  0
  163.5750  143.6450  127.9550 C   0  0  0  0  0
  163.8290  142.2420  127.6420 C   0  0  0  0  0
  164.5140  141.7290  128.8680 C   0  0  0  0  0
  169.2660  142.5380  133.3140 C   0  0  0  0  0
  171.5210  144.8570  135.2070 C   0  0  0  0  0
  173.1210  146.7650  132.6700 C   0  0  0  0  0
  172.1640  148.2560  135.4340 C   0  0  0  0  0
  174.5660  148.0200  134.9750 C   0  0  0  0  0
  167.0230  143.9260  130.2370 O   0  0  0  0  0
  166.5860  141.7840  130.8590 N   0  0  0  0  0
  167.5610  141.6180  131.8670 C   0  0  0  0  0
  167.4060  140.5440  132.7280 C   0  0  0  0  0
  168.2250  140.4180  133.8350 C   0  0  0  0  0
  168.5570  142.5560  132.1180 C   0  0  0  0  0
  169.1290  141.4160  134.1110 C   0  0  0  0  0
  169.9820  141.2220  135.1390 F   0  0  0  0  0
  170.1520  143.6630  133.6430 C   0  0  0  0  0
  170.6800  144.2990  132.6110 N   0  0  0  0  0
  171.6460  145.2030  132.8430 C   0  0  0  0  0
  172.0400  145.5310  134.1360 N   0  0  0  0  0
  170.6130  143.9060  134.9750 C   0  0  0  0  0
  172.9380  146.5630  133.9980 C   0  0  0  0  0
  173.2710  147.3450  135.1020 N   0  0  0  0  0
  174.8080  148.9030  136.1660 C   0  0  0  0  0
  173.7330  149.8270  136.3780 O   0  0  0  0  0
  172.5220  149.1210  136.6090 C   0  0  0  0  0
  165.5642  144.5093  127.9715 H   0  0  0  0  0
  164.6542  144.8836  129.3711 H   0  0  0  0  0
  163.3640  144.2398  127.0663 H   0  0  0  0  0
  162.6852  143.7815  128.5696 H   0  0  0  0  0
  164.4328  142.1173  126.7431 H   0  0  0  0  0
  162.9155  141.6931  127.4134 H   0  0  0  0  0
  163.8157  141.3909  129.6336 H   0  0  0  0  0
  165.1140  140.8392  128.6773 H   0  0  0  0  0
  171.8401  145.0900  136.2228 H   0  0  0  0  0
  173.8097  147.4906  132.2371 H   0  0  0  0  0
  171.2845  147.6640  135.6873 H   0  0  0  0  0
  171.9638  148.8952  134.5741 H   0  0  0  0  0
  174.5637  148.6306  134.0721 H   0  0  0  0  0
  175.3556  147.2707  134.9193 H   0  0  0  0  0
  166.0161  140.9689  130.6324 H   0  0  0  0  0
  166.6369  139.7967  132.5325 H   0  0  0  0  0
  168.1548  139.5411  134.4786 H   0  0  0  0  0
  168.7843  143.3140  131.3684 H   0  0  0  0  0
  170.2223  143.3136  135.8023 H   0  0  0  0  0
  175.7182  149.4751  135.9863 H   0  0  0  0  0
  174.8909  148.2689  137.0487 H   0  0  0  0  0
  172.6527  148.4832  137.4832 H   0  0  0  0  0
  171.7219  149.8447  136.7645 H   0  0  0  0  0
  3  1  1  0  0  0
  1  4  1  0  0  0
  1  7  1  0  0  0
 10  2  4  0  0  0
 23  2  4  0  0  0
  3 13  2  0  0  0
 14  3  1  0  0  0
  4  5  1  0  0  0
  6  5  1  0  0  0
  7  6  1  0  0  0
  8 18  4  0  0  0
  8 19  4  0  0  0
 21  8  1  0  0  0
 24  9  4  0  0  0
  9 25  4  0  0  0
 26 10  4  0  0  0
 27 11  1  0  0  0
 11 30  1  0  0  0
 27 12  1  0  0  0
 12 28  1  0  0  0
 15 14  1  0  0  0
 15 16  4  0  0  0
 18 15  4  0  0  0
 17 16  4  0  0  0
 19 17  4  0  0  0
 19 20  1  0  0  0
 22 21  4  0  0  0
 25 21  4  0  0  0
 23 22  4  0  0  0
 24 23  4  0  0  0
 26 24  4  0  0  0
 26 27  1  0  0  0
 28 29  1  0  0  0
 29 30  1  0  0  0
  4 31  1  0  0  0
  4 32  1  0  0  0
  5 33  1  0  0  0
  5 34  1  0  0  0
  6 35  1  0  0  0
  6 36  1  0  0  0
  7 37  1  0  0  0
  7 38  1  0  0  0
  9 39  1  0  0  0
 10 40  1  0  0  0
 11 41  1  0  0  0
 11 42  1  0  0  0
 12 43  1  0  0  0
 12 44  1  0  0  0
 14 45  1  0  0  0
 16 46  1  0  0  0
 17 47  1  0  0  0
 18 48  1  0  0  0
 25 49  1  0  0  0
 28 50  1  0  0  0
 28 51  1  0  0  0
 30 52  1  0  0  0
 30 53  1  0  0  0
M  END
$$$$
