2m3o_ligand
  -I-interpret- 

151154  0  0  0  0  0  0  0  0999 V2000
  -12.5700  -25.8520    1.0060 N   0  3  0  0  0
  -12.3990  -27.2490    1.3850 C   0  0  0  0  0
  -11.6170  -28.0140    0.3180 C   0  0  0  0  0
  -11.0170  -29.0550    0.5910 O   0  0  0  0  0
  -13.7680  -27.9180    1.6070 C   0  0  0  0  0
  -14.6300  -27.6340    0.4950 O   0  0  0  0  0
  -14.4090  -27.4200    2.8960 C   0  0  0  0  0
  -11.6330  -27.4850   -0.8960 N   0  0  0  0  0
  -10.9390  -28.1010   -2.0140 C   0  0  0  0  0
   -9.9740  -27.1070   -2.6540 C   0  0  0  0  0
  -10.2550  -25.9090   -2.7020 O   0  0  0  0  0
  -11.9410  -28.6090   -3.0440 C   0  0  0  0  0
   -8.8200  -27.5820   -3.1370 N   0  0  0  0  0
   -7.8420  -26.7340   -3.8160 C   0  0  0  0  0
   -8.2300  -26.4780   -5.2720 C   0  0  0  0  0
   -8.8960  -27.3030   -5.8980 O   0  0  0  0  0
   -6.5580  -27.5600   -3.7320 C   0  0  0  0  0
   -7.0220  -28.9770   -3.7270 C   0  0  0  0  0
   -8.3730  -28.9840   -3.0560 C   0  0  0  0  0
   -7.8320  -25.3320   -5.8310 N   0  0  0  0  0
   -8.1450  -24.9960   -7.2130 C   0  0  0  0  0
   -7.1890  -25.6670   -8.1950 C   0  0  0  0  0
   -6.0310  -25.9310   -7.8600 O   0  0  0  0  0
   -7.9820  -23.4800   -7.2430 C   0  0  0  0  0
   -6.9550  -23.1830   -6.2040 C   0  0  0  0  0
   -7.0520  -24.2750   -5.1650 C   0  0  0  0  0
   -7.6670  -25.9620   -9.4150 N   0  0  0  0  0
   -6.8470  -26.5860  -10.4560 C   0  0  0  0  0
   -5.6380  -25.7330  -10.8220 C   0  0  0  0  0
   -5.7360  -24.5070  -10.9050 O   0  0  0  0  0
   -7.7940  -26.6930  -11.6570 C   0  0  0  0  0
   -8.8960  -25.7340  -11.3720 C   0  0  0  0  0
   -9.0420  -25.7140   -9.8800 C   0  0  0  0  0
   -4.5070  -26.3860  -11.0400 N   0  0  0  0  0
   -3.2770  -25.6940  -11.3910 C   0  0  0  0  0
   -3.3710  -25.0810  -12.7840 C   0  0  0  0  0
   -4.2350  -25.4460  -13.5840 O   0  0  0  0  0
   -2.0940  -26.6470  -11.3020 C   0  0  0  0  0
   -2.4600  -24.1650  -13.0680 N   0  0  0  0  0
   -2.4410  -23.4450  -14.3350 C   0  0  0  0  0
   -2.2540  -24.4030  -15.5080 C   0  0  0  0  0
   -2.8890  -24.2540  -16.5530 O   0  0  0  0  0
   -1.3230  -22.3980  -14.3130 C   0  0  0  0  0
   -1.2070  -21.5900  -15.5840 C   0  0  0  0  0
   -2.1810  -20.6650  -15.9300 C   0  0  0  0  0
   -0.1200  -21.7520  -16.4340 C   0  0  0  0  0
   -2.0770  -19.9220  -17.0890 C   0  0  0  0  0
   -0.0090  -21.0130  -17.5940 C   0  0  0  0  0
   -0.9880  -20.1000  -17.9180 C   0  0  0  0  0
   -0.8790  -19.3610  -19.0740 O   0  0  0  0  0
   -1.3970  -25.3950  -15.3160 N   0  0  0  0  0
   -1.1300  -26.3890  -16.3520 C   0  0  0  0  0
   -2.2820  -27.3780  -16.4410 C   0  0  0  0  0
   -2.4690  -28.0580  -17.4470 O   0  0  0  0  0
    0.1730  -27.1200  -16.0650 C   0  0  0  0  0
   -3.0530  -27.4420  -15.3690 N   0  0  0  0  0
   -4.1960  -28.3330  -15.2790 C   0  0  0  0  0
   -5.3880  -27.7670  -16.0450 C   0  0  0  0  0
   -6.1450  -28.5020  -16.6770 O   0  0  0  0  0
   -4.5850  -28.5400  -13.8020 C   0  0  0  0  0
   -3.4840  -29.1180  -13.0930 O   0  0  0  0  0
   -5.8050  -29.4320  -13.6590 C   0  0  0  0  0
   -5.5400  -26.4530  -15.9890 N   0  0  0  0  0
   -6.6610  -25.7820  -16.6310 C   0  0  0  0  0
   -6.3210  -25.3700  -18.0620 C   0  0  0  0  0
   -7.1830  -24.8920  -18.8010 O   0  0  0  0  0
   -7.0910  -24.5720  -15.7880 C   0  0  0  0  0
   -5.9950  -23.5450  -15.4870 C   0  0  0  0  0
   -5.8730  -22.5190  -16.6040 C   0  0  0  0  0
   -6.2700  -22.8660  -14.1590 C   0  0  0  0  0
   -5.0660  -25.5550  -18.4500 N   0  0  0  0  0
   -4.6430  -25.1960  -19.7900 C   0  0  0  0  0
   -4.4510  -26.4110  -20.6720 C   0  0  0  0  0
   -4.2497  -27.5413  -20.1528 O   0  0  0  0  0
   -4.4925  -26.2920  -21.9257 O   0  0  0  0  0
  -11.6547  -25.4252    0.8632 H   0  0  0  0  0
  -13.1097  -25.7989    0.1421 H   0  0  0  0  0
  -13.0649  -25.3577    1.7484 H   0  0  0  0  0
  -11.8332  -27.2757    2.3162 H   0  0  0  0  0
  -13.6195  -28.9948    1.6886 H   0  0  0  0  0
  -14.2212  -27.9498   -0.3142 H   0  0  0  0  0
  -14.5691  -26.3439    2.8285 H   0  0  0  0  0
  -15.3652  -27.9224    3.0425 H   0  0  0  0  0
  -13.7498  -27.6386    3.7361 H   0  0  0  0  0
  -12.1484  -26.6185   -1.0509 H   0  0  0  0  0
  -10.3644  -28.9491   -1.6417 H   0  0  0  0  0
  -12.5946  -29.3475   -2.5797 H   0  0  0  0  0
  -12.5375  -27.7739   -3.4113 H   0  0  0  0  0
  -11.4050  -29.0676   -3.8750 H   0  0  0  0  0
   -7.7556  -25.7448   -3.3663 H   0  0  0  0  0
   -5.9757  -27.3187   -2.8427 H   0  0  0  0  0
   -5.8858  -27.3542   -4.5650 H   0  0  0  0  0
   -6.3183  -29.6158   -3.1933 H   0  0  0  0  0
   -7.0887  -29.3690   -4.7419 H   0  0  0  0  0
   -9.0704  -29.6681   -3.5395 H   0  0  0  0  0
   -8.3212  -29.3419   -2.0277 H   0  0  0  0  0
   -9.1370  -25.3345   -7.5120 H   0  0  0  0  0
   -8.9226  -22.9680   -7.0399 H   0  0  0  0  0
   -7.6758  -23.1256   -8.2272 H   0  0  0  0  0
   -7.1313  -22.2056   -5.7548 H   0  0  0  0  0
   -5.9578  -23.1552   -6.6433 H   0  0  0  0  0
   -6.0720  -24.6261   -4.8418 H   0  0  0  0  0
   -7.5247  -23.9297   -4.2455 H   0  0  0  0  0
   -6.4447  -27.5447  -10.1286 H   0  0  0  0  0
   -8.1681  -27.7088  -11.7848 H   0  0  0  0  0
   -7.2862  -26.4556  -12.5918 H   0  0  0  0  0
   -9.8231  -26.0385  -11.8577 H   0  0  0  0  0
   -8.6698  -24.7417  -11.7623 H   0  0  0  0  0
   -9.4539  -24.7766   -9.5063 H   0  0  0  0  0
   -9.7540  -26.4533   -9.5132 H   0  0  0  0  0
   -4.4982  -27.4028  -10.9595 H   0  0  0  0  0
   -3.1263  -24.8822  -10.6794 H   0  0  0  0  0
   -2.0117  -27.0279  -10.2840 H   0  0  0  0  0
   -2.2457  -27.4778  -11.9911 H   0  0  0  0  0
   -1.1801  -26.1155  -11.5674 H   0  0  0  0  0
   -1.7432  -23.9544  -12.3735 H   0  0  0  0  0
   -3.4001  -22.9441  -14.4664 H   0  0  0  0  0
   -0.3825  -22.9341  -14.1855 H   0  0  0  0  0
   -1.5516  -21.7000  -13.5077 H   0  0  0  0  0
   -3.0418  -20.5225  -15.2767 H   0  0  0  0  0
    0.6567  -22.4736  -16.1808 H   0  0  0  0  0
   -2.8505  -19.1990  -17.3478 H   0  0  0  0  0
    0.8497  -21.1512  -18.2510 H   0  0  0  0  0
   -0.0711  -19.6034  -19.5325 H   0  0  0  0  0
   -0.9114  -25.4662  -14.4219 H   0  0  0  0  0
   -1.0345  -25.8760  -17.3090 H   0  0  0  0  0
    0.9932  -26.4024  -16.0418 H   0  0  0  0  0
    0.1012  -27.6230  -15.1006 H   0  0  0  0  0
    0.3549  -27.8565  -16.8477 H   0  0  0  0  0
   -2.8363  -26.8416  -14.5734 H   0  0  0  0  0
   -3.9188  -29.2894  -15.7224 H   0  0  0  0  0
   -4.8329  -27.5650  -13.3825 H   0  0  0  0  0
   -3.7287  -29.2459  -12.1736 H   0  0  0  0  0
   -6.6497  -28.9755  -14.1749 H   0  0  0  0  0
   -5.5938  -30.4073  -14.0975 H   0  0  0  0  0
   -6.0444  -29.5514  -12.6023 H   0  0  0  0  0
   -4.8526  -25.8954  -15.4820 H   0  0  0  0  0
   -7.4955  -26.4804  -16.6930 H   0  0  0  0  0
   -7.4148  -24.9674  -14.8252 H   0  0  0  0  0
   -7.8522  -24.0488  -16.3668 H   0  0  0  0  0
   -5.0428  -24.0715  -15.4229 H   0  0  0  0  0
   -5.6254  -23.0265  -17.5363 H   0  0  0  0  0
   -6.8203  -21.9917  -16.7163 H   0  0  0  0  0
   -5.0861  -21.8064  -16.3567 H   0  0  0  0  0
   -7.2340  -22.3594  -14.2042 H   0  0  0  0  0
   -6.2881  -23.6143  -13.3667 H   0  0  0  0  0
   -5.4848  -22.1380  -13.9551 H   0  0  0  0  0
   -4.3906  -25.9544  -17.7983 H   0  0  0  0  0
   -3.6883  -24.6751  -19.7168 H   0  0  0  0  0
   -5.4180  -24.5721  -20.2352 H   0  0  0  0  0
   -4.2478  -27.4572  -19.1965 H   0  0  0  0  0
  1  2  1  0  0  0
  2  3  1  0  0  0
  2  5  1  0  0  0
  3  4  2  0  0  0
  3  8  1  0  0  0
  5  6  1  0  0  0
  5  7  1  0  0  0
  8  9  1  0  0  0
  9 10  1  0  0  0
  9 12  1  0  0  0
 10 11  2  0  0  0
 10 13  1  0  0  0
 13 14  1  0  0  0
 13 19  1  0  0  0
 14 15  1  0  0  0
 14 17  1  0  0  0
 15 16  2  0  0  0
 15 20  1  0  0  0
 17 18  1  0  0  0
 18 19  1  0  0  0
 20 21  1  0  0  0
 20 26  1  0  0  0
 21 22  1  0  0  0
 21 24  1  0  0  0
 22 23  2  0  0  0
 22 27  1  0  0  0
 24 25  1  0  0  0
 25 26  1  0  0  0
 27 28  1  0  0  0
 27 33  1  0  0  0
 28 29  1  0  0  0
 28 31  1  0  0  0
 29 30  2  0  0  0
 29 34  1  0  0  0
 31 32  1  0  0  0
 32 33  1  0  0  0
 34 35  1  0  0  0
 35 36  1  0  0  0
 35 38  1  0  0  0
 36 37  2  0  0  0
 36 39  1  0  0  0
 39 40  1  0  0  0
 40 41  1  0  0  0
 40 43  1  0  0  0
 41 42  2  0  0  0
 41 51  1  0  0  0
 43 44  1  0  0  0
 44 45  4  0  0  0
 44 46  4  0  0  0
 45 47  4  0  0  0
 46 48  4  0  0  0
 47 49  4  0  0  0
 48 49  4  0  0  0
 49 50  1  0  0  0
 51 52  1  0  0  0
 52 53  1  0  0  0
 52 55  1  0  0  0
 53 54  2  0  0  0
 53 56  1  0  0  0
 56 57  1  0  0  0
 57 58  1  0  0  0
 57 60  1  0  0  0
 58 59  2  0  0  0
 58 63  1  0  0  0
 60 61  1  0  0  0
 60 62  1  0  0  0
 63 64  1  0  0  0
 64 65  1  0  0  0
 64 67  1  0  0  0
 65 66  2  0  0  0
 65 71  1  0  0  0
 67 68  1  0  0  0
 68 69  1  0  0  0
 68 70  1  0  0  0
 71 72  1  0  0  0
 72 73  1  0  0  0
 73 74  1  0  0  0
 73 75  2  0  0  0
  1 76  1  0  0  0
  1 77  1  0  0  0
  1 78  1  0  0  0
  2 79  1  0  0  0
  5 80  1  0  0  0
  6 81  1  0  0  0
  7 82  1  0  0  0
  7 83  1  0  0  0
  7 84  1  0  0  0
  8 85  1  0  0  0
  9 86  1  0  0  0
 12 87  1  0  0  0
 12 88  1  0  0  0
 12 89  1  0  0  0
 14 90  1  0  0  0
 17 91  1  0  0  0
 17 92  1  0  0  0
 18 93  1  0  0  0
 18 94  1  0  0  0
 19 95  1  0  0  0
 19 96  1  0  0  0
 21 97  1  0  0  0
 24 98  1  0  0  0
 24 99  1  0  0  0
 25100  1  0  0  0
 25101  1  0  0  0
 26102  1  0  0  0
 26103  1  0  0  0
 28104  1  0  0  0
 31105  1  0  0  0
 31106  1  0  0  0
 32107  1  0  0  0
 32108  1  0  0  0
 33109  1  0  0  0
 33110  1  0  0  0
 34111  1  0  0  0
 35112  1  0  0  0
 38113  1  0  0  0
 38114  1  0  0  0
 38115  1  0  0  0
 39116  1  0  0  0
 40117  1  0  0  0
 43118  1  0  0  0
 43119  1  0  0  0
 45120  1  0  0  0
 46121  1  0  0  0
 47122  1  0  0  0
 48123  1  0  0  0
 50124  1  0  0  0
 51125  1  0  0  0
 52126  1  0  0  0
 55127  1  0  0  0
 55128  1  0  0  0
 55129  1  0  0  0
 56130  1  0  0  0
 57131  1  0  0  0
 60132  1  0  0  0
 61133  1  0  0  0
 62134  1  0  0  0
 62135  1  0  0  0
 62136  1  0  0  0
 63137  1  0  0  0
 64138  1  0  0  0
 67139  1  0  0  0
 67140  1  0  0  0
 68141  1  0  0  0
 69142  1  0  0  0
 69143  1  0  0  0
 69144  1  0  0  0
 70145  1  0  0  0
 70146  1  0  0  0
 70147  1  0  0  0
 71148  1  0  0  0
 72149  1  0  0  0
 72150  1  0  0  0
 74151  1  0  0  0
M  END
$$$$
