### 
### Created by X-TOOL on Mon Sep 10 21:13:16 2018
### 

@<TRIPOS>MOLECULE
2m3o_ligand
  150   153     1     0     0
SMALL
GAST_HUCK


@<TRIPOS>ATOM
      1 N         -12.5700  -25.8520    1.0060 N.4       1 THR         0.2398
      2 CA        -12.3990  -27.2490    1.3850 C.3       1 THR         0.0910
      3 C         -11.6170  -28.0140    0.3180 C.2       1 THR         0.2293
      4 O         -11.0170  -29.0550    0.5910 O.2       1 THR        -0.3906
      5 CB        -13.7680  -27.9180    1.6070 C.3       1 THR         0.1120
      6 OG1       -14.6300  -27.6340    0.4950 O.3       1 THR        -0.3840
      7 CG2       -14.4090  -27.4200    2.8960 C.3       1 THR        -0.0314
      8 N         -11.6330  -27.4850   -0.8960 N.am      1 ALA        -0.2612
      9 CA        -10.9390  -28.1010   -2.0140 C.3       1 ALA         0.1285
     10 C          -9.9740  -27.1070   -2.6540 C.2       1 ALA         0.2061
     11 O         -10.2550  -25.9090   -2.7020 O.2       1 ALA        -0.3942
     12 CB        -11.9410  -28.6090   -3.0440 C.3       1 ALA        -0.0244
     13 N          -8.8200  -27.5820   -3.1370 N.am      1 PRO        -0.2498
     14 CA         -7.8420  -26.7340   -3.8160 C.3       1 PRO         0.1340
     15 C          -8.2300  -26.4780   -5.2720 C.2       1 PRO         0.2066
     16 O          -8.8960  -27.3030   -5.8980 O.2       1 PRO        -0.3942
     17 CB         -6.5580  -27.5600   -3.7320 C.3       1 PRO        -0.0104
     18 CG         -7.0220  -28.9770   -3.7270 C.3       1 PRO        -0.0281
     19 CD         -8.3730  -28.9840   -3.0560 C.3       1 PRO         0.0369
     20 N          -7.8320  -25.3320   -5.8310 N.am      1 PRO        -0.2498
     21 CA         -8.1450  -24.9960   -7.2130 C.3       1 PRO         0.1340
     22 C          -7.1890  -25.6670   -8.1950 C.2       1 PRO         0.2066
     23 O          -6.0310  -25.9310   -7.8600 O.2       1 PRO        -0.3942
     24 CB         -7.9820  -23.4800   -7.2430 C.3       1 PRO        -0.0104
     25 CG         -6.9550  -23.1830   -6.2040 C.3       1 PRO        -0.0281
     26 CD         -7.0520  -24.2750   -5.1650 C.3       1 PRO         0.0369
     27 N          -7.6670  -25.9620   -9.4150 N.am      1 PRO        -0.2498
     28 CA         -6.8470  -26.5860  -10.4560 C.3       1 PRO         0.1338
     29 C          -5.6380  -25.7330  -10.8220 C.2       1 PRO         0.2041
     30 O          -5.7360  -24.5070  -10.9050 O.2       1 PRO        -0.3944
     31 CB         -7.7940  -26.6930  -11.6570 C.3       1 PRO        -0.0104
     32 CG         -8.8960  -25.7340  -11.3720 C.3       1 PRO        -0.0281
     33 CD         -9.0420  -25.7140   -9.8800 C.3       1 PRO         0.0369
     34 N          -4.5070  -26.3860  -11.0400 N.am      1 ALA        -0.2640
     35 CA         -3.2770  -25.6940  -11.3910 C.3       1 ALA         0.1282
     36 C          -3.3710  -25.0810  -12.7840 C.2       1 ALA         0.2037
     37 O          -4.2350  -25.4460  -13.5840 O.2       1 ALA        -0.3944
     38 CB         -2.0940  -26.6470  -11.3020 C.3       1 ALA        -0.0244
     39 N          -2.4600  -24.1650  -13.0680 N.am      1 TYR        -0.2621
     40 CA         -2.4410  -23.4450  -14.3350 C.3       1 TYR         0.1390
     41 C          -2.2540  -24.4030  -15.5080 C.2       1 TYR         0.2057
     42 O          -2.8890  -24.2540  -16.5530 O.2       1 TYR        -0.3942
     43 CB         -1.3230  -22.3980  -14.3130 C.3       1 TYR         0.0163
     44 CG         -1.2070  -21.5900  -15.5840 C.ar      1 TYR        -0.0493
     45 CD1        -2.1810  -20.6650  -15.9300 C.ar      1 TYR        -0.0685
     46 CD2        -0.1200  -21.7520  -16.4340 C.ar      1 TYR        -0.0685
     47 CE1        -2.0770  -19.9220  -17.0890 C.ar      1 TYR        -0.0398
     48 CE2        -0.0090  -21.0130  -17.5940 C.ar      1 TYR        -0.0398
     49 CZ         -0.9880  -20.1000  -17.9180 C.ar      1 TYR         0.0805
     50 OH         -0.8790  -19.3610  -19.0740 O.3       1 TYR        -0.3376
     51 N          -1.3970  -25.3950  -15.3160 N.am      1 ALA        -0.2639
     52 CA         -1.1300  -26.3890  -16.3520 C.3       1 ALA         0.1282
     53 C          -2.2820  -27.3780  -16.4410 C.2       1 ALA         0.2037
     54 O          -2.4690  -28.0580  -17.4470 O.2       1 ALA        -0.3944
     55 CB          0.1730  -27.1200  -16.0650 C.3       1 ALA        -0.0244
     56 N          -3.0530  -27.4420  -15.3690 N.am      1 THR        -0.2613
     57 CA         -4.1960  -28.3330  -15.2790 C.3       1 THR         0.1565
     58 C          -5.3880  -27.7670  -16.0450 C.2       1 THR         0.2065
     59 O          -6.1450  -28.5020  -16.6770 O.2       1 THR        -0.3943
     60 CB         -4.5850  -28.5400  -13.8020 C.3       1 THR         0.0924
     61 OG1        -3.4840  -29.1180  -13.0930 O.3       1 THR        -0.3874
     62 CG2        -5.8050  -29.4320  -13.6590 C.3       1 THR        -0.0346
     63 N          -5.5400  -26.4530  -15.9890 N.am      1 LEU        -0.2636
     64 CA         -6.6610  -25.7820  -16.6310 C.3       1 LEU         0.1312
     65 C          -6.3210  -25.3700  -18.0620 C.2       1 LEU         0.2031
     66 O          -7.1830  -24.8920  -18.8010 O.2       1 LEU        -0.3944
     67 CB         -7.0910  -24.5720  -15.7880 C.3       1 LEU        -0.0101
     68 CG         -5.9950  -23.5450  -15.4870 C.3       1 LEU        -0.0425
     69 CD1        -5.8730  -22.5190  -16.6040 C.3       1 LEU        -0.0625
     70 CD2        -6.2700  -22.8660  -14.1590 C.3       1 LEU        -0.0625
     71 N          -5.0660  -25.5550  -18.4500 N.am      1 GLY        -0.2722
     72 CA         -4.6430  -25.1960  -19.7900 C.3       1 GLY         0.0833
     73 C          -4.4510  -26.4110  -20.6720 C.2       1 GLY         0.0570
     74 O          -4.2497  -27.5413  -20.1528 O.co2     1 GLY        -0.5669
     75 O          -4.4925  -26.2920  -21.9257 O.co2     1 GLY        -0.5669
     76 H1        -11.6660  -25.4292    0.8646 H         1 THR         0.2016
     77 H2        -13.0589  -25.3624    1.7390 H         1 THR         0.2016
     78 H3        -13.1032  -25.7983    0.1523 H         1 THR         0.2016
     79 H4        -11.8327  -27.2862    2.3273 H         1 THR         0.1125
     80 H5        -13.6238  -29.0060    1.6801 H         1 THR         0.0674
     81 H6        -15.4733  -28.0483    0.6356 H         1 THR         0.2102
     82 H7        -15.3840  -27.9103    3.0339 H         1 THR         0.0258
     83 H8        -14.5513  -26.3308    2.8378 H         1 THR         0.0258
     84 H9        -13.7547  -27.6593    3.7472 H         1 THR         0.0258
     85 H10       -12.1383  -26.6355   -1.0479 H         1 ALA         0.1884
     86 H11       -10.3600  -28.9572   -1.6376 H         1 ALA         0.0797
     87 H12       -11.4013  -29.0721   -3.8832 H         1 ALA         0.0277
     88 H13       -12.5436  -27.7671   -3.4156 H         1 ALA         0.0277
     89 H14       -12.6012  -29.3545   -2.5767 H         1 ALA         0.0277
     90 H15        -7.7281  -25.7719   -3.2950 H         1 PRO         0.0802
     91 H16        -6.0071  -27.3286   -2.8085 H         1 PRO         0.0313
     92 H17        -5.9135  -27.3655   -4.6020 H         1 PRO         0.0313
     93 H18        -6.3157  -29.6060   -3.1653 H         1 PRO         0.0287
     94 H19        -7.1078  -29.3522   -4.7574 H         1 PRO         0.0287
     95 H20        -9.0702  -29.6478   -3.5882 H         1 PRO         0.0524
     96 H21        -8.2871  -29.3069   -2.0080 H         1 PRO         0.0524
     97 H22        -9.1773  -25.2852   -7.4595 H         1 PRO         0.0802
     98 H23        -8.9331  -22.9838   -6.9997 H         1 PRO         0.0313
     99 H24        -7.6377  -23.1475   -8.2334 H         1 PRO         0.0313
    100 H25        -7.1550  -22.2042   -5.7436 H         1 PRO         0.0287
    101 H26        -5.9516  -23.1781   -6.6547 H         1 PRO         0.0287
    102 H27        -6.0524  -24.6418   -4.8888 H         1 PRO         0.0524
    103 H28        -7.5715  -23.9136   -4.2653 H         1 PRO         0.0524
    104 H29        -6.5065  -27.5810  -10.1336 H         1 PRO         0.0802
    105 H30        -8.1872  -27.7163  -11.7482 H         1 PRO         0.0313
    106 H31        -7.2725  -26.4165  -12.5852 H         1 PRO         0.0313
    107 H32        -9.8302  -26.0722  -11.8441 H         1 PRO         0.0287
    108 H33        -8.6383  -24.7319  -11.7454 H         1 PRO         0.0287
    109 H34        -9.4084  -24.7374   -9.5307 H         1 PRO         0.0524
    110 H35        -9.7249  -26.5056   -9.5380 H         1 PRO         0.0524
    111 H36        -4.4983  -27.3828  -10.9611 H         1 ALA         0.1883
    112 H37        -3.1209  -24.8800  -10.6678 H         1 ALA         0.0797
    113 H38        -1.1710  -26.1117  -11.5696 H         1 ALA         0.0277
    114 H39        -2.2459  -27.4860  -11.9970 H         1 ALA         0.0277
    115 H40        -2.0098  -27.0321  -10.2751 H         1 ALA         0.0277
    116 H41        -1.7573  -23.9586  -12.3871 H         1 TYR         0.1885
    117 H42        -3.4044  -22.9289  -14.4590 H         1 TYR         0.0821
    118 H43        -0.3676  -22.9168  -14.1456 H         1 TYR         0.0453
    119 H44        -1.5151  -21.7055  -13.4802 H         1 TYR         0.0453
    120 H45        -3.0371  -20.5233  -15.2803 H         1 TYR         0.0530
    121 H46         0.6524  -22.4696  -16.1822 H         1 TYR         0.0530
    122 H47        -2.8463  -19.2029  -17.3464 H         1 TYR         0.0525
    123 H48         0.8450  -21.1504  -18.2474 H         1 TYR         0.0525
    124 H49        -1.6288  -18.7827  -19.1507 H         1 TYR         0.2458
    125 H50        -0.9209  -25.4648  -14.4394 H         1 ALA         0.1883
    126 H51        -1.0358  -25.8718  -17.3182 H         1 ALA         0.0797
    127 H52         0.3577  -27.8636  -16.8542 H         1 ALA         0.0277
    128 H53         0.1018  -27.6281  -15.0920 H         1 ALA         0.0277
    129 H54         1.0016  -26.3969  -16.0413 H         1 ALA         0.0277
    130 H55        -2.8406  -26.8533  -14.5890 H         1 THR         0.1884
    131 H56        -3.9220  -29.3043  -15.7166 H         1 THR         0.0826
    132 H57        -4.8172  -27.5589  -13.3620 H         1 THR         0.0639
    133 H58        -3.7261  -29.2446  -12.1831 H         1 THR         0.2101
    134 H59        -6.0476  -29.5533  -12.5930 H         1 THR         0.0257
    135 H60        -5.5931  -30.4167  -14.1011 H         1 THR         0.0257
    136 H61        -6.6583  -28.9724  -14.1792 H         1 THR         0.0257
    137 H62        -4.8661  -25.9064  -15.4919 H         1 LEU         0.1883
    138 H63        -7.5039  -26.4874  -16.6745 H         1 LEU         0.0800
    139 H64        -7.4733  -24.9485  -14.8278 H         1 LEU         0.0315
    140 H65        -7.8987  -24.0552  -16.3270 H         1 LEU         0.0315
    141 H66        -5.0365  -24.0790  -15.4095 H         1 LEU         0.0298
    142 H67        -5.0791  -21.7992  -16.3556 H         1 LEU         0.0232
    143 H68        -6.8284  -21.9861  -16.7184 H         1 LEU         0.0232
    144 H69        -5.6231  -23.0299  -17.5455 H         1 LEU         0.0232
    145 H70        -6.3539  -23.6266  -13.3688 H         1 LEU         0.0232
    146 H71        -7.2109  -22.3000  -14.2245 H         1 LEU         0.0232
    147 H72        -5.4446  -22.1791  -13.9205 H         1 LEU         0.0232
    148 H73        -4.4039  -25.9466  -17.8111 H         1 GLY         0.1873
    149 H74        -3.6903  -24.6498  -19.7267 H         1 GLY         0.0689
    150 H75        -5.4082  -24.5475  -20.2416 H         1 GLY         0.0689
@<TRIPOS>BOND
     1    1    2 1  
     2    2    3 1  
     3    2    5 1  
     4    3    4 2  
     5    3    8 am 
     6    5    6 1  
     7    5    7 1  
     8    8    9 1  
     9    9   10 1  
    10    9   12 1  
    11   10   11 2  
    12   10   13 am 
    13   13   14 1  
    14   13   19 1  
    15   14   15 1  
    16   14   17 1  
    17   15   16 2  
    18   15   20 am 
    19   17   18 1  
    20   18   19 1  
    21   20   21 1  
    22   20   26 1  
    23   21   22 1  
    24   21   24 1  
    25   22   23 2  
    26   22   27 am 
    27   24   25 1  
    28   25   26 1  
    29   27   28 1  
    30   27   33 1  
    31   28   29 1  
    32   28   31 1  
    33   29   30 2  
    34   29   34 am 
    35   31   32 1  
    36   32   33 1  
    37   34   35 1  
    38   35   36 1  
    39   35   38 1  
    40   36   37 2  
    41   36   39 am 
    42   39   40 1  
    43   40   41 1  
    44   40   43 1  
    45   41   42 2  
    46   41   51 am 
    47   43   44 1  
    48   44   45 ar 
    49   44   46 ar 
    50   45   47 ar 
    51   46   48 ar 
    52   47   49 ar 
    53   48   49 ar 
    54   49   50 1  
    55   51   52 1  
    56   52   53 1  
    57   52   55 1  
    58   53   54 2  
    59   53   56 am 
    60   56   57 1  
    61   57   58 1  
    62   57   60 1  
    63   58   59 2  
    64   58   63 am 
    65   60   61 1  
    66   60   62 1  
    67   63   64 1  
    68   64   65 1  
    69   64   67 1  
    70   65   66 2  
    71   65   71 am 
    72   67   68 1  
    73   68   69 1  
    74   68   70 1  
    75   71   72 1  
    76   72   73 1  
    77   73   74 ar 
    78   73   75 ar 
    79    1   76 1  
    80    1   77 1  
    81    1   78 1  
    82    2   79 1  
    83    5   80 1  
    84    6   81 1  
    85    7   82 1  
    86    7   83 1  
    87    7   84 1  
    88    8   85 1  
    89    9   86 1  
    90   12   87 1  
    91   12   88 1  
    92   12   89 1  
    93   14   90 1  
    94   17   91 1  
    95   17   92 1  
    96   18   93 1  
    97   18   94 1  
    98   19   95 1  
    99   19   96 1  
   100   21   97 1  
   101   24   98 1  
   102   24   99 1  
   103   25  100 1  
   104   25  101 1  
   105   26  102 1  
   106   26  103 1  
   107   28  104 1  
   108   31  105 1  
   109   31  106 1  
   110   32  107 1  
   111   32  108 1  
   112   33  109 1  
   113   33  110 1  
   114   34  111 1  
   115   35  112 1  
   116   38  113 1  
   117   38  114 1  
   118   38  115 1  
   119   39  116 1  
   120   40  117 1  
   121   43  118 1  
   122   43  119 1  
   123   45  120 1  
   124   46  121 1  
   125   47  122 1  
   126   48  123 1  
   127   50  124 1  
   128   51  125 1  
   129   52  126 1  
   130   55  127 1  
   131   55  128 1  
   132   55  129 1  
   133   56  130 1  
   134   57  131 1  
   135   60  132 1  
   136   61  133 1  
   137   62  134 1  
   138   62  135 1  
   139   62  136 1  
   140   63  137 1  
   141   64  138 1  
   142   67  139 1  
   143   67  140 1  
   144   68  141 1  
   145   69  142 1  
   146   69  143 1  
   147   69  144 1  
   148   70  145 1  
   149   70  146 1  
   150   70  147 1  
   151   71  148 1  
   152   72  149 1  
   153   72  150 1  
@<TRIPOS>SUBSTRUCTURE
     1 THR         1

