3tu7_ligand
  -I-interpret- 

 67 69  0  0  0  0  0  0  0  0999 V2000
   25.1880    6.8250   23.5700 S   0  0  0  0  0
   25.4090    6.4220   24.9210 O   0  0  0  0  0
   24.8250    8.1800   23.2980 O   0  0  0  0  0
   23.9730    5.7800   22.8720 C   0  0  0  0  0
   26.6110    6.5780   22.7990 N   0  0  0  0  0
   27.3440    5.3200   22.8690 C   0  0  0  0  0
   26.9480    4.5060   21.6280 C   0  0  0  0  0
   26.8810    5.0780   20.5540 O   0  0  0  0  0
   28.8430    5.6500   22.8740 C   0  0  0  0  0
   29.7150    4.4230   22.9550 C   0  0  0  0  0
   30.4780    4.0190   21.8630 C   0  0  0  0  0
   29.7700    3.6620   24.1190 C   0  0  0  0  0
   31.2690    2.8820   21.9310 C   0  0  0  0  0
   30.5640    2.5250   24.1870 C   0  0  0  0  0
   31.3130    2.1350   23.0950 C   0  0  0  0  0
   26.6090    3.2040   21.7600 N   0  0  0  0  0
   26.2120    2.4040   20.5940 C   0  0  0  0  0
   24.8490    2.8670   20.0890 C   0  0  0  0  0
   24.0050    3.2950   20.8750 O   0  0  0  0  0
   26.1330    0.9690   21.1500 C   0  0  0  0  0
   26.8060    1.0140   22.4990 C   0  0  0  0  0
   26.5430    2.4040   22.9930 C   0  0  0  0  0
   24.6430    2.8100   18.7790 N   0  0  0  0  0
   23.4130    3.3180   18.1880 C   0  0  0  0  0
   23.4260    4.7010   17.5500 C   0  0  0  0  0
   24.2250    4.7340   16.2500 C   0  0  0  0  0
   24.0700    6.0750   15.5150 C   0  0  0  0  0
   24.4140    7.2150   16.3830 N   0  0  0  0  0
   23.6990    7.2310   17.6770 C   0  0  0  0  0
   23.8340    5.8930   18.4170 C   0  0  0  0  0
   24.8860    8.4200   15.7470 C   0  0  0  0  0
   24.7240    9.6360   16.5220 N   0  0  0  0  0
   25.4370    8.5360   14.5790 N   0  0  0  0  0
   24.3231    4.7481   22.9008 H   0  0  0  0  0
   23.0487    5.8675   23.4431 H   0  0  0  0  0
   23.7922    6.0750   21.8384 H   0  0  0  0  0
   27.0025    7.3392   22.2443 H   0  0  0  0  0
   27.1169    4.7435   23.7658 H   0  0  0  0  0
   29.0460    6.2607   23.7537 H   0  0  0  0  0
   29.0740    6.1608   21.9392 H   0  0  0  0  0
   30.4534    4.6035   20.9433 H   0  0  0  0  0
   29.1831    3.9620   24.9871 H   0  0  0  0  0
   31.8572    2.5761   21.0658 H   0  0  0  0  0
   30.5960    1.9387   25.1053 H   0  0  0  0  0
   31.9364    1.2425   23.1494 H   0  0  0  0  0
   26.9005    2.4888   19.7532 H   0  0  0  0  0
   26.6240    0.2584   20.4852 H   0  0  0  0  0
   25.0997    0.6321   21.2332 H   0  0  0  0  0
   27.8717    0.7943   22.4352 H   0  0  0  0  0
   26.4180    0.2551   23.1784 H   0  0  0  0  0
   25.5879    2.4977   23.5098 H   0  0  0  0  0
   27.2579    2.7287   23.7490 H   0  0  0  0  0
   25.3584    2.4035   18.1762 H   0  0  0  0  0
   22.7104    3.3950   19.0177 H   0  0  0  0  0
   23.1856    2.6315   17.3724 H   0  0  0  0  0
   22.3613    4.8467   17.3675 H   0  0  0  0  0
   23.8518    3.9429   15.5996 H   0  0  0  0  0
   25.2787    4.5977   16.4932 H   0  0  0  0  0
   23.0297    6.1796   15.2068 H   0  0  0  0  0
   24.7459    6.0781   14.6599 H   0  0  0  0  0
   22.6416    7.4108   17.4828 H   0  0  0  0  0
   24.1334    8.0131   18.2997 H   0  0  0  0  0
   24.8806    5.7654   18.6934 H   0  0  0  0  0
   23.1740    5.9200   19.2841 H   0  0  0  0  0
   25.0381   10.5288   16.1417 H   0  0  0  0  0
   24.2961    9.5980   17.4471 H   0  0  0  0  0
   25.5783    7.7100   13.9974 H   0  0  0  0  0
  1  2  2  0  0  0
  1  3  2  0  0  0
  1  4  1  0  0  0
  1  5  1  0  0  0
  5  6  1  0  0  0
  6  7  1  0  0  0
  6  9  1  0  0  0
  7  8  2  0  0  0
  7 16  1  0  0  0
  9 10  1  0  0  0
 10 11  4  0  0  0
 10 12  4  0  0  0
 11 13  4  0  0  0
 12 14  4  0  0  0
 13 15  4  0  0  0
 14 15  4  0  0  0
 16 17  1  0  0  0
 16 22  1  0  0  0
 17 18  1  0  0  0
 17 20  1  0  0  0
 18 19  2  0  0  0
 18 23  1  0  0  0
 20 21  1  0  0  0
 21 22  1  0  0  0
 23 24  1  0  0  0
 24 25  1  0  0  0
 25 26  1  0  0  0
 25 30  1  0  0  0
 26 27  1  0  0  0
 27 28  1  0  0  0
 28 29  1  0  0  0
 28 31  1  0  0  0
 29 30  1  0  0  0
 31 32  1  0  0  0
 31 33  2  0  0  0
  4 34  1  0  0  0
  4 35  1  0  0  0
  4 36  1  0  0  0
  5 37  1  0  0  0
  6 38  1  0  0  0
  9 39  1  0  0  0
  9 40  1  0  0  0
 11 41  1  0  0  0
 12 42  1  0  0  0
 13 43  1  0  0  0
 14 44  1  0  0  0
 15 45  1  0  0  0
 17 46  1  0  0  0
 20 47  1  0  0  0
 20 48  1  0  0  0
 21 49  1  0  0  0
 21 50  1  0  0  0
 22 51  1  0  0  0
 22 52  1  0  0  0
 23 53  1  0  0  0
 24 54  1  0  0  0
 24 55  1  0  0  0
 25 56  1  0  0  0
 26 57  1  0  0  0
 26 58  1  0  0  0
 27 59  1  0  0  0
 27 60  1  0  0  0
 29 61  1  0  0  0
 29 62  1  0  0  0
 30 63  1  0  0  0
 30 64  1  0  0  0
 32 65  1  0  0  0
 32 66  1  0  0  0
 33 67  1  0  0  0
M  END
$$$$
