3ztc_ligand
  -I-interpret- 

 56 59  0  0  0  0  0  0  0  0999 V2000
   -9.6990   36.5890   -5.1420 C   0  0  0  0  0
   -9.1730   35.4300   -4.3070 C   0  0  0  0  0
   -7.8990   35.2190   -3.9370 C   0  0  0  0  0
   -9.9840   34.4920   -3.8430 N   0  0  0  0  0
   -9.1410   33.6300   -3.1290 O   0  0  0  0  0
   -7.8620   34.0900   -3.2270 C   0  0  0  0  0
   -6.7050   33.3550   -2.5190 C   0  0  0  0  0
   -6.8260   33.7850   -1.0420 C   0  0  0  0  0
   -6.5860   34.9610   -0.7680 O   0  0  0  0  0
   -7.2670   32.9950   -0.0310 N   0  0  0  0  0
   -7.7000   31.5850   -0.1590 C   0  0  0  0  0
   -8.5290   31.3220    1.1190 C   0  0  0  0  0
   -9.9320   31.6130    0.9600 O   0  0  0  0  0
   -7.9260   32.2660    2.1410 C   0  0  0  0  0
   -7.4820   33.4840    1.3450 C   0  0  0  0  0
   -6.1970   33.9690    1.9630 C   0  0  0  0  0
   -5.1330   33.4210    1.6990 O   0  0  0  0  0
   -6.3060   34.9720    2.8430 N   0  0  0  0  0
   -5.0970   35.4890    3.5160 C   0  0  0  0  0
   -4.4960   30.4780    9.6890 C   0  0  0  0  0
   -4.8420   34.6620    4.7710 C   0  0  0  0  0
   -3.5730   34.6790    5.3590 C   0  0  0  0  0
   -2.8910   32.1240   10.3970 C   0  0  0  0  0
   -3.3270   33.9480    6.5210 C   0  0  0  0  0
   -5.8770   33.9060    5.3480 C   0  0  0  0  0
   -3.1590   32.8690    9.2310 C   0  0  0  0  0
   -5.6160   33.1760    6.5110 C   0  0  0  0  0
   -4.3450   33.1850    7.1090 C   0  0  0  0  0
   -4.0910   32.4370    8.2760 C   0  0  0  0  0
   -4.7490   31.2190    8.5230 C   0  0  0  0  0
   -3.5710   30.9300   10.6340 C   0  0  0  0  0
   -9.4856   37.5286   -4.6323 H   0  0  0  0  0
   -9.2110   36.5838   -6.1166 H   0  0  0  0  0
  -10.7758   36.4816   -5.2728 H   0  0  0  0  0
   -7.0473   35.8565   -4.1745 H   0  0  0  0  0
   -5.7347   33.6133   -2.9431 H   0  0  0  0  0
   -6.7724   32.2736   -2.6380 H   0  0  0  0  0
   -6.8546   30.9027   -0.2471 H   0  0  0  0  0
   -8.2797   31.4147   -1.0662 H   0  0  0  0  0
   -8.4874   30.2690    1.3975 H   0  0  0  0  0
  -10.3908   31.4307    1.7833 H   0  0  0  0  0
   -7.0920   31.8058    2.6709 H   0  0  0  0  0
   -8.6447   32.5321    2.9161 H   0  0  0  0  0
   -8.1988   34.3052    1.3436 H   0  0  0  0  0
   -7.2194   35.3772    3.0477 H   0  0  0  0  0
   -5.2432   36.5348    3.7861 H   0  0  0  0  0
   -4.2410   35.4160    2.8452 H   0  0  0  0  0
   -5.0264   29.5410    9.8585 H   0  0  0  0  0
   -2.7732   35.2659    4.9073 H   0  0  0  0  0
   -2.1518   32.4814   11.1139 H   0  0  0  0  0
   -2.3363   33.9703    6.9749 H   0  0  0  0  0
   -6.8684   33.8893    4.8952 H   0  0  0  0  0
   -2.6275   33.8064    9.0669 H   0  0  0  0  0
   -6.4147   32.5879    6.9630 H   0  0  0  0  0
   -5.4688   30.8430    7.7960 H   0  0  0  0  0
   -3.3839   30.3578   11.5427 H   0  0  0  0  0
  2  1  1  0  0  0
  3  2  4  0  0  0
  4  2  4  0  0  0
  6  3  4  0  0  0
  5  4  4  0  0  0
  6  5  4  0  0  0
  7  6  1  0  0  0
  8  7  1  0  0  0
  8  9  2  0  0  0
 10  8  1  0  0  0
 10 11  1  0  0  0
 15 10  1  0  0  0
 12 11  1  0  0  0
 12 13  1  0  0  0
 14 12  1  0  0  0
 15 14  1  0  0  0
 16 15  1  0  0  0
 16 17  2  0  0  0
 18 16  1  0  0  0
 19 18  1  0  0  0
 21 19  1  0  0  0
 20 30  4  0  0  0
 31 20  4  0  0  0
 22 21  4  0  0  0
 25 21  4  0  0  0
 24 22  4  0  0  0
 26 23  4  0  0  0
 23 31  4  0  0  0
 28 24  4  0  0  0
 27 25  4  0  0  0
 29 26  4  0  0  0
 28 27  4  0  0  0
 28 29  1  0  0  0
 29 30  4  0  0  0
  1 32  1  0  0  0
  1 33  1  0  0  0
  1 34  1  0  0  0
  3 35  1  0  0  0
  7 36  1  0  0  0
  7 37  1  0  0  0
 11 38  1  0  0  0
 11 39  1  0  0  0
 12 40  1  0  0  0
 13 41  1  0  0  0
 14 42  1  0  0  0
 14 43  1  0  0  0
 15 44  1  0  0  0
 18 45  1  0  0  0
 19 46  1  0  0  0
 19 47  1  0  0  0
 20 48  1  0  0  0
 22 49  1  0  0  0
 23 50  1  0  0  0
 24 51  1  0  0  0
 25 52  1  0  0  0
 26 53  1  0  0  0
 27 54  1  0  0  0
 30 55  1  0  0  0
 31 56  1  0  0  0
M  END
$$$$
