6e3z_ligand
  -I-interpret- 

 44 46  0  0  0  0  0  0  0  0999 V2000
  -40.9460  -46.2420   21.2830 C   0  0  0  0  0
  -40.1590  -43.1430   21.1080 C   0  0  0  0  0
  -39.1200  -45.5920   19.6420 C   0  0  0  0  0
  -37.7610  -45.7020   19.3690 C   0  0  0  0  0
  -37.2890  -45.6460   18.0620 C   0  0  0  0  0
  -35.2440  -45.4980   16.7410 C   0  0  0  0  0
  -39.5610  -45.6550   21.1170 C   0  0  0  0  0
  -33.8040  -45.7300   16.8830 C   0  0  0  0  0
  -32.1650  -47.0800   17.7560 C   0  0  0  0  0
  -31.1560  -46.3100   17.1930 C   0  0  0  0  0
  -31.5100  -45.1980   16.4400 C   0  0  0  0  0
  -32.8620  -44.8990   16.2830 C   0  0  0  0  0
  -38.1630  -45.4830   16.9820 C   0  0  0  0  0
  -39.5280  -45.3680   17.2430 C   0  0  0  0  0
  -39.9930  -45.4210   18.5560 C   0  0  0  0  0
  -37.6150  -46.1620   22.6480 C   0  0  0  0  0
  -37.3790  -44.7160   22.8560 C   0  0  0  0  0
  -39.4670  -44.2770   21.8340 C   0  0  0  0  0
  -40.1590  -42.0400   21.9060 F   0  0  0  0  0
  -39.5510  -42.8260   19.9430 F   0  0  0  0  0
  -41.4360  -43.4420   20.8160 F   0  0  0  0  0
  -41.3020  -45.2910   18.7690 F   0  0  0  0  0
  -35.9160  -45.7640   17.8990 N   0  0  0  0  0
  -33.4900  -46.8220   17.6190 N   0  0  0  0  0
  -38.6140  -46.5570   21.8520 N   0  0  0  0  0
  -36.7840  -46.9760   23.2800 N   0  0  0  0  0
  -35.7060  -45.1840   15.6530 O   0  0  0  0  0
  -38.0880  -43.9160   21.9070 O   0  0  0  0  0
  -29.4900  -46.7120   17.4050 Cl  0  0  0  0  0
  -33.2500  -43.5030   15.3530 Cl  0  0  0  0  0
  -41.1570  -46.3777   22.3437 H   0  0  0  0  0
  -41.6809  -45.5641   20.8489 H   0  0  0  0  0
  -40.9941  -47.2055   20.7755 H   0  0  0  0  0
  -37.0564  -45.8338   20.1901 H   0  0  0  0  0
  -31.8736  -47.9485   18.3466 H   0  0  0  0  0
  -30.7453  -44.5714   15.9808 H   0  0  0  0  0
  -37.7858  -45.4467   15.9600 H   0  0  0  0  0
  -40.2311  -45.2367   16.4205 H   0  0  0  0  0
  -36.3129  -44.5237   22.7351 H   0  0  0  0  0
  -37.7306  -44.4532   23.8537 H   0  0  0  0  0
  -39.9547  -44.4036   22.8006 H   0  0  0  0  0
  -35.3691  -46.0719   18.7030 H   0  0  0  0  0
  -38.7439  -47.5618   21.7339 H   0  0  0  0  0
  -36.0407  -46.5931   23.8642 H   0  0  0  0  0
  7  1  1  0  0  0
 18  2  1  0  0  0
  2 19  1  0  0  0
  2 20  1  0  0  0
  2 21  1  0  0  0
  3  4  4  0  0  0
  7  3  1  0  0  0
  3 15  4  0  0  0
  4  5  4  0  0  0
  5 13  4  0  0  0
  5 23  1  0  0  0
  6  8  1  0  0  0
 23  6  1  0  0  0
  6 27  2  0  0  0
  7 18  1  0  0  0
 25  7  1  0  0  0
  8 12  4  0  0  0
  8 24  4  0  0  0
  9 10  4  0  0  0
 24  9  4  0  0  0
 11 10  4  0  0  0
 10 29  1  0  0  0
 12 11  4  0  0  0
 12 30  1  0  0  0
 14 13  4  0  0  0
 15 14  4  0  0  0
 15 22  1  0  0  0
 16 17  1  0  0  0
 16 25  1  0  0  0
 16 26  2  0  0  0
 17 28  1  0  0  0
 18 28  1  0  0  0
  1 31  1  0  0  0
  1 32  1  0  0  0
  1 33  1  0  0  0
  4 34  1  0  0  0
  9 35  1  0  0  0
 11 36  1  0  0  0
 13 37  1  0  0  0
 14 38  1  0  0  0
 17 39  1  0  0  0
 17 40  1  0  0  0
 18 41  1  0  0  0
 23 42  1  0  0  0
 25 43  1  0  0  0
 26 44  1  0  0  0
M  END
$$$$
