4qwg_ligand
  -I-interpret- 

114116  0  0  0  0  0  0  0  0999 V2000
   59.6750 -136.4570   31.8710 C   0  0  0  0  0
   60.5040 -135.6230   31.5060 O   0  0  0  0  0
   59.2490 -137.6280   30.9670 C   0  0  0  0  0
   58.8720 -137.2350   29.5870 N   0  3  0  0  0
   58.7520 -135.7290   27.3640 O   0  0  0  0  0
   60.0480 -137.0560   28.6970 C   0  0  0  0  0
   57.9720 -136.0520   29.5480 C   0  0  0  0  0
   59.5090 -136.9280   27.3100 C   0  0  0  0  0
   57.5470 -135.8430   28.1710 C   0  0  0  0  0
   59.0810 -136.4500   33.0720 N   0  0  0  0  0
   59.4070 -135.4470   34.0880 C   0  0  0  0  0
   60.6120 -135.9640   34.8440 C   0  0  0  0  0
   60.8720 -137.1670   34.8560 O   0  0  0  0  0
   58.3030 -135.3430   35.1050 C   0  0  0  0  0
   57.3550 -134.2740   34.5940 C   0  0  0  0  0
   56.1410 -134.2960   35.3320 C   0  0  0  0  0
   55.0390 -133.6330   34.7870 C   0  0  0  0  0
   55.9830 -134.9200   36.5810 C   0  0  0  0  0
   53.8150 -133.6020   35.4520 C   0  0  0  0  0
   54.7600 -134.8910   37.2460 C   0  0  0  0  0
   53.6730 -134.2320   36.6840 C   0  0  0  0  0
   61.2950 -135.0340   35.5160 N   0  0  0  0  0
   62.4390 -135.4050   36.3460 C   0  0  0  0  0
   61.9180 -135.6330   37.7620 C   0  0  0  0  0
   61.0490 -134.8980   38.2330 O   0  0  0  0  0
   63.4520 -134.2940   36.3800 C   0  0  0  0  0
   64.1980 -134.3220   35.0340 C   0  0  0  0  0
   65.1600 -133.1260   34.9830 C   0  0  0  0  0
   64.9990 -135.6250   34.8590 C   0  0  0  0  0
   62.4720 -136.6780   38.3990 N   0  0  0  0  0
   62.1040 -137.0520   39.7720 C   0  0  0  0  0
   63.3880 -137.0830   40.6040 C   0  0  0  0  0
   64.4830 -137.2070   40.0560 O   0  0  0  0  0
   61.4300 -138.3960   39.7610 C   0  0  0  0  0
   60.1030 -138.1580   39.3660 C   0  0  0  0  0
   59.6500 -138.5330   38.0980 C   0  0  0  0  0
   59.2140 -137.5430   40.2470 C   0  0  0  0  0
   58.3290 -138.2920   37.7230 C   0  0  0  0  0
   57.8960 -137.3010   39.8700 C   0  0  0  0  0
   57.4500 -137.6760   38.6080 C   0  0  0  0  0
   63.2050 -136.9390   41.9270 N   0  0  0  0  0
   64.3090 -136.8010   42.8900 C   0  0  0  0  0
   64.1150 -135.3900   43.4260 C   0  0  0  0  0
   65.1700 -134.3560   42.9360 C   0  0  0  0  0
   64.5280 -132.9550   43.0140 C   0  0  0  0  0
   65.7100 -134.5720   41.5050 C   0  0  0  0  0
   64.2170 -137.7690   44.0990 C   0  0  0  0  0
   64.5550 -139.3440   43.8650 C   0  0  0  0  0
   65.2890 -139.5730   42.5040 C   0  0  0  0  0
   63.2270 -140.0820   43.6780 C   0  0  0  0  0
   62.7930 -140.3780   45.0180 O   0  0  0  0  0
   62.8950 -137.6240   44.6470 O   0  0  0  0  0
   58.3669 -138.0779   31.4226 H   0  0  0  0  0
   60.1065 -138.2959   30.8853 H   0  0  0  0  0
   58.3392 -138.0227   29.2182 H   0  0  0  0  0
   60.7311 -137.9017   28.7754 H   0  0  0  0  0
   60.6211 -136.1723   28.9778 H   0  0  0  0  0
   58.4986 -135.1705   29.9137 H   0  0  0  0  0
   57.1038 -136.2228   30.1845 H   0  0  0  0  0
   60.2950 -136.8947   26.5555 H   0  0  0  0  0
   58.9112 -137.7889   27.0108 H   0  0  0  0  0
   56.9314 -136.6746   27.8279 H   0  0  0  0  0
   56.9416 -134.9404   28.0880 H   0  0  0  0  0
   58.3828 -137.1626   33.2844 H   0  0  0  0  0
   59.5682 -134.4840   33.6035 H   0  0  0  0  0
   58.6971 -135.0815   36.0870 H   0  0  0  0  0
   57.7901 -136.2970   35.2268 H   0  0  0  0  0
   57.1359 -134.4660   33.5436 H   0  0  0  0  0
   57.8244 -133.2973   34.7111 H   0  0  0  0  0
   55.1383 -133.1311   33.8246 H   0  0  0  0  0
   56.8298 -135.4340   37.0358 H   0  0  0  0  0
   52.9668 -133.0829   35.0058 H   0  0  0  0  0
   54.6547 -135.3870   38.2109 H   0  0  0  0  0
   52.7159 -134.2090   37.2050 H   0  0  0  0  0
   61.0155 -134.0553   35.4493 H   0  0  0  0  0
   62.9161 -136.2975   35.9411 H   0  0  0  0  0
   64.1469 -134.4316   37.2084 H   0  0  0  0  0
   62.9630 -133.3314   36.5294 H   0  0  0  0  0
   63.4654 -134.2673   34.2288 H   0  0  0  0  0
   64.5919 -132.2002   35.0742 H   0  0  0  0  0
   65.8724 -133.1991   35.8047 H   0  0  0  0  0
   65.6961 -133.1328   34.0340 H   0  0  0  0  0
   65.7315 -135.7103   35.6616 H   0  0  0  0  0
   64.3186 -136.4758   34.8945 H   0  0  0  0  0
   65.5120 -135.6082   33.8974 H   0  0  0  0  0
   63.1750 -137.2332   37.9111 H   0  0  0  0  0
   61.4067 -136.3345   40.2046 H   0  0  0  0  0
   61.4720 -138.8677   40.7427 H   0  0  0  0  0
   61.9290 -139.0833   39.0778 H   0  0  0  0  0
   60.3327 -139.0161   37.3990 H   0  0  0  0  0
   59.5543 -137.2491   41.2399 H   0  0  0  0  0
   57.9835 -138.5874   36.7323 H   0  0  0  0  0
   57.2118 -136.8161   40.5663 H   0  0  0  0  0
   56.4174 -137.4885   38.3135 H   0  0  0  0  0
   62.2493 -136.9245   42.2832 H   0  0  0  0  0
   65.2617 -137.0140   42.4050 H   0  0  0  0  0
   64.2077 -135.4475   44.5105 H   0  0  0  0  0
   63.1444 -135.0460   43.0686 H   0  0  0  0  0
   66.0351 -134.4766   43.5881 H   0  0  0  0  0
   63.6442 -132.9257   42.3767 H   0  0  0  0  0
   64.2416 -132.7449   44.0445 H   0  0  0  0  0
   65.2463 -132.2082   42.6757 H   0  0  0  0  0
   66.1888 -135.5492   41.4424 H   0  0  0  0  0
   64.8840 -134.5245   40.7953 H   0  0  0  0  0
   66.4369 -133.7942   41.2711 H   0  0  0  0  0
   65.0229 -137.4689   44.7688 H   0  0  0  0  0
   65.1570 -139.6809   44.7089 H   0  0  0  0  0
   64.6535 -139.2297   41.6877 H   0  0  0  0  0
   66.2242 -139.0131   42.4983 H   0  0  0  0  0
   65.4993 -140.6353   42.3803 H   0  0  0  0  0
   63.3395 -140.9828   43.0747 H   0  0  0  0  0
   62.4975 -139.4825   43.1334 H   0  0  0  0  0
   61.9558 -140.8466   44.9858 H   0  0  0  0  0
   62.7966 -138.2094   45.4015 H   0  0  0  0  0
  1  2  2  0  0  0
  3  1  1  0  0  0
  1 10  1  0  0  0
  4  3  1  0  0  0
  6  4  1  0  0  0
  4  7  1  0  0  0
  8  5  1  0  0  0
  5  9  1  0  0  0
  6  8  1  0  0  0
  7  9  1  0  0  0
 10 11  1  0  0  0
 11 12  1  0  0  0
 11 14  1  0  0  0
 12 13  2  0  0  0
 12 22  1  0  0  0
 14 15  1  0  0  0
 15 16  1  0  0  0
 16 17  4  0  0  0
 16 18  4  0  0  0
 17 19  4  0  0  0
 18 20  4  0  0  0
 19 21  4  0  0  0
 20 21  4  0  0  0
 22 23  1  0  0  0
 23 24  1  0  0  0
 23 26  1  0  0  0
 24 25  2  0  0  0
 24 30  1  0  0  0
 26 27  1  0  0  0
 27 28  1  0  0  0
 27 29  1  0  0  0
 30 31  1  0  0  0
 31 32  1  0  0  0
 31 34  1  0  0  0
 32 33  2  0  0  0
 32 41  1  0  0  0
 34 35  1  0  0  0
 35 36  4  0  0  0
 35 37  4  0  0  0
 36 38  4  0  0  0
 37 39  4  0  0  0
 38 40  4  0  0  0
 39 40  4  0  0  0
 41 42  1  0  0  0
 42 43  1  0  0  0
 42 47  1  0  0  0
 43 44  1  0  0  0
 44 45  1  0  0  0
 44 46  1  0  0  0
 47 48  1  0  0  0
 47 52  1  0  0  0
 48 49  1  0  0  0
 48 50  1  0  0  0
 50 51  1  0  0  0
  3 53  1  0  0  0
  3 54  1  0  0  0
  4 55  1  0  0  0
  6 56  1  0  0  0
  6 57  1  0  0  0
  7 58  1  0  0  0
  7 59  1  0  0  0
  8 60  1  0  0  0
  8 61  1  0  0  0
  9 62  1  0  0  0
  9 63  1  0  0  0
 10 64  1  0  0  0
 11 65  1  0  0  0
 14 66  1  0  0  0
 14 67  1  0  0  0
 15 68  1  0  0  0
 15 69  1  0  0  0
 17 70  1  0  0  0
 18 71  1  0  0  0
 19 72  1  0  0  0
 20 73  1  0  0  0
 21 74  1  0  0  0
 22 75  1  0  0  0
 23 76  1  0  0  0
 26 77  1  0  0  0
 26 78  1  0  0  0
 27 79  1  0  0  0
 28 80  1  0  0  0
 28 81  1  0  0  0
 28 82  1  0  0  0
 29 83  1  0  0  0
 29 84  1  0  0  0
 29 85  1  0  0  0
 30 86  1  0  0  0
 31 87  1  0  0  0
 34 88  1  0  0  0
 34 89  1  0  0  0
 36 90  1  0  0  0
 37 91  1  0  0  0
 38 92  1  0  0  0
 39 93  1  0  0  0
 40 94  1  0  0  0
 41 95  1  0  0  0
 42 96  1  0  0  0
 43 97  1  0  0  0
 43 98  1  0  0  0
 44 99  1  0  0  0
 45100  1  0  0  0
 45101  1  0  0  0
 45102  1  0  0  0
 46103  1  0  0  0
 46104  1  0  0  0
 46105  1  0  0  0
 47106  1  0  0  0
 48107  1  0  0  0
 49108  1  0  0  0
 49109  1  0  0  0
 49110  1  0  0  0
 50111  1  0  0  0
 50112  1  0  0  0
 51113  1  0  0  0
 52114  1  0  0  0
M  END
$$$$
