### 
### Created by X-TOOL on Mon Sep 10 21:13:25 2018
### 

@<TRIPOS>MOLECULE
4qwg_ligand
  114   116     1     0     0
SMALL
GAST_HUCK


@<TRIPOS>ATOM
      1 C8         59.6750 -136.4570   31.8710 C.2       1 3BV         0.2238
      2 O9         60.5040 -135.6230   31.5060 O.2       1 3BV        -0.3910
      3 C7         59.2490 -137.6280   30.9670 C.3       1 3BV         0.0582
      4 N4         58.8720 -137.2350   29.5870 N.4       1 3BV         0.2552
      5 O1         58.7520 -135.7290   27.3640 O.3       1 3BV        -0.3693
      6 C5         60.0480 -137.0560   28.6970 C.3       1 3BV        -0.0060
      7 C3         57.9720 -136.0520   29.5480 C.3       1 3BV        -0.0060
      8 C6         59.5090 -136.9280   27.3100 C.3       1 3BV         0.0878
      9 C2         57.5470 -135.8430   28.1710 C.3       1 3BV         0.0878
     10 N10        59.0810 -136.4500   33.0720 N.am      1 3BV        -0.2611
     11 C11        59.4070 -135.4470   34.0880 C.3       1 3BV         0.1328
     12 C20        60.6120 -135.9640   34.8440 C.2       1 3BV         0.2041
     13 O21        60.8720 -137.1670   34.8560 O.2       1 3BV        -0.3944
     14 C12        58.3030 -135.3430   35.1050 C.3       1 3BV        -0.0027
     15 C13        57.3550 -134.2740   34.5940 C.3       1 3BV        -0.0149
     16 C14        56.1410 -134.2960   35.3320 C.ar      1 3BV        -0.0428
     17 C19        55.0390 -133.6330   34.7870 C.ar      1 3BV        -0.0603
     18 C15        55.9830 -134.9200   36.5810 C.ar      1 3BV        -0.0603
     19 C18        53.8150 -133.6020   35.4520 C.ar      1 3BV        -0.0686
     20 C16        54.7600 -134.8910   37.2460 C.ar      1 3BV        -0.0686
     21 C17        53.6730 -134.2320   36.6840 C.ar      1 3BV        -0.0687
     22 N22        61.2950 -135.0340   35.5160 N.am      1 3BV        -0.2637
     23 C23        62.4390 -135.4050   36.3460 C.3       1 3BV         0.1312
     24 C28        61.9180 -135.6330   37.7620 C.2       1 3BV         0.2040
     25 O29        61.0490 -134.8980   38.2330 O.2       1 3BV        -0.3944
     26 C24        63.4520 -134.2940   36.3800 C.3       1 3BV        -0.0101
     27 C25        64.1980 -134.3220   35.0340 C.3       1 3BV        -0.0425
     28 C26        65.1600 -133.1260   34.9830 C.3       1 3BV        -0.0625
     29 C27        64.9990 -135.6250   34.8590 C.3       1 3BV        -0.0625
     30 N30        62.4720 -136.6780   38.3990 N.am      1 3BV        -0.2619
     31 C31        62.1040 -137.0520   39.7720 C.3       1 3BV         0.1403
     32 C39        63.3880 -137.0830   40.6040 C.2       1 3BV         0.2040
     33 O40        64.4830 -137.2070   40.0560 O.2       1 3BV        -0.3943
     34 C32        61.4300 -138.3960   39.7610 C.3       1 3BV         0.0214
     35 C33        60.1030 -138.1580   39.3660 C.ar      1 3BV        -0.0386
     36 C34        59.6500 -138.5330   38.0980 C.ar      1 3BV        -0.0601
     37 C38        59.2140 -137.5430   40.2470 C.ar      1 3BV        -0.0601
     38 C35        58.3290 -138.2920   37.7230 C.ar      1 3BV        -0.0686
     39 C37        57.8960 -137.3010   39.8700 C.ar      1 3BV        -0.0686
     40 C36        57.4500 -137.6760   38.6080 C.ar      1 3BV        -0.0687
     41 N41        63.2050 -136.9390   41.9270 N.am      1 3BV        -0.2794
     42 C42        64.3090 -136.8010   42.8900 C.3       1 3BV         0.0685
     43 C43        64.1150 -135.3900   43.4260 C.3       1 3BV        -0.0251
     44 C44        65.1700 -134.3560   42.9360 C.3       1 3BV        -0.0446
     45 C45        64.5280 -132.9550   43.0140 C.3       1 3BV        -0.0626
     46 C46        65.7100 -134.5720   41.5050 C.3       1 3BV        -0.0626
     47 C47        64.2170 -137.7690   44.0990 C.3       1 3BV         0.0827
     48 C51        64.5550 -139.3440   43.8650 C.3       1 3BV         0.0075
     49 C58        65.2890 -139.5730   42.5040 C.3       1 3BV        -0.0579
     50 C59        63.2270 -140.0820   43.6780 C.3       1 3BV         0.0492
     51 O60        62.7930 -140.3780   45.0180 O.3       1 3BV        -0.3947
     52 O48        62.8950 -137.6240   44.6470 O.3       1 3BV        -0.3892
     53 H1         58.3837 -138.1234   31.4315 H         1 3BV         0.1063
     54 H2         60.0878 -138.3370   30.9051 H         1 3BV         0.1063
     55 H3         58.3443 -138.0066   29.2099 H         1 3BV         0.2054
     56 H4         60.7150 -137.9279   28.7673 H         1 3BV         0.0837
     57 H5         60.6017 -136.1473   28.9757 H         1 3BV         0.0837
     58 H6         58.5104 -135.1635   29.9095 H         1 3BV         0.0837
     59 H7         57.0933 -136.2325   30.1846 H         1 3BV         0.0837
     60 H8         60.3244 -136.8466   26.5762 H         1 3BV         0.0613
     61 H9         58.8702 -137.7863   27.0546 H         1 3BV         0.0613
     62 H10        56.9431 -136.6964   27.8289 H         1 3BV         0.0613
     63 H11        56.9535 -134.9200   28.0953 H         1 3BV         0.0613
     64 H12        58.3965 -137.1486   33.2802 H         1 3BV         0.1884
     65 H13        59.6061 -134.4707   33.6219 H         1 3BV         0.0801
     66 H14        58.7125 -135.0530   36.0839 H         1 3BV         0.0334
     67 H15        57.7781 -136.3052   35.1976 H         1 3BV         0.0334
     68 H16        57.1371 -134.4601   33.5320 H         1 3BV         0.0428
     69 H17        57.8282 -133.2871   34.7038 H         1 3BV         0.0428
     70 H18        55.1378 -133.1338   33.8299 H         1 3BV         0.0557
     71 H19        56.8251 -135.4312   37.0333 H         1 3BV         0.0557
     72 H20        52.9714 -133.0857   35.0082 H         1 3BV         0.0599
     73 H21        54.6553 -135.3842   38.2056 H         1 3BV         0.0599
     74 H22        52.7211 -134.2091   37.2022 H         1 3BV         0.0559
     75 H23        61.0210 -134.0745   35.4506 H         1 3BV         0.1883
     76 H24        62.9055 -136.3218   35.9562 H         1 3BV         0.0800
     77 H25        64.1595 -134.4533   37.2071 H         1 3BV         0.0315
     78 H26        62.9464 -133.3260   36.5113 H         1 3BV         0.0315
     79 H27        63.4667 -134.2404   34.2164 H         1 3BV         0.0298
     80 H28        65.7017 -133.1317   34.0256 H         1 3BV         0.0232
     81 H29        65.8796 -133.1986   35.8118 H         1 3BV         0.0232
     82 H30        64.5879 -132.1910   35.0749 H         1 3BV         0.0232
     83 H31        64.3134 -136.4845   34.8949 H         1 3BV         0.0232
     84 H32        65.7389 -135.7121   35.6683 H         1 3BV         0.0232
     85 H33        65.5170 -135.6095   33.8887 H         1 3BV         0.0232
     86 H34        63.1612 -137.2223   37.9207 H         1 3BV         0.1885
     87 H35        61.4131 -136.3053   40.1904 H         1 3BV         0.0823
     88 H36        61.4557 -138.8452   40.7648 H         1 3BV         0.0474
     89 H37        61.9274 -139.0677   39.0459 H         1 3BV         0.0474
     90 H38        60.3290 -139.0135   37.4029 H         1 3BV         0.0557
     91 H39        59.5524 -137.2507   41.2345 H         1 3BV         0.0557
     92 H40        57.9854 -138.5858   36.7378 H         1 3BV         0.0599
     93 H41        57.2156 -136.8188   40.5625 H         1 3BV         0.0599
     94 H42        56.4231 -137.4895   38.3151 H         1 3BV         0.0559
     95 H43        62.2681 -136.9248   42.2762 H         1 3BV         0.1856
     96 H44        65.2800 -136.9230   42.3877 H         1 3BV         0.0582
     97 H45        64.1608 -135.4316   44.5242 H         1 3BV         0.0291
     98 H46        63.1206 -135.0387   43.1135 H         1 3BV         0.0291
     99 H47        66.0269 -134.3999   43.6243 H         1 3BV         0.0296
    100 H48        65.2520 -132.2004   42.6728 H         1 3BV         0.0232
    101 H49        64.2385 -132.7417   44.0535 H         1 3BV         0.0232
    102 H50        63.6359 -132.9241   42.3712 H         1 3BV         0.0232
    103 H51        66.1714 -135.5680   41.4337 H         1 3BV         0.0232
    104 H52        66.4621 -133.8024   41.2768 H         1 3BV         0.0232
    105 H53        64.8812 -134.4995   40.7855 H         1 3BV         0.0232
    106 H54        64.9422 -137.4109   44.8445 H         1 3BV         0.0620
    107 H55        65.1375 -139.7437   44.7081 H         1 3BV         0.0346
    108 H56        65.5018 -140.6448   42.3780 H         1 3BV         0.0234
    109 H57        66.2330 -139.0085   42.4970 H         1 3BV         0.0234
    110 H58        64.6486 -139.2270   41.6793 H         1 3BV         0.0234
    111 H59        63.3734 -141.0079   43.1024 H         1 3BV         0.0560
    112 H60        62.4947 -139.4423   43.1636 H         1 3BV         0.0560
    113 H61        62.6850 -139.5672   45.5011 H         1 3BV         0.2094
    114 H62        62.8462 -138.0810   45.4784 H         1 3BV         0.2099
@<TRIPOS>BOND
     1    1    2 2  
     2    3    1 1  
     3    1   10 am 
     4    4    3 1  
     5    6    4 1  
     6    4    7 1  
     7    8    5 1  
     8    5    9 1  
     9    6    8 1  
    10    7    9 1  
    11   10   11 1  
    12   11   12 1  
    13   11   14 1  
    14   12   13 2  
    15   12   22 am 
    16   14   15 1  
    17   15   16 1  
    18   16   17 ar 
    19   16   18 ar 
    20   17   19 ar 
    21   18   20 ar 
    22   19   21 ar 
    23   20   21 ar 
    24   22   23 1  
    25   23   24 1  
    26   23   26 1  
    27   24   25 2  
    28   24   30 am 
    29   26   27 1  
    30   27   28 1  
    31   27   29 1  
    32   30   31 1  
    33   31   32 1  
    34   31   34 1  
    35   32   33 2  
    36   32   41 am 
    37   34   35 1  
    38   35   36 ar 
    39   35   37 ar 
    40   36   38 ar 
    41   37   39 ar 
    42   38   40 ar 
    43   39   40 ar 
    44   41   42 1  
    45   42   43 1  
    46   42   47 1  
    47   43   44 1  
    48   44   45 1  
    49   44   46 1  
    50   47   48 1  
    51   47   52 1  
    52   48   49 1  
    53   48   50 1  
    54   50   51 1  
    55    3   53 1  
    56    3   54 1  
    57    4   55 1  
    58    6   56 1  
    59    6   57 1  
    60    7   58 1  
    61    7   59 1  
    62    8   60 1  
    63    8   61 1  
    64    9   62 1  
    65    9   63 1  
    66   10   64 1  
    67   11   65 1  
    68   14   66 1  
    69   14   67 1  
    70   15   68 1  
    71   15   69 1  
    72   17   70 1  
    73   18   71 1  
    74   19   72 1  
    75   20   73 1  
    76   21   74 1  
    77   22   75 1  
    78   23   76 1  
    79   26   77 1  
    80   26   78 1  
    81   27   79 1  
    82   28   80 1  
    83   28   81 1  
    84   28   82 1  
    85   29   83 1  
    86   29   84 1  
    87   29   85 1  
    88   30   86 1  
    89   31   87 1  
    90   34   88 1  
    91   34   89 1  
    92   36   90 1  
    93   37   91 1  
    94   38   92 1  
    95   39   93 1  
    96   40   94 1  
    97   41   95 1  
    98   42   96 1  
    99   43   97 1  
   100   43   98 1  
   101   44   99 1  
   102   45  100 1  
   103   45  101 1  
   104   45  102 1  
   105   46  103 1  
   106   46  104 1  
   107   46  105 1  
   108   47  106 1  
   109   48  107 1  
   110   49  108 1  
   111   49  109 1  
   112   49  110 1  
   113   50  111 1  
   114   50  112 1  
   115   51  113 1  
   116   52  114 1  
@<TRIPOS>SUBSTRUCTURE
     1 3BV         1

