3p9l_ligand
  -I-interpret- 

144144  0  0  0  0  0  0  0  0999 V2000
  -11.9920   -3.4370   34.3840 N   0  3  0  0  0
  -13.2500   -2.9110   33.8930 C   0  0  0  0  0
  -13.1340   -1.3990   33.7830 C   0  0  0  0  0
  -12.8510   -0.7170   34.7650 O   0  0  0  0  0
  -14.3840   -3.2890   34.8410 C   0  0  0  0  0
  -15.6420   -2.9560   34.2870 O   0  0  0  0  0
  -13.3340   -0.8850   32.5740 N   0  0  0  0  0
  -13.1760    0.5370   32.3050 C   0  0  0  0  0
  -14.3020    1.3260   32.9660 C   0  0  0  0  0
  -15.4120    0.8240   33.1160 O   0  0  0  0  0
  -13.1580    0.8080   30.7700 C   0  0  0  0  0
  -12.6010    2.1930   30.4660 C   0  0  0  0  0
  -14.5540    0.6500   30.1650 C   0  0  0  0  0
  -12.4090    2.4420   28.9760 C   0  0  0  0  0
  -14.0150    2.5620   33.3560 N   0  0  0  0  0
  -15.0170    3.4430   33.9660 C   0  0  0  0  0
  -16.1180    3.8230   32.9660 C   0  0  0  0  0
  -15.9180    3.7370   31.7610 O   0  0  0  0  0
  -14.3430    4.7370   34.4800 C   0  0  0  0  0
  -15.2180    5.4590   35.5140 C   0  0  0  0  0
  -13.9970    5.6660   33.3110 C   0  0  0  0  0
  -14.5130    6.6240   36.1930 C   0  0  0  0  0
  -17.2850    4.2240   33.4720 N   0  0  0  0  0
  -18.3000    4.8620   32.6510 C   0  0  0  0  0
  -17.9710    6.3370   32.5220 C   0  0  0  0  0
  -17.9410    7.0660   33.5250 O   0  0  0  0  0
  -19.6850    4.7320   33.2840 C   0  0  0  0  0
  -20.1040    3.3020   33.4750 C   0  0  0  0  0
  -20.6120    2.6670   32.5500 O   0  0  0  0  0
  -19.9060    2.7810   34.6840 N   0  0  0  0  0
  -17.7350    6.7850   31.2930 N   0  0  0  0  0
  -17.2830    8.1550   31.0720 C   0  0  0  0  0
  -18.4140    9.1710   31.1930 C   0  0  0  0  0
  -19.5630    8.8780   30.8570 O   0  0  0  0  0
  -16.5610    8.2770   29.7170 C   0  0  0  0  0
  -15.2530    7.5290   29.6720 C   0  0  0  0  0
  -14.1240    8.0510   30.2860 C   0  0  0  0  0
  -15.1610    6.2980   29.0430 C   0  0  0  0  0
  -12.9110    7.3590   30.2760 C   0  0  0  0  0
  -13.9480    5.6010   29.0130 C   0  0  0  0  0
  -12.8270    6.1350   29.6390 C   0  0  0  0  0
  -18.0800   10.3620   31.6860 N   0  0  0  0  0
  -19.0520   11.4430   31.8060 C   0  0  0  0  0
  -18.8440   12.4700   30.6980 C   0  0  0  0  0
  -17.7300   12.6860   30.2420 O   0  0  0  0  0
  -18.9590   12.1280   33.1720 C   0  0  0  0  0
  -19.5590   11.3310   34.3180 C   0  0  0  0  0
  -21.0660   11.1950   34.1990 C   0  0  0  0  0
  -21.7370   12.2190   33.9520 O   0  0  0  0  0
  -21.5760   10.0610   34.3390 O   0  0  0  0  0
  -19.9250   13.1150   30.2860 N   0  0  0  0  0
  -19.8870   14.0290   29.1570 C   0  0  0  0  0
  -19.0250   15.2670   29.3720 C   0  0  0  0  0
  -18.9700   15.8320   30.4660 O   0  0  0  0  0
  -21.3090   14.4050   28.7380 C   0  0  0  0  0
  -21.9380   13.3400   27.8440 C   0  0  0  0  0
  -23.4410   13.3680   27.9320 C   0  0  0  0  0
  -24.0440   12.2740   27.0960 C   0  0  0  0  0
  -25.5280   12.2440   27.2630 N   0  3  0  0  0
  -18.3670   15.6760   28.2950 N   0  0  0  0  0
  -17.4830   16.8270   28.2830 C   0  0  0  0  0
  -18.2830   18.1140   28.2560 C   0  0  0  0  0
  -19.4710   18.1030   27.9300 O   0  0  0  0  0
  -16.5830   16.7810   27.0490 C   0  0  0  0  0
  -15.5740   15.6400   27.0070 C   0  0  0  0  0
  -14.6790   15.7720   25.7990 C   0  0  0  0  0
  -14.7630   15.6390   28.2820 C   0  0  0  0  0
  -17.7320   19.1800   28.5400 O   0  0  0  0  0
  -11.2428   -3.1778   33.7422 H   0  0  0  0  0
  -11.7998   -3.0488   35.3074 H   0  0  0  0  0
  -12.0511   -4.4534   34.4467 H   0  0  0  0  0
  -13.4718   -3.3344   32.9134 H   0  0  0  0  0
  -14.2569   -2.7397   35.7739 H   0  0  0  0  0
  -14.3518   -4.3650   35.0124 H   0  0  0  0  0
  -16.3367   -3.2034   34.9016 H   0  0  0  0  0
  -13.6064   -1.5054   31.8116 H   0  0  0  0  0
  -12.2236    0.8629   32.7232 H   0  0  0  0  0
  -12.5027    0.0666   30.3129 H   0  0  0  0  0
  -11.6248    2.2712   30.9446 H   0  0  0  0  0
  -13.3161    2.9276   30.8364 H   0  0  0  0  0
  -14.9096   -0.3661   30.3356 H   0  0  0  0  0
  -15.2351    1.3586   30.6362 H   0  0  0  0  0
  -14.5085    0.8454   29.0936 H   0  0  0  0  0
  -11.7114    1.7077   28.5731 H   0  0  0  0  0
  -13.3686    2.3509   28.4671 H   0  0  0  0  0
  -12.0100    3.4451   28.8250 H   0  0  0  0  0
  -13.0653    2.9111   33.2271 H   0  0  0  0  0
  -15.4696    2.8980   34.7944 H   0  0  0  0  0
  -13.4173    4.4522   34.9800 H   0  0  0  0  0
  -15.4777    4.7360   36.2872 H   0  0  0  0  0
  -16.0847    5.8602   34.9886 H   0  0  0  0  0
  -13.3125    5.1557   32.6334 H   0  0  0  0  0
  -14.9094    5.9306   32.7765 H   0  0  0  0  0
  -13.5240    6.5700   33.6947 H   0  0  0  0  0
  -13.6265    6.2584   36.7112 H   0  0  0  0  0
  -14.2198    7.3573   35.4417 H   0  0  0  0  0
  -15.1895    7.0879   36.9108 H   0  0  0  0  0
  -17.4704    4.0786   34.4644 H   0  0  0  0  0
  -18.3101    4.3735   31.6767 H   0  0  0  0  0
  -20.4041    5.2047   32.6151 H   0  0  0  0  0
  -19.6496    5.2041   34.2658 H   0  0  0  0  0
  -20.1789    1.8169   34.8748 H   0  0  0  0  0
  -19.4814    3.3459   35.4195 H   0  0  0  0  0
  -17.8714    6.1642   30.4952 H   0  0  0  0  0
  -16.5722    8.3909   31.8640 H   0  0  0  0  0
  -16.3440    9.3324   29.5521 H   0  0  0  0  0
  -17.2129    7.8488   28.9555 H   0  0  0  0  0
  -14.1846    9.0182   30.7850 H   0  0  0  0  0
  -16.0422    5.8682   28.5668 H   0  0  0  0  0
  -12.0350    7.7818   30.7679 H   0  0  0  0  0
  -13.8820    4.6415   28.5000 H   0  0  0  0  0
  -11.8835    5.5893   29.6274 H   0  0  0  0  0
  -17.1190   10.5227   31.9877 H   0  0  0  0  0
  -20.0459   11.0059   31.7100 H   0  0  0  0  0
  -19.5219   13.0587   33.1014 H   0  0  0  0  0
  -17.8994   12.2567   33.3931 H   0  0  0  0  0
  -19.3395   11.8573   35.2470 H   0  0  0  0  0
  -19.1267   10.3306   34.2966 H   0  0  0  0  0
  -20.8845    9.4208   34.5224 H   0  0  0  0  0
  -20.8080   12.9661   30.7744 H   0  0  0  0  0
  -19.3963   13.4892   28.3471 H   0  0  0  0  0
  -21.2651   15.3393   28.1783 H   0  0  0  0  0
  -21.9172   14.4994   29.6376 H   0  0  0  0  0
  -21.5898   12.3611   28.1736 H   0  0  0  0  0
  -21.6475   13.5380   26.8122 H   0  0  0  0  0
  -23.7972   14.3298   27.5630 H   0  0  0  0  0
  -23.7355   13.2198   28.9710 H   0  0  0  0  0
  -23.6326   11.3167   27.4161 H   0  0  0  0  0
  -23.8097   12.4599   26.0478 H   0  0  0  0  0
  -25.9185   11.4966   26.6891 H   0  0  0  0  0
  -25.7553   12.0759   28.2430 H   0  0  0  0  0
  -25.9200   13.1391   26.9705 H   0  0  0  0  0
  -18.4891   15.1529   27.4279 H   0  0  0  0  0
  -16.8761   16.7982   29.1880 H   0  0  0  0  0
  -16.0038   17.7043   27.0556 H   0  0  0  0  0
  -17.2420   16.6411   26.1921 H   0  0  0  0  0
  -16.1048   14.6914   26.9265 H   0  0  0  0  0
  -15.2858   15.7431   24.8940 H   0  0  0  0  0
  -14.1421   16.7193   25.8480 H   0  0  0  0  0
  -13.9650   14.9485   25.7857 H   0  0  0  0  0
  -14.2358   16.5883   28.3765 H   0  0  0  0  0
  -15.4289   15.5053   29.1345 H   0  0  0  0  0
  -14.0414   14.8226   28.2515 H   0  0  0  0  0
  -16.8149   19.0136   28.7698 H   0  0  0  0  0
  1  2  1  0  0  0
  2  3  1  0  0  0
  2  5  1  0  0  0
  3  4  2  0  0  0
  3  7  1  0  0  0
  5  6  1  0  0  0
  7  8  1  0  0  0
  8  9  1  0  0  0
  8 11  1  0  0  0
  9 10  2  0  0  0
  9 15  1  0  0  0
 11 12  1  0  0  0
 11 13  1  0  0  0
 12 14  1  0  0  0
 15 16  1  0  0  0
 16 17  1  0  0  0
 16 19  1  0  0  0
 17 18  2  0  0  0
 17 23  1  0  0  0
 19 20  1  0  0  0
 19 21  1  0  0  0
 20 22  1  0  0  0
 23 24  1  0  0  0
 24 25  1  0  0  0
 24 27  1  0  0  0
 25 26  2  0  0  0
 25 31  1  0  0  0
 27 28  1  0  0  0
 28 29  2  0  0  0
 28 30  1  0  0  0
 31 32  1  0  0  0
 32 33  1  0  0  0
 32 35  1  0  0  0
 33 34  2  0  0  0
 33 42  1  0  0  0
 35 36  1  0  0  0
 36 37  4  0  0  0
 36 38  4  0  0  0
 37 39  4  0  0  0
 38 40  4  0  0  0
 39 41  4  0  0  0
 40 41  4  0  0  0
 42 43  1  0  0  0
 43 44  1  0  0  0
 43 46  1  0  0  0
 44 45  2  0  0  0
 44 51  1  0  0  0
 46 47  1  0  0  0
 47 48  1  0  0  0
 48 49  2  0  0  0
 48 50  1  0  0  0
 51 52  1  0  0  0
 52 53  1  0  0  0
 52 55  1  0  0  0
 53 54  2  0  0  0
 53 60  1  0  0  0
 55 56  1  0  0  0
 56 57  1  0  0  0
 57 58  1  0  0  0
 58 59  1  0  0  0
 60 61  1  0  0  0
 61 62  1  0  0  0
 61 64  1  0  0  0
 62 63  2  0  0  0
 62 68  1  0  0  0
 64 65  1  0  0  0
 65 66  1  0  0  0
 65 67  1  0  0  0
  1 69  1  0  0  0
  1 70  1  0  0  0
  1 71  1  0  0  0
  2 72  1  0  0  0
  5 73  1  0  0  0
  5 74  1  0  0  0
  6 75  1  0  0  0
  7 76  1  0  0  0
  8 77  1  0  0  0
 11 78  1  0  0  0
 12 79  1  0  0  0
 12 80  1  0  0  0
 13 81  1  0  0  0
 13 82  1  0  0  0
 13 83  1  0  0  0
 14 84  1  0  0  0
 14 85  1  0  0  0
 14 86  1  0  0  0
 15 87  1  0  0  0
 16 88  1  0  0  0
 19 89  1  0  0  0
 20 90  1  0  0  0
 20 91  1  0  0  0
 21 92  1  0  0  0
 21 93  1  0  0  0
 21 94  1  0  0  0
 22 95  1  0  0  0
 22 96  1  0  0  0
 22 97  1  0  0  0
 23 98  1  0  0  0
 24 99  1  0  0  0
 27100  1  0  0  0
 27101  1  0  0  0
 30102  1  0  0  0
 30103  1  0  0  0
 31104  1  0  0  0
 32105  1  0  0  0
 35106  1  0  0  0
 35107  1  0  0  0
 37108  1  0  0  0
 38109  1  0  0  0
 39110  1  0  0  0
 40111  1  0  0  0
 41112  1  0  0  0
 42113  1  0  0  0
 43114  1  0  0  0
 46115  1  0  0  0
 46116  1  0  0  0
 47117  1  0  0  0
 47118  1  0  0  0
 50119  1  0  0  0
 51120  1  0  0  0
 52121  1  0  0  0
 55122  1  0  0  0
 55123  1  0  0  0
 56124  1  0  0  0
 56125  1  0  0  0
 57126  1  0  0  0
 57127  1  0  0  0
 58128  1  0  0  0
 58129  1  0  0  0
 59130  1  0  0  0
 59131  1  0  0  0
 59132  1  0  0  0
 60133  1  0  0  0
 61134  1  0  0  0
 64135  1  0  0  0
 64136  1  0  0  0
 65137  1  0  0  0
 66138  1  0  0  0
 66139  1  0  0  0
 66140  1  0  0  0
 67141  1  0  0  0
 67142  1  0  0  0
 67143  1  0  0  0
 68144  1  0  0  0
M  END
$$$$
