5nvw_ligand
  -I-interpret- 

 69 72  0  0  0  0  0  0  0  0999 V2000
    9.9120   56.5050   96.8240 C   0  0  0  0  0
    9.4450   57.3180   95.6310 C   0  0  0  0  0
    9.7950   55.8600   95.4540 C   0  0  0  0  0
   11.1330   55.5190   94.7830 C   0  0  0  0  0
   12.1080   56.2530   94.9320 O   0  0  0  0  0
   11.1320   54.3500   94.1450 N   0  0  0  0  0
   12.2870   53.7620   93.4570 C   0  0  0  0  0
   12.5290   52.3070   93.9680 C   0  0  0  0  0
   12.9570   52.3410   95.4420 C   0  0  0  0  0
   13.6410   51.6210   93.1590 C   0  0  0  0  0
   11.2600   51.4100   93.9010 C   0  0  0  0  0
   11.9380   53.8380   91.9450 C   0  0  0  0  0
   10.7840   53.6510   91.6030 O   0  0  0  0  0
   12.9060   54.1490   91.0500 N   0  0  0  0  0
   14.3630   54.4630   91.2390 C   0  0  0  0  0
   14.7350   55.2950   90.0070 C   0  0  0  0  0
   14.3900   56.6800   90.1870 O   0  0  0  0  0
   13.8870   54.7060   88.9170 C   0  0  0  0  0
   12.5760   54.2660   89.5880 C   0  0  0  0  0
   12.1460   53.0720   88.9700 C   0  0  0  0  0
   12.5850   51.9860   89.3210 O   0  0  0  0  0
   11.3030   53.2220   87.9290 N   0  0  0  0  0
   10.8110   52.0990   87.1090 C   0  0  0  0  0
   11.6290   51.8730   85.9640 C   0  0  0  0  0
   12.4700   52.8540   85.4320 C   0  0  0  0  0
   13.2620   52.6020   84.3060 C   0  0  0  0  0
   11.6090   50.6360   85.3260 C   0  0  0  0  0
   12.4000   50.3930   84.1950 C   0  0  0  0  0
   13.2390   51.3780   83.6610 C   0  0  0  0  0
   14.0020   51.1650   82.5620 C   0  0  0  0  0
   15.6380   51.5780   82.3550 S   0  0  0  0  0
   15.7760   50.9790   80.8100 C   0  0  0  0  0
   14.5850   50.4760   80.4590 N   0  0  0  0  0
   13.6200   50.5840   81.4040 C   0  0  0  0  0
   12.2080   50.0310   81.1180 C   0  0  0  0  0
    9.6083   56.3081   97.8522 H   0  0  0  0  0
   10.6351   56.5808   97.6361 H   0  0  0  0  0
    9.6689   58.2739   95.1574 H   0  0  0  0  0
    8.6330   57.9987   95.3754 H   0  0  0  0  0
    9.2703   55.0049   95.0278 H   0  0  0  0  0
   10.2595   53.8217   94.1337 H   0  0  0  0  0
   13.2217   54.2884   93.6501 H   0  0  0  0  0
   13.8777   52.9164   95.5385 H   0  0  0  0  0
   12.1714   52.8075   96.0364 H   0  0  0  0  0
   13.1247   51.3231   95.7939 H   0  0  0  0  0
   13.3526   51.5813   92.1086 H   0  0  0  0  0
   14.5661   52.1882   93.2619 H   0  0  0  0  0
   13.7902   50.6087   93.5347 H   0  0  0  0  0
   10.4743   51.8476   94.5169 H   0  0  0  0  0
   10.9185   51.3424   92.8681 H   0  0  0  0  0
   11.5010   50.4135   94.2712 H   0  0  0  0  0
   14.9692   53.5610   91.3229 H   0  0  0  0  0
   14.5492   55.0010   92.1685 H   0  0  0  0  0
   15.8047   55.2669   89.7996 H   0  0  0  0  0
   14.6343   57.1742   89.4011 H   0  0  0  0  0
   14.3877   53.8633   88.4402 H   0  0  0  0  0
   13.7004   55.4331   88.1267 H   0  0  0  0  0
   11.7414   54.9589   89.4813 H   0  0  0  0  0
   10.9881   54.1636   87.6955 H   0  0  0  0  0
    9.8056   52.3432   86.7659 H   0  0  0  0  0
   10.8272   51.1977   87.7218 H   0  0  0  0  0
   12.5100   53.8358   85.9038 H   0  0  0  0  0
   13.9134   53.3898   83.9276 H   0  0  0  0  0
   10.9678   49.8437   85.7123 H   0  0  0  0  0
   12.3609   49.4130   83.7195 H   0  0  0  0  0
   16.6746   50.9931   80.1932 H   0  0  0  0  0
   11.9730   49.2479   81.8389 H   0  0  0  0  0
   11.4792   50.8369   81.2045 H   0  0  0  0  0
   12.1780   49.6190   80.1093 H   0  0  0  0  0
  1  2  1  0  0  0
  1  3  1  0  0  0
  2  3  1  0  0  0
  3  4  1  0  0  0
  4  5  2  0  0  0
  4  6  1  0  0  0
  6  7  1  0  0  0
  7  8  1  0  0  0
  7 12  1  0  0  0
  8  9  1  0  0  0
  8 10  1  0  0  0
  8 11  1  0  0  0
 12 13  2  0  0  0
 12 14  1  0  0  0
 14 15  1  0  0  0
 14 19  1  0  0  0
 15 16  1  0  0  0
 16 17  1  0  0  0
 16 18  1  0  0  0
 18 19  1  0  0  0
 19 20  1  0  0  0
 20 21  2  0  0  0
 20 22  1  0  0  0
 22 23  1  0  0  0
 23 24  1  0  0  0
 24 25  4  0  0  0
 24 27  4  0  0  0
 25 26  4  0  0  0
 26 29  4  0  0  0
 27 28  4  0  0  0
 28 29  4  0  0  0
 29 30  1  0  0  0
 30 31  4  0  0  0
 30 34  4  0  0  0
 31 32  4  0  0  0
 32 33  4  0  0  0
 33 34  4  0  0  0
 34 35  1  0  0  0
  1 36  1  0  0  0
  1 37  1  0  0  0
  2 38  1  0  0  0
  2 39  1  0  0  0
  3 40  1  0  0  0
  6 41  1  0  0  0
  7 42  1  0  0  0
  9 43  1  0  0  0
  9 44  1  0  0  0
  9 45  1  0  0  0
 10 46  1  0  0  0
 10 47  1  0  0  0
 10 48  1  0  0  0
 11 49  1  0  0  0
 11 50  1  0  0  0
 11 51  1  0  0  0
 15 52  1  0  0  0
 15 53  1  0  0  0
 16 54  1  0  0  0
 17 55  1  0  0  0
 18 56  1  0  0  0
 18 57  1  0  0  0
 19 58  1  0  0  0
 22 59  1  0  0  0
 23 60  1  0  0  0
 23 61  1  0  0  0
 25 62  1  0  0  0
 26 63  1  0  0  0
 27 64  1  0  0  0
 28 65  1  0  0  0
 32 66  1  0  0  0
 35 67  1  0  0  0
 35 68  1  0  0  0
 35 69  1  0  0  0
M  END
$$$$
