3h0a_ligand
  -I-interpret- 

 69 72  0  0  0  0  0  0  0  0999 V2000
   67.7960   -2.2630    0.1760 C   0  0  0  0  0
   69.5260   -3.7280    0.9670 C   0  0  0  0  0
   66.9680   -0.9990    0.2270 C   0  0  0  0  0
   74.8550   -5.0370    3.4270 C   0  0  0  0  0
   68.3300   -0.3150    2.2800 C   0  0  0  0  0
   68.1930   -4.3790   -0.9350 C   0  0  0  0  0
   73.3080   -2.4420   -0.5730 C   0  0  0  0  0
   76.2830   -1.7320    5.3130 C   0  0  0  0  0
   77.7050   -3.6620   -1.9010 C   0  0  0  0  0
   78.2800   -4.9210   -2.0640 C   0  0  0  0  0
   78.4050   -2.5290   -2.3000 C   0  0  0  0  0
   79.5520   -5.0280   -2.6240 C   0  0  0  0  0
   79.6740   -2.6250   -2.8450 C   0  0  0  0  0
   80.2490   -3.8790   -3.0160 C   0  0  0  0  0
   81.6390   -3.9960   -3.5930 C   0  0  0  0  0
   66.8580   -4.9800   -4.5200 O   0  0  0  0  0
   66.9860   -3.9890   -3.8430 C   0  0  0  0  0
   67.8730   -3.1460   -4.1290 O   0  0  0  0  0
   66.0090   -3.8460   -2.6990 C   0  0  0  0  0
   66.4610   -2.8950   -1.7220 O   0  0  0  0  0
   67.4780   -3.1880   -0.8130 C   0  0  0  0  0
   69.2210   -4.6520   -0.0490 C   0  0  0  0  0
   67.6960    0.1080    0.9570 C   0  0  0  0  0
   69.2170   -1.5500    2.1770 C   0  0  0  0  0
   68.8290   -2.5210    1.0760 C   0  0  0  0  0
   70.8040   -4.1110    2.0240 S   0  0  0  0  0
   72.2230   -3.6050    1.2030 C   0  0  0  0  0
   72.1350   -2.8230    0.0660 C   0  0  0  0  0
   73.4920   -3.9420    1.6980 C   0  0  0  0  0
   73.6020   -4.7100    2.8260 O   0  0  0  0  0
   75.4030   -3.8110    3.9790 C   0  0  0  0  0
   75.7950   -2.8360    4.5050 C   0  0  0  0  0
   77.6410   -2.1210    5.9070 C   0  0  0  0  0
   74.6460   -3.5520    1.0430 C   0  0  0  0  0
   74.5560   -2.7800   -0.0910 C   0  0  0  0  0
   75.8410   -2.3550   -0.8060 C   0  0  0  0  0
   76.4440   -3.5410   -1.3480 O   0  0  0  0  0
   81.6430   -4.9440   -4.5050 F   0  0  0  0  0
   82.5200   -4.3270   -2.6460 F   0  0  0  0  0
   82.0000   -2.8420   -4.1130 F   0  0  0  0  0
   66.0410   -1.2134    0.7589 H   0  0  0  0  0
   66.7735   -0.6710   -0.7941 H   0  0  0  0  0
   75.5347   -5.4612    2.6880 H   0  0  0  0  0
   74.7206   -5.7828    4.2105 H   0  0  0  0  0
   67.5172   -0.5575    2.9646 H   0  0  0  0  0
   68.9610    0.5088    2.6136 H   0  0  0  0  0
   67.9441   -5.0902   -1.7227 H   0  0  0  0  0
   73.2402   -1.8546   -1.4886 H   0  0  0  0  0
   75.5757   -1.5186    6.1144 H   0  0  0  0  0
   76.3906   -0.8403    4.6954 H   0  0  0  0  0
   77.7389   -5.8156   -1.7558 H   0  0  0  0  0
   77.9464   -1.5473   -2.1816 H   0  0  0  0  0
   80.0057   -6.0101   -2.7572 H   0  0  0  0  0
   80.2169   -1.7261   -3.1371 H   0  0  0  0  0
   67.8418   -2.4236   -3.4975 H   0  0  0  0  0
   65.9107   -4.8157   -2.2111 H   0  0  0  0  0
   65.0596   -3.4948   -3.1031 H   0  0  0  0  0
   69.7906   -5.5771   -0.1380 H   0  0  0  0  0
   66.9581    0.8762    1.1884 H   0  0  0  0  0
   68.5058    0.4395    0.3071 H   0  0  0  0  0
   69.1232   -2.0871    3.1208 H   0  0  0  0  0
   70.2237   -1.1991    1.9499 H   0  0  0  0  0
   71.1647   -2.5118   -0.3210 H   0  0  0  0  0
   77.5240   -3.0104    6.5261 H   0  0  0  0  0
   78.3433   -2.3286    5.0996 H   0  0  0  0  0
   78.0183   -1.2997    6.5163 H   0  0  0  0  0
   75.6214   -3.8550    1.4237 H   0  0  0  0  0
   76.5213   -1.8649   -0.1095 H   0  0  0  0  0
   75.6182   -1.6427   -1.6004 H   0  0  0  0  0
  1  3  1  0  0  0
  1 21  4  0  0  0
 25  1  4  0  0  0
  2 22  4  0  0  0
  2 25  4  0  0  0
 26  2  1  0  0  0
  3 23  1  0  0  0
 30  4  1  0  0  0
  4 31  1  0  0  0
  5 23  1  0  0  0
 24  5  1  0  0  0
  6 21  4  0  0  0
 22  6  4  0  0  0
  7 28  4  0  0  0
 35  7  4  0  0  0
 32  8  1  0  0  0
  8 33  1  0  0  0
  9 10  4  0  0  0
  9 11  4  0  0  0
 37  9  1  0  0  0
 10 12  4  0  0  0
 11 13  4  0  0  0
 12 14  4  0  0  0
 13 14  4  0  0  0
 14 15  1  0  0  0
 15 38  1  0  0  0
 15 39  1  0  0  0
 15 40  1  0  0  0
 17 16  2  0  0  0
 17 18  1  0  0  0
 19 17  1  0  0  0
 20 19  1  0  0  0
 21 20  1  0  0  0
 25 24  1  0  0  0
 27 26  1  0  0  0
 28 27  4  0  0  0
 29 27  4  0  0  0
 29 30  1  0  0  0
 34 29  4  0  0  0
 31 32  3  0  0  0
 35 34  4  0  0  0
 36 35  1  0  0  0
 36 37  1  0  0  0
  3 41  1  0  0  0
  3 42  1  0  0  0
  4 43  1  0  0  0
  4 44  1  0  0  0
  5 45  1  0  0  0
  5 46  1  0  0  0
  6 47  1  0  0  0
  7 48  1  0  0  0
  8 49  1  0  0  0
  8 50  1  0  0  0
 10 51  1  0  0  0
 11 52  1  0  0  0
 12 53  1  0  0  0
 13 54  1  0  0  0
 18 55  1  0  0  0
 19 56  1  0  0  0
 19 57  1  0  0  0
 22 58  1  0  0  0
 23 59  1  0  0  0
 23 60  1  0  0  0
 24 61  1  0  0  0
 24 62  1  0  0  0
 28 63  1  0  0  0
 33 64  1  0  0  0
 33 65  1  0  0  0
 33 66  1  0  0  0
 34 67  1  0  0  0
 36 68  1  0  0  0
 36 69  1  0  0  0
M  END
$$$$
