### 
### Created by X-TOOL on Mon Aug  2 16:14:53 2021
### 

@<TRIPOS>MOLECULE
6mjj_ligand
  172   173     1     0     0
SMALL
GAST_HUCK


@<TRIPOS>ATOM
      1 C4         97.7740  218.0870  322.9570 C.3       1 JU4         0.1179
      2 C5         97.5470  218.6840  321.5700 C.3       1 JU4         0.1145
      3 C6         97.1730  220.1600  321.7160 C.3       1 JU4         0.1341
      4 O2         96.1230  219.6390  323.8380 O.3       1 JU4        -0.3405
      5 C2         96.6350  217.8010  325.2480 C.3       1 JU4         0.0730
      6 CBT        83.7360  224.2900  310.4460 C.3       1 JU4        -0.0653
      7 CBS        84.7300  223.1270  310.3050 C.3       1 JU4        -0.0559
      8 CBR        84.1780  221.8780  310.9670 C.3       1 JU4        -0.0533
      9 CBQ        85.1680  220.7130  310.8230 C.3       1 JU4        -0.0531
     10 CBP        85.4010  220.1090  312.1970 C.3       1 JU4        -0.0531
     11 CBO        85.9930  218.7050  312.1190 C.3       1 JU4        -0.0531
     12 CBN        86.1250  218.2450  313.5730 C.3       1 JU4        -0.0531
     13 CBM        86.9430  216.9630  313.6760 C.3       1 JU4        -0.0531
     14 CBL        86.9670  216.5070  315.1370 C.3       1 JU4        -0.0531
     15 CBK        88.0840  217.2410  315.9190 C.3       1 JU4        -0.0531
     16 CBJ        88.2730  216.5610  317.2780 C.3       1 JU4        -0.0531
     17 CBI        89.4870  217.1500  318.0330 C.3       1 JU4        -0.0530
     18 CBH        89.1820  218.5580  318.5690 C.3       1 JU4        -0.0506
     19 CBG        90.1690  218.9550  319.6940 C.3       1 JU4        -0.0243
     20 CAQ        91.6100  219.0430  319.1680 C.3       1 JU4         0.0833
     21 OAR        91.6540  219.7790  317.9260 O.3       1 JU4        -0.3892
     22 CAP        92.5420  219.7430  320.1770 C.3       1 JU4         0.1059
     23 OAS        92.1260  221.0890  320.3680 O.3       1 JU4        -0.3869
     24 CAN        92.5580  219.0650  321.5450 C.3       1 JU4         0.0936
     25 CAM        93.5840  219.7700  322.4400 C.3       1 JU4         0.0762
     26 O1         94.8710  219.6000  321.8410 O.3       1 JU4        -0.3463
     27 C1         95.9190  220.2620  322.5450 C.3       1 JU4         0.1880
     28 O5         96.9580  220.7700  320.4180 O.3       1 JU4        -0.3841
     29 O3         98.7400  218.5730  320.7890 O.3       1 JU4        -0.3864
     30 C3         96.4870  218.2630  323.7840 C.3       1 JU4         0.1135
     31 O6         97.0270  216.4200  325.2900 O.3       1 JU4        -0.3924
     32 O4         98.8940  218.7840  323.5450 O.3       1 JU4        -0.3588
     33 CAT        99.7750  218.0300  324.4080 C.3       1 JU4         0.0823
     34 CAU       100.5830  217.1350  323.6990 C.ar      1 JU4        -0.0168
     35 CAV       100.2800  215.7710  323.7150 C.ar      1 JU4        -0.0437
     36 CAW       101.0870  214.8750  323.0250 C.ar      1 JU4         0.0478
     37 CL1       100.7090  213.1820  323.0380 Cl        1 JU4        -0.0718
     38 CAX       102.1990  215.3330  322.3250 C.ar      1 JU4         0.0469
     39 CL2       103.1810  214.1840  321.4660 Cl        1 JU4        -0.0764
     40 CAY       102.5080  216.6920  322.3090 C.ar      1 JU4        -0.0540
     41 CAZ       101.7010  217.5960  322.9980 C.ar      1 JU4        -0.0574
     42 NAO        92.9510  217.6540  321.4340 N.am      1 JU4        -0.2791
     43 CBE        92.5870  216.7650  322.3830 C.2       1 JU4         0.1764
     44 OBF        91.8850  217.0350  323.3610 O.2       1 JU4        -0.3971
     45 CBU        93.1260  215.3450  322.1780 C.3       1 JU4         0.0372
     46 CBV        92.0310  214.3020  322.4130 C.3       1 JU4        -0.0361
     47 CBW        91.0980  214.2110  321.2130 C.3       1 JU4        -0.0510
     48 CBX        89.9660  213.2430  321.5840 C.3       1 JU4        -0.0529
     49 CBY        88.9640  213.1000  320.4420 C.3       1 JU4        -0.0531
     50 CBZ        87.9150  212.0620  320.8840 C.3       1 JU4        -0.0531
     51 CCA        86.5860  212.2860  320.1830 C.3       1 JU4        -0.0531
     52 CCB        85.5330  211.3280  320.7780 C.3       1 JU4        -0.0531
     53 CCC        84.6060  212.0880  321.7230 C.3       1 JU4        -0.0531
     54 CCD        83.4740  211.1740  322.1910 C.3       1 JU4        -0.0531
     55 CCE        82.5480  211.9310  323.1430 C.3       1 JU4        -0.0531
     56 CCF        83.1370  211.9780  324.5520 C.3       1 JU4        -0.0531
     57 CCG        82.4280  210.9730  325.4450 C.3       1 JU4        -0.0531
     58 CCH        83.1880  210.8510  326.7640 C.3       1 JU4        -0.0531
     59 CCI        82.7260  209.6020  327.5120 C.3       1 JU4        -0.0531
     60 CCJ        83.8250  208.5390  327.4650 C.3       1 JU4        -0.0531
     61 CCK        83.3720  207.2700  328.1970 C.3       1 JU4        -0.0531
     62 CCL        84.5600  206.3380  328.4410 C.3       1 JU4        -0.0531
     63 CCM        85.1170  205.7510  327.1240 C.3       1 JU4        -0.0531
     64 CCN        86.4480  206.4100  326.7760 C.3       1 JU4        -0.0531
     65 CCO        87.4850  205.4230  326.2140 C.3       1 JU4        -0.0531
     66 CCP        87.2220  205.0110  324.7570 C.3       1 JU4        -0.0531
     67 CCQ        86.8570  206.1930  323.8700 C.3       1 JU4        -0.0533
     68 CCR        87.0550  205.8110  322.4070 C.3       1 JU4        -0.0559
     69 CCS        86.6060  206.9640  321.5120 C.3       1 JU4        -0.0653
     70 H1         98.0094  217.0156  322.8758 H         1 JU4         0.0652
     71 H2         96.7302  218.1446  321.0681 H         1 JU4         0.0648
     72 H3         97.9906  220.6897  322.2269 H         1 JU4         0.0671
     73 H4         95.6730  217.9225  325.7674 H         1 JU4         0.0584
     74 H5         97.4011  218.4124  325.7473 H         1 JU4         0.0584
     75 H6         84.1499  225.1868  309.9618 H         1 JU4         0.0230
     76 H7         83.5619  224.4963  311.5123 H         1 JU4         0.0230
     77 H8         82.7846  224.0196  309.9647 H         1 JU4         0.0230
     78 H9         85.6806  223.4021  310.7853 H         1 JU4         0.0263
     79 H10        84.9033  222.9253  309.2376 H         1 JU4         0.0263
     80 H11        83.2256  221.6053  310.4890 H         1 JU4         0.0265
     81 H12        84.0079  222.0790  312.0350 H         1 JU4         0.0265
     82 H13        86.1197  221.0827  310.4135 H         1 JU4         0.0265
     83 H14        84.7498  219.9513  310.1485 H         1 JU4         0.0265
     84 H15        84.4395  220.0585  312.7290 H         1 JU4         0.0265
     85 H16        86.0951  220.7551  312.7545 H         1 JU4         0.0265
     86 H17        86.9784  218.7282  311.6306 H         1 JU4         0.0265
     87 H18        85.3230  218.0341  311.5613 H         1 JU4         0.0265
     88 H19        85.1210  218.0634  313.9840 H         1 JU4         0.0265
     89 H20        86.6221  219.0350  314.1551 H         1 JU4         0.0265
     90 H21        87.9703  217.1516  313.3311 H         1 JU4         0.0265
     91 H22        86.4846  216.1812  313.0526 H         1 JU4         0.0265
     92 H23        87.1518  215.4233  315.1745 H         1 JU4         0.0265
     93 H24        85.9949  216.7294  315.6011 H         1 JU4         0.0265
     94 H25        87.7984  218.2925  316.0697 H         1 JU4         0.0265
     95 H26        89.0241  217.1943  315.3497 H         1 JU4         0.0265
     96 H27        88.4357  215.4845  317.1212 H         1 JU4         0.0265
     97 H28        87.3668  216.7106  317.8834 H         1 JU4         0.0265
     98 H29        90.3437  217.2062  317.3454 H         1 JU4         0.0265
     99 H30        89.7374  216.4915  318.8778 H         1 JU4         0.0265
    100 H31        88.1571  218.5757  318.9682 H         1 JU4         0.0266
    101 H32        89.2672  219.2818  317.7451 H         1 JU4         0.0266
    102 H33        90.1247  218.1997  320.4924 H         1 JU4         0.0291
    103 H34        89.8752  219.9345  320.0991 H         1 JU4         0.0291
    104 H35        91.9786  218.0214  318.9934 H         1 JU4         0.0620
    105 H36        91.3236  220.6583  318.0684 H         1 JU4         0.2099
    106 H37        93.5627  219.7327  319.7670 H         1 JU4         0.0643
    107 H38        92.1591  221.5503  319.5381 H         1 JU4         0.2100
    108 H39        91.5570  219.1331  321.9959 H         1 JU4         0.0605
    109 H40        93.5759  219.3218  323.4445 H         1 JU4         0.0585
    110 H41        93.3436  220.8408  322.5143 H         1 JU4         0.0585
    111 H42        95.6564  221.3203  322.6901 H         1 JU4         0.0937
    112 H43        96.2496  220.3211  319.9719 H         1 JU4         0.2101
    113 H44        98.5910  218.9501  319.9299 H         1 JU4         0.2100
    114 H45        95.6845  217.6845  323.3030 H         1 JU4         0.0647
    115 H46        96.3654  215.8910  324.8601 H         1 JU4         0.2095
    116 H47        99.1647  217.4618  325.1254 H         1 JU4         0.0725
    117 H48       100.4218  218.7333  324.9530 H         1 JU4         0.0725
    118 H49        99.4171  215.4127  324.2646 H         1 JU4         0.0563
    119 H50       103.3744  217.0454  321.7617 H         1 JU4         0.0606
    120 H51       101.9398  218.6534  322.9902 H         1 JU4         0.0560
    121 H52        93.4920  217.3496  320.6500 H         1 JU4         0.1856
    122 H53        93.9493  215.1674  322.8855 H         1 JU4         0.0502
    123 H54        93.5000  215.2477  321.1481 H         1 JU4         0.0502
    124 H55        91.4479  214.5864  323.3013 H         1 JU4         0.0290
    125 H56        92.4988  213.3206  322.5802 H         1 JU4         0.0290
    126 H57        91.6462  213.8308  320.3385 H         1 JU4         0.0267
    127 H58        90.6835  215.2036  320.9829 H         1 JU4         0.0267
    128 H59        89.4439  213.6258  322.4733 H         1 JU4         0.0265
    129 H60        90.3971  212.2562  321.8084 H         1 JU4         0.0265
    130 H61        89.4763  212.7541  319.5321 H         1 JU4         0.0265
    131 H62        88.4776  214.0666  320.2440 H         1 JU4         0.0265
    132 H63        87.7651  212.1446  321.9706 H         1 JU4         0.0265
    133 H64        88.2832  211.0545  320.6401 H         1 JU4         0.0265
    134 H65        86.6989  212.0867  319.1071 H         1 JU4         0.0265
    135 H66        86.2623  213.3268  320.3311 H         1 JU4         0.0265
    136 H67        86.0426  210.5275  321.3343 H         1 JU4         0.0265
    137 H68        84.9399  210.8878  319.9629 H         1 JU4         0.0265
    138 H69        84.1803  212.9550  321.1967 H         1 JU4         0.0265
    139 H70        85.1793  212.4340  322.5957 H         1 JU4         0.0265
    140 H71        83.9003  210.3045  322.7128 H         1 JU4         0.0265
    141 H72        82.8981  210.8319  321.3185 H         1 JU4         0.0265
    142 H73        81.5728  211.4233  323.1769 H         1 JU4         0.0265
    143 H74        82.4138  212.9586  322.7741 H         1 JU4         0.0265
    144 H75        83.0085  212.9885  324.9671 H         1 JU4         0.0265
    145 H76        84.2085  211.7334  324.5074 H         1 JU4         0.0265
    146 H77        82.3982  209.9934  324.9455 H         1 JU4         0.0265
    147 H78        81.4015  211.3156  325.6420 H         1 JU4         0.0265
    148 H79        82.9929  211.7400  327.3818 H         1 JU4         0.0265
    149 H80        84.2661  210.7763  326.5590 H         1 JU4         0.0265
    150 H81        81.8150  209.2076  327.0382 H         1 JU4         0.0265
    151 H82        82.5119  209.8609  328.5594 H         1 JU4         0.0265
    152 H83        84.7311  208.9326  327.9487 H         1 JU4         0.0265
    153 H84        84.0467  208.2928  326.4161 H         1 JU4         0.0265
    154 H85        82.6220  206.7475  327.5850 H         1 JU4         0.0265
    155 H86        82.9268  207.5492  329.1634 H         1 JU4         0.0265
    156 H87        84.2348  205.5106  329.0888 H         1 JU4         0.0265
    157 H88        85.3584  206.9045  328.9427 H         1 JU4         0.0265
    158 H89        84.3978  205.9333  326.3119 H         1 JU4         0.0265
    159 H90        85.2680  204.6680  327.2439 H         1 JU4         0.0265
    160 H91        86.8598  206.8683  327.6872 H         1 JU4         0.0265
    161 H92        86.2651  207.1909  326.0232 H         1 JU4         0.0265
    162 H93        87.4754  204.5171  326.8378 H         1 JU4         0.0265
    163 H94        88.4774  205.8945  326.2674 H         1 JU4         0.0265
    164 H95        86.3927  204.2885  324.7396 H         1 JU4         0.0265
    165 H96        88.1299  204.5369  324.3558 H         1 JU4         0.0265
    166 H97        87.5024  207.0491  324.1159 H         1 JU4         0.0265
    167 H98        85.8050  206.4666  324.0383 H         1 JU4         0.0265
    168 H99        86.4580  204.9159  322.1782 H         1 JU4         0.0263
    169 H100       88.1188  205.5987  322.2246 H         1 JU4         0.0263
    170 H101       86.7495  206.6867  320.4572 H         1 JU4         0.0230
    171 H102       87.2029  207.8593  321.7402 H         1 JU4         0.0230
    172 H103       85.5421  207.1765  321.6937 H         1 JU4         0.0230
@<TRIPOS>BOND
     1    2    1 1  
     2   30    1 1  
     3    1   32 1  
     4    3    2 1  
     5    2   29 1  
     6   27    3 1  
     7    3   28 1  
     8   27    4 1  
     9    4   30 1  
    10   30    5 1  
    11    5   31 1  
    12    7    6 1  
    13    8    7 1  
    14    9    8 1  
    15   10    9 1  
    16   11   10 1  
    17   12   11 1  
    18   13   12 1  
    19   14   13 1  
    20   15   14 1  
    21   16   15 1  
    22   17   16 1  
    23   18   17 1  
    24   19   18 1  
    25   20   19 1  
    26   20   21 1  
    27   22   20 1  
    28   22   23 1  
    29   24   22 1  
    30   25   24 1  
    31   24   42 1  
    32   26   25 1  
    33   26   27 1  
    34   32   33 1  
    35   33   34 1  
    36   34   35 ar 
    37   34   41 ar 
    38   35   36 ar 
    39   36   37 1  
    40   36   38 ar 
    41   38   39 1  
    42   38   40 ar 
    43   40   41 ar 
    44   42   43 am 
    45   43   44 2  
    46   43   45 1  
    47   45   46 1  
    48   46   47 1  
    49   47   48 1  
    50   48   49 1  
    51   49   50 1  
    52   50   51 1  
    53   51   52 1  
    54   52   53 1  
    55   53   54 1  
    56   54   55 1  
    57   55   56 1  
    58   56   57 1  
    59   57   58 1  
    60   58   59 1  
    61   59   60 1  
    62   60   61 1  
    63   61   62 1  
    64   62   63 1  
    65   63   64 1  
    66   64   65 1  
    67   65   66 1  
    68   66   67 1  
    69   67   68 1  
    70   68   69 1  
    71    1   70 1  
    72    2   71 1  
    73    3   72 1  
    74    5   73 1  
    75    5   74 1  
    76    6   75 1  
    77    6   76 1  
    78    6   77 1  
    79    7   78 1  
    80    7   79 1  
    81    8   80 1  
    82    8   81 1  
    83    9   82 1  
    84    9   83 1  
    85   10   84 1  
    86   10   85 1  
    87   11   86 1  
    88   11   87 1  
    89   12   88 1  
    90   12   89 1  
    91   13   90 1  
    92   13   91 1  
    93   14   92 1  
    94   14   93 1  
    95   15   94 1  
    96   15   95 1  
    97   16   96 1  
    98   16   97 1  
    99   17   98 1  
   100   17   99 1  
   101   18  100 1  
   102   18  101 1  
   103   19  102 1  
   104   19  103 1  
   105   20  104 1  
   106   21  105 1  
   107   22  106 1  
   108   23  107 1  
   109   24  108 1  
   110   25  109 1  
   111   25  110 1  
   112   27  111 1  
   113   28  112 1  
   114   29  113 1  
   115   30  114 1  
   116   31  115 1  
   117   33  116 1  
   118   33  117 1  
   119   35  118 1  
   120   40  119 1  
   121   41  120 1  
   122   42  121 1  
   123   45  122 1  
   124   45  123 1  
   125   46  124 1  
   126   46  125 1  
   127   47  126 1  
   128   47  127 1  
   129   48  128 1  
   130   48  129 1  
   131   49  130 1  
   132   49  131 1  
   133   50  132 1  
   134   50  133 1  
   135   51  134 1  
   136   51  135 1  
   137   52  136 1  
   138   52  137 1  
   139   53  138 1  
   140   53  139 1  
   141   54  140 1  
   142   54  141 1  
   143   55  142 1  
   144   55  143 1  
   145   56  144 1  
   146   56  145 1  
   147   57  146 1  
   148   57  147 1  
   149   58  148 1  
   150   58  149 1  
   151   59  150 1  
   152   59  151 1  
   153   60  152 1  
   154   60  153 1  
   155   61  154 1  
   156   61  155 1  
   157   62  156 1  
   158   62  157 1  
   159   63  158 1  
   160   63  159 1  
   161   64  160 1  
   162   64  161 1  
   163   65  162 1  
   164   65  163 1  
   165   66  164 1  
   166   66  165 1  
   167   67  166 1  
   168   67  167 1  
   169   68  168 1  
   170   68  169 1  
   171   69  170 1  
   172   69  171 1  
   173   69  172 1  
@<TRIPOS>SUBSTRUCTURE
     1 JU4         1

