6mjj_ligand
  -I-interpret- 

172173  0  0  0  0  0  0  0  0999 V2000
   97.7740  218.0870  322.9570 C   0  0  0  0  0
   97.5470  218.6840  321.5700 C   0  0  0  0  0
   97.1730  220.1600  321.7160 C   0  0  0  0  0
   96.1230  219.6390  323.8380 O   0  0  0  0  0
   96.6350  217.8010  325.2480 C   0  0  0  0  0
   83.7360  224.2900  310.4460 C   0  0  0  0  0
   84.7300  223.1270  310.3050 C   0  0  0  0  0
   84.1780  221.8780  310.9670 C   0  0  0  0  0
   85.1680  220.7130  310.8230 C   0  0  0  0  0
   85.4010  220.1090  312.1970 C   0  0  0  0  0
   85.9930  218.7050  312.1190 C   0  0  0  0  0
   86.1250  218.2450  313.5730 C   0  0  0  0  0
   86.9430  216.9630  313.6760 C   0  0  0  0  0
   86.9670  216.5070  315.1370 C   0  0  0  0  0
   88.0840  217.2410  315.9190 C   0  0  0  0  0
   88.2730  216.5610  317.2780 C   0  0  0  0  0
   89.4870  217.1500  318.0330 C   0  0  0  0  0
   89.1820  218.5580  318.5690 C   0  0  0  0  0
   90.1690  218.9550  319.6940 C   0  0  0  0  0
   91.6100  219.0430  319.1680 C   0  0  0  0  0
   91.6540  219.7790  317.9260 O   0  0  0  0  0
   92.5420  219.7430  320.1770 C   0  0  0  0  0
   92.1260  221.0890  320.3680 O   0  0  0  0  0
   92.5580  219.0650  321.5450 C   0  0  0  0  0
   93.5840  219.7700  322.4400 C   0  0  0  0  0
   94.8710  219.6000  321.8410 O   0  0  0  0  0
   95.9190  220.2620  322.5450 C   0  0  0  0  0
   96.9580  220.7700  320.4180 O   0  0  0  0  0
   98.7400  218.5730  320.7890 O   0  0  0  0  0
   96.4870  218.2630  323.7840 C   0  0  0  0  0
   97.0270  216.4200  325.2900 O   0  0  0  0  0
   98.8940  218.7840  323.5450 O   0  0  0  0  0
   99.7750  218.0300  324.4080 C   0  0  0  0  0
  100.5830  217.1350  323.6990 C   0  0  0  0  0
  100.2800  215.7710  323.7150 C   0  0  0  0  0
  101.0870  214.8750  323.0250 C   0  0  0  0  0
  100.7090  213.1820  323.0380 Cl  0  0  0  0  0
  102.1990  215.3330  322.3250 C   0  0  0  0  0
  103.1810  214.1840  321.4660 Cl  0  0  0  0  0
  102.5080  216.6920  322.3090 C   0  0  0  0  0
  101.7010  217.5960  322.9980 C   0  0  0  0  0
   92.9510  217.6540  321.4340 N   0  0  0  0  0
   92.5870  216.7650  322.3830 C   0  0  0  0  0
   91.8850  217.0350  323.3610 O   0  0  0  0  0
   93.1260  215.3450  322.1780 C   0  0  0  0  0
   92.0310  214.3020  322.4130 C   0  0  0  0  0
   91.0980  214.2110  321.2130 C   0  0  0  0  0
   89.9660  213.2430  321.5840 C   0  0  0  0  0
   88.9640  213.1000  320.4420 C   0  0  0  0  0
   87.9150  212.0620  320.8840 C   0  0  0  0  0
   86.5860  212.2860  320.1830 C   0  0  0  0  0
   85.5330  211.3280  320.7780 C   0  0  0  0  0
   84.6060  212.0880  321.7230 C   0  0  0  0  0
   83.4740  211.1740  322.1910 C   0  0  0  0  0
   82.5480  211.9310  323.1430 C   0  0  0  0  0
   83.1370  211.9780  324.5520 C   0  0  0  0  0
   82.4280  210.9730  325.4450 C   0  0  0  0  0
   83.1880  210.8510  326.7640 C   0  0  0  0  0
   82.7260  209.6020  327.5120 C   0  0  0  0  0
   83.8250  208.5390  327.4650 C   0  0  0  0  0
   83.3720  207.2700  328.1970 C   0  0  0  0  0
   84.5600  206.3380  328.4410 C   0  0  0  0  0
   85.1170  205.7510  327.1240 C   0  0  0  0  0
   86.4480  206.4100  326.7760 C   0  0  0  0  0
   87.4850  205.4230  326.2140 C   0  0  0  0  0
   87.2220  205.0110  324.7570 C   0  0  0  0  0
   86.8570  206.1930  323.8700 C   0  0  0  0  0
   87.0550  205.8110  322.4070 C   0  0  0  0  0
   86.6060  206.9640  321.5120 C   0  0  0  0  0
   97.9994  217.0213  322.9183 H   0  0  0  0  0
   96.7426  218.1432  321.0713 H   0  0  0  0  0
   97.9906  220.6895  322.2051 H   0  0  0  0  0
   95.6796  217.9183  325.7594 H   0  0  0  0  0
   97.3975  218.4053  325.7394 H   0  0  0  0  0
   82.7937  224.0208  309.9688 H   0  0  0  0  0
   83.5643  224.4934  311.5030 H   0  0  0  0  0
   84.1472  225.1780  309.9659 H   0  0  0  0  0
   85.6680  223.4005  310.7881 H   0  0  0  0  0
   84.8936  222.9255  309.2464 H   0  0  0  0  0
   83.2385  221.6068  310.4854 H   0  0  0  0  0
   84.0183  222.0790  312.0263 H   0  0  0  0  0
   86.1100  221.0731  310.4093 H   0  0  0  0  0
   84.7615  219.9594  310.1484 H   0  0  0  0  0
   84.4389  220.0428  312.7050 H   0  0  0  0  0
   86.1074  220.7448  312.7307 H   0  0  0  0  0
   86.9552  218.7018  311.6069 H   0  0  0  0  0
   85.3598  218.0327  311.5401 H   0  0  0  0  0
   85.1275  218.0529  313.9681 H   0  0  0  0  0
   86.6316  219.0263  314.1396 H   0  0  0  0  0
   87.9603  217.1460  313.3301 H   0  0  0  0  0
   86.4935  216.1880  313.0552 H   0  0  0  0  0
   87.1597  215.4346  315.1691 H   0  0  0  0  0
   86.0052  216.7380  315.5948 H   0  0  0  0  0
   87.8041  218.2841  316.0664 H   0  0  0  0  0
   89.0156  217.1986  315.3547 H   0  0  0  0  0
   88.4474  215.4976  317.1140 H   0  0  0  0  0
   87.3773  216.7251  317.8771 H   0  0  0  0  0
   90.3268  217.2165  317.3413 H   0  0  0  0  0
   89.7193  216.5003  318.8768 H   0  0  0  0  0
   88.1706  218.5639  318.9754 H   0  0  0  0  0
   89.2823  219.2710  317.7507 H   0  0  0  0  0
   90.1303  218.1942  320.4736 H   0  0  0  0  0
   89.8803  219.9328  320.0795 H   0  0  0  0  0
   91.9519  218.0196  319.0134 H   0  0  0  0  0
   92.5606  219.8233  317.6135 H   0  0  0  0  0
   93.5443  219.6880  319.7522 H   0  0  0  0  0
   92.7111  221.5174  320.9971 H   0  0  0  0  0
   91.5542  219.1265  321.9653 H   0  0  0  0  0
   93.5719  219.3414  323.4421 H   0  0  0  0  0
   93.3443  220.8294  322.5308 H   0  0  0  0  0
   95.6604  221.3079  322.7104 H   0  0  0  0  0
   97.7609  220.7010  319.8963 H   0  0  0  0  0
   98.9757  217.6470  320.6967 H   0  0  0  0  0
   95.7366  217.6502  323.2845 H   0  0  0  0  0
   97.1166  216.1416  326.2044 H   0  0  0  0  0
   99.1580  217.4528  325.0966 H   0  0  0  0  0
  100.4267  218.7361  324.9226 H   0  0  0  0  0
   99.4123  215.4107  324.2677 H   0  0  0  0  0
  103.3792  217.0473  321.7587 H   0  0  0  0  0
  101.9411  218.6592  322.9901 H   0  0  0  0  0
   93.5028  217.3435  320.6343 H   0  0  0  0  0
   93.9324  215.1713  322.8905 H   0  0  0  0  0
   93.4829  215.2516  321.1523 H   0  0  0  0  0
   91.4495  214.5961  323.2868 H   0  0  0  0  0
   92.5005  213.3302  322.5656 H   0  0  0  0  0
   91.6368  213.8508  320.3366 H   0  0  0  0  0
   90.6952  215.1935  320.9669 H   0  0  0  0  0
   89.4445  213.6363  322.4566 H   0  0  0  0  0
   90.3994  212.2644  321.7906 H   0  0  0  0  0
   89.4650  212.7752  319.5301 H   0  0  0  0  0
   88.4895  214.0571  320.2255 H   0  0  0  0  0
   87.7611  212.1607  321.9586 H   0  0  0  0  0
   88.2803  211.0682  320.6252 H   0  0  0  0  0
   86.6970  212.0917  319.1162 H   0  0  0  0  0
   86.2653  213.3178  320.3265 H   0  0  0  0  0
   86.0406  210.5390  321.3330 H   0  0  0  0  0
   84.9435  210.8975  319.9685 H   0  0  0  0  0
   84.1822  212.9442  321.1982 H   0  0  0  0  0
   85.1752  212.4264  322.5888 H   0  0  0  0  0
   83.8989  210.3159  322.7118 H   0  0  0  0  0
   82.9021  210.8405  321.3251 H   0  0  0  0  0
   81.5876  211.4170  323.1811 H   0  0  0  0  0
   82.4280  212.9512  322.7786 H   0  0  0  0  0
   83.0049  212.9789  324.9629 H   0  0  0  0  0
   84.1977  211.7313  324.5059 H   0  0  0  0  0
   82.3954  210.0024  324.9500 H   0  0  0  0  0
   81.4097  211.3099  325.6389 H   0  0  0  0  0
   82.9922  211.7314  327.3761 H   0  0  0  0  0
   84.2559  210.7749  326.5595 H   0  0  0  0  0
   81.8240  209.2111  327.0412 H   0  0  0  0  0
   82.5152  209.8590  328.5501 H   0  0  0  0  0
   84.7185  208.9300  327.9517 H   0  0  0  0  0
   84.0366  208.2926  326.4245 H   0  0  0  0  0
   82.6357  206.7513  327.5831 H   0  0  0  0  0
   82.9397  207.5509  329.1574 H   0  0  0  0  0
   84.2215  205.5115  329.0658 H   0  0  0  0  0
   85.3523  206.9143  328.9188 H   0  0  0  0  0
   84.4049  205.9382  326.3203 H   0  0  0  0  0
   85.2708  204.6790  327.2477 H   0  0  0  0  0
   86.8574  206.8318  327.6939 H   0  0  0  0  0
   86.2547  207.1586  326.0077 H   0  0  0  0  0
   87.4365  204.5193  326.8214 H   0  0  0  0  0
   88.4550  205.9195  326.2417 H   0  0  0  0  0
   86.3821  204.3162  324.7517 H   0  0  0  0  0
   88.1367  204.5671  324.3640 H   0  0  0  0  0
   87.4966  207.0413  324.1138 H   0  0  0  0  0
   85.8145  206.4641  324.0368 H   0  0  0  0  0
   86.4627  204.9245  322.1805 H   0  0  0  0  0
   88.1094  205.6015  322.2266 H   0  0  0  0  0
   85.5518  207.1735  321.6931 H   0  0  0  0  0
   87.1982  207.8505  321.7391 H   0  0  0  0  0
   86.7487  206.6881  320.4672 H   0  0  0  0  0
  2  1  1  0  0  0
 30  1  1  0  0  0
  1 32  1  0  0  0
  3  2  1  0  0  0
  2 29  1  0  0  0
 27  3  1  0  0  0
  3 28  1  0  0  0
 27  4  1  0  0  0
  4 30  1  0  0  0
 30  5  1  0  0  0
  5 31  1  0  0  0
  7  6  1  0  0  0
  8  7  1  0  0  0
  9  8  1  0  0  0
 10  9  1  0  0  0
 11 10  1  0  0  0
 12 11  1  0  0  0
 13 12  1  0  0  0
 14 13  1  0  0  0
 15 14  1  0  0  0
 16 15  1  0  0  0
 17 16  1  0  0  0
 18 17  1  0  0  0
 19 18  1  0  0  0
 20 19  1  0  0  0
 20 21  1  0  0  0
 22 20  1  0  0  0
 22 23  1  0  0  0
 24 22  1  0  0  0
 25 24  1  0  0  0
 24 42  1  0  0  0
 26 25  1  0  0  0
 26 27  1  0  0  0
 32 33  1  0  0  0
 33 34  1  0  0  0
 34 35  4  0  0  0
 34 41  4  0  0  0
 35 36  4  0  0  0
 36 37  1  0  0  0
 36 38  4  0  0  0
 38 39  1  0  0  0
 38 40  4  0  0  0
 40 41  4  0  0  0
 42 43  1  0  0  0
 43 44  2  0  0  0
 43 45  1  0  0  0
 45 46  1  0  0  0
 46 47  1  0  0  0
 47 48  1  0  0  0
 48 49  1  0  0  0
 49 50  1  0  0  0
 50 51  1  0  0  0
 51 52  1  0  0  0
 52 53  1  0  0  0
 53 54  1  0  0  0
 54 55  1  0  0  0
 55 56  1  0  0  0
 56 57  1  0  0  0
 57 58  1  0  0  0
 58 59  1  0  0  0
 59 60  1  0  0  0
 60 61  1  0  0  0
 61 62  1  0  0  0
 62 63  1  0  0  0
 63 64  1  0  0  0
 64 65  1  0  0  0
 65 66  1  0  0  0
 66 67  1  0  0  0
 67 68  1  0  0  0
 68 69  1  0  0  0
  1 70  1  0  0  0
  2 71  1  0  0  0
  3 72  1  0  0  0
  5 73  1  0  0  0
  5 74  1  0  0  0
  6 75  1  0  0  0
  6 76  1  0  0  0
  6 77  1  0  0  0
  7 78  1  0  0  0
  7 79  1  0  0  0
  8 80  1  0  0  0
  8 81  1  0  0  0
  9 82  1  0  0  0
  9 83  1  0  0  0
 10 84  1  0  0  0
 10 85  1  0  0  0
 11 86  1  0  0  0
 11 87  1  0  0  0
 12 88  1  0  0  0
 12 89  1  0  0  0
 13 90  1  0  0  0
 13 91  1  0  0  0
 14 92  1  0  0  0
 14 93  1  0  0  0
 15 94  1  0  0  0
 15 95  1  0  0  0
 16 96  1  0  0  0
 16 97  1  0  0  0
 17 98  1  0  0  0
 17 99  1  0  0  0
 18100  1  0  0  0
 18101  1  0  0  0
 19102  1  0  0  0
 19103  1  0  0  0
 20104  1  0  0  0
 21105  1  0  0  0
 22106  1  0  0  0
 23107  1  0  0  0
 24108  1  0  0  0
 25109  1  0  0  0
 25110  1  0  0  0
 27111  1  0  0  0
 28112  1  0  0  0
 29113  1  0  0  0
 30114  1  0  0  0
 31115  1  0  0  0
 33116  1  0  0  0
 33117  1  0  0  0
 35118  1  0  0  0
 40119  1  0  0  0
 41120  1  0  0  0
 42121  1  0  0  0
 45122  1  0  0  0
 45123  1  0  0  0
 46124  1  0  0  0
 46125  1  0  0  0
 47126  1  0  0  0
 47127  1  0  0  0
 48128  1  0  0  0
 48129  1  0  0  0
 49130  1  0  0  0
 49131  1  0  0  0
 50132  1  0  0  0
 50133  1  0  0  0
 51134  1  0  0  0
 51135  1  0  0  0
 52136  1  0  0  0
 52137  1  0  0  0
 53138  1  0  0  0
 53139  1  0  0  0
 54140  1  0  0  0
 54141  1  0  0  0
 55142  1  0  0  0
 55143  1  0  0  0
 56144  1  0  0  0
 56145  1  0  0  0
 57146  1  0  0  0
 57147  1  0  0  0
 58148  1  0  0  0
 58149  1  0  0  0
 59150  1  0  0  0
 59151  1  0  0  0
 60152  1  0  0  0
 60153  1  0  0  0
 61154  1  0  0  0
 61155  1  0  0  0
 62156  1  0  0  0
 62157  1  0  0  0
 63158  1  0  0  0
 63159  1  0  0  0
 64160  1  0  0  0
 64161  1  0  0  0
 65162  1  0  0  0
 65163  1  0  0  0
 66164  1  0  0  0
 66165  1  0  0  0
 67166  1  0  0  0
 67167  1  0  0  0
 68168  1  0  0  0
 68169  1  0  0  0
 69170  1  0  0  0
 69171  1  0  0  0
 69172  1  0  0  0
M  END
$$$$
