6qln_ligand
  -I-interpret- 

 52 55  0  0  0  0  0  0  0  0999 V2000
  -12.9360    8.4810    0.1660 C   0  0  0  0  0
  -12.9640    8.5080    1.5630 C   0  0  0  0  0
  -11.8080    8.7520    2.2360 C   0  0  0  0  0
  -10.5800    8.9520    1.6800 C   0  0  0  0  0
  -11.6880    8.6720   -0.4400 C   0  0  0  0  0
  -25.2820    9.0000   -5.6420 C   0  0  0  0  0
  -24.1830    9.3200   -4.6980 C   0  0  0  0  0
  -23.4710    8.3270   -4.0460 C   0  0  0  0  0
  -22.4450    8.6100   -3.1500 C   0  0  0  0  0
  -23.7970   10.6270   -4.3940 C   0  0  0  0  0
  -22.7700   10.9190   -3.5050 C   0  0  0  0  0
  -22.0730    9.9190   -2.8580 C   0  0  0  0  0
  -19.7240    8.7740   -1.7470 C   0  0  0  0  0
  -19.6580    6.5630   -0.9250 C   0  0  0  0  0
  -20.3930    5.6140    0.0290 C   0  0  0  0  0
  -18.1720    6.7050   -0.5910 C   0  0  0  0  0
  -17.5720    7.7270   -1.5630 C   0  0  0  0  0
  -15.4440    8.2550   -0.2680 C   0  0  0  0  0
  -14.1110    8.1930   -0.6190 C   0  0  0  0  0
  -10.5380    8.9020    0.2990 C   0  0  0  0  0
  -18.2590    9.0900   -1.4590 C   0  0  0  0  0
  -11.8740    8.7590    3.6190 F   0  0  0  0  0
  -16.1540    7.8630   -1.3910 N   0  0  0  0  0
  -14.1000    7.7820   -1.9520 N   0  0  0  0  0
  -15.2800    7.5710   -2.3900 N   0  0  0  0  0
  -20.2820    7.8680   -0.8000 O   0  0  0  0  0
  -21.7390    5.4760   -0.3400 O   0  0  0  0  0
  -18.0020    7.0960    0.7120 O   0  0  0  0  0
  -17.7800    9.8850   -2.5160 O   0  0  0  0  0
  -20.7380   10.2540   -1.7430 S   0  0  0  0  0
  -13.8952    8.3366    2.1030 H   0  0  0  0  0
   -9.6914    9.1387    2.2830 H   0  0  0  0  0
  -11.6187    8.6387   -1.5273 H   0  0  0  0  0
  -24.8911    8.3975   -6.4619 H   0  0  0  0  0
  -26.0586    8.4428   -5.1181 H   0  0  0  0  0
  -25.7009    9.9255   -6.0371 H   0  0  0  0  0
  -23.7239    7.2850   -4.2421 H   0  0  0  0  0
  -21.9200    7.7870   -2.6651 H   0  0  0  0  0
  -24.3231   11.4522   -4.8739 H   0  0  0  0  0
  -22.5093   11.9601   -3.3145 H   0  0  0  0  0
  -19.7275    8.3163   -2.7362 H   0  0  0  0  0
  -19.7259    6.1570   -1.9343 H   0  0  0  0  0
  -20.3466    6.0256    1.0372 H   0  0  0  0  0
  -19.9158    4.6350   -0.0142 H   0  0  0  0  0
  -17.6636    5.7470   -0.7002 H   0  0  0  0  0
  -17.7521    7.3382   -2.5652 H   0  0  0  0  0
  -15.8549    8.5521    0.6969 H   0  0  0  0  0
   -9.5879    9.0454   -0.2156 H   0  0  0  0  0
  -18.0979    9.5937   -0.5059 H   0  0  0  0  0
  -22.1774    4.8787    0.2704 H   0  0  0  0  0
  -17.0643    7.1789    0.9003 H   0  0  0  0  0
  -16.8573   10.0997   -2.3607 H   0  0  0  0  0
  1  2  4  0  0  0
  1  5  4  0  0  0
 19  1  1  0  0  0
  2  3  4  0  0  0
  3  4  4  0  0  0
  3 22  1  0  0  0
 20  4  4  0  0  0
  5 20  4  0  0  0
  7  6  1  0  0  0
  8  7  4  0  0  0
 10  7  4  0  0  0
  9  8  4  0  0  0
 12  9  4  0  0  0
 11 10  4  0  0  0
 12 11  4  0  0  0
 30 12  1  0  0  0
 21 13  1  0  0  0
 13 26  1  0  0  0
 13 30  1  0  0  0
 14 15  1  0  0  0
 16 14  1  0  0  0
 14 26  1  0  0  0
 15 27  1  0  0  0
 17 16  1  0  0  0
 16 28  1  0  0  0
 17 21  1  0  0  0
 23 17  1  0  0  0
 18 19  4  0  0  0
 18 23  4  0  0  0
 19 24  4  0  0  0
 21 29  1  0  0  0
 23 25  4  0  0  0
 24 25  4  0  0  0
  2 31  1  0  0  0
  4 32  1  0  0  0
  5 33  1  0  0  0
  6 34  1  0  0  0
  6 35  1  0  0  0
  6 36  1  0  0  0
  8 37  1  0  0  0
  9 38  1  0  0  0
 10 39  1  0  0  0
 11 40  1  0  0  0
 13 41  1  0  0  0
 14 42  1  0  0  0
 15 43  1  0  0  0
 15 44  1  0  0  0
 16 45  1  0  0  0
 17 46  1  0  0  0
 18 47  1  0  0  0
 20 48  1  0  0  0
 21 49  1  0  0  0
 27 50  1  0  0  0
 28 51  1  0  0  0
 29 52  1  0  0  0
M  END
$$$$
