### 
### Created by X-TOOL on Mon Aug  2 16:16:27 2021
### 

@<TRIPOS>MOLECULE
6q9t_ligand
  357   380     1     0     0
SMALL
GAST_HUCK


@<TRIPOS>ATOM
      1 O1         35.6390   84.3870  -27.2450 O.2       1 MOL        -0.3886
      2 C2         36.1370   84.1340  -26.1470 C.2       1 MOL         0.2913
      3 C4         35.4490   86.3370  -25.2070 C.3       1 MOL         0.0320
      4 C5         35.4640   86.9900  -23.8230 C.3       1 MOL        -0.0305
      5 C6         34.7670   88.3850  -23.8740 C.3       1 MOL        -0.0233
      6 C7         33.2820   88.2360  -23.6190 C.3       1 MOL         0.0703
      7 C8         31.5300   87.9250  -25.2520 C.ar      1 MOL         0.0845
      8 C9         30.5390   87.3500  -24.5370 C.ar      1 MOL        -0.0401
      9 N3         36.1220   85.0330  -25.1140 N.am      1 MOL        -0.2671
     10 O7         32.7980   88.1850  -24.9040 O.3       1 MOL        -0.3198
     11 C13        31.3080   88.2850  -26.5480 C.ar      1 MOL        -0.0303
     12 C10        29.3030   87.1730  -25.1990 C.ar      1 MOL        -0.0771
     13 C11        29.0800   87.5400  -26.5370 C.ar      1 MOL        -0.0695
     14 C12        30.1360   88.1410  -27.2060 C.ar      1 MOL        -0.0300
     15 C14        30.2170   88.5940  -28.5000 C.3       1 MOL         0.0616
     16 N15        28.9680   88.7810  -29.2020 N.am      1 MOL        -0.2750
     17 C16        28.1370   89.7860  -28.8960 C.2       1 MOL         0.2068
     18 O17        28.3240   90.5720  -27.9530 O.2       1 MOL        -0.3845
     19 C18        27.0010   89.9150  -29.6940 C.ar      1 MOL         0.0501
     20 C19        26.5750   89.0070  -30.6320 C.ar      1 MOL        -0.0401
     21 C20        25.4110   89.2330  -31.3530 C.ar      1 MOL        -0.0295
     22 C21        24.6710   90.3830  -31.1820 C.ar      1 MOL         0.1122
     23 S24        23.2810   90.7150  -32.0690 S.o2      1 MOL         0.0677
     24 O27        22.7970   92.1390  -31.7830 O.2       1 MOL        -0.1499
     25 O25        22.1780   89.6730  -31.9740 O.2       1 MOL        -0.1499
     26 N26        23.7660   90.5080  -33.6290 N.am      1 MOL        -0.2605
     27 C22        25.1090   91.2920  -30.2810 C.ar      1 MOL        -0.0295
     28 C23        26.2470   91.0490  -29.5250 C.ar      1 MOL        -0.0401
     29 C2         37.0510   82.0100  -26.7630 C.ar      1 MOL         0.0933
     30 C3         36.8750   82.0330  -28.1710 C.ar      1 MOL        -0.0395
     31 C4         37.3560   80.9370  -28.8850 C.ar      1 MOL        -0.0772
     32 C5         38.0040   79.8740  -28.2300 C.ar      1 MOL        -0.0642
     33 C6         38.1540   79.8730  -26.8570 C.ar      1 MOL         0.0315
     34 C8         38.7780   78.8250  -26.1650 C.ar      1 MOL         0.1209
     35 C9         38.9360   78.8670  -24.7670 C.ar      1 MOL         0.0087
     36 C10        38.4550   79.9870  -24.0960 C.ar      1 MOL         0.1027
     37 O          39.2280   79.2240  -22.0690 O.2       1 MOL        -0.3788
     38 C          38.5510   80.0350  -22.7120 C.2       1 MOL         0.2212
     39 N11        37.8330   80.9870  -24.7890 N.ar      1 MOL        -0.2949
     40 C7         37.6960   80.9410  -26.1210 C.ar      1 MOL         0.0712
     41 N          36.6910   82.9410  -25.8650 N.am      1 MOL        -0.2130
     42 OB         39.2660   77.7770  -26.9140 O.3       1 MOL        -0.3035
     43 CG         38.8870   76.4270  -26.4740 C.3       1 MOL         0.0776
     44 CD         40.0260   75.5560  -26.9230 C.3       1 MOL        -0.0180
     45 CE2        40.2030   75.7240  -28.4500 C.3       1 MOL        -0.0602
     46 CE1        39.6800   74.1180  -26.5100 C.3       1 MOL        -0.0602
     47 O          33.0340   84.6500  -21.9930 O.2       1 MOL        -0.3653
     48 C          33.8330   83.7220  -22.1590 C.2       1 MOL         0.2529
     49 C10        34.7790   83.4060  -21.1670 C.ar      1 MOL         0.1207
     50 N11        35.7980   82.5130  -21.4250 N.ar      1 MOL        -0.2756
     51 C9         34.7070   84.0610  -19.9340 C.ar      1 MOL        -0.0207
     52 C8         35.6320   83.7330  -18.9830 C.ar      1 MOL        -0.0434
     53 C6         36.6110   82.7830  -19.2600 C.ar      1 MOL        -0.0264
     54 C7         36.6800   82.1440  -20.4900 C.ar      1 MOL         0.0553
     55 C2         37.6970   81.1790  -20.6790 C.3       1 MOL         0.0805
     56 N          37.8070   80.9910  -22.1390 N.am      1 MOL        -0.2705
     57 OB         32.5390   81.1840  -28.7260 O.3       1 MOL        -0.3188
     58 C8         33.1080   81.0350  -27.4860 C.ar      1 MOL         0.1175
     59 C9         33.8560   79.9080  -27.0980 C.ar      1 MOL         0.0090
     60 C10        34.3590   79.8700  -25.8050 C.ar      1 MOL         0.1097
     61 C          35.0790   78.7720  -25.2710 C.2       1 MOL         0.2504
     62 O          35.5830   77.8900  -25.9870 O.2       1 MOL        -0.3653
     63 N11        34.1340   80.9340  -24.9780 N.ar      1 MOL        -0.2944
     64 C7         33.4150   82.0260  -25.3300 C.ar      1 MOL         0.0714
     65 C6         32.8890   82.0880  -26.6170 C.ar      1 MOL         0.0315
     66 C5         32.1420   83.1720  -27.0270 C.ar      1 MOL        -0.0639
     67 C4         31.9510   84.1850  -26.1010 C.ar      1 MOL        -0.0768
     68 C3         32.4790   84.1680  -24.8110 C.ar      1 MOL        -0.0390
     69 C2         33.1810   83.0430  -24.4080 C.ar      1 MOL         0.0930
     70 N          33.8430   82.9130  -23.2480 N.am      1 MOL        -0.2247
     71 O          33.5080   80.8750  -18.5770 O.2       1 MOL        -0.3788
     72 C          33.5730   80.3710  -19.7390 C.2       1 MOL         0.2213
     73 C10        34.5390   79.3580  -20.0620 C.ar      1 MOL         0.1028
     74 N11        34.8400   79.0790  -21.3530 N.ar      1 MOL        -0.2948
     75 C7         35.6760   78.1330  -21.7480 C.ar      1 MOL         0.0715
     76 C2         35.8540   77.9320  -23.1040 C.ar      1 MOL         0.0930
     77 N          35.1440   78.7570  -23.9070 N.am      1 MOL        -0.2248
     78 C9         35.2090   78.6530  -19.0800 C.ar      1 MOL         0.0087
     79 C8         36.0720   77.6170  -19.4680 C.ar      1 MOL         0.1210
     80 C6         36.2340   77.3420  -20.8110 C.ar      1 MOL         0.0317
     81 C5         37.0680   76.3220  -21.2390 C.ar      1 MOL        -0.0639
     82 C4         37.2590   76.0780  -22.6000 C.ar      1 MOL        -0.0768
     83 C3         36.6210   76.9000  -23.5390 C.ar      1 MOL        -0.0390
     84 OB         36.6800   76.8410  -18.5220 O.3       1 MOL        -0.3035
     85 CG         36.3840   77.0410  -17.0750 C.3       1 MOL         0.0801
     86 CD         37.1000   76.0630  -16.1440 C.3       1 MOL         0.0160
     87 CE         38.1220   75.2830  -16.9770 C.3       1 MOL        -0.0328
     88 N1         37.5830   73.9480  -17.2940 N.4       1 MOL         0.2186
     89 O          30.1900   79.8560  -26.0470 O.2       1 MOL        -0.3653
     90 C          30.6950   79.8160  -24.9000 C.2       1 MOL         0.2529
     91 C10        30.4860   80.8800  -23.9490 C.ar      1 MOL         0.1207
     92 N11        31.0980   80.8100  -22.7240 N.ar      1 MOL        -0.2756
     93 C9         29.6980   82.0430  -24.2220 C.ar      1 MOL        -0.0207
     94 C8         29.5260   83.0690  -23.2670 C.ar      1 MOL        -0.0434
     95 C6         30.1700   82.9280  -22.0220 C.ar      1 MOL        -0.0264
     96 C7         30.9790   81.7980  -21.7680 C.ar      1 MOL         0.0553
     97 C2         31.6020   81.6950  -20.5520 C.3       1 MOL         0.0805
     98 N          32.6930   80.6920  -20.7190 N.am      1 MOL        -0.2705
     99 O          33.5660   75.5440  -19.8520 O.2       1 MOL        -0.3788
    100 C          32.9370   76.1850  -20.6650 C.2       1 MOL         0.2213
    101 C10        33.0160   75.9680  -22.0520 C.ar      1 MOL         0.1028
    102 N11        32.5090   76.8830  -22.9100 N.ar      1 MOL        -0.2948
    103 C7         32.5420   76.6930  -24.2350 C.ar      1 MOL         0.0715
    104 C2         31.9390   77.6300  -25.0880 C.ar      1 MOL         0.0930
    105 N          31.4600   78.7530  -24.4160 N.am      1 MOL        -0.2247
    106 C9         33.5670   74.8010  -22.5430 C.ar      1 MOL         0.0089
    107 C8         33.6110   74.6080  -23.9050 C.ar      1 MOL         0.1233
    108 OB         34.1050   73.4940  -24.4380 O.3       1 MOL        -0.2897
    109 CG         35.4920   73.5880  -24.5220 C.3       1 MOL         0.1274
    110 CD         35.8870   72.2570  -23.9020 C.2       1 MOL         0.0662
    111 OE2        34.9590   71.3880  -23.8670 O.co2     1 MOL        -0.5662
    112 OE1        37.1030   72.1490  -23.4510 O.co2     1 MOL        -0.5662
    113 C6         33.1170   75.5410  -24.7770 C.ar      1 MOL         0.0319
    114 C5         33.1050   75.3610  -26.1600 C.ar      1 MOL        -0.0639
    115 C4         32.5260   76.2970  -27.0240 C.ar      1 MOL        -0.0768
    116 C3         31.9630   77.4330  -26.4750 C.ar      1 MOL        -0.0390
    117 O          27.4630   80.6430  -21.7120 O.2       1 MOL        -0.3789
    118 C          28.2290   79.6800  -21.5230 C.2       1 MOL         0.2238
    119 C10        28.9410   79.5360  -20.2950 C.ar      1 MOL         0.1138
    120 N11        30.0360   78.7080  -20.1860 N.ar      1 MOL        -0.2760
    121 C9         28.4750   80.2080  -19.1320 C.ar      1 MOL        -0.0212
    122 C8         29.1130   80.0510  -17.9230 C.ar      1 MOL        -0.0433
    123 C6         30.2020   79.1780  -17.8860 C.ar      1 MOL        -0.0263
    124 C7         30.6650   78.4920  -19.0120 C.ar      1 MOL         0.0554
    125 C2         31.7600   77.6240  -18.9120 C.3       1 MOL         0.0805
    126 N          32.0490   77.1830  -20.3010 N.am      1 MOL        -0.2705
    127 O          30.4970   73.4280  -23.6010 O.2       1 MOL        -0.3653
    128 C          29.9140   74.4090  -23.1840 C.2       1 MOL         0.2529
    129 C10        29.4050   75.2740  -24.0820 C.ar      1 MOL         0.1207
    130 N11        28.8800   76.4160  -23.5680 N.ar      1 MOL        -0.2756
    131 C9         29.4570   75.0420  -25.4710 C.ar      1 MOL        -0.0207
    132 C8         28.8300   75.9940  -26.3380 C.ar      1 MOL        -0.0434
    133 C6         28.2080   77.1840  -25.7660 C.ar      1 MOL        -0.0264
    134 C7         28.2330   77.3740  -24.3560 C.ar      1 MOL         0.0553
    135 C2         27.7250   78.5290  -23.7600 C.3       1 MOL         0.0805
    136 N          28.3960   78.6710  -22.4200 N.am      1 MOL        -0.2704
    137 OB         30.4800   73.8080  -16.0240 O.3       1 MOL        -0.3188
    138 C8         29.9530   74.4130  -17.1440 C.ar      1 MOL         0.1175
    139 C9         28.9820   75.3980  -17.0500 C.ar      1 MOL         0.0085
    140 C10        28.5110   75.9420  -18.2030 C.ar      1 MOL         0.1028
    141 C          27.5150   76.9660  -18.3060 C.2       1 MOL         0.2213
    142 O          27.1880   77.7060  -17.3680 O.2       1 MOL        -0.3788
    143 N11        29.0330   75.4860  -19.3440 N.ar      1 MOL        -0.2948
    144 C7         29.9200   74.4790  -19.5040 C.ar      1 MOL         0.0715
    145 C6         30.4050   73.9190  -18.3730 C.ar      1 MOL         0.0315
    146 C5         31.3370   72.8960  -18.4860 C.ar      1 MOL        -0.0639
    147 C4         31.7880   72.4520  -19.7370 C.ar      1 MOL        -0.0768
    148 C3         31.2960   73.0100  -20.9060 C.ar      1 MOL        -0.0390
    149 C2         30.3280   74.0190  -20.8000 C.ar      1 MOL         0.0930
    150 N          29.7950   74.7120  -21.8770 N.am      1 MOL        -0.2247
    151 O          25.2400   74.8390  -24.8030 O.2       1 MOL        -0.3650
    152 C          25.5080   75.0110  -23.5820 C.2       1 MOL         0.2534
    153 C10        25.1130   76.2520  -22.9440 C.ar      1 MOL         0.1208
    154 N11        25.6160   76.6090  -21.7320 N.ar      1 MOL        -0.2756
    155 C9         24.2920   77.2120  -23.5570 C.ar      1 MOL        -0.0207
    156 C8         23.9820   78.4170  -22.8930 C.ar      1 MOL        -0.0434
    157 C6         24.5130   78.6910  -21.6390 C.ar      1 MOL        -0.0264
    158 C7         25.3650   77.7630  -21.0740 C.ar      1 MOL         0.0553
    159 C2         25.8710   78.0350  -19.8130 C.3       1 MOL         0.0805
    160 N          26.9450   77.0710  -19.5140 N.am      1 MOL        -0.2705
    161 OD1        31.0950   69.3900  -22.3430 O.co2     1 MOL        -0.5658
    162 CG         30.6340   69.3150  -21.1850 C.2       1 MOL         0.0493
    163 OD2        31.3540   69.2850  -20.1610 O.co2     1 MOL        -0.5658
    164 CB         29.1550   69.0550  -21.0730 C.3       1 MOL         0.0422
    165 C8         28.4710   70.3040  -21.0800 C.ar      1 MOL        -0.0040
    166 C9         28.1460   70.8820  -19.8410 C.ar      1 MOL        -0.0164
    167 C10        27.4630   72.1090  -19.7660 C.ar      1 MOL         0.1077
    168 C          27.1110   72.7630  -18.5520 C.2       1 MOL         0.2228
    169 O          27.5750   72.3880  -17.4640 O.2       1 MOL        -0.3788
    170 N11        27.0990   72.7050  -20.8920 N.ar      1 MOL        -0.2865
    171 C7         27.3280   72.2230  -22.0970 C.ar      1 MOL         0.0749
    172 C6         28.0330   71.0090  -22.2480 C.ar      1 MOL         0.0034
    173 C5         28.2530   70.5670  -23.5440 C.ar      1 MOL        -0.0655
    174 C4         27.7860   71.3070  -24.6030 C.ar      1 MOL        -0.0761
    175 C3         27.0860   72.5140  -24.4460 C.ar      1 MOL        -0.0379
    176 C2         26.8130   72.9660  -23.1620 C.ar      1 MOL         0.0952
    177 N          26.2130   74.1440  -22.7990 N.am      1 MOL        -0.2239
    178 O          21.9200   76.6340  -21.7490 O.2       1 MOL        -0.3653
    179 C          22.4530   75.7080  -21.0800 C.2       1 MOL         0.2529
    180 C10        22.9100   75.9100  -19.7290 C.ar      1 MOL         0.1207
    181 N11        24.0160   75.2170  -19.3080 N.ar      1 MOL        -0.2756
    182 C9         22.2510   76.7820  -18.8420 C.ar      1 MOL        -0.0207
    183 C8         22.7350   76.9120  -17.5480 C.ar      1 MOL        -0.0434
    184 C6         23.8540   76.1800  -17.1940 C.ar      1 MOL        -0.0264
    185 C7         24.5070   75.3210  -18.0630 C.ar      1 MOL         0.0553
    186 C2         25.6130   74.6010  -17.5920 C.3       1 MOL         0.0805
    187 N          26.2700   73.7790  -18.6830 N.am      1 MOL        -0.2704
    188 O          25.5170   69.2570  -21.0920 O.2       1 MOL        -0.3654
    189 C          24.8010   70.2300  -20.9220 C.2       1 MOL         0.2501
    190 C10        24.2250   70.8730  -21.9980 C.ar      1 MOL         0.1097
    191 N11        23.6400   72.0920  -21.8750 N.ar      1 MOL        -0.2945
    192 C7         22.9170   72.6870  -22.9050 C.ar      1 MOL         0.0714
    193 C2         22.3620   73.9660  -22.7460 C.ar      1 MOL         0.0930
    194 N          22.6110   74.4340  -21.5230 N.am      1 MOL        -0.2247
    195 C9         24.1240   70.2310  -23.2110 C.ar      1 MOL         0.0094
    196 C8         23.4620   70.8330  -24.2810 C.ar      1 MOL         0.1232
    197 OB         23.2160   70.2500  -25.4650 O.3       1 MOL        -0.2897
    198 CG         24.3850   69.6290  -26.0860 C.3       1 MOL         0.1274
    199 CD         23.8080   68.8590  -27.3850 C.2       1 MOL         0.0662
    200 OE2        24.7060   68.2340  -28.0130 O.co2     1 MOL        -0.5662
    201 OE1        22.5190   68.8130  -27.6270 O.co2     1 MOL        -0.5662
    202 C6         22.8010   72.0670  -24.1460 C.ar      1 MOL         0.0319
    203 C5         22.1510   72.6930  -25.2520 C.ar      1 MOL        -0.0639
    204 C4         21.6080   73.9850  -25.0850 C.ar      1 MOL        -0.0768
    205 C3         21.7290   74.6320  -23.8270 C.ar      1 MOL        -0.0390
    206 O          20.6920   73.2090  -18.2610 O.co2     1 MOL        -0.5572
    207 C          21.4100   73.3900  -17.2690 C.2       1 MOL         0.0764
    208 C10        22.4520   72.5380  -16.8540 C.ar      1 MOL         0.0629
    209 N11        23.2020   71.8750  -17.7630 N.ar      1 MOL        -0.3011
    210 C7         24.1340   70.9450  -17.4610 C.ar      1 MOL         0.0692
    211 C2         24.8110   70.2800  -18.4850 C.ar      1 MOL         0.0919
    212 N          24.4390   70.7070  -19.7140 N.am      1 MOL        -0.2253
    213 C9         22.6840   72.2750  -15.5120 C.ar      1 MOL         0.0039
    214 C8         23.6690   71.3270  -15.1570 C.ar      1 MOL         0.1201
    215 C6         24.3890   70.6360  -16.1370 C.ar      1 MOL         0.0307
    216 C5         25.3220   69.6020  -15.8420 C.ar      1 MOL        -0.0645
    217 C4         26.0120   68.9560  -16.8560 C.ar      1 MOL        -0.0773
    218 C3         25.7700   69.2950  -18.1890 C.ar      1 MOL        -0.0396
    219 OB         23.9540   70.9790  -13.8580 O.3       1 MOL        -0.3036
    220 CG         22.9970   71.4470  -12.7230 C.3       1 MOL         0.0802
    221 CD         23.4880   70.9010  -11.3570 C.3       1 MOL         0.0160
    222 CE         24.8360   70.1690  -11.5000 C.3       1 MOL        -0.0328
    223 OXT        21.1890   74.4600  -16.6430 O.co2     1 MOL        -0.5572
    224 N1         25.8090   71.0540  -12.1530 N.4       1 MOL         0.2186
    225 H1         35.9800   86.9783  -25.9258 H         1 MOL         0.0518
    226 H2         34.4101   86.1956  -25.5395 H         1 MOL         0.0518
    227 H3         36.5056   87.1169  -23.4930 H         1 MOL         0.0285
    228 H4         34.9299   86.3435  -23.1111 H         1 MOL         0.0285
    229 H5         34.9222   88.8329  -24.8666 H         1 MOL         0.0292
    230 H6         35.2042   89.0382  -23.1045 H         1 MOL         0.0292
    231 H7         32.8781   89.0990  -23.0694 H         1 MOL         0.0614
    232 H8         33.0580   87.3117  -23.0662 H         1 MOL         0.0614
    233 H9         30.6841   87.0402  -23.5084 H         1 MOL         0.0486
    234 H10        36.5875   84.7929  -24.2621 H         1 MOL         0.1853
    235 H11        32.1367   88.7212  -27.0939 H         1 MOL         0.0479
    236 H12        28.4831   86.7304  -24.6450 H         1 MOL         0.0572
    237 H13        28.1277   87.3618  -27.0233 H         1 MOL         0.0465
    238 H14        30.8143   87.8676  -29.0706 H         1 MOL         0.0681
    239 H15        30.7373   89.5630  -28.4819 H         1 MOL         0.0681
    240 H16        28.7183   88.1457  -29.9328 H         1 MOL         0.1872
    241 H17        27.1523   88.1070  -30.8106 H         1 MOL         0.0670
    242 H18        25.0764   88.4886  -32.0664 H         1 MOL         0.0649
    243 H19        23.1170   90.6467  -34.3770 H         1 MOL         0.1635
    244 H20        24.7096   90.2435  -33.8284 H         1 MOL         0.1635
    245 H21        24.5652   92.2202  -30.1481 H         1 MOL         0.0649
    246 H22        26.5490   91.7758  -28.7796 H         1 MOL         0.0670
    247 H23        36.3889   82.8646  -28.6682 H         1 MOL         0.0474
    248 H24        37.2289   80.9032  -29.9610 H         1 MOL         0.0572
    249 H25        38.3908   79.0444  -28.8107 H         1 MOL         0.0480
    250 H26        39.4155   78.0553  -24.2319 H         1 MOL         0.0605
    251 H27        36.8488   82.7286  -24.9006 H         1 MOL         0.2309
    252 H28        37.9457   76.1126  -26.9484 H         1 MOL         0.0626
    253 H29        38.7764   76.3905  -25.3802 H         1 MOL         0.0626
    254 H30        40.9561   75.8618  -26.4216 H         1 MOL         0.0322
    255 H31        41.0345   75.0916  -28.7945 H         1 MOL         0.0233
    256 H32        40.4235   76.7768  -28.6800 H         1 MOL         0.0233
    257 H33        39.2770   75.4230  -28.9618 H         1 MOL         0.0233
    258 H34        39.5682   74.0673  -25.4169 H         1 MOL         0.0233
    259 H35        40.4867   73.4410  -26.8278 H         1 MOL         0.0233
    260 H36        38.7373   73.8156  -26.9894 H         1 MOL         0.0233
    261 H37        33.9427   84.8045  -19.7387 H         1 MOL         0.0705
    262 H38        35.6033   84.2133  -18.0116 H         1 MOL         0.0729
    263 H39        37.3383   82.5359  -18.4951 H         1 MOL         0.0685
    264 H40        37.4224   80.2324  -20.1906 H         1 MOL         0.0714
    265 H41        38.6502   81.5413  -20.2666 H         1 MOL         0.0714
    266 H42        37.2974   81.6123  -22.7342 H         1 MOL         0.1878
    267 H43        32.0837   82.0168  -28.7663 H         1 MOL         0.2560
    268 H44        34.0343   79.0925  -27.7895 H         1 MOL         0.0605
    269 H45        31.7243   83.2290  -28.0257 H         1 MOL         0.0482
    270 H46        31.3559   85.0412  -26.3972 H         1 MOL         0.0572
    271 H47        32.3444   85.0105  -24.1423 H         1 MOL         0.0477
    272 H48        34.4270   82.1044  -23.1760 H         1 MOL         0.2309
    273 H49        34.5931   79.4483  -23.4394 H         1 MOL         0.2309
    274 H50        35.0707   78.8953  -18.0325 H         1 MOL         0.0605
    275 H51        37.5786   75.7057  -20.5079 H         1 MOL         0.0482
    276 H52        37.8935   75.2622  -22.9270 H         1 MOL         0.0573
    277 H53        36.7387   76.7137  -24.6004 H         1 MOL         0.0477
    278 H54        35.3001   76.9268  -16.9264 H         1 MOL         0.0626
    279 H55        36.6863   78.0622  -16.7997 H         1 MOL         0.0626
    280 H56        36.3718   75.3685  -15.6998 H         1 MOL         0.0344
    281 H57        37.6140   76.6164  -15.3443 H         1 MOL         0.0344
    282 H58        39.0552   75.1750  -16.4048 H         1 MOL         0.0814
    283 H59        38.3254   75.8273  -17.9110 H         1 MOL         0.0814
    284 H60        38.2560   73.4354  -17.8421 H         1 MOL         0.1994
    285 H61        36.7279   74.0467  -17.8185 H         1 MOL         0.1994
    286 H62        37.3966   73.4490  -16.4383 H         1 MOL         0.1994
    287 H63        29.2193   82.1391  -25.1898 H         1 MOL         0.0705
    288 H64        28.9169   83.9387  -23.4853 H         1 MOL         0.0729
    289 H65        30.0447   83.6871  -21.2584 H         1 MOL         0.0685
    290 H66        30.8882   81.3562  -19.7867 H         1 MOL         0.0714
    291 H67        32.0221   82.6677  -20.2566 H         1 MOL         0.0714
    292 H68        32.7802   80.2311  -21.6021 H         1 MOL         0.1878
    293 H69        31.6989   78.8050  -23.4463 H         1 MOL         0.2309
    294 H70        33.9584   74.0494  -21.8670 H         1 MOL         0.0605
    295 H71        35.8790   74.4389  -23.9422 H         1 MOL         0.0795
    296 H72        35.8329   73.6694  -25.5647 H         1 MOL         0.0795
    297 H73        33.5578   74.4692  -26.5781 H         1 MOL         0.0482
    298 H74        32.5193   76.1351  -28.0958 H         1 MOL         0.0573
    299 H75        31.5329   78.1840  -27.1278 H         1 MOL         0.0477
    300 H76        27.6059   80.8524  -19.1986 H         1 MOL         0.0705
    301 H77        28.7842   80.5824  -17.0372 H         1 MOL         0.0729
    302 H78        30.7113   79.0255  -16.9413 H         1 MOL         0.0685
    303 H79        31.5085   76.7600  -18.2794 H         1 MOL         0.0714
    304 H80        32.6284   78.1489  -18.4874 H         1 MOL         0.0714
    305 H81        31.5588   77.6481  -21.0382 H         1 MOL         0.1878
    306 H82        29.9573   74.1679  -25.8718 H         1 MOL         0.0705
    307 H83        28.8175   75.8321  -27.4098 H         1 MOL         0.0729
    308 H84        27.7319   77.9156  -26.4087 H         1 MOL         0.0685
    309 H85        26.6367   78.4378  -23.6286 H         1 MOL         0.0714
    310 H86        27.9465   79.4052  -24.3870 H         1 MOL         0.0714
    311 H87        29.0334   77.9452  -22.1613 H         1 MOL         0.1878
    312 H88        31.1267   73.1641  -16.2880 H         1 MOL         0.2560
    313 H89        28.6096   75.7245  -16.0858 H         1 MOL         0.0605
    314 H90        31.7245   72.4303  -17.5871 H         1 MOL         0.0482
    315 H91        32.5299   71.6634  -19.7903 H         1 MOL         0.0573
    316 H92        31.6493   72.6760  -21.8749 H         1 MOL         0.0477
    317 H93        29.2619   75.5293  -21.6582 H         1 MOL         0.2309
    318 H94        23.8936   77.0256  -24.5477 H         1 MOL         0.0705
    319 H95        23.3230   79.1363  -23.3658 H         1 MOL         0.0729
    320 H96        24.2651   79.6087  -21.1180 H         1 MOL         0.0685
    321 H97        25.0702   77.9400  -19.0649 H         1 MOL         0.0714
    322 H98        26.2752   79.0578  -19.7896 H         1 MOL         0.0714
    323 H99        27.2627   76.4680  -20.2458 H         1 MOL         0.1878
    324 H100       28.9427   68.5218  -20.1346 H         1 MOL         0.0625
    325 H101       28.8206   68.4449  -21.9251 H         1 MOL         0.0625
    326 H102       28.4269   70.3727  -18.9263 H         1 MOL         0.0637
    327 H103       28.7907   69.6424  -23.7204 H         1 MOL         0.0478
    328 H104       27.9665   70.9418  -25.6075 H         1 MOL         0.0582
    329 H105       26.7647   73.0824  -25.3113 H         1 MOL         0.0478
    330 H106       26.3037   74.4008  -21.8368 H         1 MOL         0.2315
    331 H107       21.3806   77.3422  -19.1641 H         1 MOL         0.0705
    332 H108       22.2499   77.5686  -16.8348 H         1 MOL         0.0729
    333 H109       24.2393   76.2836  -16.1861 H         1 MOL         0.0685
    334 H110       25.2800   73.9245  -16.7911 H         1 MOL         0.0714
    335 H111       26.3516   75.3099  -17.1897 H         1 MOL         0.0714
    336 H112       26.0395   74.0361  -19.6215 H         1 MOL         0.1878
    337 H113       22.9529   73.7719  -20.8561 H         1 MOL         0.2309
    338 H114       24.5632   69.2479  -23.3362 H         1 MOL         0.0605
    339 H115       24.8588   68.9177  -25.3935 H         1 MOL         0.0795
    340 H116       25.1172   70.3941  -26.3835 H         1 MOL         0.0795
    341 H117       22.0756   72.1837  -26.2059 H         1 MOL         0.0482
    342 H118       21.1040   74.4780  -25.9084 H         1 MOL         0.0572
    343 H119       21.3380   75.6341  -23.6926 H         1 MOL         0.0477
    344 H120       23.8088   71.4833  -19.7282 H         1 MOL         0.2306
    345 H121       22.1166   72.7904  -14.7455 H         1 MOL         0.0595
    346 H122       25.4951   69.3161  -14.8108 H         1 MOL         0.0481
    347 H123       26.7386   68.1886  -16.6145 H         1 MOL         0.0568
    348 H124       26.3155   68.8042  -18.9869 H         1 MOL         0.0476
    349 H125       21.9831   71.0701  -12.9228 H         1 MOL         0.0626
    350 H126       22.9799   72.5464  -12.6910 H         1 MOL         0.0626
    351 H127       22.7391   70.1991  -10.9613 H         1 MOL         0.0344
    352 H128       23.6088   71.7413  -10.6575 H         1 MOL         0.0344
    353 H129       24.6983   69.2634  -12.1090 H         1 MOL         0.0814
    354 H130       25.2077   69.8879  -10.5036 H         1 MOL         0.0814
    355 H131       26.6904   70.5739  -12.2459 H         1 MOL         0.1994
    356 H132       25.9357   71.8839  -11.5951 H         1 MOL         0.1994
    357 H133       25.4689   71.3117  -13.0662 H         1 MOL         0.1994
@<TRIPOS>BOND
     1    2    1 2  
     2    2    9 am 
     3   41    2 am 
     4    3    4 1  
     5    9    3 1  
     6    4    5 1  
     7    5    6 1  
     8    6   10 1  
     9    7    8 ar 
    10   10    7 1  
    11    7   11 ar 
    12    8   12 ar 
    13   11   14 ar 
    14   12   13 ar 
    15   14   13 ar 
    16   14   15 1  
    17   15   16 1  
    18   16   17 am 
    19   17   18 2  
    20   17   19 1  
    21   19   20 ar 
    22   19   28 ar 
    23   20   21 ar 
    24   21   22 ar 
    25   22   23 1  
    26   27   22 ar 
    27   23   24 2  
    28   23   25 2  
    29   23   26 am 
    30   28   27 ar 
    31   29   30 ar 
    32   40   29 ar 
    33   29   41 1  
    34   30   31 ar 
    35   32   31 ar 
    36   33   32 ar 
    37   34   33 ar 
    38   40   33 ar 
    39   35   34 ar 
    40   34   42 1  
    41   36   35 ar 
    42   38   36 1  
    43   36   39 ar 
    44   38   37 2  
    45   56   38 am 
    46   39   40 ar 
    47   42   43 1  
    48   43   44 1  
    49   44   45 1  
    50   44   46 1  
    51   48   47 2  
    52   48   49 1  
    53   70   48 am 
    54   49   50 ar 
    55   49   51 ar 
    56   50   54 ar 
    57   51   52 ar 
    58   52   53 ar 
    59   54   53 ar 
    60   54   55 1  
    61   55   56 1  
    62   58   57 1  
    63   59   58 ar 
    64   58   65 ar 
    65   60   59 ar 
    66   61   60 1  
    67   60   63 ar 
    68   61   62 2  
    69   77   61 am 
    70   63   64 ar 
    71   64   65 ar 
    72   64   69 ar 
    73   65   66 ar 
    74   66   67 ar 
    75   68   67 ar 
    76   69   68 ar 
    77   69   70 1  
    78   72   71 2  
    79   72   73 1  
    80   98   72 am 
    81   73   74 ar 
    82   73   78 ar 
    83   74   75 ar 
    84   75   76 ar 
    85   75   80 ar 
    86   76   77 1  
    87   76   83 ar 
    88   78   79 ar 
    89   79   80 ar 
    90   79   84 1  
    91   80   81 ar 
    92   81   82 ar 
    93   83   82 ar 
    94   84   85 1  
    95   85   86 1  
    96   86   87 1  
    97   87   88 1  
    98   90   89 2  
    99   90   91 1  
   100  105   90 am 
   101   91   92 ar 
   102   91   93 ar 
   103   92   96 ar 
   104   93   94 ar 
   105   94   95 ar 
   106   96   95 ar 
   107   96   97 1  
   108   97   98 1  
   109  100   99 2  
   110  100  101 1  
   111  126  100 am 
   112  101  102 ar 
   113  101  106 ar 
   114  102  103 ar 
   115  103  104 ar 
   116  103  113 ar 
   117  104  105 1  
   118  104  116 ar 
   119  106  107 ar 
   120  107  108 1  
   121  107  113 ar 
   122  108  109 1  
   123  109  110 1  
   124  110  111 ar 
   125  110  112 ar 
   126  113  114 ar 
   127  114  115 ar 
   128  116  115 ar 
   129  118  117 2  
   130  118  119 1  
   131  136  118 am 
   132  119  120 ar 
   133  119  121 ar 
   134  120  124 ar 
   135  121  122 ar 
   136  122  123 ar 
   137  124  123 ar 
   138  124  125 1  
   139  125  126 1  
   140  128  127 2  
   141  128  129 1  
   142  150  128 am 
   143  129  130 ar 
   144  129  131 ar 
   145  130  134 ar 
   146  131  132 ar 
   147  132  133 ar 
   148  134  133 ar 
   149  134  135 1  
   150  135  136 1  
   151  138  137 1  
   152  139  138 ar 
   153  138  145 ar 
   154  140  139 ar 
   155  141  140 1  
   156  140  143 ar 
   157  141  142 2  
   158  160  141 am 
   159  143  144 ar 
   160  144  145 ar 
   161  144  149 ar 
   162  145  146 ar 
   163  146  147 ar 
   164  148  147 ar 
   165  149  148 ar 
   166  149  150 1  
   167  152  151 2  
   168  152  153 1  
   169  177  152 am 
   170  153  154 ar 
   171  153  155 ar 
   172  154  158 ar 
   173  155  156 ar 
   174  156  157 ar 
   175  158  157 ar 
   176  158  159 1  
   177  159  160 1  
   178  162  161 ar 
   179  162  163 ar 
   180  164  162 1  
   181  165  164 1  
   182  166  165 ar 
   183  165  172 ar 
   184  167  166 ar 
   185  168  167 1  
   186  167  170 ar 
   187  168  169 2  
   188  187  168 am 
   189  170  171 ar 
   190  171  172 ar 
   191  171  176 ar 
   192  172  173 ar 
   193  173  174 ar 
   194  175  174 ar 
   195  176  175 ar 
   196  176  177 1  
   197  179  178 2  
   198  179  180 1  
   199  194  179 am 
   200  180  181 ar 
   201  180  182 ar 
   202  181  185 ar 
   203  182  183 ar 
   204  183  184 ar 
   205  185  184 ar 
   206  185  186 1  
   207  186  187 1  
   208  189  188 2  
   209  189  190 1  
   210  212  189 am 
   211  190  191 ar 
   212  190  195 ar 
   213  191  192 ar 
   214  192  193 ar 
   215  192  202 ar 
   216  193  194 1  
   217  193  205 ar 
   218  195  196 ar 
   219  196  197 1  
   220  196  202 ar 
   221  197  198 1  
   222  198  199 1  
   223  199  200 ar 
   224  199  201 ar 
   225  202  203 ar 
   226  203  204 ar 
   227  205  204 ar 
   228  207  206 ar 
   229  208  207 1  
   230  207  223 ar 
   231  209  208 ar 
   232  208  213 ar 
   233  210  209 ar 
   234  211  210 ar 
   235  210  215 ar 
   236  211  212 1  
   237  211  218 ar 
   238  213  214 ar 
   239  214  215 ar 
   240  214  219 1  
   241  215  216 ar 
   242  216  217 ar 
   243  217  218 ar 
   244  219  220 1  
   245  220  221 1  
   246  221  222 1  
   247  222  224 1  
   248    3  225 1  
   249    3  226 1  
   250    4  227 1  
   251    4  228 1  
   252    5  229 1  
   253    5  230 1  
   254    6  231 1  
   255    6  232 1  
   256    8  233 1  
   257    9  234 1  
   258   11  235 1  
   259   12  236 1  
   260   13  237 1  
   261   15  238 1  
   262   15  239 1  
   263   16  240 1  
   264   20  241 1  
   265   21  242 1  
   266   26  243 1  
   267   26  244 1  
   268   27  245 1  
   269   28  246 1  
   270   30  247 1  
   271   31  248 1  
   272   32  249 1  
   273   35  250 1  
   274   41  251 1  
   275   43  252 1  
   276   43  253 1  
   277   44  254 1  
   278   45  255 1  
   279   45  256 1  
   280   45  257 1  
   281   46  258 1  
   282   46  259 1  
   283   46  260 1  
   284   51  261 1  
   285   52  262 1  
   286   53  263 1  
   287   55  264 1  
   288   55  265 1  
   289   56  266 1  
   290   57  267 1  
   291   59  268 1  
   292   66  269 1  
   293   67  270 1  
   294   68  271 1  
   295   70  272 1  
   296   77  273 1  
   297   78  274 1  
   298   81  275 1  
   299   82  276 1  
   300   83  277 1  
   301   85  278 1  
   302   85  279 1  
   303   86  280 1  
   304   86  281 1  
   305   87  282 1  
   306   87  283 1  
   307   88  284 1  
   308   88  285 1  
   309   88  286 1  
   310   93  287 1  
   311   94  288 1  
   312   95  289 1  
   313   97  290 1  
   314   97  291 1  
   315   98  292 1  
   316  105  293 1  
   317  106  294 1  
   318  109  295 1  
   319  109  296 1  
   320  114  297 1  
   321  115  298 1  
   322  116  299 1  
   323  121  300 1  
   324  122  301 1  
   325  123  302 1  
   326  125  303 1  
   327  125  304 1  
   328  126  305 1  
   329  131  306 1  
   330  132  307 1  
   331  133  308 1  
   332  135  309 1  
   333  135  310 1  
   334  136  311 1  
   335  137  312 1  
   336  139  313 1  
   337  146  314 1  
   338  147  315 1  
   339  148  316 1  
   340  150  317 1  
   341  155  318 1  
   342  156  319 1  
   343  157  320 1  
   344  159  321 1  
   345  159  322 1  
   346  160  323 1  
   347  164  324 1  
   348  164  325 1  
   349  166  326 1  
   350  173  327 1  
   351  174  328 1  
   352  175  329 1  
   353  177  330 1  
   354  182  331 1  
   355  183  332 1  
   356  184  333 1  
   357  186  334 1  
   358  186  335 1  
   359  187  336 1  
   360  194  337 1  
   361  195  338 1  
   362  198  339 1  
   363  198  340 1  
   364  203  341 1  
   365  204  342 1  
   366  205  343 1  
   367  212  344 1  
   368  213  345 1  
   369  216  346 1  
   370  217  347 1  
   371  218  348 1  
   372  220  349 1  
   373  220  350 1  
   374  221  351 1  
   375  221  352 1  
   376  222  353 1  
   377  222  354 1  
   378  224  355 1  
   379  224  356 1  
   380  224  357 1  
@<TRIPOS>SUBSTRUCTURE
     1 MOL         1

