6q9t_ligand
  -I-interpret- 

361384  0  0  0  0  0  0  0  0999 V2000
   35.6390   84.3870  -27.2450 O   0  0  0  0  0
   36.1370   84.1340  -26.1470 C   0  0  0  0  0
   35.4490   86.3370  -25.2070 C   0  0  0  0  0
   35.4640   86.9900  -23.8230 C   0  0  0  0  0
   34.7670   88.3850  -23.8740 C   0  0  0  0  0
   33.2820   88.2360  -23.6190 C   0  0  0  0  0
   31.5300   87.9250  -25.2520 C   0  0  0  0  0
   30.5390   87.3500  -24.5370 C   0  0  0  0  0
   36.1220   85.0330  -25.1140 N   0  0  0  0  0
   32.7980   88.1850  -24.9040 O   0  0  0  0  0
   31.3080   88.2850  -26.5480 C   0  0  0  0  0
   29.3030   87.1730  -25.1990 C   0  0  0  0  0
   29.0800   87.5400  -26.5370 C   0  0  0  0  0
   30.1360   88.1410  -27.2060 C   0  0  0  0  0
   30.2170   88.5940  -28.5000 C   0  0  0  0  0
   28.9680   88.7810  -29.2020 N   0  0  0  0  0
   28.1370   89.7860  -28.8960 C   0  0  0  0  0
   28.3240   90.5720  -27.9530 O   0  0  0  0  0
   27.0010   89.9150  -29.6940 C   0  0  0  0  0
   26.5750   89.0070  -30.6320 C   0  0  0  0  0
   25.4110   89.2330  -31.3530 C   0  0  0  0  0
   24.6710   90.3830  -31.1820 C   0  0  0  0  0
   23.2810   90.7150  -32.0690 S   0  0  0  0  0
   22.7970   92.1390  -31.7830 O   0  0  0  0  0
   22.1780   89.6730  -31.9740 O   0  0  0  0  0
   23.7660   90.5080  -33.6290 N   0  0  0  0  0
   25.1090   91.2920  -30.2810 C   0  0  0  0  0
   26.2470   91.0490  -29.5250 C   0  0  0  0  0
   37.0510   82.0100  -26.7630 C   0  0  0  0  0
   36.8750   82.0330  -28.1710 C   0  0  0  0  0
   37.3560   80.9370  -28.8850 C   0  0  0  0  0
   38.0040   79.8740  -28.2300 C   0  0  0  0  0
   38.1540   79.8730  -26.8570 C   0  0  0  0  0
   38.7780   78.8250  -26.1650 C   0  0  0  0  0
   38.9360   78.8670  -24.7670 C   0  0  0  0  0
   38.4550   79.9870  -24.0960 C   0  0  0  0  0
   39.2280   79.2240  -22.0690 O   0  0  0  0  0
   38.5510   80.0350  -22.7120 C   0  0  0  0  0
   37.8330   80.9870  -24.7890 N   0  0  0  0  0
   37.6960   80.9410  -26.1210 C   0  0  0  0  0
   36.6910   82.9410  -25.8650 N   0  0  0  0  0
   39.2660   77.7770  -26.9140 O   0  0  0  0  0
   38.8870   76.4270  -26.4740 C   0  0  0  0  0
   40.0260   75.5560  -26.9230 C   0  0  0  0  0
   40.2030   75.7240  -28.4500 C   0  0  0  0  0
   39.6800   74.1180  -26.5100 C   0  0  0  0  0
   33.0340   84.6500  -21.9930 O   0  0  0  0  0
   33.8330   83.7220  -22.1590 C   0  0  0  0  0
   34.7790   83.4060  -21.1670 C   0  0  0  0  0
   35.7980   82.5130  -21.4250 N   0  0  0  0  0
   34.7070   84.0610  -19.9340 C   0  0  0  0  0
   35.6320   83.7330  -18.9830 C   0  0  0  0  0
   36.6110   82.7830  -19.2600 C   0  0  0  0  0
   36.6800   82.1440  -20.4900 C   0  0  0  0  0
   37.6970   81.1790  -20.6790 C   0  0  0  0  0
   37.8070   80.9910  -22.1390 N   0  0  0  0  0
   32.5390   81.1840  -28.7260 O   0  0  0  0  0
   33.1080   81.0350  -27.4860 C   0  0  0  0  0
   33.8560   79.9080  -27.0980 C   0  0  0  0  0
   34.3590   79.8700  -25.8050 C   0  0  0  0  0
   35.0790   78.7720  -25.2710 C   0  0  0  0  0
   35.5830   77.8900  -25.9870 O   0  0  0  0  0
   34.1340   80.9340  -24.9780 N   0  0  0  0  0
   33.4150   82.0260  -25.3300 C   0  0  0  0  0
   32.8890   82.0880  -26.6170 C   0  0  0  0  0
   32.1420   83.1720  -27.0270 C   0  0  0  0  0
   31.9510   84.1850  -26.1010 C   0  0  0  0  0
   32.4790   84.1680  -24.8110 C   0  0  0  0  0
   33.1810   83.0430  -24.4080 C   0  0  0  0  0
   33.8430   82.9130  -23.2480 N   0  0  0  0  0
   33.5080   80.8750  -18.5770 O   0  0  0  0  0
   33.5730   80.3710  -19.7390 C   0  0  0  0  0
   34.5390   79.3580  -20.0620 C   0  0  0  0  0
   34.8400   79.0790  -21.3530 N   0  0  0  0  0
   35.6760   78.1330  -21.7480 C   0  0  0  0  0
   35.8540   77.9320  -23.1040 C   0  0  0  0  0
   35.1440   78.7570  -23.9070 N   0  0  0  0  0
   35.2090   78.6530  -19.0800 C   0  0  0  0  0
   36.0720   77.6170  -19.4680 C   0  0  0  0  0
   36.2340   77.3420  -20.8110 C   0  0  0  0  0
   37.0680   76.3220  -21.2390 C   0  0  0  0  0
   37.2590   76.0780  -22.6000 C   0  0  0  0  0
   36.6210   76.9000  -23.5390 C   0  0  0  0  0
   36.6800   76.8410  -18.5220 O   0  0  0  0  0
   36.3840   77.0410  -17.0750 C   0  0  0  0  0
   37.1000   76.0630  -16.1440 C   0  0  0  0  0
   38.1220   75.2830  -16.9770 C   0  0  0  0  0
   37.5830   73.9480  -17.2940 N   0  3  0  0  0
   30.1900   79.8560  -26.0470 O   0  0  0  0  0
   30.6950   79.8160  -24.9000 C   0  0  0  0  0
   30.4860   80.8800  -23.9490 C   0  0  0  0  0
   31.0980   80.8100  -22.7240 N   0  0  0  0  0
   29.6980   82.0430  -24.2220 C   0  0  0  0  0
   29.5260   83.0690  -23.2670 C   0  0  0  0  0
   30.1700   82.9280  -22.0220 C   0  0  0  0  0
   30.9790   81.7980  -21.7680 C   0  0  0  0  0
   31.6020   81.6950  -20.5520 C   0  0  0  0  0
   32.6930   80.6920  -20.7190 N   0  0  0  0  0
   33.5660   75.5440  -19.8520 O   0  0  0  0  0
   32.9370   76.1850  -20.6650 C   0  0  0  0  0
   33.0160   75.9680  -22.0520 C   0  0  0  0  0
   32.5090   76.8830  -22.9100 N   0  0  0  0  0
   32.5420   76.6930  -24.2350 C   0  0  0  0  0
   31.9390   77.6300  -25.0880 C   0  0  0  0  0
   31.4600   78.7530  -24.4160 N   0  0  0  0  0
   33.5670   74.8010  -22.5430 C   0  0  0  0  0
   33.6110   74.6080  -23.9050 C   0  0  0  0  0
   34.1050   73.4940  -24.4380 O   0  0  0  0  0
   35.4920   73.5880  -24.5220 C   0  0  0  0  0
   35.8870   72.2570  -23.9020 C   0  0  0  0  0
   34.9590   71.3880  -23.8670 O   0  0  0  0  0
   37.1030   72.1490  -23.4510 O   0  0  0  0  0
   33.1170   75.5410  -24.7770 C   0  0  0  0  0
   33.1050   75.3610  -26.1600 C   0  0  0  0  0
   32.5260   76.2970  -27.0240 C   0  0  0  0  0
   31.9630   77.4330  -26.4750 C   0  0  0  0  0
   27.4630   80.6430  -21.7120 O   0  0  0  0  0
   28.2290   79.6800  -21.5230 C   0  0  0  0  0
   28.9410   79.5360  -20.2950 C   0  0  0  0  0
   30.0360   78.7080  -20.1860 N   0  0  0  0  0
   28.4750   80.2080  -19.1320 C   0  0  0  0  0
   29.1130   80.0510  -17.9230 C   0  0  0  0  0
   30.2020   79.1780  -17.8860 C   0  0  0  0  0
   30.6650   78.4920  -19.0120 C   0  0  0  0  0
   31.7600   77.6240  -18.9120 C   0  0  0  0  0
   32.0490   77.1830  -20.3010 N   0  0  0  0  0
   30.4970   73.4280  -23.6010 O   0  0  0  0  0
   29.9140   74.4090  -23.1840 C   0  0  0  0  0
   29.4050   75.2740  -24.0820 C   0  0  0  0  0
   28.8800   76.4160  -23.5680 N   0  0  0  0  0
   29.4570   75.0420  -25.4710 C   0  0  0  0  0
   28.8300   75.9940  -26.3380 C   0  0  0  0  0
   28.2080   77.1840  -25.7660 C   0  0  0  0  0
   28.2330   77.3740  -24.3560 C   0  0  0  0  0
   27.7250   78.5290  -23.7600 C   0  0  0  0  0
   28.3960   78.6710  -22.4200 N   0  0  0  0  0
   30.4800   73.8080  -16.0240 O   0  0  0  0  0
   29.9530   74.4130  -17.1440 C   0  0  0  0  0
   28.9820   75.3980  -17.0500 C   0  0  0  0  0
   28.5110   75.9420  -18.2030 C   0  0  0  0  0
   27.5150   76.9660  -18.3060 C   0  0  0  0  0
   27.1880   77.7060  -17.3680 O   0  0  0  0  0
   29.0330   75.4860  -19.3440 N   0  0  0  0  0
   29.9200   74.4790  -19.5040 C   0  0  0  0  0
   30.4050   73.9190  -18.3730 C   0  0  0  0  0
   31.3370   72.8960  -18.4860 C   0  0  0  0  0
   31.7880   72.4520  -19.7370 C   0  0  0  0  0
   31.2960   73.0100  -20.9060 C   0  0  0  0  0
   30.3280   74.0190  -20.8000 C   0  0  0  0  0
   29.7950   74.7120  -21.8770 N   0  0  0  0  0
   25.2400   74.8390  -24.8030 O   0  0  0  0  0
   25.5080   75.0110  -23.5820 C   0  0  0  0  0
   25.1130   76.2520  -22.9440 C   0  0  0  0  0
   25.6160   76.6090  -21.7320 N   0  0  0  0  0
   24.2920   77.2120  -23.5570 C   0  0  0  0  0
   23.9820   78.4170  -22.8930 C   0  0  0  0  0
   24.5130   78.6910  -21.6390 C   0  0  0  0  0
   25.3650   77.7630  -21.0740 C   0  0  0  0  0
   25.8710   78.0350  -19.8130 C   0  0  0  0  0
   26.9450   77.0710  -19.5140 N   0  0  0  0  0
   31.0950   69.3900  -22.3430 O   0  0  0  0  0
   30.6340   69.3150  -21.1850 C   0  0  0  0  0
   31.3540   69.2850  -20.1610 O   0  0  0  0  0
   29.1550   69.0550  -21.0730 C   0  0  0  0  0
   28.4710   70.3040  -21.0800 C   0  0  0  0  0
   28.1460   70.8820  -19.8410 C   0  0  0  0  0
   27.4630   72.1090  -19.7660 C   0  0  0  0  0
   27.1110   72.7630  -18.5520 C   0  0  0  0  0
   27.5750   72.3880  -17.4640 O   0  0  0  0  0
   27.0990   72.7050  -20.8920 N   0  0  0  0  0
   27.3280   72.2230  -22.0970 C   0  0  0  0  0
   28.0330   71.0090  -22.2480 C   0  0  0  0  0
   28.2530   70.5670  -23.5440 C   0  0  0  0  0
   27.7860   71.3070  -24.6030 C   0  0  0  0  0
   27.0860   72.5140  -24.4460 C   0  0  0  0  0
   26.8130   72.9660  -23.1620 C   0  0  0  0  0
   26.2130   74.1440  -22.7990 N   0  0  0  0  0
   21.9200   76.6340  -21.7490 O   0  0  0  0  0
   22.4530   75.7080  -21.0800 C   0  0  0  0  0
   22.9100   75.9100  -19.7290 C   0  0  0  0  0
   24.0160   75.2170  -19.3080 N   0  0  0  0  0
   22.2510   76.7820  -18.8420 C   0  0  0  0  0
   22.7350   76.9120  -17.5480 C   0  0  0  0  0
   23.8540   76.1800  -17.1940 C   0  0  0  0  0
   24.5070   75.3210  -18.0630 C   0  0  0  0  0
   25.6130   74.6010  -17.5920 C   0  0  0  0  0
   26.2700   73.7790  -18.6830 N   0  0  0  0  0
   25.5170   69.2570  -21.0920 O   0  0  0  0  0
   24.8010   70.2300  -20.9220 C   0  0  0  0  0
   24.2250   70.8730  -21.9980 C   0  0  0  0  0
   23.6400   72.0920  -21.8750 N   0  0  0  0  0
   22.9170   72.6870  -22.9050 C   0  0  0  0  0
   22.3620   73.9660  -22.7460 C   0  0  0  0  0
   22.6110   74.4340  -21.5230 N   0  0  0  0  0
   24.1240   70.2310  -23.2110 C   0  0  0  0  0
   23.4620   70.8330  -24.2810 C   0  0  0  0  0
   23.2160   70.2500  -25.4650 O   0  0  0  0  0
   24.3850   69.6290  -26.0860 C   0  0  0  0  0
   23.8080   68.8590  -27.3850 C   0  0  0  0  0
   24.7060   68.2340  -28.0130 O   0  0  0  0  0
   22.5190   68.8130  -27.6270 O   0  0  0  0  0
   22.8010   72.0670  -24.1460 C   0  0  0  0  0
   22.1510   72.6930  -25.2520 C   0  0  0  0  0
   21.6080   73.9850  -25.0850 C   0  0  0  0  0
   21.7290   74.6320  -23.8270 C   0  0  0  0  0
   20.6920   73.2090  -18.2610 O   0  0  0  0  0
   21.4100   73.3900  -17.2690 C   0  0  0  0  0
   22.4520   72.5380  -16.8540 C   0  0  0  0  0
   23.2020   71.8750  -17.7630 N   0  0  0  0  0
   24.1340   70.9450  -17.4610 C   0  0  0  0  0
   24.8110   70.2800  -18.4850 C   0  0  0  0  0
   24.4390   70.7070  -19.7140 N   0  0  0  0  0
   22.6840   72.2750  -15.5120 C   0  0  0  0  0
   23.6690   71.3270  -15.1570 C   0  0  0  0  0
   24.3890   70.6360  -16.1370 C   0  0  0  0  0
   25.3220   69.6020  -15.8420 C   0  0  0  0  0
   26.0120   68.9560  -16.8560 C   0  0  0  0  0
   25.7700   69.2950  -18.1890 C   0  0  0  0  0
   23.9540   70.9790  -13.8580 O   0  0  0  0  0
   22.9970   71.4470  -12.7230 C   0  0  0  0  0
   23.4880   70.9010  -11.3570 C   0  0  0  0  0
   24.8360   70.1690  -11.5000 C   0  0  0  0  0
   21.1890   74.4600  -16.6430 O   0  0  0  0  0
   25.8090   71.0540  -12.1530 N   0  3  0  0  0
   35.9672   86.9732  -25.9245 H   0  0  0  0  0
   34.4212   86.2024  -25.5441 H   0  0  0  0  0
   36.4976   87.1205  -23.5026 H   0  0  0  0  0
   34.9280   86.3501  -23.1221 H   0  0  0  0  0
   34.9178   88.8238  -24.8603 H   0  0  0  0  0
   35.1984   89.0281  -23.1069 H   0  0  0  0  0
   32.8552   89.0397  -23.0190 H   0  0  0  0  0
   33.0237   87.3655  -23.0161 H   0  0  0  0  0
   30.6849   87.0385  -23.5027 H   0  0  0  0  0
   36.5968   84.7881  -24.2451 H   0  0  0  0  0
   32.1413   88.7236  -27.0970 H   0  0  0  0  0
   28.4786   86.7280  -24.6419 H   0  0  0  0  0
   28.1225   87.3609  -27.0260 H   0  0  0  0  0
   30.7600   87.8274  -29.0528 H   0  0  0  0  0
   30.6804   89.5790  -28.4446 H   0  0  0  0  0
   28.7133   88.1330  -29.9475 H   0  0  0  0  0
   27.1554   88.1020  -30.8116 H   0  0  0  0  0
   25.0746   88.4845  -32.0704 H   0  0  0  0  0
   23.7225   91.2884  -34.2844 H   0  0  0  0  0
   24.1099   89.5994  -33.9399 H   0  0  0  0  0
   24.5621   92.2254  -30.1474 H   0  0  0  0  0
   26.5507   91.7798  -28.7755 H   0  0  0  0  0
   36.3862   82.8692  -28.6709 H   0  0  0  0  0
   37.2282   80.9030  -29.9669 H   0  0  0  0  0
   38.3930   79.0398  -28.8139 H   0  0  0  0  0
   39.4182   78.0509  -24.2290 H   0  0  0  0  0
   36.8519   82.7244  -24.8813 H   0  0  0  0  0
   37.9352   76.1091  -26.8995 H   0  0  0  0  0
   38.7314   76.3755  -25.3964 H   0  0  0  0  0
   40.9766   75.8274  -26.4639 H   0  0  0  0  0
   39.2848   75.4255  -28.9559 H   0  0  0  0  0
   40.4213   76.7676  -28.6765 H   0  0  0  0  0
   41.0271   75.0969  -28.7901 H   0  0  0  0  0
   39.5613   74.0708  -25.4275 H   0  0  0  0  0
   38.7501   73.8166  -26.9922 H   0  0  0  0  0
   40.4839   73.4494  -26.8181 H   0  0  0  0  0
   33.9385   84.8086  -19.7377 H   0  0  0  0  0
   35.6031   84.2159  -18.0063 H   0  0  0  0  0
   37.3424   82.5346  -18.4909 H   0  0  0  0  0
   37.4539   80.2431  -20.1760 H   0  0  0  0  0
   38.6425   81.5102  -20.2496 H   0  0  0  0  0
   37.2872   81.6247  -22.7461 H   0  0  0  0  0
   32.0789   82.0256  -28.7667 H   0  0  0  0  0
   34.0353   79.0880  -27.7933 H   0  0  0  0  0
   31.7219   83.2293  -28.0312 H   0  0  0  0  0
   31.3526   85.0460  -26.3989 H   0  0  0  0  0
   32.3437   85.0151  -24.1386 H   0  0  0  0  0
   34.4387   82.0883  -23.1746 H   0  0  0  0  0
   34.5821   79.4621  -23.4301 H   0  0  0  0  0
   35.0699   78.8966  -18.0267 H   0  0  0  0  0
   37.5814   75.7023  -20.5038 H   0  0  0  0  0
   37.8970   75.2576  -22.9288 H   0  0  0  0  0
   36.7394   76.7127  -24.6062 H   0  0  0  0  0
   35.3136   76.8839  -16.9424 H   0  0  0  0  0
   36.7273   78.0419  -16.8133 H   0  0  0  0  0
   36.3824   75.3796  -15.6901 H   0  0  0  0  0
   37.6011   76.6039  -15.3412 H   0  0  0  0  0
   39.0465   75.1758  -16.4097 H   0  0  0  0  0
   38.3232   75.8223  -17.9026 H   0  0  0  0  0
   38.2648   73.4303  -17.8486 H   0  0  0  0  0
   37.3948   73.4441  -16.4274 H   0  0  0  0  0
   36.7178   74.0492  -17.8246 H   0  0  0  0  0
   29.2167   82.1397  -25.1952 H   0  0  0  0  0
   28.9135   83.9435  -23.4865 H   0  0  0  0  0
   30.0440   83.6913  -21.2541 H   0  0  0  0  0
   30.8999   81.3829  -19.7789 H   0  0  0  0  0
   32.0024   82.6582  -20.2357 H   0  0  0  0  0
   32.7819   80.2218  -21.6198 H   0  0  0  0  0
   31.7037   78.8061  -23.4270 H   0  0  0  0  0
   33.9605   74.0452  -21.8633 H   0  0  0  0  0
   35.9146   74.4597  -24.0225 H   0  0  0  0  0
   35.8717   73.7440  -25.5317 H   0  0  0  0  0
   37.5785   72.9662  -23.6172 H   0  0  0  0  0
   33.5603   74.4643  -26.5804 H   0  0  0  0  0
   32.5193   76.1342  -28.1018 H   0  0  0  0  0
   31.5306   78.1881  -27.1314 H   0  0  0  0  0
   27.6010   80.8559  -19.1989 H   0  0  0  0  0
   28.7824   80.5853  -17.0323 H   0  0  0  0  0
   30.7141   79.0246  -16.9361 H   0  0  0  0  0
   31.5386   76.7767  -18.2630 H   0  0  0  0  0
   32.6214   78.1195  -18.4641 H   0  0  0  0  0
   31.5490   77.6574  -21.0529 H   0  0  0  0  0
   29.9601   74.1630  -25.8740 H   0  0  0  0  0
   28.8174   75.8312  -27.4157 H   0  0  0  0  0
   27.7292   77.9197  -26.4123 H   0  0  0  0  0
   26.6439   78.4561  -23.6419 H   0  0  0  0  0
   27.9235   79.4012  -24.3828 H   0  0  0  0  0
   29.0461   77.9307  -22.1561 H   0  0  0  0  0
   31.1335   73.1573  -16.2907 H   0  0  0  0  0
   28.6075   75.7263  -16.0804 H   0  0  0  0  0
   31.7266   72.4278  -17.5821 H   0  0  0  0  0
   32.5340   71.6590  -19.7906 H   0  0  0  0  0
   31.6513   72.6742  -21.8802 H   0  0  0  0  0
   29.2513   75.5456  -21.6538 H   0  0  0  0  0
   23.8914   77.0246  -24.5532 H   0  0  0  0  0
   23.3194   79.1402  -23.3684 H   0  0  0  0  0
   24.2638   79.6138  -21.1151 H   0  0  0  0  0
   25.0783   77.9469  -19.0701 H   0  0  0  0  0
   26.2674   79.0500  -19.7852 H   0  0  0  0  0
   27.2690   76.4560  -20.2604 H   0  0  0  0  0
   30.7971   69.2266  -19.3812 H   0  0  0  0  0
   28.9417   68.5208  -20.1471 H   0  0  0  0  0
   28.8213   68.4450  -21.9124 H   0  0  0  0  0
   28.4285   70.3699  -18.9212 H   0  0  0  0  0
   28.7936   69.6373  -23.7214 H   0  0  0  0  0
   27.9675   70.9397  -25.6131 H   0  0  0  0  0
   26.7629   73.0855  -25.3161 H   0  0  0  0  0
   26.3055   74.4060  -21.8176 H   0  0  0  0  0
   21.3758   77.3453  -19.1659 H   0  0  0  0  0
   22.2472   77.5722  -16.8309 H   0  0  0  0  0
   24.2415   76.2842  -16.1805 H   0  0  0  0  0
   25.2670   73.9185  -16.8158 H   0  0  0  0  0
   26.3469   75.3146  -17.2173 H   0  0  0  0  0
   26.0349   74.0413  -19.6403 H   0  0  0  0  0
   22.9597   73.7587  -20.8427 H   0  0  0  0  0
   24.5656   69.2424  -23.3369 H   0  0  0  0  0
   24.8909   68.9465  -25.4031 H   0  0  0  0  0
   25.1396   70.3677  -26.3560 H   0  0  0  0  0
   22.0574   69.3807  -27.0055 H   0  0  0  0  0
   22.0751   72.1809  -26.2112 H   0  0  0  0  0
   21.1012   74.4808  -25.9129 H   0  0  0  0  0
   21.3359   75.6396  -23.6918 H   0  0  0  0  0
   23.7962   71.4988  -19.7285 H   0  0  0  0  0
   22.1135   72.7933  -14.7413 H   0  0  0  0  0
   25.4961   69.3145  -14.8051 H   0  0  0  0  0
   26.7426   68.1844  -16.6132 H   0  0  0  0  0
   26.3185   68.8014  -18.9913 H   0  0  0  0  0
   21.9940   71.0690  -12.9209 H   0  0  0  0  0
   22.9848   72.5364  -12.6905 H   0  0  0  0  0
   22.7481   70.1957  -10.9785 H   0  0  0  0  0
   23.6192   71.7405  -10.6742 H   0  0  0  0  0
   24.6992   69.2720  -12.1040 H   0  0  0  0  0
   25.2043   69.8911  -10.5124 H   0  0  0  0  0
   21.7857   74.5200  -15.8934 H   0  0  0  0  0
   26.7004   70.5671  -12.2465 H   0  0  0  0  0
   25.4637   71.3141  -13.0769 H   0  0  0  0  0
   25.9363   71.8934  -11.5876 H   0  0  0  0  0
  2  1  2  0  0  0
  2  9  1  0  0  0
 41  2  1  0  0  0
  3  4  1  0  0  0
  9  3  1  0  0  0
  4  5  1  0  0  0
  5  6  1  0  0  0
  6 10  1  0  0  0
  7  8  4  0  0  0
 10  7  1  0  0  0
  7 11  4  0  0  0
  8 12  4  0  0  0
 11 14  4  0  0  0
 12 13  4  0  0  0
 14 13  4  0  0  0
 14 15  1  0  0  0
 15 16  1  0  0  0
 16 17  1  0  0  0
 17 18  2  0  0  0
 17 19  1  0  0  0
 19 20  4  0  0  0
 19 28  4  0  0  0
 20 21  4  0  0  0
 21 22  4  0  0  0
 22 23  1  0  0  0
 27 22  4  0  0  0
 23 24  2  0  0  0
 23 25  2  0  0  0
 23 26  1  0  0  0
 28 27  4  0  0  0
 29 30  4  0  0  0
 40 29  4  0  0  0
 29 41  1  0  0  0
 30 31  4  0  0  0
 32 31  4  0  0  0
 33 32  4  0  0  0
 34 33  4  0  0  0
 40 33  4  0  0  0
 35 34  4  0  0  0
 34 42  1  0  0  0
 36 35  4  0  0  0
 38 36  1  0  0  0
 36 39  4  0  0  0
 38 37  2  0  0  0
 56 38  1  0  0  0
 39 40  4  0  0  0
 42 43  1  0  0  0
 43 44  1  0  0  0
 44 45  1  0  0  0
 44 46  1  0  0  0
 48 47  2  0  0  0
 48 49  1  0  0  0
 70 48  1  0  0  0
 49 50  4  0  0  0
 49 51  4  0  0  0
 50 54  4  0  0  0
 51 52  4  0  0  0
 52 53  4  0  0  0
 54 53  4  0  0  0
 54 55  1  0  0  0
 55 56  1  0  0  0
 58 57  1  0  0  0
 59 58  4  0  0  0
 58 65  4  0  0  0
 60 59  4  0  0  0
 61 60  1  0  0  0
 60 63  4  0  0  0
 61 62  2  0  0  0
 77 61  1  0  0  0
 63 64  4  0  0  0
 64 65  4  0  0  0
 64 69  4  0  0  0
 65 66  4  0  0  0
 66 67  4  0  0  0
 68 67  4  0  0  0
 69 68  4  0  0  0
 69 70  1  0  0  0
 72 71  2  0  0  0
 72 73  1  0  0  0
 98 72  1  0  0  0
 73 74  4  0  0  0
 73 78  4  0  0  0
 74 75  4  0  0  0
 75 76  4  0  0  0
 75 80  4  0  0  0
 76 77  1  0  0  0
 76 83  4  0  0  0
 78 79  4  0  0  0
 79 80  4  0  0  0
 79 84  1  0  0  0
 80 81  4  0  0  0
 81 82  4  0  0  0
 83 82  4  0  0  0
 84 85  1  0  0  0
 85 86  1  0  0  0
 86 87  1  0  0  0
 87 88  1  0  0  0
 90 89  2  0  0  0
 90 91  1  0  0  0
105 90  1  0  0  0
 91 92  4  0  0  0
 91 93  4  0  0  0
 92 96  4  0  0  0
 93 94  4  0  0  0
 94 95  4  0  0  0
 96 95  4  0  0  0
 96 97  1  0  0  0
 97 98  1  0  0  0
100 99  2  0  0  0
100101  1  0  0  0
126100  1  0  0  0
101102  4  0  0  0
101106  4  0  0  0
102103  4  0  0  0
103104  4  0  0  0
103113  4  0  0  0
104105  1  0  0  0
104116  4  0  0  0
106107  4  0  0  0
107108  1  0  0  0
107113  4  0  0  0
108109  1  0  0  0
109110  1  0  0  0
110111  2  0  0  0
110112  1  0  0  0
113114  4  0  0  0
114115  4  0  0  0
116115  4  0  0  0
118117  2  0  0  0
118119  1  0  0  0
136118  1  0  0  0
119120  4  0  0  0
119121  4  0  0  0
120124  4  0  0  0
121122  4  0  0  0
122123  4  0  0  0
124123  4  0  0  0
124125  1  0  0  0
125126  1  0  0  0
128127  2  0  0  0
128129  1  0  0  0
150128  1  0  0  0
129130  4  0  0  0
129131  4  0  0  0
130134  4  0  0  0
131132  4  0  0  0
132133  4  0  0  0
134133  4  0  0  0
134135  1  0  0  0
135136  1  0  0  0
138137  1  0  0  0
139138  4  0  0  0
138145  4  0  0  0
140139  4  0  0  0
141140  1  0  0  0
140143  4  0  0  0
141142  2  0  0  0
160141  1  0  0  0
143144  4  0  0  0
144145  4  0  0  0
144149  4  0  0  0
145146  4  0  0  0
146147  4  0  0  0
148147  4  0  0  0
149148  4  0  0  0
149150  1  0  0  0
152151  2  0  0  0
152153  1  0  0  0
177152  1  0  0  0
153154  4  0  0  0
153155  4  0  0  0
154158  4  0  0  0
155156  4  0  0  0
156157  4  0  0  0
158157  4  0  0  0
158159  1  0  0  0
159160  1  0  0  0
162161  2  0  0  0
162163  1  0  0  0
164162  1  0  0  0
165164  1  0  0  0
166165  4  0  0  0
165172  4  0  0  0
167166  4  0  0  0
168167  1  0  0  0
167170  4  0  0  0
168169  2  0  0  0
187168  1  0  0  0
170171  4  0  0  0
171172  4  0  0  0
171176  4  0  0  0
172173  4  0  0  0
173174  4  0  0  0
175174  4  0  0  0
176175  4  0  0  0
176177  1  0  0  0
179178  2  0  0  0
179180  1  0  0  0
194179  1  0  0  0
180181  4  0  0  0
180182  4  0  0  0
181185  4  0  0  0
182183  4  0  0  0
183184  4  0  0  0
185184  4  0  0  0
185186  1  0  0  0
186187  1  0  0  0
189188  2  0  0  0
189190  1  0  0  0
212189  1  0  0  0
190191  4  0  0  0
190195  4  0  0  0
191192  4  0  0  0
192193  4  0  0  0
192202  4  0  0  0
193194  1  0  0  0
193205  4  0  0  0
195196  4  0  0  0
196197  1  0  0  0
196202  4  0  0  0
197198  1  0  0  0
198199  1  0  0  0
199200  2  0  0  0
199201  1  0  0  0
202203  4  0  0  0
203204  4  0  0  0
205204  4  0  0  0
207206  2  0  0  0
208207  1  0  0  0
207223  1  0  0  0
209208  4  0  0  0
208213  4  0  0  0
210209  4  0  0  0
211210  4  0  0  0
210215  4  0  0  0
211212  1  0  0  0
211218  4  0  0  0
213214  4  0  0  0
214215  4  0  0  0
214219  1  0  0  0
215216  4  0  0  0
216217  4  0  0  0
217218  4  0  0  0
219220  1  0  0  0
220221  1  0  0  0
221222  1  0  0  0
222224  1  0  0  0
  3225  1  0  0  0
  3226  1  0  0  0
  4227  1  0  0  0
  4228  1  0  0  0
  5229  1  0  0  0
  5230  1  0  0  0
  6231  1  0  0  0
  6232  1  0  0  0
  8233  1  0  0  0
  9234  1  0  0  0
 11235  1  0  0  0
 12236  1  0  0  0
 13237  1  0  0  0
 15238  1  0  0  0
 15239  1  0  0  0
 16240  1  0  0  0
 20241  1  0  0  0
 21242  1  0  0  0
 26243  1  0  0  0
 26244  1  0  0  0
 27245  1  0  0  0
 28246  1  0  0  0
 30247  1  0  0  0
 31248  1  0  0  0
 32249  1  0  0  0
 35250  1  0  0  0
 41251  1  0  0  0
 43252  1  0  0  0
 43253  1  0  0  0
 44254  1  0  0  0
 45255  1  0  0  0
 45256  1  0  0  0
 45257  1  0  0  0
 46258  1  0  0  0
 46259  1  0  0  0
 46260  1  0  0  0
 51261  1  0  0  0
 52262  1  0  0  0
 53263  1  0  0  0
 55264  1  0  0  0
 55265  1  0  0  0
 56266  1  0  0  0
 57267  1  0  0  0
 59268  1  0  0  0
 66269  1  0  0  0
 67270  1  0  0  0
 68271  1  0  0  0
 70272  1  0  0  0
 77273  1  0  0  0
 78274  1  0  0  0
 81275  1  0  0  0
 82276  1  0  0  0
 83277  1  0  0  0
 85278  1  0  0  0
 85279  1  0  0  0
 86280  1  0  0  0
 86281  1  0  0  0
 87282  1  0  0  0
 87283  1  0  0  0
 88284  1  0  0  0
 88285  1  0  0  0
 88286  1  0  0  0
 93287  1  0  0  0
 94288  1  0  0  0
 95289  1  0  0  0
 97290  1  0  0  0
 97291  1  0  0  0
 98292  1  0  0  0
105293  1  0  0  0
106294  1  0  0  0
109295  1  0  0  0
109296  1  0  0  0
112297  1  0  0  0
114298  1  0  0  0
115299  1  0  0  0
116300  1  0  0  0
121301  1  0  0  0
122302  1  0  0  0
123303  1  0  0  0
125304  1  0  0  0
125305  1  0  0  0
126306  1  0  0  0
131307  1  0  0  0
132308  1  0  0  0
133309  1  0  0  0
135310  1  0  0  0
135311  1  0  0  0
136312  1  0  0  0
137313  1  0  0  0
139314  1  0  0  0
146315  1  0  0  0
147316  1  0  0  0
148317  1  0  0  0
150318  1  0  0  0
155319  1  0  0  0
156320  1  0  0  0
157321  1  0  0  0
159322  1  0  0  0
159323  1  0  0  0
160324  1  0  0  0
163325  1  0  0  0
164326  1  0  0  0
164327  1  0  0  0
166328  1  0  0  0
173329  1  0  0  0
174330  1  0  0  0
175331  1  0  0  0
177332  1  0  0  0
182333  1  0  0  0
183334  1  0  0  0
184335  1  0  0  0
186336  1  0  0  0
186337  1  0  0  0
187338  1  0  0  0
194339  1  0  0  0
195340  1  0  0  0
198341  1  0  0  0
198342  1  0  0  0
201343  1  0  0  0
203344  1  0  0  0
204345  1  0  0  0
205346  1  0  0  0
212347  1  0  0  0
213348  1  0  0  0
216349  1  0  0  0
217350  1  0  0  0
218351  1  0  0  0
220352  1  0  0  0
220353  1  0  0  0
221354  1  0  0  0
221355  1  0  0  0
222356  1  0  0  0
222357  1  0  0  0
223358  1  0  0  0
224359  1  0  0  0
224360  1  0  0  0
224361  1  0  0  0
M  END
$$$$
