1n3z_ligand
  -I-interpret- 

 34 35  0  0  0  0  0  0  0  0999 V2000
   23.4930    4.3230   11.3480 N   0  0  0  0  0
   24.3360    3.2660   11.0820 C   0  0  0  0  0
   25.4780    3.6130   10.4060 N   0  0  0  0  0
   25.8460    4.8790   10.0000 C   0  0  0  0  0
   24.9270    5.9080   10.3500 C   0  0  0  0  0
   23.8050    5.6020   10.9900 C   0  0  0  0  0
   24.1120    2.1140   11.4260 O   0  0  0  0  0
   26.8660    5.0230    9.3400 O   0  0  0  0  0
   18.7860    3.5040   15.1950 P   0  0  0  0  0
   18.9850    2.3130   16.0760 O   0  0  0  0  0
   17.5210    3.6400   14.4190 O   0  0  0  0  0
   19.0180    4.8100   16.0720 O   0  0  0  0  0
   20.3970    7.1690   12.1770 O   0  0  0  0  0
   19.4330    6.1260   11.9040 C   0  0  0  0  0
   20.0600    4.7800   12.1770 C   0  0  0  0  0
   21.1760    4.5930   11.2870 O   0  0  0  0  0
   20.5700    4.6610   13.6060 C   0  0  0  0  0
   20.0290    3.4620   14.1790 O   0  0  0  0  0
   22.0740    4.4180   13.4780 C   0  0  0  0  0
   22.6270    3.4570   14.3290 O   0  0  0  0  0
   22.2180    4.0130   12.0130 C   0  0  0  0  0
   26.1226    2.8556   10.1798 H   0  0  0  0  0
   25.1440    6.9448   10.0931 H   0  0  0  0  0
   23.1075    6.4018   11.2386 H   0  0  0  0  0
   19.8424    2.3724   16.5036 H   0  0  0  0  0
   19.8335    4.7188   16.5703 H   0  0  0  0  0
   19.9985    8.0249   12.0035 H   0  0  0  0  0
   19.1251    6.1791   10.8598 H   0  0  0  0  0
   18.5617    6.2586   12.5454 H   0  0  0  0  0
   19.2907    4.0235   12.0222 H   0  0  0  0  0
   20.3106    5.5364   14.2014 H   0  0  0  0  0
   22.6275    5.3080   13.7773 H   0  0  0  0  0
   23.5700    3.3884   14.1625 H   0  0  0  0  0
   22.1861    2.9236   12.0283 H   0  0  0  0  0
  1  2  1  0  0  0
  1  6  1  0  0  0
 21  1  1  0  0  0
  2  3  1  0  0  0
  2  7  2  0  0  0
  3  4  1  0  0  0
  5  4  1  0  0  0
  4  8  2  0  0  0
  6  5  2  0  0  0
  9 10  1  0  0  0
  9 11  2  0  0  0
  9 12  1  0  0  0
 18  9  1  0  0  0
 14 13  1  0  0  0
 15 14  1  0  0  0
 15 16  1  0  0  0
 17 15  1  0  0  0
 16 21  1  0  0  0
 17 18  1  0  0  0
 17 19  1  0  0  0
 19 20  1  0  0  0
 19 21  1  0  0  0
  3 22  1  0  0  0
  5 23  1  0  0  0
  6 24  1  0  0  0
 10 25  1  0  0  0
 12 26  1  0  0  0
 13 27  1  0  0  0
 14 28  1  0  0  0
 14 29  1  0  0  0
 15 30  1  0  0  0
 17 31  1  0  0  0
 19 32  1  0  0  0
 20 33  1  0  0  0
 21 34  1  0  0  0
M  END
$$$$
