1y20_ligand
  -I-interpret- 

 15 15  0  0  0  0  0  0  0  0999 V2000
   20.8050   33.4790    6.9700 C   0  0  0  0  0
   20.0800   33.2810    8.2730 C   0  0  0  0  0
   21.3130   32.5010    8.0020 C   0  0  0  0  0
   22.6290   32.8060    8.6750 C   0  0  0  0  0
   22.8360   34.0010    9.0280 O   0  0  0  0  0
   23.3420   31.8240    8.9450 O   0  0  0  0  0
   21.1810   31.0940    7.5520 N   0  3  0  0  0
   21.1793   34.2925    6.3486 H   0  0  0  0  0
   20.5893   33.5150    5.9022 H   0  0  0  0  0
   19.0618   33.0968    8.6156 H   0  0  0  0  0
   19.6672   33.8947    9.0737 H   0  0  0  0  0
   22.1344   34.5604    8.6868 H   0  0  0  0  0
   20.2714   30.9638    7.1092 H   0  0  0  0  0
   21.9201   30.8819    6.8819 H   0  0  0  0  0
   21.2610   30.4721    8.3565 H   0  0  0  0  0
  1  2  1  0  0  0
  1  3  1  0  0  0
  2  3  1  0  0  0
  3  4  1  0  0  0
  3  7  1  0  0  0
  4  5  1  0  0  0
  4  6  2  0  0  0
  1  8  1  0  0  0
  1  9  1  0  0  0
  2 10  1  0  0  0
  2 11  1  0  0  0
  5 12  1  0  0  0
  7 13  1  0  0  0
  7 14  1  0  0  0
  7 15  1  0  0  0
M  END
$$$$
