4l2g_ligand
  -I-interpret- 

 27 29  0  0  0  0  0  0  0  0999 V2000
  -38.7910  -10.7790   13.0260 C   0  0  0  0  0
  -38.8120  -11.1060   14.3790 C   0  0  0  0  0
  -38.0850  -10.4530   15.1650 O   0  0  0  0  0
  -39.6920  -12.1350   14.7930 C   0  0  0  0  0
  -39.8850  -12.4420   16.1190 C   0  0  0  0  0
  -40.7760  -13.4640   16.5060 C   0  0  0  0  0
  -40.9720  -13.7340   17.8100 F   0  0  0  0  0
  -41.5050  -14.2000   15.5740 C   0  0  0  0  0
  -41.3060  -13.8760   14.2330 C   0  0  0  0  0
  -40.4260  -12.8590   13.8630 C   0  0  0  0  0
  -40.3220  -12.5580   12.5480 O   0  0  0  0  0
  -39.5710  -11.4860   12.1150 C   0  0  0  0  0
  -39.6480  -11.2190   10.7230 C   0  0  0  0  0
  -40.4650  -12.0270    9.9170 C   0  0  0  0  0
  -40.5760  -11.7750    8.5450 C   0  0  0  0  0
  -39.9030  -10.7140    7.9420 C   0  0  0  0  0
  -39.0990   -9.9170    8.7350 C   0  0  0  0  0
  -38.9740  -10.1720   10.0970 C   0  0  0  0  0
  -38.1586   -9.9627   12.6770 H   0  0  0  0  0
  -39.3408  -11.8868   16.8830 H   0  0  0  0  0
  -42.1946  -14.9876   15.8777 H   0  0  0  0  0
  -41.8461  -14.4255   13.4620 H   0  0  0  0  0
  -41.0161  -12.8554   10.3622 H   0  0  0  0  0
  -41.2034  -12.4236    7.9337 H   0  0  0  0  0
  -40.0077  -10.5182    6.8749 H   0  0  0  0  0
  -38.5584   -9.0818    8.2896 H   0  0  0  0  0
  -38.3266   -9.5308   10.6951 H   0  0  0  0  0
  1  2  1  0  0  0
  1 12  2  0  0  0
  2  3  2  0  0  0
  2  4  1  0  0  0
  4  5  4  0  0  0
  4 10  4  0  0  0
  5  6  4  0  0  0
  6  7  1  0  0  0
  6  8  4  0  0  0
  8  9  4  0  0  0
  9 10  4  0  0  0
 10 11  1  0  0  0
 11 12  1  0  0  0
 12 13  1  0  0  0
 13 14  4  0  0  0
 13 18  4  0  0  0
 14 15  4  0  0  0
 15 16  4  0  0  0
 16 17  4  0  0  0
 17 18  4  0  0  0
  1 19  1  0  0  0
  5 20  1  0  0  0
  8 21  1  0  0  0
  9 22  1  0  0  0
 14 23  1  0  0  0
 15 24  1  0  0  0
 16 25  1  0  0  0
 17 26  1  0  0  0
 18 27  1  0  0  0
M  END
$$$$
