5f4n_ligand
  -I-interpret- 

 47 49  0  0  0  0  0  0  0  0999 V2000
   17.9480    0.3530    8.5770 C   0  0  0  0  0
   20.6760   -1.9440    9.1400 O   0  0  0  0  0
   15.9380   -0.2920    9.4390 C   0  0  0  0  0
   20.4860   -0.1560    7.7920 O   0  0  0  0  0
   16.4690   -1.5050    9.8770 C   0  0  0  0  0
   17.8100   -1.7910    9.6420 C   0  0  0  0  0
   17.5770   -4.0340   10.6980 C   0  0  0  0  0
   17.7350   -4.1500   12.1980 C   0  0  0  0  0
   17.1090   -5.6890   13.9060 C   0  0  0  0  0
   16.4970   -4.5800   14.7240 C   0  0  0  0  0
   18.3490   -2.9880   10.0480 N   0  0  0  0  0
   17.0920   -3.0070   12.9660 C   0  0  0  0  0
   12.5320    0.2780   10.7990 C   0  0  0  0  0
   13.6840   -0.4580   10.4950 C   0  0  0  0  0
   12.9500   -2.1450   11.8310 C   0  0  0  0  0
   11.8070   -1.4220   12.1350 C   0  0  0  0  0
   10.7900   -1.9620   13.0130 C   0  0  0  0  0
   20.0180   -1.0530    8.6650 C   0  0  0  0  0
   21.8830   -0.2610    7.4270 C   0  0  0  0  0
   17.1110   -3.2840   14.4030 N   0  3  0  0  0
   18.5820   -0.8210    8.9750 C   0  0  0  0  0
   17.0620   -5.3720   12.5050 O   0  0  0  0  0
   16.6600    0.6220    8.7930 N   0  0  0  0  0
   14.6280    0.0670    9.6470 N   0  0  0  0  0
   11.5900   -0.1980   11.6180 N   0  0  0  0  0
   13.8880   -1.6650   11.0130 N   0  0  0  0  0
   10.0040   -2.4140   13.7010 N   0  0  0  0  0
   18.5438    1.1014    8.0545 H   0  0  0  0  0
   15.8378   -2.2237   10.3997 H   0  0  0  0  0
   16.5290   -3.7922   10.5210 H   0  0  0  0  0
   17.9322   -4.9766   10.2816 H   0  0  0  0  0
   18.7865   -4.1219   12.4837 H   0  0  0  0  0
   16.5461   -6.6063   14.0789 H   0  0  0  0  0
   18.1499   -5.8138   14.2044 H   0  0  0  0  0
   16.6641   -4.7928   15.7799 H   0  0  0  0  0
   15.4321   -4.5268   14.4975 H   0  0  0  0  0
   19.3426   -3.1510    9.8847 H   0  0  0  0  0
   16.0580   -2.8968   12.6392 H   0  0  0  0  0
   17.6507   -2.0911   12.7734 H   0  0  0  0  0
   12.4005    1.2651   10.3558 H   0  0  0  0  0
   13.0860   -3.1324   12.2723 H   0  0  0  0  0
   22.4995   -0.1518    8.3192 H   0  0  0  0  0
   22.0666   -1.2352    6.9739 H   0  0  0  0  0
   22.1310    0.5253    6.7140 H   0  0  0  0  0
   18.0835   -3.3079   14.7097 H   0  0  0  0  0
   16.5779   -2.5536   14.8750 H   0  0  0  0  0
   14.3043    0.8504    9.0796 H   0  0  0  0  0
 21  1  4  0  0  0
  1 23  4  0  0  0
 18  2  2  0  0  0
  5  3  4  0  0  0
 23  3  4  0  0  0
  3 24  1  0  0  0
 18  4  1  0  0  0
  4 19  1  0  0  0
  6  5  4  0  0  0
  6 11  1  0  0  0
 21  6  4  0  0  0
  7  8  1  0  0  0
 11  7  1  0  0  0
  8 12  1  0  0  0
  8 22  1  0  0  0
  9 10  1  0  0  0
 22  9  1  0  0  0
 20 10  1  0  0  0
 12 20  1  0  0  0
 14 13  4  0  0  0
 13 25  4  0  0  0
 24 14  1  0  0  0
 14 26  4  0  0  0
 15 16  4  0  0  0
 26 15  4  0  0  0
 16 17  1  0  0  0
 25 16  4  0  0  0
 17 27  3  0  0  0
 18 21  1  0  0  0
  1 28  1  0  0  0
  5 29  1  0  0  0
  7 30  1  0  0  0
  7 31  1  0  0  0
  8 32  1  0  0  0
  9 33  1  0  0  0
  9 34  1  0  0  0
 10 35  1  0  0  0
 10 36  1  0  0  0
 11 37  1  0  0  0
 12 38  1  0  0  0
 12 39  1  0  0  0
 13 40  1  0  0  0
 15 41  1  0  0  0
 19 42  1  0  0  0
 19 43  1  0  0  0
 19 44  1  0  0  0
 20 45  1  0  0  0
 20 46  1  0  0  0
 24 47  1  0  0  0
M  END
$$$$
