6h3k_ligand
  -I-interpret- 

 63 66  0  0  0  0  0  0  0  0999 V2000
    1.2960  -36.1020  -12.8470 C   0  0  0  0  0
    1.7320  -38.5000  -13.5210 C   0  0  0  0  0
    0.8480  -33.7970  -12.1130 C   0  0  0  0  0
    0.1990  -32.9820  -11.1480 C   0  0  0  0  0
    1.6500  -33.3950  -13.2040 C   0  0  0  0  0
    2.1950  -34.3280  -14.0600 C   0  0  0  0  0
    0.9120  -39.7700  -13.7480 C   0  0  0  0  0
    0.5430  -40.4180  -12.4150 C   0  0  0  0  0
    1.9400  -35.6450  -13.9300 N   0  0  0  0  0
   -1.9510  -38.3450   -7.0390 C   0  0  0  0  0
   -2.2620  -39.2690   -8.0360 C   0  0  0  0  0
   -2.2860  -38.8630   -9.3720 C   0  0  0  0  0
   -2.0160  -37.5520   -9.7210 C   0  0  0  0  0
    0.6820  -35.1880  -11.8970 C   0  0  0  0  0
   -0.0420  -35.6760  -10.8520 N   0  0  0  0  0
   -0.5140  -33.4350  -10.1400 N   0  0  0  0  0
   -1.7040  -36.6150   -8.7350 C   0  0  0  0  0
   -0.6090  -34.7720  -10.0390 C   0  0  0  0  0
   -1.6190  -34.7100   -4.5610 C   0  0  0  0  0
   -2.1940  -35.8270   -5.3310 C   0  0  0  0  0
   -1.3550  -36.0410   -6.4780 O   0  0  0  0  0
   -1.6780  -37.0270   -7.3780 C   0  0  0  0  0
   -2.6270  -40.6510   -7.6700 C   0  0  0  0  0
   -3.5850  -40.9560   -6.8240 N   0  0  0  0  0
   -3.6610  -42.3430   -6.7800 N   0  0  0  0  0
   -2.7500  -42.8020   -7.5910 C   0  0  0  0  0
   -2.0600  -41.7950   -8.1820 N   0  0  0  0  0
   -0.9600  -41.9600   -9.1320 C   0  0  0  0  0
   -1.3930  -35.2750   -9.0410 N   0  0  0  0  0
    3.0700  -33.9260  -15.2090 C   0  0  0  0  0
    1.1620  -37.4910  -12.6450 N   0  0  0  0  0
   -0.3670  -39.4360  -14.5080 C   0  0  0  0  0
    1.7330  -40.7610  -14.5660 C   0  0  0  0  0
    1.8224  -38.0268  -14.4988 H   0  0  0  0  0
    2.6540  -38.8247  -13.0387 H   0  0  0  0  0
    0.2992  -31.9014  -11.2503 H   0  0  0  0  0
    1.8402  -32.3348  -13.3710 H   0  0  0  0  0
   -0.0623  -39.7249  -11.8308 H   0  0  0  0  0
   -0.0241  -41.3302  -12.6006 H   0  0  0  0  0
    1.4529  -40.6597  -11.8658 H   0  0  0  0  0
   -1.9223  -38.6573   -5.9951 H   0  0  0  0  0
   -2.5207  -39.5891  -10.1504 H   0  0  0  0  0
   -2.0470  -37.2503  -10.7679 H   0  0  0  0  0
   -0.6069  -34.9682   -4.2494 H   0  0  0  0  0
   -1.5917  -33.8165   -5.1847 H   0  0  0  0  0
   -2.2345  -34.5220   -3.6813 H   0  0  0  0  0
   -3.2113  -35.5902   -5.6427 H   0  0  0  0  0
   -2.2384  -36.7278   -4.7189 H   0  0  0  0  0
   -2.5659  -43.8611   -7.7715 H   0  0  0  0  0
   -1.2191  -41.4759  -10.0736 H   0  0  0  0  0
   -0.0578  -41.5044   -8.7240 H   0  0  0  0  0
   -0.7863  -43.0223   -9.3039 H   0  0  0  0  0
   -1.8156  -34.5789   -8.4268 H   0  0  0  0  0
    2.5107  -33.2728  -15.8788 H   0  0  0  0  0
    3.9446  -33.3972  -14.8303 H   0  0  0  0  0
    3.3886  -34.8168  -15.7504 H   0  0  0  0  0
    0.6317  -37.8071  -11.8331 H   0  0  0  0  0
   -0.9312  -40.3512  -14.6871 H   0  0  0  0  0
   -0.9695  -38.7459  -13.9173 H   0  0  0  0  0
   -0.1114  -38.9729  -15.4610 H   0  0  0  0  0
    2.6386  -41.0204  -14.0177 H   0  0  0  0  0
    1.1435  -41.6606  -14.7428 H   0  0  0  0  0
    2.0017  -40.3078  -15.5202 H   0  0  0  0  0
  1  9  4  0  0  0
 14  1  4  0  0  0
  1 31  1  0  0  0
  2  7  1  0  0  0
 31  2  1  0  0  0
  4  3  4  0  0  0
  3  5  4  0  0  0
 14  3  4  0  0  0
 16  4  4  0  0  0
  5  6  4  0  0  0
  9  6  4  0  0  0
  6 30  1  0  0  0
  7  8  1  0  0  0
  7 32  1  0  0  0
  7 33  1  0  0  0
 10 11  4  0  0  0
 22 10  4  0  0  0
 11 12  4  0  0  0
 11 23  1  0  0  0
 13 12  4  0  0  0
 17 13  4  0  0  0
 15 14  4  0  0  0
 18 15  4  0  0  0
 18 16  4  0  0  0
 22 17  4  0  0  0
 17 29  1  0  0  0
 29 18  1  0  0  0
 20 19  1  0  0  0
 21 20  1  0  0  0
 21 22  1  0  0  0
 23 24  4  0  0  0
 23 27  4  0  0  0
 24 25  4  0  0  0
 25 26  4  0  0  0
 26 27  4  0  0  0
 27 28  1  0  0  0
  2 34  1  0  0  0
  2 35  1  0  0  0
  4 36  1  0  0  0
  5 37  1  0  0  0
  8 38  1  0  0  0
  8 39  1  0  0  0
  8 40  1  0  0  0
 10 41  1  0  0  0
 12 42  1  0  0  0
 13 43  1  0  0  0
 19 44  1  0  0  0
 19 45  1  0  0  0
 19 46  1  0  0  0
 20 47  1  0  0  0
 20 48  1  0  0  0
 26 49  1  0  0  0
 28 50  1  0  0  0
 28 51  1  0  0  0
 28 52  1  0  0  0
 29 53  1  0  0  0
 30 54  1  0  0  0
 30 55  1  0  0  0
 30 56  1  0  0  0
 31 57  1  0  0  0
 32 58  1  0  0  0
 32 59  1  0  0  0
 32 60  1  0  0  0
 33 61  1  0  0  0
 33 62  1  0  0  0
 33 63  1  0  0  0
M  END
$$$$
