5c4t_ligand
  -I-interpret- 

 50 53  0  0  0  0  0  0  0  0999 V2000
  -38.5810   25.3130   31.0930 F   0  0  0  0  0
  -39.1080   24.3260   30.3370 C   0  0  0  0  0
  -38.9830   23.0130   30.7860 C   0  0  0  0  0
  -38.4540   22.2810   31.9120 C   0  0  0  0  0
  -37.7560   22.7820   33.0970 C   0  0  0  0  0
  -38.2070   23.8490   33.7480 C   0  0  0  0  0
  -37.5930   24.3930   35.0040 C   0  0  0  0  0
  -36.0860   24.0740   35.0870 C   0  0  0  0  0
  -35.3100   24.9080   34.0520 C   0  0  0  0  0
  -35.5470   24.5260   36.4610 C   0  0  0  0  0
  -34.3440   24.2860   36.6670 O   0  0  0  0  0
  -36.3280   25.1040   37.2430 O   0  0  0  0  0
  -35.8570   22.5620   34.8490 C   0  0  0  0  0
  -36.5340   22.0100   33.5700 C   0  0  0  0  0
  -38.6770   20.9800   31.7690 N   0  0  0  0  0
  -39.3300   20.8130   30.5670 N   0  0  0  0  0
  -39.5430   22.0250   29.9390 C   0  0  0  0  0
  -40.1690   22.3450   28.7360 C   0  0  0  0  0
  -40.2560   23.6750   28.3580 C   0  0  0  0  0
  -39.7330   24.6770   29.1620 C   0  0  0  0  0
  -39.6590   19.5160   30.1510 C   0  0  0  0  0
  -40.2300   19.3140   29.0900 O   0  0  0  0  0
  -39.2840   18.3590   31.0450 C   0  0  0  0  0
  -40.2610   17.6250   31.7530 C   0  0  0  0  0
  -41.7090   18.0360   31.7690 C   0  0  0  0  0
  -42.3800   17.5130   32.7940 F   0  0  0  0  0
  -42.3510   17.6710   30.6740 F   0  0  0  0  0
  -41.8760   19.3680   31.8420 F   0  0  0  0  0
  -39.8750   16.5040   32.4800 C   0  0  0  0  0
  -38.5430   16.1170   32.5310 C   0  0  0  0  0
  -37.5720   16.8540   31.8710 C   0  0  0  0  0
  -37.9480   17.9740   31.1500 C   0  0  0  0  0
  -36.7070   18.9650   30.4580 Cl  0  0  0  0  0
  -39.0794   24.3621   33.3433 H   0  0  0  0  0
  -38.0894   23.9305   35.8571 H   0  0  0  0  0
  -37.7153   25.4761   35.0048 H   0  0  0  0  0
  -35.6715   24.6708   33.0514 H   0  0  0  0  0
  -35.4631   25.9683   34.2532 H   0  0  0  0  0
  -34.2478   24.6734   34.1210 H   0  0  0  0  0
  -37.1979   25.1608   36.8408 H   0  0  0  0  0
  -36.2930   22.0337   35.6969 H   0  0  0  0  0
  -34.7833   22.4139   34.7336 H   0  0  0  0  0
  -35.7946   22.0763   32.7719 H   0  0  0  0  0
  -36.8740   21.0019   33.8070 H   0  0  0  0  0
  -40.5838   21.5612   28.1022 H   0  0  0  0  0
  -40.7411   23.9371   27.4178 H   0  0  0  0  0
  -39.8155   25.7235   28.8686 H   0  0  0  0  0
  -40.6263   15.9233   33.0153 H   0  0  0  0  0
  -38.2587   15.2278   33.0937 H   0  0  0  0  0
  -36.5249   16.5550   31.9193 H   0  0  0  0  0
  1  2  1  0  0  0
  2  3  4  0  0  0
  2 20  4  0  0  0
  3  4  4  0  0  0
  3 17  4  0  0  0
  4  5  1  0  0  0
  4 15  4  0  0  0
  5  6  2  0  0  0
  5 14  1  0  0  0
  6  7  1  0  0  0
  7  8  1  0  0  0
  8  9  1  0  0  0
  8 10  1  0  0  0
  8 13  1  0  0  0
 10 11  2  0  0  0
 10 12  1  0  0  0
 13 14  1  0  0  0
 15 16  4  0  0  0
 16 17  4  0  0  0
 16 21  1  0  0  0
 17 18  4  0  0  0
 18 19  4  0  0  0
 19 20  4  0  0  0
 21 22  2  0  0  0
 21 23  1  0  0  0
 23 24  4  0  0  0
 23 32  4  0  0  0
 24 25  1  0  0  0
 24 29  4  0  0  0
 25 26  1  0  0  0
 25 27  1  0  0  0
 25 28  1  0  0  0
 29 30  4  0  0  0
 30 31  4  0  0  0
 31 32  4  0  0  0
 32 33  1  0  0  0
  6 34  1  0  0  0
  7 35  1  0  0  0
  7 36  1  0  0  0
  9 37  1  0  0  0
  9 38  1  0  0  0
  9 39  1  0  0  0
 12 40  1  0  0  0
 13 41  1  0  0  0
 13 42  1  0  0  0
 14 43  1  0  0  0
 14 44  1  0  0  0
 18 45  1  0  0  0
 19 46  1  0  0  0
 20 47  1  0  0  0
 29 48  1  0  0  0
 30 49  1  0  0  0
 31 50  1  0  0  0
M  END
$$$$
