4c68_ligand
  -I-interpret- 

 91 91  0  0  0  0  0  0  0  0999 V2000
    0.4140  -40.8730  -67.4450 C   0  0  0  0  0
    1.2330  -40.6240  -66.3050 N   0  3  0  0  0
   -2.6110  -46.6770  -59.9240 O   0  0  0  0  0
   -0.2740  -42.2040  -67.3270 C   0  0  0  0  0
   -4.6520  -46.5220  -60.7610 N   0  0  0  0  0
   -6.5240  -44.9540  -58.1350 O   0  0  0  0  0
    0.5100  -43.2390  -66.5800 C   0  0  0  0  0
   -7.0210  -47.7720  -58.3750 N   0  0  0  0  0
   -7.1100  -47.6000  -60.5220 O   0  0  0  0  0
    0.6100  -42.9600  -65.0880 C   0  0  0  0  0
   -4.7510  -52.0380  -56.2560 N   0  3  0  0  0
   -8.4110  -47.6620  -56.1490 O   0  0  0  0  0
   -0.7390  -43.3650  -64.4760 C   0  0  0  0  0
  -10.2050  -48.6580  -56.8970 N   0  0  0  0  0
   -0.5650  -43.6840  -63.0000 C   0  0  0  0  0
   -1.7550  -44.4350  -62.4160 C   0  0  0  0  0
   -1.6440  -45.9190  -62.6890 C   0  0  0  0  0
   -2.8070  -46.8230  -62.2670 C   0  0  0  0  0
   -3.3370  -46.6820  -60.8490 C   0  0  0  0  0
   -5.3690  -46.4460  -59.5230 C   0  0  0  0  0
   -5.7590  -45.0030  -59.3210 C   0  0  0  0  0
   -6.5840  -47.3390  -59.5330 C   0  0  0  0  0
   -8.2610  -48.5510  -58.2670 C   0  0  0  0  0
   -8.0420  -50.0800  -58.3460 C   0  0  0  0  0
   -7.1260  -50.5970  -57.2440 C   0  0  0  0  0
   -6.8930  -52.0650  -57.4790 C   0  0  0  0  0
   -6.0780  -52.5590  -56.2910 C   0  0  0  0  0
   -8.9770  -48.2230  -56.9790 C   0  0  0  0  0
  -11.0710  -48.4270  -55.7780 C   0  0  0  0  0
  -12.5150  -48.3080  -56.2990 C   0  0  0  0  0
  -13.5750  -48.1000  -55.2060 C   0  0  0  0  0
  -13.2580  -47.1140  -54.1170 C   0  0  0  0  0
  -14.4160  -46.8450  -53.1650 C   0  0  0  0  0
  -15.8130  -46.7230  -53.7190 C   0  0  0  0  0
  -16.1050  -47.7820  -54.7820 C   0  0  0  0  0
  -14.9490  -47.8580  -55.7750 C   0  0  0  0  0
    1.0431  -40.8801  -68.3351 H   0  0  0  0  0
   -0.3423  -40.0910  -67.5121 H   0  0  0  0  0
    1.6889  -39.7173  -66.4069 H   0  0  0  0  0
    0.6537  -40.6222  -65.4655 H   0  0  0  0  0
    1.9403  -41.3550  -66.2298 H   0  0  0  0  0
   -0.4195  -42.5807  -68.3394 H   0  0  0  0  0
   -1.1979  -42.0395  -66.7726 H   0  0  0  0  0
   -5.1844  -46.4487  -61.6279 H   0  0  0  0  0
   -6.7948  -44.0484  -57.9674 H   0  0  0  0  0
    1.5227  -43.2386  -66.9831 H   0  0  0  0  0
   -0.0039  -44.1924  -66.7024 H   0  0  0  0  0
   -6.4879  -47.5631  -57.5308 H   0  0  0  0  0
    0.8222  -41.9072  -64.9017 H   0  0  0  0  0
    1.4269  -43.5254  -64.6396 H   0  0  0  0  0
   -4.2635  -52.4072  -55.4397 H   0  0  0  0  0
   -4.2557  -52.3152  -57.1035 H   0  0  0  0  0
   -4.7880  -51.0202  -56.1999 H   0  0  0  0  0
   -1.1163  -44.2480  -64.9918 H   0  0  0  0  0
   -1.4439  -42.5407  -64.5842 H   0  0  0  0  0
  -10.5726  -49.1977  -57.6805 H   0  0  0  0  0
   -0.4687  -42.7404  -62.4629 H   0  0  0  0  0
    0.3148  -44.3191  -62.8965 H   0  0  0  0  0
   -2.6676  -44.0606  -62.8799 H   0  0  0  0  0
   -1.7738  -44.2775  -61.3376 H   0  0  0  0  0
   -0.7904  -46.2560  -62.1008 H   0  0  0  0  0
   -1.5903  -46.0080  -63.7740 H   0  0  0  0  0
   -2.4229  -47.8409  -62.3338 H   0  0  0  0  0
   -3.6384  -46.5493  -62.9166 H   0  0  0  0  0
   -4.7410  -46.7928  -58.7024 H   0  0  0  0  0
   -4.8762  -44.3687  -59.2413 H   0  0  0  0  0
   -6.3332  -44.6324  -60.1702 H   0  0  0  0  0
   -8.8659  -48.2664  -59.1280 H   0  0  0  0  0
   -7.5734  -50.3031  -59.3045 H   0  0  0  0  0
   -9.0117  -50.5645  -58.2317 H   0  0  0  0  0
   -7.5872  -50.4415  -56.2687 H   0  0  0  0  0
   -6.1781  -50.0591  -57.2606 H   0  0  0  0  0
   -6.3644  -52.2346  -58.4170 H   0  0  0  0  0
   -7.8361  -52.6052  -57.5614 H   0  0  0  0  0
   -6.5847  -52.2265  -55.3850 H   0  0  0  0  0
   -6.0024  -53.6432  -56.3735 H   0  0  0  0  0
  -10.7821  -47.5094  -55.2654 H   0  0  0  0  0
  -10.9960  -49.2532  -55.0710 H   0  0  0  0  0
  -12.7519  -49.2483  -56.7967 H   0  0  0  0  0
  -12.5485  -47.4310  -56.9453 H   0  0  0  0  0
  -13.5592  -49.0611  -54.6921 H   0  0  0  0  0
  -13.0114  -46.1685  -54.6000 H   0  0  0  0  0
  -12.4460  -47.5369  -53.5255 H   0  0  0  0  0
  -14.2009  -45.8671  -52.7342 H   0  0  0  0  0
  -14.4499  -47.7186  -52.5140 H   0  0  0  0  0
  -15.9105  -45.7410  -54.1818 H   0  0  0  0  0
  -16.5172  -46.8617  -52.8987 H   0  0  0  0  0
  -17.0176  -47.5135  -55.3142 H   0  0  0  0  0
  -16.2264  -48.7513  -54.2984 H   0  0  0  0  0
  -15.1616  -48.7143  -56.4150 H   0  0  0  0  0
  -14.9045  -46.8809  -56.2560 H   0  0  0  0  0
  1  2  1  0  0  0
  4  1  1  0  0  0
 19  3  2  0  0  0
  7  4  1  0  0  0
  5 19  1  0  0  0
 20  5  1  0  0  0
 21  6  1  0  0  0
 10  7  1  0  0  0
  8 22  1  0  0  0
 23  8  1  0  0  0
 22  9  2  0  0  0
 13 10  1  0  0  0
 27 11  1  0  0  0
 28 12  2  0  0  0
 15 13  1  0  0  0
 28 14  1  0  0  0
 14 29  1  0  0  0
 16 15  1  0  0  0
 17 16  1  0  0  0
 18 17  1  0  0  0
 19 18  1  0  0  0
 20 21  1  0  0  0
 22 20  1  0  0  0
 24 23  1  0  0  0
 23 28  1  0  0  0
 25 24  1  0  0  0
 26 25  1  0  0  0
 26 27  1  0  0  0
 29 30  1  0  0  0
 30 31  1  0  0  0
 31 32  1  0  0  0
 31 36  1  0  0  0
 32 33  1  0  0  0
 33 34  1  0  0  0
 34 35  1  0  0  0
 35 36  1  0  0  0
  1 37  1  0  0  0
  1 38  1  0  0  0
  2 39  1  0  0  0
  2 40  1  0  0  0
  2 41  1  0  0  0
  4 42  1  0  0  0
  4 43  1  0  0  0
  5 44  1  0  0  0
  6 45  1  0  0  0
  7 46  1  0  0  0
  7 47  1  0  0  0
  8 48  1  0  0  0
 10 49  1  0  0  0
 10 50  1  0  0  0
 11 51  1  0  0  0
 11 52  1  0  0  0
 11 53  1  0  0  0
 13 54  1  0  0  0
 13 55  1  0  0  0
 14 56  1  0  0  0
 15 57  1  0  0  0
 15 58  1  0  0  0
 16 59  1  0  0  0
 16 60  1  0  0  0
 17 61  1  0  0  0
 17 62  1  0  0  0
 18 63  1  0  0  0
 18 64  1  0  0  0
 20 65  1  0  0  0
 21 66  1  0  0  0
 21 67  1  0  0  0
 23 68  1  0  0  0
 24 69  1  0  0  0
 24 70  1  0  0  0
 25 71  1  0  0  0
 25 72  1  0  0  0
 26 73  1  0  0  0
 26 74  1  0  0  0
 27 75  1  0  0  0
 27 76  1  0  0  0
 29 77  1  0  0  0
 29 78  1  0  0  0
 30 79  1  0  0  0
 30 80  1  0  0  0
 31 81  1  0  0  0
 32 82  1  0  0  0
 32 83  1  0  0  0
 33 84  1  0  0  0
 33 85  1  0  0  0
 34 86  1  0  0  0
 34 87  1  0  0  0
 35 88  1  0  0  0
 35 89  1  0  0  0
 36 90  1  0  0  0
 36 91  1  0  0  0
M  END
$$$$
