### 
### Created by X-TOOL on Mon Sep 10 21:13:20 2018
### 

@<TRIPOS>MOLECULE
4c68_ligand
   91    91     1     0     0
SMALL
GAST_HUCK


@<TRIPOS>ATOM
      1 C           0.4140  -40.8730  -67.4450 C.3       1 EN5        -0.0354
      2 N           1.2330  -40.6240  -66.3050 N.4       1 EN5         0.2185
      3 O          -2.6110  -46.6770  -59.9240 O.2       1 EN5        -0.3969
      4 C1         -0.2740  -42.2040  -67.3270 C.3       1 EN5        -0.0126
      5 N1         -4.6520  -46.5220  -60.7610 N.am      1 EN5        -0.2635
      6 O1         -6.5240  -44.9540  -58.1350 O.3       1 EN5        -0.3903
      7 C2          0.5100  -43.2390  -66.5800 C.3       1 EN5        -0.0483
      8 N2         -7.0210  -47.7720  -58.3750 N.am      1 EN5        -0.2637
      9 O2         -7.1100  -47.6000  -60.5220 O.2       1 EN5        -0.3943
     10 C3          0.6100  -42.9600  -65.0880 C.3       1 EN5        -0.0529
     11 N3         -4.7510  -52.0380  -56.2560 N.4       1 EN5         0.2185
     12 O3         -8.4110  -47.6620  -56.1490 O.2       1 EN5        -0.3945
     13 C4         -0.7390  -43.3650  -64.4760 C.3       1 EN5        -0.0531
     14 N4        -10.2050  -48.6580  -56.8970 N.am      1 EN5        -0.2850
     15 C5         -0.5650  -43.6840  -63.0000 C.3       1 EN5        -0.0529
     16 C6         -1.7550  -44.4350  -62.4160 C.3       1 EN5        -0.0510
     17 C7         -1.6440  -45.9190  -62.6890 C.3       1 EN5        -0.0361
     18 C8         -2.8070  -46.8230  -62.2670 C.3       1 EN5         0.0374
     19 C9         -3.3370  -46.6820  -60.8490 C.2       1 EN5         0.1783
     20 C10        -5.3690  -46.4460  -59.5230 C.3       1 EN5         0.1538
     21 C11        -5.7590  -45.0030  -59.3210 C.3       1 EN5         0.0843
     22 C12        -6.5840  -47.3390  -59.5330 C.2       1 EN5         0.2062
     23 C13        -8.2610  -48.5510  -58.2670 C.3       1 EN5         0.1308
     24 C14        -8.0420  -50.0800  -58.3460 C.3       1 EN5        -0.0122
     25 C15        -7.1260  -50.5970  -57.2440 C.3       1 EN5        -0.0440
     26 C16        -6.8930  -52.0650  -57.4790 C.3       1 EN5        -0.0124
     27 C17        -6.0780  -52.5590  -56.2910 C.3       1 EN5        -0.0354
     28 C18        -8.9770  -48.2230  -56.9790 C.2       1 EN5         0.2016
     29 C19       -11.0710  -48.4270  -55.7780 C.3       1 EN5         0.0312
     30 C20       -12.5150  -48.3080  -56.2990 C.3       1 EN5        -0.0299
     31 C21       -13.5750  -48.1000  -55.2060 C.3       1 EN5        -0.0392
     32 C22       -13.2580  -47.1140  -54.1170 C.3       1 EN5        -0.0501
     33 C23       -14.4160  -46.8450  -53.1650 C.3       1 EN5        -0.0528
     34 C24       -15.8130  -46.7230  -53.7190 C.3       1 EN5        -0.0530
     35 C25       -16.1050  -47.7820  -54.7820 C.3       1 EN5        -0.0528
     36 C26       -14.9490  -47.8580  -55.7750 C.3       1 EN5        -0.0501
     37 H           1.0422  -40.8706  -68.3479 H         1 EN5         0.0813
     38 H          -0.3448  -40.0806  -67.5240 H         1 EN5         0.0813
     39 H           1.6841  -39.7281  -66.4046 H         1 EN5         0.1994
     40 H           1.9325  -41.3458  -66.2297 H         1 EN5         0.1994
     41 H           0.6615  -40.6219  -65.4747 H         1 EN5         0.1994
     42 H          -0.4666  -42.5834  -68.3414 H         1 EN5         0.0317
     43 H          -1.2300  -42.0525  -66.8045 H         1 EN5         0.0317
     44 H          -5.1740  -46.4501  -61.6109 H         1 EN5         0.1883
     45 H          -7.2933  -45.5028  -58.2328 H         1 EN5         0.2097
     46 H           1.5272  -43.2743  -66.9971 H         1 EN5         0.0267
     47 H           0.0220  -44.2148  -66.7204 H         1 EN5         0.0267
     48 H          -6.4984  -47.5672  -57.5474 H         1 EN5         0.1883
     49 H           0.8005  -41.8908  -64.9135 H         1 EN5         0.0265
     50 H           1.4221  -43.5544  -64.6441 H         1 EN5         0.0265
     51 H          -4.2682  -52.4023  -55.4496 H         1 EN5         0.1994
     52 H          -4.7863  -51.0322  -56.2005 H         1 EN5         0.1994
     53 H          -4.2605  -52.3114  -57.0931 H         1 EN5         0.1994
     54 H          -1.1238  -44.2536  -64.9979 H         1 EN5         0.0265
     55 H          -1.4534  -42.5361  -64.5878 H         1 EN5         0.0265
     56 H         -10.5654  -49.1872  -57.6652 H         1 EN5         0.1851
     57 H          -0.4394  -42.7405  -62.4486 H         1 EN5         0.0265
     58 H           0.3360  -44.3030  -62.8777 H         1 EN5         0.0265
     59 H          -2.6806  -44.0533  -62.8717 H         1 EN5         0.0267
     60 H          -1.7865  -44.2703  -61.3289 H         1 EN5         0.0267
     61 H          -0.7450  -46.2799  -62.1679 H         1 EN5         0.0290
     62 H          -1.5129  -46.0419  -63.7742 H         1 EN5         0.0290
     63 H          -2.4747  -47.8642  -62.3908 H         1 EN5         0.0502
     64 H          -3.6441  -46.6214  -62.9515 H         1 EN5         0.0502
     65 H          -4.7095  -46.7634  -58.7019 H         1 EN5         0.0823
     66 H          -4.8599  -44.3776  -59.2188 H         1 EN5         0.0606
     67 H          -6.3572  -44.6487  -60.1734 H         1 EN5         0.0606
     68 H          -8.9081  -48.2609  -59.1079 H         1 EN5         0.0800
     69 H          -7.5925  -50.3219  -59.3204 H         1 EN5         0.0312
     70 H          -9.0173  -50.5809  -58.2576 H         1 EN5         0.0312
     71 H          -7.6014  -50.4474  -56.2634 H         1 EN5         0.0269
     72 H          -6.1674  -50.0582  -57.2728 H         1 EN5         0.0269
     73 H          -6.3352  -52.2180  -58.4146 H         1 EN5         0.0317
     74 H          -7.8526  -52.6001  -57.5325 H         1 EN5         0.0317
     75 H          -6.5939  -52.2604  -55.3665 H         1 EN5         0.0813
     76 H          -6.0201  -53.6563  -56.3406 H         1 EN5         0.0813
     77 H         -10.7813  -47.4955  -55.2698 H         1 EN5         0.0520
     78 H         -10.9986  -49.2676  -55.0722 H         1 EN5         0.0520
     79 H         -12.7605  -49.2318  -56.8434 H         1 EN5         0.0287
     80 H         -12.5613  -47.4525  -56.9889 H         1 EN5         0.0287
     81 H         -13.6338  -49.0715  -54.6934 H         1 EN5         0.0301
     82 H         -12.9685  -46.1622  -54.5863 H         1 EN5         0.0268
     83 H         -12.4134  -47.5059  -53.5314 H         1 EN5         0.0268
     84 H         -14.1927  -45.9009  -52.6466 H         1 EN5         0.0265
     85 H         -14.4305  -47.6689  -52.4363 H         1 EN5         0.0265
     86 H         -15.9300  -45.7265  -54.1698 H         1 EN5         0.0265
     87 H         -16.5326  -46.8396  -52.8953 H         1 EN5         0.0265
     88 H         -17.0281  -47.5156  -55.3175 H         1 EN5         0.0265
     89 H         -16.2324  -48.7605  -54.2959 H         1 EN5         0.0265
     90 H         -15.1670  -48.6769  -56.4763 H         1 EN5         0.0268
     91 H         -14.9185  -46.9045  -56.3227 H         1 EN5         0.0268
@<TRIPOS>BOND
     1    1    2 1  
     2    4    1 1  
     3   19    3 2  
     4    7    4 1  
     5    5   19 am 
     6   20    5 1  
     7   21    6 1  
     8   10    7 1  
     9    8   22 am 
    10   23    8 1  
    11   22    9 2  
    12   13   10 1  
    13   27   11 1  
    14   28   12 2  
    15   15   13 1  
    16   28   14 am 
    17   14   29 1  
    18   16   15 1  
    19   17   16 1  
    20   18   17 1  
    21   19   18 1  
    22   20   21 1  
    23   22   20 1  
    24   24   23 1  
    25   23   28 1  
    26   25   24 1  
    27   26   25 1  
    28   26   27 1  
    29   29   30 1  
    30   30   31 1  
    31   31   32 1  
    32   31   36 1  
    33   32   33 1  
    34   33   34 1  
    35   34   35 1  
    36   35   36 1  
    37    1   37 1  
    38    1   38 1  
    39    2   39 1  
    40    2   40 1  
    41    2   41 1  
    42    4   42 1  
    43    4   43 1  
    44    5   44 1  
    45    6   45 1  
    46    7   46 1  
    47    7   47 1  
    48    8   48 1  
    49   10   49 1  
    50   10   50 1  
    51   11   51 1  
    52   11   52 1  
    53   11   53 1  
    54   13   54 1  
    55   13   55 1  
    56   14   56 1  
    57   15   57 1  
    58   15   58 1  
    59   16   59 1  
    60   16   60 1  
    61   17   61 1  
    62   17   62 1  
    63   18   63 1  
    64   18   64 1  
    65   20   65 1  
    66   21   66 1  
    67   21   67 1  
    68   23   68 1  
    69   24   69 1  
    70   24   70 1  
    71   25   71 1  
    72   25   72 1  
    73   26   73 1  
    74   26   74 1  
    75   27   75 1  
    76   27   76 1  
    77   29   77 1  
    78   29   78 1  
    79   30   79 1  
    80   30   80 1  
    81   31   81 1  
    82   32   82 1  
    83   32   83 1  
    84   33   84 1  
    85   33   85 1  
    86   34   86 1  
    87   34   87 1  
    88   35   88 1  
    89   35   89 1  
    90   36   90 1  
    91   36   91 1  
@<TRIPOS>SUBSTRUCTURE
     1 EN5         1

