4q7s_ligand
  -I-interpret- 

 16 16  0  0  0  0  0  0  0  0999 V2000
   14.9010    0.2290   17.0040 S   0  0  0  0  0
   15.4220    1.2990   15.7810 C   0  0  0  0  0
   15.0830    2.6970   15.8550 C   0  0  0  0  0
   15.5100    3.5510   14.8880 C   0  0  0  0  0
   15.1320    4.9710   14.9420 C   0  0  0  0  0
   16.3080    3.0660   13.8090 C   0  0  0  0  0
   16.6510    1.7410   13.7530 C   0  0  0  0  0
   16.1970    0.8410   14.7640 N   0  0  0  0  0
   16.5680   -0.4340   14.7350 O   0  0  0  0  0
   14.4843    3.0697   16.6861 H   0  0  0  0  0
   14.0459    5.0580   14.9105 H   0  0  0  0  0
   15.5063    5.4104   15.8666 H   0  0  0  0  0
   15.5645    5.4935   14.0888 H   0  0  0  0  0
   16.6445    3.7497   13.0296 H   0  0  0  0  0
   17.2713    1.3734   12.9356 H   0  0  0  0  0
   16.1780   -0.8966   15.4803 H   0  0  0  0  0
  1  2  2  0  0  0
  2  3  1  0  0  0
  2  8  1  0  0  0
  3  4  2  0  0  0
  4  5  1  0  0  0
  4  6  1  0  0  0
  6  7  2  0  0  0
  7  8  1  0  0  0
  8  9  1  0  0  0
  3 10  1  0  0  0
  5 11  1  0  0  0
  5 12  1  0  0  0
  5 13  1  0  0  0
  6 14  1  0  0  0
  7 15  1  0  0  0
  9 16  1  0  0  0
M  END
$$$$
