2fys_ligand
  -I-interpret- 

201201  0  0  0  0  0  0  0  0999 V2000
   18.1600   17.8470   -5.9130 N   0  3  0  0  0
   17.1440   17.4130   -4.9120 C   0  0  0  0  0
   16.6170   16.0100   -5.1930 C   0  0  0  0  0
   17.1160   15.3080   -6.0740 O   0  0  0  0  0
   15.9730   18.4020   -4.8850 C   0  0  0  0  0
   16.2130   19.6530   -4.0460 C   0  0  0  0  0
   16.2020   19.3370   -2.5500 C   0  0  0  0  0
   17.3070   18.4670   -2.1530 N   0  0  0  0  0
   17.4710   17.9690   -0.9300 C   0  0  0  0  0
   16.5980   18.2510    0.0280 N   0  0  0  0  0
   18.5110   17.1910   -0.6620 N   0  0  0  0  0
   15.6080   15.6130   -4.4230 N   0  0  0  0  0
   14.9740   14.3070   -4.5600 C   0  0  0  0  0
   15.9410   13.1410   -4.3590 C   0  0  0  0  0
   17.1630   13.3060   -4.4090 O   0  0  0  0  0
   14.3040   14.1910   -5.9330 C   0  0  0  0  0
   13.3410   13.0140   -6.0730 C   0  0  0  0  0
   11.9660   13.2850   -5.4500 C   0  0  0  0  0
   12.0050   13.5230   -4.0070 N   0  0  0  0  0
   12.1070   14.7230   -3.4400 C   0  0  0  0  0
   12.1810   15.8150   -4.1890 N   0  0  0  0  0
   12.1310   14.8310   -2.1190 N   0  0  0  0  0
   15.3720   11.9610   -4.1340 N   0  0  0  0  0
   16.1350   10.7370   -3.9120 C   0  0  0  0  0
   17.0670   10.4320   -5.0840 C   0  0  0  0  0
   16.6970    9.7150   -6.0150 O   0  0  0  0  0
   15.1650    9.5700   -3.6910 C   0  0  0  0  0
   15.7120    8.2200   -3.2290 C   0  0  0  0  0
   16.5260    8.3890   -1.9550 C   0  0  0  0  0
   14.5460    7.2710   -2.9960 C   0  0  0  0  0
   18.2790   10.9800   -5.0270 N   0  0  0  0  0
   19.2710   10.7760   -6.0790 C   0  0  0  0  0
   20.6940   10.7120   -5.5350 C   0  0  0  0  0
   20.9160   10.8160   -4.3280 O   0  0  0  0  0
   19.1800   11.8980   -7.1220 C   0  0  0  0  0
   18.0820   11.7120   -8.1590 C   0  0  0  0  0
   18.3180   10.4990   -9.0410 C   0  0  0  0  0
   19.3670   10.3750   -9.6770 O   0  0  0  0  0
   17.3420    9.6000   -9.0870 N   0  0  0  0  0
   21.6470   10.5370   -6.4460 N   0  0  0  0  0
   23.0680   10.4550   -6.1170 C   0  0  0  0  0
   23.4540    9.0970   -5.5280 C   0  0  0  0  0
   23.7450    8.9870   -4.3360 O   0  0  0  0  0
   23.4540   11.5750   -5.1430 C   0  0  0  0  0
   24.9560   11.8240   -5.0370 C   0  0  0  0  0
   25.5620   12.2860   -6.3610 C   0  0  0  0  0
   24.9880   13.6230   -6.8240 C   0  0  0  0  0
   23.5530   13.5430   -7.2270 N   0  3  0  0  0
   23.4550    8.0650   -6.3720 N   0  0  0  0  0
   23.8180    6.7360   -5.9100 C   0  0  0  0  0
   23.5490    5.5970   -6.8820 C   0  0  0  0  0
   22.5490    5.6080   -7.5980 O   0  0  0  0  0
   24.4480    4.6130   -6.8950 N   0  0  0  0  0
   24.3440    3.4360   -7.7610 C   0  0  0  0  0
   25.3830    2.3670   -7.3780 C   0  0  0  0  0
   26.5720    2.6680   -7.2440 O   0  0  0  0  0
   24.5360    3.8340   -9.2300 C   0  0  0  0  0
   23.3050    4.4940   -9.8280 C   0  0  0  0  0
   22.2260    3.8990   -9.8690 O   0  0  0  0  0
   23.4620    5.7270  -10.2960 N   0  0  0  0  0
   24.9290    1.1240   -7.2140 N   0  0  0  0  0
   25.8080    0.0060   -6.8460 C   0  0  0  0  0
   25.1440   -1.3560   -7.0830 C   0  0  0  0  0
   24.4300   -1.8560   -6.2110 O   0  0  0  0  0
   26.1920    0.0920   -5.3630 C   0  0  0  0  0
   27.1320    1.1700   -4.8180 C   0  0  0  0  0
   27.0050    1.2130   -3.3070 C   0  0  0  0  0
   28.5670    0.8840   -5.2290 C   0  0  0  0  0
   25.3700   -1.9790   -8.2560 N   0  0  0  0  0
   24.7460   -3.2840   -8.5010 C   0  0  0  0  0
   25.2170   -4.3120   -7.4730 C   0  0  0  0  0
   26.4190   -4.4980   -7.2700 O   0  0  0  0  0
   25.1950   -3.6160   -9.9230 C   0  0  0  0  0
   25.3160   -2.2550  -10.5540 C   0  0  0  0  0
   26.0500   -1.5030   -9.4710 C   0  0  0  0  0
   24.2580   -4.9690   -6.8250 N   0  0  0  0  0
   24.5580   -5.9630   -5.8000 C   0  0  0  0  0
   23.6720   -7.2050   -5.8870 C   0  0  0  0  0
   22.8090   -7.3110   -6.7600 O   0  0  0  0  0
   24.4170   -5.3490   -4.3860 C   0  0  0  0  0
   25.5930   -4.4270   -4.0960 C   0  0  0  0  0
   23.1130   -4.5680   -4.2890 C   0  0  0  0  0
   23.8990   -8.1410   -4.9680 N   0  0  0  0  0
   23.1450   -9.3910   -4.9140 C   0  0  0  0  0
   21.6420   -9.1350   -4.8320 C   0  0  0  0  0
   20.8990   -9.7280   -5.6410 O   0  0  0  0  0
   23.5930  -10.2210   -3.7060 C   0  0  0  0  0
   25.1030  -10.4020   -3.6060 C   0  0  0  0  0
   25.4950  -11.2500   -2.4020 C   0  0  0  0  0
   25.2530  -12.6760   -2.6140 N   0  0  0  0  0
   25.9360  -13.4340   -3.4680 C   0  0  0  0  0
   26.9120  -12.9090   -4.1990 N   0  0  0  0  0
   25.6470  -14.7230   -3.5860 N   0  0  0  0  0
   21.1386   -8.3036   -3.9241 O   0  0  0  0  0
   18.4812   18.7876   -5.6837 H   0  0  0  0  0
   18.9504   17.2026   -5.8947 H   0  0  0  0  0
   17.7410   17.8468   -6.8430 H   0  0  0  0  0
   17.6396   17.3943   -3.9414 H   0  0  0  0  0
   15.1268   17.8791   -4.4393 H   0  0  0  0  0
   15.8151   18.7341   -5.9111 H   0  0  0  0  0
   15.4148   20.3657   -4.2536 H   0  0  0  0  0
   17.1905   20.0596   -4.3052 H   0  0  0  0  0
   15.2694   18.8208   -2.3224 H   0  0  0  0  0
   16.3026   20.2769   -2.0073 H   0  0  0  0  0
   17.9997   18.2250   -2.8616 H   0  0  0  0  0
   16.7284   17.8700    0.9651 H   0  0  0  0  0
   15.7963   18.8488   -0.1725 H   0  0  0  0  0
   19.1871   16.9733   -1.3940 H   0  0  0  0  0
   15.2625   16.2499   -3.7052 H   0  0  0  0  0
   14.2289   14.2398   -3.7673 H   0  0  0  0  0
   15.0990   14.0402   -6.6632 H   0  0  0  0  0
   13.7196   15.0994   -6.0796 H   0  0  0  0  0
   13.7794   12.1633   -5.5513 H   0  0  0  0  0
   13.1925   12.8321   -7.1374 H   0  0  0  0  0
   11.3547   12.3979   -5.6157 H   0  0  0  0  0
   11.5710   14.1874   -5.9167 H   0  0  0  0  0
   11.9501   12.7115   -3.3915 H   0  0  0  0  0
   12.2559   16.7317   -3.7481 H   0  0  0  0  0
   12.1630   15.7381   -5.2059 H   0  0  0  0  0
   12.0713   13.9949   -1.5378 H   0  0  0  0  0
   14.3535   11.9085   -4.1156 H   0  0  0  0  0
   16.7573   10.8760   -3.0280 H   0  0  0  0  0
   14.7360    9.3748   -4.6738 H   0  0  0  0  0
   14.5143    9.8987   -2.8806 H   0  0  0  0  0
   16.3681    7.8072   -3.9953 H   0  0  0  0  0
   17.3593    9.0655   -2.1449 H   0  0  0  0  0
   15.8910    8.8035   -1.1720 H   0  0  0  0  0
   16.9088    7.4187   -1.6386 H   0  0  0  0  0
   13.8895    7.6851   -2.2308 H   0  0  0  0  0
   13.9897    7.1460   -3.9250 H   0  0  0  0  0
   14.9263    6.3043   -2.6659 H   0  0  0  0  0
   18.5221   11.5601   -4.2240 H   0  0  0  0  0
   19.0452    9.8145   -6.5401 H   0  0  0  0  0
   20.1275   11.9090   -7.6607 H   0  0  0  0  0
   18.9543   12.8172   -6.5813 H   0  0  0  0  0
   18.0680   12.5954   -8.7974 H   0  0  0  0  0
   17.1401   11.5662   -7.6302 H   0  0  0  0  0
   17.4436    8.7660   -9.6654 H   0  0  0  0  0
   16.4906    9.7433   -8.5439 H   0  0  0  0  0
   21.3716   10.4559   -7.4248 H   0  0  0  0  0
   23.6183   10.5740   -7.0503 H   0  0  0  0  0
   23.1079   11.2740   -4.1542 H   0  0  0  0  0
   23.0017   12.4942   -5.5153 H   0  0  0  0  0
   25.4351   10.8865   -4.7547 H   0  0  0  0  0
   25.1172   12.6097   -4.2989 H   0  0  0  0  0
   25.3308   11.5375   -7.1188 H   0  0  0  0  0
   26.6354   12.4097   -6.2173 H   0  0  0  0  0
   25.5577   13.9409   -7.6972 H   0  0  0  0  0
   25.0564   14.3179   -5.9870 H   0  0  0  0  0
   23.2326   14.4647   -7.5241 H   0  0  0  0  0
   23.4539   12.8825   -7.9979 H   0  0  0  0  0
   22.9953   13.2274   -6.4334 H   0  0  0  0  0
   23.1992    8.2093   -7.3488 H   0  0  0  0  0
   23.2054    6.5393   -5.0301 H   0  0  0  0  0
   24.8956    6.7518   -5.7469 H   0  0  0  0  0
   25.2504    4.6832   -6.2692 H   0  0  0  0  0
   23.3477    3.0148   -7.6265 H   0  0  0  0  0
   24.7365    2.9256   -9.7981 H   0  0  0  0  0
   25.3550    4.5517   -9.2767 H   0  0  0  0  0
   22.6709    6.2199  -10.7102 H   0  0  0  0  0
   24.3737    6.1811  -10.2412 H   0  0  0  0  0
   23.9344    0.9427   -7.3491 H   0  0  0  0  0
   26.6906    0.0862   -7.4805 H   0  0  0  0  0
   26.7425   -0.8329   -5.1910 H   0  0  0  0  0
   25.2449    0.3104   -4.8696 H   0  0  0  0  0
   26.8557    2.1394   -5.2326 H   0  0  0  0  0
   25.9758    1.4493   -3.0367 H   0  0  0  0  0
   27.2769    0.2420   -2.8930 H   0  0  0  0  0
   27.6713    1.9785   -2.9093 H   0  0  0  0  0
   28.8710   -0.0847   -4.8323 H   0  0  0  0  0
   28.6362    0.8705   -6.3167 H   0  0  0  0  0
   29.2192    1.6617   -4.8317 H   0  0  0  0  0
   23.6603   -3.2835   -8.4047 H   0  0  0  0  0
   24.4987   -4.2694  -10.4486 H   0  0  0  0  0
   26.1241   -4.1851   -9.9550 H   0  0  0  0  0
   25.8289   -2.2576  -11.5158 H   0  0  0  0  0
   24.3605   -1.8099  -10.8315 H   0  0  0  0  0
   27.1239   -1.6896   -9.4668 H   0  0  0  0  0
   26.0100   -0.4206   -9.5930 H   0  0  0  0  0
   23.2834   -4.7716   -7.0519 H   0  0  0  0  0
   25.5869   -6.2743   -5.9807 H   0  0  0  0  0
   24.4087   -6.1538   -3.6510 H   0  0  0  0  0
   26.5210   -4.9964   -4.1483 H   0  0  0  0  0
   25.6151   -3.6252   -4.8341 H   0  0  0  0  0
   25.4821   -4.0015   -3.0986 H   0  0  0  0  0
   23.1134   -3.7692   -5.0306 H   0  0  0  0  0
   22.2745   -5.2388   -4.4761 H   0  0  0  0  0
   23.0212   -4.1391   -3.2911 H   0  0  0  0  0
   24.6286   -7.9789   -4.2738 H   0  0  0  0  0
   23.3459   -9.9412   -5.8332 H   0  0  0  0  0
   23.1543  -11.2130   -3.8139 H   0  0  0  0  0
   23.2704   -9.6899   -2.8105 H   0  0  0  0  0
   25.5586   -9.4181   -3.4940 H   0  0  0  0  0
   25.4470  -10.9088   -4.5076 H   0  0  0  0  0
   24.8882  -10.9297   -1.5551 H   0  0  0  0  0
   26.5626  -11.1136   -2.2297 H   0  0  0  0  0
   24.5116  -13.1192   -2.0714 H   0  0  0  0  0
   27.4358  -13.4965   -4.8478 H   0  0  0  0  0
   27.1380  -11.9182   -4.1118 H   0  0  0  0  0
   24.9018  -15.1323   -3.0224 H   0  0  0  0  0
   21.8517   -7.9420   -3.3927 H   0  0  0  0  0
  2  1  1  0  0  0
  2  5  1  0  0  0
  3  2  1  0  0  0
  3  4  2  0  0  0
  5  6  1  0  0  0
  6  7  1  0  0  0
  7  8  1  0  0  0
  8  9  1  0  0  0
  9 11  2  0  0  0
  9 10  1  0  0  0
 13 12  1  0  0  0
 13 16  1  0  0  0
 14 13  1  0  0  0
 14 15  2  0  0  0
 16 17  1  0  0  0
 17 18  1  0  0  0
 18 19  1  0  0  0
 19 20  1  0  0  0
 20 22  2  0  0  0
 20 21  1  0  0  0
 12  3  1  0  0  0
 24 23  1  0  0  0
 24 27  1  0  0  0
 25 24  1  0  0  0
 25 26  2  0  0  0
 27 28  1  0  0  0
 28 29  1  0  0  0
 28 30  1  0  0  0
 23 14  1  0  0  0
 32 31  1  0  0  0
 32 35  1  0  0  0
 33 32  1  0  0  0
 33 34  2  0  0  0
 35 36  1  0  0  0
 36 37  1  0  0  0
 37 39  1  0  0  0
 37 38  2  0  0  0
 31 25  1  0  0  0
 41 40  1  0  0  0
 41 44  1  0  0  0
 42 41  1  0  0  0
 42 43  2  0  0  0
 44 45  1  0  0  0
 45 46  1  0  0  0
 46 47  1  0  0  0
 47 48  1  0  0  0
 40 33  1  0  0  0
 50 49  1  0  0  0
 51 50  1  0  0  0
 51 52  2  0  0  0
 49 42  1  0  0  0
 54 53  1  0  0  0
 54 57  1  0  0  0
 55 54  1  0  0  0
 55 56  2  0  0  0
 57 58  1  0  0  0
 58 60  1  0  0  0
 58 59  2  0  0  0
 53 51  1  0  0  0
 62 61  1  0  0  0
 62 65  1  0  0  0
 63 62  1  0  0  0
 63 64  2  0  0  0
 65 66  1  0  0  0
 66 67  1  0  0  0
 66 68  1  0  0  0
 61 55  1  0  0  0
 71 70  1  0  0  0
 70 73  1  0  0  0
 70 69  1  0  0  0
 69 75  1  0  0  0
 75 74  1  0  0  0
 73 74  1  0  0  0
 71 72  2  0  0  0
 69 63  1  0  0  0
 77 76  1  0  0  0
 77 80  1  0  0  0
 78 77  1  0  0  0
 78 79  2  0  0  0
 80 82  1  0  0  0
 80 81  1  0  0  0
 76 71  1  0  0  0
 83 84  1  0  0  0
 84 87  1  0  0  0
 84 85  1  0  0  0
 85 86  2  0  0  0
 87 88  1  0  0  0
 88 89  1  0  0  0
 89 90  1  0  0  0
 90 91  1  0  0  0
 91 93  2  0  0  0
 91 92  1  0  0  0
 78 83  1  0  0  0
 85 94  1  0  0  0
  1 95  1  0  0  0
  1 96  1  0  0  0
  1 97  1  0  0  0
  2 98  1  0  0  0
  5 99  1  0  0  0
  5100  1  0  0  0
  6101  1  0  0  0
  6102  1  0  0  0
  7103  1  0  0  0
  7104  1  0  0  0
  8105  1  0  0  0
 10106  1  0  0  0
 10107  1  0  0  0
 11108  1  0  0  0
 12109  1  0  0  0
 13110  1  0  0  0
 16111  1  0  0  0
 16112  1  0  0  0
 17113  1  0  0  0
 17114  1  0  0  0
 18115  1  0  0  0
 18116  1  0  0  0
 19117  1  0  0  0
 21118  1  0  0  0
 21119  1  0  0  0
 22120  1  0  0  0
 23121  1  0  0  0
 24122  1  0  0  0
 27123  1  0  0  0
 27124  1  0  0  0
 28125  1  0  0  0
 29126  1  0  0  0
 29127  1  0  0  0
 29128  1  0  0  0
 30129  1  0  0  0
 30130  1  0  0  0
 30131  1  0  0  0
 31132  1  0  0  0
 32133  1  0  0  0
 35134  1  0  0  0
 35135  1  0  0  0
 36136  1  0  0  0
 36137  1  0  0  0
 39138  1  0  0  0
 39139  1  0  0  0
 40140  1  0  0  0
 41141  1  0  0  0
 44142  1  0  0  0
 44143  1  0  0  0
 45144  1  0  0  0
 45145  1  0  0  0
 46146  1  0  0  0
 46147  1  0  0  0
 47148  1  0  0  0
 47149  1  0  0  0
 48150  1  0  0  0
 48151  1  0  0  0
 48152  1  0  0  0
 49153  1  0  0  0
 50154  1  0  0  0
 50155  1  0  0  0
 53156  1  0  0  0
 54157  1  0  0  0
 57158  1  0  0  0
 57159  1  0  0  0
 60160  1  0  0  0
 60161  1  0  0  0
 61162  1  0  0  0
 62163  1  0  0  0
 65164  1  0  0  0
 65165  1  0  0  0
 66166  1  0  0  0
 67167  1  0  0  0
 67168  1  0  0  0
 67169  1  0  0  0
 68170  1  0  0  0
 68171  1  0  0  0
 68172  1  0  0  0
 70173  1  0  0  0
 73174  1  0  0  0
 73175  1  0  0  0
 74176  1  0  0  0
 74177  1  0  0  0
 75178  1  0  0  0
 75179  1  0  0  0
 76180  1  0  0  0
 77181  1  0  0  0
 80182  1  0  0  0
 81183  1  0  0  0
 81184  1  0  0  0
 81185  1  0  0  0
 82186  1  0  0  0
 82187  1  0  0  0
 82188  1  0  0  0
 83189  1  0  0  0
 84190  1  0  0  0
 87191  1  0  0  0
 87192  1  0  0  0
 88193  1  0  0  0
 88194  1  0  0  0
 89195  1  0  0  0
 89196  1  0  0  0
 90197  1  0  0  0
 92198  1  0  0  0
 92199  1  0  0  0
 93200  1  0  0  0
 94201  1  0  0  0
M  END
$$$$
