### 
### Created by X-TOOL on Mon Sep 10 21:12:53 2018
### 

@<TRIPOS>MOLECULE
2fys_ligand
  204   204     1     0     0
SMALL
GAST_HUCK


@<TRIPOS>ATOM
      1 N          18.1600   17.8470   -5.9130 N.4       1 ARG         0.2379
      2 CA         17.1440   17.4130   -4.9120 C.3       1 ARG         0.0651
      3 C          16.6170   16.0100   -5.1930 C.2       1 ARG         0.2267
      4 O          17.1160   15.3080   -6.0740 O.2       1 ARG        -0.3907
      5 CB         15.9730   18.4020   -4.8850 C.3       1 ARG         0.0110
      6 CG         16.2130   19.6530   -4.0460 C.3       1 ARG        -0.0125
      7 CD         16.2020   19.3370   -2.5500 C.3       1 ARG         0.0629
      8 NE         17.3070   18.4670   -2.1530 N.pl3     1 ARG        -0.2723
      9 CZ         17.4710   17.9690   -0.9300 C.cat     1 ARG         0.2882
     10 NH1        16.5980   18.2510    0.0280 N.pl3     1 ARG        -0.2849
     11 NH2        18.5110   17.1910   -0.6620 N.pl3     1 ARG        -0.2849
     12 N          15.6080   15.6130   -4.4230 N.am      1 ARG        -0.2610
     13 CA         14.9740   14.3070   -4.5600 C.3       1 ARG         0.1312
     14 C          15.9410   13.1410   -4.3590 C.2       1 ARG         0.2039
     15 O          17.1630   13.3060   -4.4090 O.2       1 ARG        -0.3944
     16 CB         14.3040   14.1910   -5.9330 C.3       1 ARG        -0.0092
     17 CG         13.3410   13.0140   -6.0730 C.3       1 ARG        -0.0156
     18 CD         11.9660   13.2850   -5.4500 C.3       1 ARG         0.0627
     19 NE         12.0050   13.5230   -4.0070 N.pl3     1 ARG        -0.2723
     20 CZ         12.1070   14.7230   -3.4400 C.cat     1 ARG         0.2882
     21 NH1        12.1810   15.8150   -4.1890 N.pl3     1 ARG        -0.2849
     22 NH2        12.1310   14.8310   -2.1190 N.pl3     1 ARG        -0.2849
     23 N          15.3720   11.9610   -4.1340 N.am      1 LEU        -0.2637
     24 CA         16.1350   10.7370   -3.9120 C.3       1 LEU         0.1312
     25 C          17.0670   10.4320   -5.0840 C.2       1 LEU         0.2039
     26 O          16.6970    9.7150   -6.0150 O.2       1 LEU        -0.3944
     27 CB         15.1650    9.5700   -3.6910 C.3       1 LEU        -0.0101
     28 CG         15.7120    8.2200   -3.2290 C.3       1 LEU        -0.0425
     29 CD1        16.5260    8.3890   -1.9550 C.3       1 LEU        -0.0625
     30 CD2        14.5460    7.2710   -2.9960 C.3       1 LEU        -0.0625
     31 N          18.2790   10.9800   -5.0270 N.am      1 GLN        -0.2636
     32 CA         19.2710   10.7760   -6.0790 C.3       1 GLN         0.1330
     33 C          20.6940   10.7120   -5.5350 C.2       1 GLN         0.2040
     34 O          20.9160   10.8160   -4.3280 O.2       1 GLN        -0.3944
     35 CB         19.1800   11.8980   -7.1220 C.3       1 GLN         0.0045
     36 CG         18.0820   11.7120   -8.1590 C.3       1 GLN         0.0412
     37 CD         18.3180   10.4990   -9.0410 C.2       1 GLN         0.1737
     38 OE1        19.3670   10.3750   -9.6770 O.2       1 GLN        -0.3973
     39 NE2        17.3420    9.6000   -9.0870 N.am      1 GLN        -0.3009
     40 N          21.6470   10.5370   -6.4460 N.am      1 LYS        -0.2637
     41 CA         23.0680   10.4550   -6.1170 C.3       1 LYS         0.1310
     42 C          23.4540    9.0970   -5.5280 C.2       1 LYS         0.2037
     43 O          23.7450    8.9870   -4.3360 O.2       1 LYS        -0.3944
     44 CB         23.4540   11.5750   -5.1430 C.3       1 LYS        -0.0122
     45 CG         24.9560   11.8240   -5.0370 C.3       1 LYS        -0.0440
     46 CD         25.5620   12.2860   -6.3610 C.3       1 LYS        -0.0124
     47 CE         24.9880   13.6230   -6.8240 C.3       1 LYS        -0.0354
     48 NZ         23.5530   13.5430   -7.2270 N.4       1 LYS         0.2185
     49 N          23.4550    8.0650   -6.3720 N.am      1 GLY        -0.2664
     50 CA         23.8180    6.7360   -5.9100 C.3       1 GLY         0.1201
     51 C          23.5490    5.5970   -6.8820 C.2       1 GLY         0.2009
     52 O          22.5490    5.6080   -7.5980 O.2       1 GLY        -0.3947
     53 N          24.4480    4.6130   -6.8950 N.am      1 ASN        -0.2618
     54 CA         24.3440    3.4360   -7.7610 C.3       1 ASN         0.1476
     55 C          25.3830    2.3670   -7.3780 C.2       1 ASN         0.2063
     56 O          26.5720    2.6680   -7.2440 O.2       1 ASN        -0.3942
     57 CB         24.5360    3.8340   -9.2300 C.3       1 ASN         0.0773
     58 CG         23.3050    4.4940   -9.8280 C.2       1 ASN         0.1780
     59 OD1        22.2260    3.8990   -9.8690 O.2       1 ASN        -0.3970
     60 ND2        23.4620    5.7270  -10.2960 N.am      1 ASN        -0.3007
     61 N          24.9290    1.1240   -7.2140 N.am      1 LEU        -0.2636
     62 CA         25.8080    0.0060   -6.8460 C.3       1 LEU         0.1314
     63 C          25.1440   -1.3560   -7.0830 C.2       1 LEU         0.2064
     64 O          24.4300   -1.8560   -6.2110 O.2       1 LEU        -0.3942
     65 CB         26.1920    0.0920   -5.3630 C.3       1 LEU        -0.0101
     66 CG         27.1320    1.1700   -4.8180 C.3       1 LEU        -0.0425
     67 CD1        27.0050    1.2130   -3.3070 C.3       1 LEU        -0.0625
     68 CD2        28.5670    0.8840   -5.2290 C.3       1 LEU        -0.0625
     69 N          25.3700   -1.9790   -8.2560 N.am      1 PRO        -0.2498
     70 CA         24.7460   -3.2840   -8.5010 C.3       1 PRO         0.1338
     71 C          25.2170   -4.3120   -7.4730 C.2       1 PRO         0.2041
     72 O          26.4190   -4.4980   -7.2700 O.2       1 PRO        -0.3944
     73 CB         25.1950   -3.6160   -9.9230 C.3       1 PRO        -0.0104
     74 CG         25.3160   -2.2550  -10.5540 C.3       1 PRO        -0.0281
     75 CD         26.0500   -1.5030   -9.4710 C.3       1 PRO         0.0369
     76 N          24.2580   -4.9690   -6.8250 N.am      1 VAL        -0.2635
     77 CA         24.5580   -5.9630   -5.8000 C.3       1 VAL         0.1333
     78 C          23.6720   -7.2050   -5.8870 C.2       1 VAL         0.2042
     79 O          22.8090   -7.3110   -6.7600 O.2       1 VAL        -0.3944
     80 CB         24.4170   -5.3490   -4.3860 C.3       1 VAL        -0.0063
     81 CG1        25.5930   -4.4270   -4.0960 C.3       1 VAL        -0.0584
     82 CG2        23.1130   -4.5680   -4.2890 C.3       1 VAL        -0.0584
     83 N          23.8990   -8.1410   -4.9680 N.am      1 ARG        -0.2623
     84 CA         23.1450   -9.3910   -4.9140 C.3       1 ARG         0.1421
     85 C          21.6420   -9.1350   -4.8320 C.2       1 ARG         0.2571
     86 O          20.8990   -9.7280   -5.6410 O.2       1 ARG        -0.3680
     87 CB         23.5930  -10.2210   -3.7060 C.3       1 ARG        -0.0079
     88 CG         25.1030  -10.4020   -3.6060 C.3       1 ARG        -0.0155
     89 CD         25.4950  -11.2500   -2.4020 C.3       1 ARG         0.0627
     90 NE         25.2530  -12.6760   -2.6140 N.pl3     1 ARG        -0.2723
     91 CZ         25.9360  -13.4340   -3.4680 C.cat     1 ARG         0.2882
     92 NH1        26.9120  -12.9090   -4.1990 N.pl3     1 ARG        -0.2849
     93 NH2        25.6470  -14.7230   -3.5860 N.pl3     1 ARG        -0.2849
     94 O1         21.1386   -8.3036   -3.9241 O.3       1 ARG        -0.2910
     95 H1         18.4782   18.7765   -5.6874 H         1 ARG         0.2015
     96 H2         17.7470   17.8472   -6.8325 H         1 ARG         0.2015
     97 H3         18.9417   17.2109   -5.8958 H         1 ARG         0.2015
     98 H4         17.6222   17.4079   -3.9214 H         1 ARG         0.1098
     99 H5         15.0938   17.8807   -4.4786 H         1 ARG         0.0347
    100 H6         15.7671   18.7172   -5.9185 H         1 ARG         0.0347
    101 H7         15.4212   20.3853   -4.2621 H         1 ARG         0.0302
    102 H8         17.1906   20.0803   -4.3135 H         1 ARG         0.0302
    103 H9         15.2537   18.8379   -2.3019 H         1 ARG         0.0689
    104 H10        16.2773   20.2806   -1.9897 H         1 ARG         0.0689
    105 H11        18.0065   18.2227   -2.8685 H         1 ARG         0.2642
    106 H12        16.7280   17.8638    0.9735 H         1 ARG         0.2615
    107 H13        15.7900   18.8572   -0.1736 H         1 ARG         0.2615
    108 H14        19.1921   16.9687   -1.4020 H         1 ARG         0.2615
    109 H15        18.6377   16.8091    0.2862 H         1 ARG         0.2615
    110 H16        15.2692   16.2375   -3.7192 H         1 ARG         0.1884
    111 H17        14.1950   14.2321   -3.7870 H         1 ARG         0.0800
    112 H18        15.0929   14.0809   -6.6916 H         1 ARG         0.0313
    113 H19        13.7422   15.1180   -6.1201 H         1 ARG         0.0313
    114 H20        13.7839   12.1381   -5.5764 H         1 ARG         0.0301
    115 H21        13.2043   12.7987   -7.1430 H         1 ARG         0.0301
    116 H22        11.3220   12.4137   -5.6399 H         1 ARG         0.0689
    117 H23        11.5346   14.1727   -5.9357 H         1 ARG         0.0689
    118 H24        11.9496   12.7035   -3.3855 H         1 ARG         0.2642
    119 H25        12.2598   16.7405   -3.7438 H         1 ARG         0.2615
    120 H26        12.1597   15.7376   -5.2159 H         1 ARG         0.2615
    121 H27        12.0739   13.9865   -1.5321 H         1 ARG         0.2615
    122 H28        12.2068   15.7594   -1.6795 H         1 ARG         0.2615
    123 H29        14.3735   11.9095   -4.1160 H         1 LEU         0.1883
    124 H30        16.7473   10.8661   -3.0073 H         1 LEU         0.0800
    125 H31        14.6483    9.3968   -4.6465 H         1 LEU         0.0315
    126 H32        14.4367    9.8970   -2.9343 H         1 LEU         0.0315
    127 H33        16.3623    7.8059   -4.0136 H         1 LEU         0.0298
    128 H34        16.9129    7.4104   -1.6346 H         1 LEU         0.0232
    129 H35        15.8863    8.8072   -1.1639 H         1 LEU         0.0232
    130 H36        17.3674    9.0715   -2.1453 H         1 LEU         0.0232
    131 H37        13.9704    7.1619   -3.9270 H         1 LEU         0.0232
    132 H38        13.8948    7.6768   -2.2078 H         1 LEU         0.0232
    133 H39        14.9297    6.2882   -2.6848 H         1 LEU         0.0232
    134 H40        18.5173   11.5487   -4.2397 H         1 GLN         0.1883
    135 H41        19.0493    9.8185   -6.5731 H         1 GLN         0.0801
    136 H42        20.1437   11.9551   -7.6493 H         1 GLN         0.0337
    137 H43        18.9950   12.8443   -6.5926 H         1 GLN         0.0337
    138 H44        18.0413   12.6085   -8.7950 H         1 GLN         0.0504
    139 H45        17.1213   11.5881   -7.6378 H         1 GLN         0.0504
    140 H46        17.4429    8.7809   -9.6517 H         1 GLN         0.1814
    141 H47        16.5060    9.7420   -8.5569 H         1 GLN         0.1814
    142 H48        21.3770   10.4575   -7.4056 H         1 LYS         0.1883
    143 H49        23.6377   10.5941   -7.0476 H         1 LYS         0.0800
    144 H50        23.0776   11.3083   -4.1444 H         1 LYS         0.0312
    145 H51        22.9734   12.5054   -5.4796 H         1 LYS         0.0312
    146 H52        25.4486   10.8898   -4.7294 H         1 LYS         0.0269
    147 H53        25.1333   12.5994   -4.2772 H         1 LYS         0.0269
    148 H54        25.3547   11.5267   -7.1294 H         1 LYS         0.0317
    149 H55        26.6495   12.3924   -6.2346 H         1 LYS         0.0317
    150 H56        25.5735   13.9742   -7.6865 H         1 LYS         0.0813
    151 H57        25.0792   14.3460   -6.0000 H         1 LYS         0.0813
    152 H58        23.2353   14.4534   -7.5208 H         1 LYS         0.1994
    153 H59        23.0008   13.2312   -6.4435 H         1 LYS         0.1994
    154 H60        23.4538   12.8905   -7.9889 H         1 LYS         0.1994
    155 H61        23.2042    8.2065   -7.3296 H         1 GLY         0.1881
    156 H62        23.2520    6.5334   -4.9888 H         1 GLY         0.0763
    157 H63        24.8948    6.7399   -5.6855 H         1 GLY         0.0763
    158 H64        25.2347    4.6818   -6.2815 H         1 ASN         0.1885
    159 H65        23.3390    3.0054   -7.6408 H         1 ASN         0.0826
    160 H66        24.7671    2.9295   -9.8117 H         1 ASN         0.0551
    161 H67        25.3789    4.5377   -9.2960 H         1 ASN         0.0551
    162 H68        22.6861    6.2107  -10.7009 H         1 ASN         0.1814
    163 H69        24.3562    6.1717  -10.2435 H         1 ASN         0.1814
    164 H70        23.9539    0.9463   -7.3464 H         1 LEU         0.1883
    165 H71        26.7194    0.0672   -7.4588 H         1 LEU         0.0800
    166 H72        26.6555   -0.8732   -5.1110 H         1 LEU         0.0315
    167 H73        25.2481    0.2013   -4.8089 H         1 LEU         0.0315
    168 H74        26.8358    2.1459   -5.2301 H         1 LEU         0.0298
    169 H75        27.6770    1.9852   -2.9044 H         1 LEU         0.0232
    170 H76        27.2792    0.2336   -2.8879 H         1 LEU         0.0232
    171 H77        25.9667    1.4514   -3.0329 H         1 LEU         0.0232
    172 H78        28.6357    0.8574   -6.3265 H         1 LEU         0.0232
    173 H79        28.8793   -0.0875   -4.8185 H         1 LEU         0.0232
    174 H80        29.2246    1.6752   -4.8396 H         1 LEU         0.0232
    175 H81        23.6496   -3.2090   -8.4527 H         1 PRO         0.0802
    176 H82        24.4450   -4.2298  -10.4433 H         1 PRO         0.0313
    177 H83        26.1617   -4.1408   -9.9221 H         1 PRO         0.0313
    178 H84        25.8982   -2.2919  -11.4865 H         1 PRO         0.0287
    179 H85        24.3289   -1.8133  -10.7552 H         1 PRO         0.0287
    180 H86        27.1190   -1.7618   -9.4585 H         1 PRO         0.0524
    181 H87        25.9374   -0.4156   -9.5925 H         1 PRO         0.0524
    182 H88        23.3025   -4.7754   -7.0475 H         1 VAL         0.1883
    183 H89        25.6019   -6.2804   -5.9399 H         1 VAL         0.0802
    184 H90        24.4060   -6.1600   -3.6430 H         1 VAL         0.0343
    185 H91        25.4822   -3.9969   -3.0896 H         1 VAL         0.0234
    186 H92        25.6164   -3.6173   -4.8402 H         1 VAL         0.0234
    187 H93        26.5302   -5.0005   -4.1485 H         1 VAL         0.0234
    188 H94        22.2672   -5.2391   -4.4994 H         1 VAL         0.0234
    189 H95        23.1214   -3.7478   -5.0219 H         1 VAL         0.0234
    190 H96        23.0085   -4.1531   -3.2756 H         1 VAL         0.0234
    191 H97        24.6143   -7.9821   -4.2874 H         1 ARG         0.1885
    192 H98        23.3518   -9.9612   -5.8316 H         1 ARG         0.0816
    193 H99        23.1291  -11.2158   -3.7782 H         1 ARG         0.0315
    194 H100       23.2433   -9.7188   -2.7920 H         1 ARG         0.0315
    195 H101       25.5744   -9.4125   -3.5127 H         1 ARG         0.0301
    196 H102       25.4635  -10.8951   -4.5208 H         1 ARG         0.0301
    197 H103       24.9084  -10.9190   -1.5323 H         1 ARG         0.0689
    198 H104       26.5660  -11.1010   -2.2002 H         1 ARG         0.0689
    199 H105       24.5044  -13.1235   -2.0661 H         1 ARG         0.2642
    200 H106       27.4371  -13.5010   -4.8584 H         1 ARG         0.2615
    201 H107       27.1441  -11.9097   -4.1068 H         1 ARG         0.2615
    202 H108       24.8907  -15.1350   -3.0211 H         1 ARG         0.2615
    203 H109       26.1789  -15.3120   -4.2426 H         1 ARG         0.2615
    204 H110       20.5334   -8.7762   -3.3646 H         1 ARG         0.2540
@<TRIPOS>BOND
     1    2    1 1  
     2    2    5 1  
     3    3    2 1  
     4    3    4 2  
     5    5    6 1  
     6    6    7 1  
     7    7    8 1  
     8    8    9 ar 
     9    9   11 ar 
    10    9   10 ar 
    11   13   12 1  
    12   13   16 1  
    13   14   13 1  
    14   14   15 2  
    15   16   17 1  
    16   17   18 1  
    17   18   19 1  
    18   19   20 ar 
    19   20   22 ar 
    20   20   21 ar 
    21   12    3 am 
    22   24   23 1  
    23   24   27 1  
    24   25   24 1  
    25   25   26 2  
    26   27   28 1  
    27   28   29 1  
    28   28   30 1  
    29   23   14 am 
    30   32   31 1  
    31   32   35 1  
    32   33   32 1  
    33   33   34 2  
    34   35   36 1  
    35   36   37 1  
    36   37   39 am 
    37   37   38 2  
    38   31   25 am 
    39   41   40 1  
    40   41   44 1  
    41   42   41 1  
    42   42   43 2  
    43   44   45 1  
    44   45   46 1  
    45   46   47 1  
    46   47   48 1  
    47   40   33 am 
    48   50   49 1  
    49   51   50 1  
    50   51   52 2  
    51   49   42 am 
    52   54   53 1  
    53   54   57 1  
    54   55   54 1  
    55   55   56 2  
    56   57   58 1  
    57   58   60 am 
    58   58   59 2  
    59   53   51 am 
    60   62   61 1  
    61   62   65 1  
    62   63   62 1  
    63   63   64 2  
    64   65   66 1  
    65   66   67 1  
    66   66   68 1  
    67   61   55 am 
    68   71   70 1  
    69   70   73 1  
    70   70   69 1  
    71   69   75 1  
    72   75   74 1  
    73   73   74 1  
    74   71   72 2  
    75   69   63 am 
    76   77   76 1  
    77   77   80 1  
    78   78   77 1  
    79   78   79 2  
    80   80   82 1  
    81   80   81 1  
    82   76   71 am 
    83   83   84 1  
    84   84   87 1  
    85   84   85 1  
    86   85   86 2  
    87   87   88 1  
    88   88   89 1  
    89   89   90 1  
    90   90   91 ar 
    91   91   93 ar 
    92   91   92 ar 
    93   78   83 am 
    94   85   94 1  
    95    1   95 1  
    96    1   96 1  
    97    1   97 1  
    98    2   98 1  
    99    5   99 1  
   100    5  100 1  
   101    6  101 1  
   102    6  102 1  
   103    7  103 1  
   104    7  104 1  
   105    8  105 1  
   106   10  106 1  
   107   10  107 1  
   108   11  108 1  
   109   11  109 1  
   110   12  110 1  
   111   13  111 1  
   112   16  112 1  
   113   16  113 1  
   114   17  114 1  
   115   17  115 1  
   116   18  116 1  
   117   18  117 1  
   118   19  118 1  
   119   21  119 1  
   120   21  120 1  
   121   22  121 1  
   122   22  122 1  
   123   23  123 1  
   124   24  124 1  
   125   27  125 1  
   126   27  126 1  
   127   28  127 1  
   128   29  128 1  
   129   29  129 1  
   130   29  130 1  
   131   30  131 1  
   132   30  132 1  
   133   30  133 1  
   134   31  134 1  
   135   32  135 1  
   136   35  136 1  
   137   35  137 1  
   138   36  138 1  
   139   36  139 1  
   140   39  140 1  
   141   39  141 1  
   142   40  142 1  
   143   41  143 1  
   144   44  144 1  
   145   44  145 1  
   146   45  146 1  
   147   45  147 1  
   148   46  148 1  
   149   46  149 1  
   150   47  150 1  
   151   47  151 1  
   152   48  152 1  
   153   48  153 1  
   154   48  154 1  
   155   49  155 1  
   156   50  156 1  
   157   50  157 1  
   158   53  158 1  
   159   54  159 1  
   160   57  160 1  
   161   57  161 1  
   162   60  162 1  
   163   60  163 1  
   164   61  164 1  
   165   62  165 1  
   166   65  166 1  
   167   65  167 1  
   168   66  168 1  
   169   67  169 1  
   170   67  170 1  
   171   67  171 1  
   172   68  172 1  
   173   68  173 1  
   174   68  174 1  
   175   70  175 1  
   176   73  176 1  
   177   73  177 1  
   178   74  178 1  
   179   74  179 1  
   180   75  180 1  
   181   75  181 1  
   182   76  182 1  
   183   77  183 1  
   184   80  184 1  
   185   81  185 1  
   186   81  186 1  
   187   81  187 1  
   188   82  188 1  
   189   82  189 1  
   190   82  190 1  
   191   83  191 1  
   192   84  192 1  
   193   87  193 1  
   194   87  194 1  
   195   88  195 1  
   196   88  196 1  
   197   89  197 1  
   198   89  198 1  
   199   90  199 1  
   200   92  200 1  
   201   92  201 1  
   202   93  202 1  
   203   93  203 1  
   204   94  204 1  
@<TRIPOS>SUBSTRUCTURE
     1 ARG         1

