3pa3_ligand
  -I-interpret- 

 45 48  0  0  0  0  0  0  0  0999 V2000
   18.7050   -2.9680   10.4390 C   0  0  0  0  0
   19.2210   -2.0430    9.5330 C   0  0  0  0  0
   18.0400   -0.9130    9.0410 S   0  0  0  0  0
   16.8210   -1.6100   10.0370 C   0  0  0  0  0
   17.3370   -2.7040   10.7400 C   0  0  0  0  0
   15.5540   -1.2230   10.1960 C   0  0  0  0  0
   14.7480   -1.9080   11.0650 N   0  0  0  0  0
   15.2300   -2.9480   11.7760 N   0  0  0  0  0
   16.4750   -3.3750   11.6670 C   0  0  0  0  0
   16.9490   -4.4260   12.4280 N   0  0  0  0  0
   20.5390   -2.0440    8.9380 C   0  0  0  0  0
   15.0550   -0.0500    9.5550 C   0  0  0  0  0
   16.2100   -4.8510   13.6030 C   0  0  0  0  0
   16.6070   -3.9230   14.8040 C   0  0  0  0  0
   15.9710   -4.3760   16.0760 N   0  3  0  0  0
   16.4140   -5.7440   16.4020 C   0  0  0  0  0
   15.9740   -6.7040   15.2750 C   0  0  0  0  0
   16.6550   -6.2700   13.9550 C   0  0  0  0  0
   21.3840   -3.1770    9.0300 C   0  0  0  0  0
   22.6200   -3.1730    8.3830 C   0  0  0  0  0
   23.0060   -2.0450    7.6780 C   0  0  0  0  0
   22.1760   -0.9210    7.5720 C   0  0  0  0  0
   20.9270   -0.9130    8.2080 C   0  0  0  0  0
   24.5510   -2.0560    6.8360 Cl  0  0  0  0  0
   13.8320    0.3670    9.8990 N   0  0  0  0  0
   15.7310    0.5900    8.7360 O   0  0  0  0  0
   19.2773   -3.7921   10.8650 H   0  0  0  0  0
   17.8130   -4.9005   12.1659 H   0  0  0  0  0
   15.1376   -4.8060   13.4132 H   0  0  0  0  0
   16.2648   -2.9111   14.5872 H   0  0  0  0  0
   17.6895   -3.9593   14.9263 H   0  0  0  0  0
   14.9571   -4.3690   15.9653 H   0  0  0  0  0
   16.2438   -3.7462   16.8305 H   0  0  0  0  0
   15.9662   -6.0580   17.3449 H   0  0  0  0  0
   17.4998   -5.7638   16.4955 H   0  0  0  0  0
   14.8906   -6.6672   15.1608 H   0  0  0  0  0
   16.2672   -7.7240   15.5236 H   0  0  0  0  0
   17.7379   -6.2942   14.0769 H   0  0  0  0  0
   16.3692   -6.9522   13.1544 H   0  0  0  0  0
   21.0698   -4.0487    9.6041 H   0  0  0  0  0
   23.2724   -4.0448    8.4316 H   0  0  0  0  0
   22.5010   -0.0546    6.9961 H   0  0  0  0  0
   20.2714   -0.0451    8.1361 H   0  0  0  0  0
   13.4485    1.2176    9.4869 H   0  0  0  0  0
   13.2826   -0.1655   10.5735 H   0  0  0  0  0
  1  2  4  0  0  0
  1  5  4  0  0  0
  2  3  4  0  0  0
  2 11  1  0  0  0
  3  4  4  0  0  0
  4  5  4  0  0  0
  4  6  4  0  0  0
  5  9  4  0  0  0
  6  7  4  0  0  0
  6 12  1  0  0  0
  7  8  4  0  0  0
  8  9  4  0  0  0
  9 10  1  0  0  0
 10 13  1  0  0  0
 11 19  4  0  0  0
 11 23  4  0  0  0
 12 25  1  0  0  0
 12 26  2  0  0  0
 13 14  1  0  0  0
 13 18  1  0  0  0
 14 15  1  0  0  0
 15 16  1  0  0  0
 16 17  1  0  0  0
 17 18  1  0  0  0
 19 20  4  0  0  0
 20 21  4  0  0  0
 21 22  4  0  0  0
 21 24  1  0  0  0
 22 23  4  0  0  0
  1 27  1  0  0  0
 10 28  1  0  0  0
 13 29  1  0  0  0
 14 30  1  0  0  0
 14 31  1  0  0  0
 15 32  1  0  0  0
 15 33  1  0  0  0
 16 34  1  0  0  0
 16 35  1  0  0  0
 17 36  1  0  0  0
 17 37  1  0  0  0
 18 38  1  0  0  0
 18 39  1  0  0  0
 19 40  1  0  0  0
 20 41  1  0  0  0
 22 42  1  0  0  0
 23 43  1  0  0  0
 25 44  1  0  0  0
 25 45  1  0  0  0
M  END
$$$$
