1xuc_ligand
  -I-interpret- 

 50 52  0  0  0  0  0  0  0  0999 V2000
  -11.6440   27.4240   44.9340 C   0  0  0  0  0
  -11.0940   27.9990   46.0710 C   0  0  0  0  0
   -9.7160   28.0400   46.1830 C   0  0  0  0  0
  -10.8160   26.8970   43.9190 N   0  0  0  0  0
   -5.9120   27.9920   53.6390 C   0  0  0  0  0
  -18.2710   22.2390   44.1490 C   0  0  0  0  0
   -9.1310   28.6250   47.3770 C   0  0  0  0  0
   -7.0140   28.8070   48.7260 C   0  0  0  0  0
   -7.1980   27.9930   50.0040 C   0  0  0  0  0
  -13.1020   27.3630   44.8160 C   0  0  0  0  0
  -16.6420   24.2110   43.9590 C   0  0  0  0  0
  -15.7220   23.6980   46.6590 C   0  0  0  0  0
   -8.0850   26.8410   50.0560 C   0  0  0  0  0
   -8.2640   26.0830   51.2480 C   0  0  0  0  0
   -7.5510   26.4620   52.4200 C   0  0  0  0  0
   -6.4910   28.3600   51.1880 C   0  0  0  0  0
   -8.8800   27.5130   45.1690 N   0  0  0  0  0
   -9.4260   26.9340   44.0180 C   0  0  0  0  0
   -7.7950   28.3330   47.5470 N   0  0  0  0  0
  -13.5970   26.4180   43.9180 N   0  0  0  0  0
  -15.0460   26.1940   43.6840 C   0  0  0  0  0
  -15.6270   25.0460   44.5180 C   0  0  0  0  0
  -17.1850   23.1330   44.7490 C   0  0  0  0  0
  -16.7340   22.8730   46.0870 C   0  0  0  0  0
  -15.1780   24.7720   45.8770 C   0  0  0  0  0
   -6.6750   27.5910   52.3780 C   0  0  0  0  0
  -13.9190   28.0490   45.4520 O   0  0  0  0  0
   -9.7050   29.3010   48.2330 O   0  0  0  0  0
  -11.7313   28.4076   46.8552 H   0  0  0  0  0
   -6.6217   28.2287   54.4317 H   0  0  0  0  0
   -5.2748   27.1659   53.9547 H   0  0  0  0  0
   -5.2969   28.8666   53.4272 H   0  0  0  0  0
  -19.1372   22.8470   43.8881 H   0  0  0  0  0
  -17.8849   21.7514   43.2539 H   0  0  0  0  0
  -18.5622   21.4836   44.8788 H   0  0  0  0  0
   -5.9614   28.7263   48.4547 H   0  0  0  0  0
   -7.3645   29.8153   48.9463 H   0  0  0  0  0
  -17.0028   24.3865   42.9455 H   0  0  0  0  0
  -15.3670   23.5164   47.6735 H   0  0  0  0  0
   -8.6280   26.5499   49.1568 H   0  0  0  0  0
   -8.9368   25.2256   51.2627 H   0  0  0  0  0
   -7.6720   25.8954   53.3432 H   0  0  0  0  0
   -5.8181   29.2175   51.1846 H   0  0  0  0  0
   -8.7903   26.5284   43.2309 H   0  0  0  0  0
   -7.3220   27.7711   46.8393 H   0  0  0  0  0
  -12.9293   25.8515   43.3950 H   0  0  0  0  0
  -15.1728   25.9337   42.6332 H   0  0  0  0  0
  -15.5699   27.1060   43.9702 H   0  0  0  0  0
  -17.1621   22.0512   46.6610 H   0  0  0  0  0
  -14.4040   25.4030   46.3139 H   0  0  0  0  0
  1  2  4  0  0  0
  1  4  4  0  0  0
 10  1  1  0  0  0
  2  3  4  0  0  0
  3  7  1  0  0  0
  3 17  4  0  0  0
  4 18  4  0  0  0
 26  5  1  0  0  0
 23  6  1  0  0  0
  7 19  1  0  0  0
  7 28  2  0  0  0
  8  9  1  0  0  0
 19  8  1  0  0  0
  9 13  4  0  0  0
  9 16  4  0  0  0
 20 10  1  0  0  0
 10 27  2  0  0  0
 22 11  4  0  0  0
 11 23  4  0  0  0
 12 24  4  0  0  0
 25 12  4  0  0  0
 13 14  4  0  0  0
 14 15  4  0  0  0
 26 15  4  0  0  0
 16 26  4  0  0  0
 18 17  4  0  0  0
 21 20  1  0  0  0
 22 21  1  0  0  0
 22 25  4  0  0  0
 23 24  4  0  0  0
  2 29  1  0  0  0
  5 30  1  0  0  0
  5 31  1  0  0  0
  5 32  1  0  0  0
  6 33  1  0  0  0
  6 34  1  0  0  0
  6 35  1  0  0  0
  8 36  1  0  0  0
  8 37  1  0  0  0
 11 38  1  0  0  0
 12 39  1  0  0  0
 13 40  1  0  0  0
 14 41  1  0  0  0
 15 42  1  0  0  0
 16 43  1  0  0  0
 18 44  1  0  0  0
 19 45  1  0  0  0
 20 46  1  0  0  0
 21 47  1  0  0  0
 21 48  1  0  0  0
 24 49  1  0  0  0
 25 50  1  0  0  0
M  END
$$$$
