5eyd_ligand
  -I-interpret- 

 56 60  0  0  0  0  0  0  0  0999 V2000
   22.5030   37.7130   63.4530 C   0  0  0  0  0
   21.7020   37.0820   62.4280 O   0  0  0  0  0
   20.9750   38.0810   61.6760 C   0  0  0  0  0
   19.8620   37.4000   60.9030 C   0  0  0  0  0
   20.3840   37.0420   59.6140 O   0  0  0  0  0
   19.8510   35.9110   59.0860 C   0  0  0  0  0
   20.6180   35.1430   58.2120 C   0  0  0  0  0
   20.0720   33.9880   57.6720 C   0  0  0  0  0
   20.8170   33.1880   56.7910 C   0  0  0  0  0
   21.9740   33.4850   56.4880 O   0  0  0  0  0
   18.5530   35.5180   59.3880 C   0  0  0  0  0
   18.0430   34.4100   58.8590 N   0  0  0  0  0
   18.7590   33.6430   58.0180 C   0  0  0  0  0
   18.1830   32.4970   57.4960 C   0  0  0  0  0
   18.9150   31.6930   56.6290 C   0  0  0  0  0
   20.2440   32.0380   56.2740 N   0  0  0  0  0
   20.9800   31.1530   55.3480 C   0  0  0  0  0
   20.1150   30.8170   54.1190 C   0  0  0  0  0
   21.2650   29.8850   56.1410 C   0  0  0  0  0
   22.2470   29.7910   57.0970 N   0  0  0  0  0
   23.2140   30.6670   57.5740 C   0  0  0  0  0
   20.6220   28.7260   56.0790 N   0  0  0  0  0
   21.1310   27.9270   56.8920 N   0  0  0  0  0
   22.1360   28.5000   57.5540 C   0  0  0  0  0
   23.0080   28.0630   58.5460 C   0  0  0  0  0
   22.8780   26.8050   58.9950 F   0  0  0  0  0
   23.9780   28.9240   59.0530 C   0  0  0  0  0
   24.0930   30.2360   58.5700 C   0  0  0  0  0
   25.0690   31.1220   59.0260 C   0  0  0  0  0
   26.1330   30.8410   59.7740 C   0  0  0  0  0
   25.1470   32.4280   58.7280 C   0  0  0  0  0
   26.2310   32.9260   59.3220 N   0  0  0  0  0
   26.7870   31.9970   59.9220 N   0  0  0  0  0
   28.0320   32.1650   60.7060 C   0  0  0  0  0
   23.2130   38.3968   62.9879 H   0  0  0  0  0
   21.8532   38.2672   64.1303 H   0  0  0  0  0
   23.0445   36.9490   64.0109 H   0  0  0  0  0
   21.6498   38.5846   60.9838 H   0  0  0  0  0
   20.5523   38.8196   62.3570 H   0  0  0  0  0
   19.0092   38.0702   60.7949 H   0  0  0  0  0
   19.5187   36.5121   61.4339 H   0  0  0  0  0
   21.6333   35.4459   57.9562 H   0  0  0  0  0
   17.9482   36.1227   60.0638 H   0  0  0  0  0
   17.1614   32.2266   57.7632 H   0  0  0  0  0
   18.4634   30.7898   56.2187 H   0  0  0  0  0
   21.8919   31.6253   54.9827 H   0  0  0  0  0
   19.2053   30.3120   54.4437 H   0  0  0  0  0
   19.8544   31.7377   53.5970 H   0  0  0  0  0
   20.6752   30.1643   53.4495 H   0  0  0  0  0
   23.2858   31.6790   57.1755 H   0  0  0  0  0
   24.6547   28.5750   59.8330 H   0  0  0  0  0
   26.4130   29.8696   60.1815 H   0  0  0  0  0
   24.4452   32.9852   58.1074 H   0  0  0  0  0
   27.8472   31.8856   61.7432 H   0  0  0  0  0
   28.8110   31.5264   60.2896 H   0  0  0  0  0
   28.3510   33.2063   60.6602 H   0  0  0  0  0
  1  2  1  0  0  0
  2  3  1  0  0  0
  3  4  1  0  0  0
  4  5  1  0  0  0
  5  6  1  0  0  0
  6  7  4  0  0  0
  6 11  4  0  0  0
  7  8  4  0  0  0
  8  9  1  0  0  0
  8 13  4  0  0  0
  9 10  2  0  0  0
  9 16  1  0  0  0
 11 12  4  0  0  0
 12 13  4  0  0  0
 13 14  1  0  0  0
 14 15  2  0  0  0
 15 16  1  0  0  0
 16 17  1  0  0  0
 17 18  1  0  0  0
 17 19  1  0  0  0
 19 20  4  0  0  0
 19 22  4  0  0  0
 20 21  4  0  0  0
 20 24  4  0  0  0
 21 28  4  0  0  0
 22 23  4  0  0  0
 23 24  4  0  0  0
 24 25  4  0  0  0
 25 26  1  0  0  0
 25 27  4  0  0  0
 27 28  4  0  0  0
 28 29  1  0  0  0
 29 30  4  0  0  0
 29 31  4  0  0  0
 30 33  4  0  0  0
 31 32  4  0  0  0
 32 33  4  0  0  0
 33 34  1  0  0  0
  1 35  1  0  0  0
  1 36  1  0  0  0
  1 37  1  0  0  0
  3 38  1  0  0  0
  3 39  1  0  0  0
  4 40  1  0  0  0
  4 41  1  0  0  0
  7 42  1  0  0  0
 11 43  1  0  0  0
 14 44  1  0  0  0
 15 45  1  0  0  0
 17 46  1  0  0  0
 18 47  1  0  0  0
 18 48  1  0  0  0
 18 49  1  0  0  0
 21 50  1  0  0  0
 27 51  1  0  0  0
 30 52  1  0  0  0
 31 53  1  0  0  0
 34 54  1  0  0  0
 34 55  1  0  0  0
 34 56  1  0  0  0
M  END
$$$$
