3tkh_ligand
  -I-interpret- 

 61 65  0  0  0  0  0  0  0  0999 V2000
   11.5160   -2.1470   12.3520 C   0  0  0  0  0
   12.5040   -3.0730   12.0860 C   0  0  0  0  0
   13.5850   -2.6620   11.3270 C   0  0  0  0  0
   13.6230   -1.3650   10.8410 C   0  0  0  0  0
   12.5750   -0.5240   11.1600 C   0  0  0  0  0
   11.5200   -0.8800   11.9080 N   0  0  0  0  0
   14.7590   -0.8600   10.0890 C   0  0  0  0  0
   16.2510   -1.7110   10.0300 S   0  0  0  0  0
   16.9780   -0.3950    9.1740 C   0  0  0  0  0
   16.1520    0.6010    8.9180 N   0  0  0  0  0
   14.9130    0.3450    9.4360 C   0  0  0  0  0
   18.2770   -0.3330    8.7720 N   0  0  0  0  0
   19.2550   -1.3180    8.9760 C   0  0  0  0  0
   18.9900   -2.4550    9.6280 N   0  0  0  0  0
   19.9860   -3.3340    9.7640 C   0  0  0  0  0
   21.2570   -3.1430    9.2750 C   0  0  0  0  0
   21.5390   -1.9760    8.5920 C   0  0  0  0  0
   20.5100   -1.0550    8.4530 C   0  0  0  0  0
   22.8530   -1.7470    8.1070 N   0  0  0  0  0
   23.7690   -2.8800    8.0740 C   0  0  0  0  0
   25.1400   -2.3550    8.4590 C   0  0  0  0  0
   25.4710   -1.1440    7.6410 N   0  3  0  0  0
   24.4290   -0.0800    7.4960 C   0  0  0  0  0
   23.0740   -0.6710    7.1520 C   0  0  0  0  0
   26.7460   -0.5380    8.0960 C   0  0  0  0  0
   27.7720   -0.7340    7.0220 C   0  0  0  0  0
   28.9300   -1.3190    7.4980 N   0  0  0  0  0
   30.1500   -0.5380    7.5880 C   0  0  0  0  0
   30.9350   -0.9000    8.8380 C   0  0  0  0  0
   31.0850   -2.3220    8.9280 O   0  0  0  0  0
   29.8190   -2.9870    9.0350 C   0  0  0  0  0
   29.0020   -2.7420    7.7760 C   0  0  0  0  0
   27.5650   -0.3850    5.8670 O   0  0  0  0  0
   10.6736   -2.4666   12.9654 H   0  0  0  0  0
   12.4349   -4.0940   12.4614 H   0  0  0  0  0
   14.4004   -3.3530   11.1130 H   0  0  0  0  0
   12.6073    0.4966   10.7787 H   0  0  0  0  0
   14.0915    1.0547    9.3382 H   0  0  0  0  0
   18.5668    0.5095    8.2754 H   0  0  0  0  0
   19.7783   -4.2621   10.2966 H   0  0  0  0  0
   22.0281   -3.8989    9.4237 H   0  0  0  0  0
   20.6912   -0.1171    7.9279 H   0  0  0  0  0
   23.7929   -3.3273    7.0803 H   0  0  0  0  0
   23.4456   -3.6571    8.7665 H   0  0  0  0  0
   25.8858   -3.1282    8.2743 H   0  0  0  0  0
   25.1381   -2.0857    9.5152 H   0  0  0  0  0
   25.5428   -1.5317    6.7003 H   0  0  0  0  0
   24.7287    0.5888    6.6892 H   0  0  0  0  0
   24.3434    0.4507    8.4442 H   0  0  0  0  0
   22.2874    0.0809    7.2147 H   0  0  0  0  0
   23.0530   -1.0416    6.1271 H   0  0  0  0  0
   27.0767   -1.0137    9.0193 H   0  0  0  0  0
   26.6058    0.5257    8.2885 H   0  0  0  0  0
   29.8870    0.5188    7.6332 H   0  0  0  0  0
   30.7662   -0.7487    6.7139 H   0  0  0  0  0
   30.3979   -0.5399    9.7155 H   0  0  0  0  0
   31.9210   -0.4379    8.7886 H   0  0  0  0  0
   29.2784   -2.5973    9.8976 H   0  0  0  0  0
   29.9829   -4.0578    9.1562 H   0  0  0  0  0
   29.4786   -3.2472    6.9360 H   0  0  0  0  0
   27.9938   -3.1296    7.9224 H   0  0  0  0  0
  1  2  4  0  0  0
  1  6  4  0  0  0
  2  3  4  0  0  0
  3  4  4  0  0  0
  4  5  4  0  0  0
  4  7  1  0  0  0
  5  6  4  0  0  0
  7  8  4  0  0  0
  7 11  4  0  0  0
  8  9  4  0  0  0
  9 10  4  0  0  0
  9 12  1  0  0  0
 10 11  4  0  0  0
 12 13  1  0  0  0
 13 14  4  0  0  0
 13 18  4  0  0  0
 14 15  4  0  0  0
 15 16  4  0  0  0
 16 17  4  0  0  0
 17 18  4  0  0  0
 17 19  1  0  0  0
 19 20  1  0  0  0
 19 24  1  0  0  0
 20 21  1  0  0  0
 21 22  1  0  0  0
 22 23  1  0  0  0
 22 25  1  0  0  0
 23 24  1  0  0  0
 25 26  1  0  0  0
 26 27  1  0  0  0
 26 33  2  0  0  0
 27 28  1  0  0  0
 27 32  1  0  0  0
 28 29  1  0  0  0
 29 30  1  0  0  0
 30 31  1  0  0  0
 31 32  1  0  0  0
  1 34  1  0  0  0
  2 35  1  0  0  0
  3 36  1  0  0  0
  5 37  1  0  0  0
 11 38  1  0  0  0
 12 39  1  0  0  0
 15 40  1  0  0  0
 16 41  1  0  0  0
 18 42  1  0  0  0
 20 43  1  0  0  0
 20 44  1  0  0  0
 21 45  1  0  0  0
 21 46  1  0  0  0
 22 47  1  0  0  0
 23 48  1  0  0  0
 23 49  1  0  0  0
 24 50  1  0  0  0
 24 51  1  0  0  0
 25 52  1  0  0  0
 25 53  1  0  0  0
 28 54  1  0  0  0
 28 55  1  0  0  0
 29 56  1  0  0  0
 29 57  1  0  0  0
 31 58  1  0  0  0
 31 59  1  0  0  0
 32 60  1  0  0  0
 32 61  1  0  0  0
M  END
$$$$
