1utp_ligand
  -I-interpret- 

 27 27  0  0  0  0  0  0  0  0999 V2000
   45.1120   18.4410   52.3110 C   0  0  0  0  0
   45.3410   18.6890   50.8450 C   0  0  0  0  0
   45.9470   20.0530   50.5420 C   0  0  0  0  0
   44.9500   20.8470   49.7010 C   0  0  0  0  0
   45.1900   22.1990   49.5100 C   0  0  0  0  0
   44.4270   22.9590   48.6320 C   0  0  0  0  0
   44.7030   24.2970   48.4720 C   0  0  0  0  0
   45.7240   24.9230   49.1610 C   0  0  0  0  0
   46.4970   24.1830   50.0360 C   0  0  0  0  0
   46.2170   22.8440   50.1990 C   0  0  0  0  0
   46.0630   17.4450   52.8970 N   0  3  0  0  0
   44.1043   18.0414   52.4246 H   0  0  0  0  0
   45.2612   19.3863   52.8328 H   0  0  0  0  0
   44.3699   18.6471   50.3518 H   0  0  0  0  0
   46.0444   17.9344   50.4928 H   0  0  0  0  0
   46.8828   19.9326   49.9963 H   0  0  0  0  0
   46.1566   20.5829   51.4712 H   0  0  0  0  0
   44.0071   20.7951   50.2453 H   0  0  0  0  0
   44.9926   20.4027   48.7066 H   0  0  0  0  0
   43.6135   22.4971   48.0726 H   0  0  0  0  0
   44.0972   24.8818   47.7799 H   0  0  0  0  0
   45.9173   25.9860   49.0165 H   0  0  0  0  0
   47.3132   24.6504   50.5869 H   0  0  0  0  0
   46.8232   22.2646   50.8953 H   0  0  0  0  0
   45.8564   17.3218   53.8882 H   0  0  0  0  0
   45.9597   16.5528   52.4135 H   0  0  0  0  0
   47.0188   17.7839   52.7872 H   0  0  0  0  0
  1  2  1  0  0  0
  1 11  1  0  0  0
  2  3  1  0  0  0
  3  4  1  0  0  0
  4  5  1  0  0  0
  5  6  4  0  0  0
  5 10  4  0  0  0
  6  7  4  0  0  0
  7  8  4  0  0  0
  8  9  4  0  0  0
  9 10  4  0  0  0
  1 12  1  0  0  0
  1 13  1  0  0  0
  2 14  1  0  0  0
  2 15  1  0  0  0
  3 16  1  0  0  0
  3 17  1  0  0  0
  4 18  1  0  0  0
  4 19  1  0  0  0
  6 20  1  0  0  0
  7 21  1  0  0  0
  8 22  1  0  0  0
  9 23  1  0  0  0
 10 24  1  0  0  0
 11 25  1  0  0  0
 11 26  1  0  0  0
 11 27  1  0  0  0
M  END
$$$$
