6jut_ligand
  -I-interpret- 

 48 52  0  0  0  0  0  0  0  0999 V2000
   10.5330    0.3400   11.8600 C   0  0  0  0  0
   11.7530    1.4770    7.7270 C   0  0  0  0  0
   12.6870    1.1200    5.4730 C   0  0  0  0  0
   13.4210    0.7740    2.9700 C   0  0  0  0  0
   15.3440    0.1010    1.8370 C   0  0  0  0  0
   10.2970    1.4650    5.6310 C   0  0  0  0  0
    6.0210    2.8590   18.3500 Br  0  0  0  0  0
    6.5870    3.5790   16.6450 C   0  0  0  0  0
    7.9290    3.7970   16.4690 C   0  0  0  0  0
    8.4030    4.2930   15.2840 C   0  0  0  0  0
   10.1880    4.5550   15.1300 S   0  0  0  0  0
   10.6240    4.1620   13.5700 N   0  0  0  0  0
   10.5570    2.8050   13.1060 C   0  0  0  0  0
   10.1090    1.6990   13.8220 C   0  0  0  0  0
   10.1040    0.4520   13.1850 C   0  0  0  0  0
   10.5420   -0.8670   11.2040 F   0  0  0  0  0
   10.9550    1.4840   11.1950 C   0  0  0  0  0
   11.4600    1.5160    9.8470 N   0  0  0  0  0
   10.8100    1.3200    8.7250 C   0  0  0  0  0
   11.5520    1.3520    6.2380 C   0  0  0  0  0
   12.5450    1.0050    4.0810 C   0  0  0  0  0
   11.2800    1.1280    3.5410 C   0  0  0  0  0
   11.4040    0.9740    2.2020 N   0  0  0  0  0
   12.6870    0.7640    1.8650 N   0  0  0  0  0
   14.8030    0.5980    3.0340 O   0  0  0  0  0
   10.1920    1.3430    4.3190 N   0  0  0  0  0
   12.9330    1.7640    8.2690 N   0  0  0  0  0
   12.7580    1.7990    9.5990 N   0  0  0  0  0
   10.9690    2.6900   11.8170 C   0  0  0  0  0
   11.3810    3.8060   11.1560 F   0  0  0  0  0
   10.5470    5.9310   15.4600 O   0  0  0  0  0
   10.8880    3.7040   16.0990 O   0  0  0  0  0
    7.5250    4.5560   14.2560 C   0  0  0  0  0
    6.1640    4.3290   14.4360 C   0  0  0  0  0
    5.6890    3.8300   15.6410 C   0  0  0  0  0
   13.6665    1.0292    5.9426 H   0  0  0  0  0
   14.8946   -0.8659    1.6105 H   0  0  0  0  0
   15.1337    0.7995    1.0271 H   0  0  0  0  0
   16.4221   -0.0150    1.9477 H   0  0  0  0  0
    9.4103    1.6527    6.2366 H   0  0  0  0  0
    8.6239    3.5738   17.2785 H   0  0  0  0  0
   10.9426    4.8953   12.9366 H   0  0  0  0  0
    9.7704    1.8009   14.8531 H   0  0  0  0  0
    9.7649   -0.4328   13.7237 H   0  0  0  0  0
    9.7526    1.0839    8.6052 H   0  0  0  0  0
    7.8947    4.9404   13.3054 H   0  0  0  0  0
    5.4669    4.5443   13.6261 H   0  0  0  0  0
    4.6251    3.6420   15.7854 H   0  0  0  0  0
  1 15  4  0  0  0
  1 16  1  0  0  0
 17  1  4  0  0  0
 19  2  4  0  0  0
  2 20  1  0  0  0
  2 27  4  0  0  0
 20  3  4  0  0  0
  3 21  4  0  0  0
 21  4  4  0  0  0
  4 24  4  0  0  0
  4 25  1  0  0  0
 25  5  1  0  0  0
 20  6  4  0  0  0
  6 26  4  0  0  0
  8  7  1  0  0  0
  9  8  4  0  0  0
  8 35  4  0  0  0
 10  9  4  0  0  0
 11 10  1  0  0  0
 10 33  4  0  0  0
 12 11  1  0  0  0
 11 31  2  0  0  0
 11 32  2  0  0  0
 13 12  1  0  0  0
 13 14  4  0  0  0
 29 13  4  0  0  0
 15 14  4  0  0  0
 18 17  1  0  0  0
 17 29  4  0  0  0
 18 19  4  0  0  0
 18 28  4  0  0  0
 21 22  4  0  0  0
 22 23  4  0  0  0
 22 26  4  0  0  0
 23 24  4  0  0  0
 27 28  4  0  0  0
 29 30  1  0  0  0
 33 34  4  0  0  0
 34 35  4  0  0  0
  3 36  1  0  0  0
  5 37  1  0  0  0
  5 38  1  0  0  0
  5 39  1  0  0  0
  6 40  1  0  0  0
  9 41  1  0  0  0
 12 42  1  0  0  0
 14 43  1  0  0  0
 15 44  1  0  0  0
 19 45  1  0  0  0
 33 46  1  0  0  0
 34 47  1  0  0  0
 35 48  1  0  0  0
M  END
$$$$
