4hwr_ligand
  -I-interpret- 

 44 46  0  0  0  0  0  0  0  0999 V2000
   31.9340  -37.4810   31.9770 O   0  0  0  0  0
   31.0100  -37.9890   32.6230 C   0  0  0  0  0
   29.9250  -37.1260   33.2460 C   0  0  0  0  0
   28.9860  -36.6600   32.1250 C   0  0  0  0  0
   28.0870  -37.7840   31.6290 C   0  0  0  0  0
   28.2030  -35.5440   32.5680 O   0  0  0  0  0
   30.4750  -35.9460   33.9190 N   0  3  0  0  0
   30.8090  -39.3050   32.7680 N   0  0  0  0  0
   31.7830  -40.4260   32.2000 S   0  0  0  0  0
   31.3160  -41.7290   32.5130 O   0  0  0  0  0
   33.1040  -40.3110   32.7230 O   0  0  0  0  0
   31.9300  -40.3980   30.5460 C   0  0  0  0  0
   30.8030  -40.2290   29.7340 C   0  0  0  0  0
   30.8770  -40.2670   28.3390 C   0  0  0  0  0
   32.1480  -40.3980   27.7390 C   0  0  0  0  0
   33.2880  -40.5980   28.5120 C   0  0  0  0  0
   33.1720  -40.6000   29.9240 C   0  0  0  0  0
   34.6020  -40.8150   27.8270 C   0  0  0  0  0
   34.6080  -41.4250   26.5550 C   0  0  0  0  0
   35.8320  -41.6350   25.8850 C   0  0  0  0  0
   36.0640  -42.2400   24.5830 C   0  0  0  0  0
   37.4140  -42.1660   24.4860 N   0  0  0  0  0
   38.0200  -41.5710   25.6310 N   0  0  0  0  0
   37.0760  -41.2490   26.5380 C   0  0  0  0  0
   37.0570  -40.6370   27.8070 C   0  0  0  0  0
   35.8140  -40.4520   28.4270 C   0  0  0  0  0
   29.4006  -37.7203   33.9942 H   0  0  0  0  0
   29.6051  -36.3493   31.2834 H   0  0  0  0  0
   27.4343  -38.1098   32.4389 H   0  0  0  0  0
   27.4828  -37.4237   30.7964 H   0  0  0  0  0
   28.7024  -38.6205   31.2978 H   0  0  0  0  0
   28.7869  -34.8471   32.8763 H   0  0  0  0  0
   31.1014  -36.2437   34.6669 H   0  0  0  0  0
   30.9925  -35.3819   33.2449 H   0  0  0  0  0
   29.7126  -35.3940   34.3119 H   0  0  0  0  0
   29.9776  -39.6077   33.2755 H   0  0  0  0  0
   29.8346  -40.0621   30.2055 H   0  0  0  0  0
   29.9760  -40.1972   27.7296 H   0  0  0  0  0
   32.2380  -40.3417   26.6542 H   0  0  0  0  0
   34.0596  -40.7606   30.5359 H   0  0  0  0  0
   33.6707  -41.7329   26.0915 H   0  0  0  0  0
   35.3431  -42.6456   23.8731 H   0  0  0  0  0
   37.9799  -40.3176   28.2911 H   0  0  0  0  0
   35.7895  -40.0054   29.4210 H   0  0  0  0  0
  1  2  2  0  0  0
  2  3  1  0  0  0
  2  8  1  0  0  0
  3  4  1  0  0  0
  3  7  1  0  0  0
  4  5  1  0  0  0
  4  6  1  0  0  0
  8  9  1  0  0  0
  9 10  2  0  0  0
  9 11  2  0  0  0
  9 12  1  0  0  0
 12 13  4  0  0  0
 12 17  4  0  0  0
 13 14  4  0  0  0
 14 15  4  0  0  0
 15 16  4  0  0  0
 16 17  4  0  0  0
 16 18  1  0  0  0
 18 19  4  0  0  0
 18 26  4  0  0  0
 19 20  4  0  0  0
 20 21  4  0  0  0
 20 24  4  0  0  0
 21 22  4  0  0  0
 22 23  4  0  0  0
 23 24  4  0  0  0
 24 25  4  0  0  0
 25 26  4  0  0  0
  3 27  1  0  0  0
  4 28  1  0  0  0
  5 29  1  0  0  0
  5 30  1  0  0  0
  5 31  1  0  0  0
  6 32  1  0  0  0
  7 33  1  0  0  0
  7 34  1  0  0  0
  7 35  1  0  0  0
  8 36  1  0  0  0
 13 37  1  0  0  0
 14 38  1  0  0  0
 15 39  1  0  0  0
 17 40  1  0  0  0
 19 41  1  0  0  0
 21 42  1  0  0  0
 25 43  1  0  0  0
 26 44  1  0  0  0
M  END
$$$$
