5jfd_ligand
  -I-interpret- 

 76 78  0  0  0  0  0  0  0  0999 V2000
   16.3410  -18.7850   22.5220 C   0  0  0  0  0
   15.6850  -17.1680   22.1540 S   0  0  0  0  0
   16.0740  -19.3410   23.8990 C   0  0  0  0  0
   14.7900  -19.6920   24.2810 C   0  0  0  0  0
   14.5350  -20.1640   25.5620 C   0  0  0  0  0
   15.5670  -20.3060   26.4700 C   0  0  0  0  0
   16.8490  -19.9670   26.0970 C   0  0  0  0  0
   17.1010  -19.4830   24.8190 C   0  0  0  0  0
   14.2730  -17.2380   22.3490 O   0  0  0  0  0
   16.2030  -16.7540   20.8890 O   0  0  0  0  0
   16.2930  -16.1630   23.2730 N   0  0  0  0  0
   17.5140  -15.3800   23.1110 C   0  0  0  0  0
   18.1390  -15.0160   24.4600 C   0  0  0  0  0
   18.3330  -16.2590   25.3510 C   0  0  0  0  0
   19.0690  -15.8710   26.6440 C   0  0  0  0  0
   18.8410  -16.8260   27.7300 N   0  0  0  0  0
   19.6070  -18.0020   27.7260 C   0  0  0  0  0
   19.2990  -18.8520   28.7840 N   0  0  0  0  0
   20.4950  -18.2170   26.7560 N   0  0  0  0  0
   17.1250  -14.0890   22.3870 C   0  0  0  0  0
   16.1250  -13.4780   22.7310 O   0  0  0  0  0
   17.9460  -13.6300   21.4370 N   0  0  0  0  0
   17.6450  -12.3840   20.7160 C   0  0  0  0  0
   16.1650  -12.2790   20.3660 C   0  0  0  0  0
   15.5590  -13.2330   19.8720 O   0  0  0  0  0
   18.5080  -12.4970   19.4510 C   0  0  0  0  0
   19.7340  -13.2920   19.9280 C   0  0  0  0  0
   19.1800  -14.2800   20.9510 C   0  0  0  0  0
   15.5990  -11.0980   20.6150 N   0  0  0  0  0
   14.1900  -10.8480   20.3260 C   0  0  0  0  0
   13.3090  -10.8530   21.5590 C   0  0  0  0  0
   12.4860  -11.9550   21.8700 C   0  0  0  0  0
   12.4670  -13.2620   21.0730 C   0  0  0  0  0
   13.3160  -14.3440   21.6920 N   0  3  0  0  0
   11.6450  -11.8860   22.9760 C   0  0  0  0  0
   11.5860  -10.7470   23.7650 C   0  0  0  0  0
   12.4110   -9.6970   23.4630 C   0  0  0  0  0
   12.4080   -8.2870   24.4770 Cl  0  0  0  0  0
   13.2630   -9.7350   22.3840 C   0  0  0  0  0
   17.4241  -18.6889   22.4468 H   0  0  0  0  0
   15.8517  -19.4678   21.8274 H   0  0  0  0  0
   13.9706  -19.5968   23.5685 H   0  0  0  0  0
   13.5169  -20.4234   25.8523 H   0  0  0  0  0
   15.3682  -20.6832   27.4732 H   0  0  0  0  0
   17.6686  -20.0788   26.8068 H   0  0  0  0  0
   18.1183  -19.2118   24.5367 H   0  0  0  0  0
   15.7855  -16.0718   24.1530 H   0  0  0  0  0
   18.2462  -15.9646   22.5539 H   0  0  0  0  0
   17.4701  -14.3256   24.9738 H   0  0  0  0  0
   19.1158  -14.5683   24.2768 H   0  0  0  0  0
   18.9240  -16.9984   24.8105 H   0  0  0  0  0
   17.3574  -16.6735   25.6048 H   0  0  0  0  0
   18.6919  -14.9004   26.9662 H   0  0  0  0  0
   20.1376  -15.8555   26.4299 H   0  0  0  0  0
   18.1528  -16.6439   28.4605 H   0  0  0  0  0
   19.7761  -19.7492   28.8729 H   0  0  0  0  0
   18.5962  -18.5778   29.4705 H   0  0  0  0  0
   20.6185  -17.5266   26.0154 H   0  0  0  0  0
   17.8587  -11.4924   21.3054 H   0  0  0  0  0
   18.7741  -11.5245   19.0367 H   0  0  0  0  0
   17.9851  -12.9859   18.6290 H   0  0  0  0  0
   20.4965  -12.6438   20.3598 H   0  0  0  0  0
   20.2365  -13.7984   19.1039 H   0  0  0  0  0
   18.9887  -15.2619   20.5180 H   0  0  0  0  0
   19.8863  -14.4834   21.7559 H   0  0  0  0  0
   16.1644  -10.3505   21.0174 H   0  0  0  0  0
   13.8429  -11.6484   19.6725 H   0  0  0  0  0
   14.1188   -9.8574   19.8769 H   0  0  0  0  0
   12.8688  -13.0517   20.0818 H   0  0  0  0  0
   11.4380  -13.6209   21.0494 H   0  0  0  0  0
   13.2631  -15.1859   21.1185 H   0  0  0  0  0
   14.2841  -14.0269   21.7441 H   0  0  0  0  0
   12.9730  -14.5484   22.6306 H   0  0  0  0  0
   11.0206  -12.7434   23.2272 H   0  0  0  0  0
   10.8973  -10.6890   24.6078 H   0  0  0  0  0
   13.9075   -8.8814   22.1740 H   0  0  0  0  0
  1  2  1  0  0  0
  1  3  1  0  0  0
  2  9  2  0  0  0
  2 10  2  0  0  0
  2 11  1  0  0  0
  3  4  4  0  0  0
  3  8  4  0  0  0
  4  5  4  0  0  0
  5  6  4  0  0  0
  6  7  4  0  0  0
  7  8  4  0  0  0
 11 12  1  0  0  0
 12 13  1  0  0  0
 12 20  1  0  0  0
 13 14  1  0  0  0
 14 15  1  0  0  0
 15 16  1  0  0  0
 16 17  1  0  0  0
 17 18  1  0  0  0
 17 19  2  0  0  0
 20 21  2  0  0  0
 20 22  1  0  0  0
 22 23  1  0  0  0
 22 28  1  0  0  0
 23 24  1  0  0  0
 23 26  1  0  0  0
 24 25  2  0  0  0
 24 29  1  0  0  0
 26 27  1  0  0  0
 27 28  1  0  0  0
 29 30  1  0  0  0
 30 31  1  0  0  0
 31 32  4  0  0  0
 31 39  4  0  0  0
 32 33  1  0  0  0
 32 35  4  0  0  0
 33 34  1  0  0  0
 35 36  4  0  0  0
 36 37  4  0  0  0
 37 38  1  0  0  0
 37 39  4  0  0  0
  1 40  1  0  0  0
  1 41  1  0  0  0
  4 42  1  0  0  0
  5 43  1  0  0  0
  6 44  1  0  0  0
  7 45  1  0  0  0
  8 46  1  0  0  0
 11 47  1  0  0  0
 12 48  1  0  0  0
 13 49  1  0  0  0
 13 50  1  0  0  0
 14 51  1  0  0  0
 14 52  1  0  0  0
 15 53  1  0  0  0
 15 54  1  0  0  0
 16 55  1  0  0  0
 18 56  1  0  0  0
 18 57  1  0  0  0
 19 58  1  0  0  0
 23 59  1  0  0  0
 26 60  1  0  0  0
 26 61  1  0  0  0
 27 62  1  0  0  0
 27 63  1  0  0  0
 28 64  1  0  0  0
 28 65  1  0  0  0
 29 66  1  0  0  0
 30 67  1  0  0  0
 30 68  1  0  0  0
 33 69  1  0  0  0
 33 70  1  0  0  0
 34 71  1  0  0  0
 34 72  1  0  0  0
 34 73  1  0  0  0
 35 74  1  0  0  0
 36 75  1  0  0  0
 39 76  1  0  0  0
M  END
$$$$
