4ai5_ligand
  -I-interpret- 

 18 19  0  0  0  0  0  0  0  0999 V2000
   26.2000  -21.4960    1.6340 N   0  0  0  0  0
   27.4690  -21.4560    1.9430 C   0  0  0  0  0
   28.3330  -22.4180    1.9370 N   0  0  0  0  0
   29.6470  -22.1400    2.2810 C   0  0  0  0  0
   29.9970  -20.9240    2.6590 N   0  0  0  0  0
   29.0750  -19.8940    2.7010 C   0  0  0  0  0
   29.4370  -18.6270    3.0510 N   0  0  0  0  0
   27.8070  -20.1980    2.3350 C   0  0  0  0  0
   26.7120  -19.4900    2.2340 N   0  0  0  0  0
   25.6950  -20.2680    1.8410 C   0  0  0  0  0
   27.9200  -23.8350    1.5190 C   0  0  0  0  0
   30.3963  -22.9305    2.2392 H   0  0  0  0  0
   30.4071  -18.4213    3.2896 H   0  0  0  0  0
   28.7377  -17.8848    3.0743 H   0  0  0  0  0
   24.6563  -19.9633    1.7135 H   0  0  0  0  0
   27.1366  -24.1953    2.1858 H   0  0  0  0  0
   27.5470  -23.8162    0.4950 H   0  0  0  0  0
   28.7839  -24.4968    1.5803 H   0  0  0  0  0
  1  2  4  0  0  0
  1 10  4  0  0  0
  2  3  4  0  0  0
  2  8  1  0  0  0
  3  4  4  0  0  0
  3 11  1  0  0  0
  4  5  4  0  0  0
  5  6  4  0  0  0
  6  7  1  0  0  0
  6  8  4  0  0  0
  8  9  4  0  0  0
  9 10  4  0  0  0
  4 12  1  0  0  0
  7 13  1  0  0  0
  7 14  1  0  0  0
 10 15  1  0  0  0
 11 16  1  0  0  0
 11 17  1  0  0  0
 11 18  1  0  0  0
M  END
$$$$
