2r02_ligand
  -I-interpret- 

190191  0  0  0  0  0  0  0  0999 V2000
  -66.1710  -41.7740  -61.3740 N   0  3  0  0  0
  -66.2650  -40.4640  -60.6550 C   0  0  0  0  0
  -67.0980  -39.4150  -61.4210 C   0  0  0  0  0
  -66.7790  -39.0630  -62.5850 O   0  0  0  0  0
  -64.8640  -39.9320  -60.3040 C   0  0  0  0  0
  -64.3960  -38.7030  -61.1000 C   0  0  0  0  0
  -63.4640  -37.7900  -60.3020 C   0  0  0  0  0
  -63.3430  -37.9730  -59.0650 O   0  0  0  0  0
  -62.8590  -36.8740  -60.9110 O   0  0  0  0  0
  -68.1620  -38.9220  -60.7600 N   0  0  0  0  0
  -69.0310  -37.9100  -61.3750 C   0  0  0  0  0
  -68.4760  -36.4930  -61.1850 C   0  0  0  0  0
  -67.7420  -35.9930  -62.0440 O   0  0  0  0  0
  -70.4650  -38.0270  -60.8460 C   0  0  0  0  0
  -71.5540  -37.3740  -61.6990 C   0  0  0  0  0
  -71.6200  -37.9650  -63.1090 C   0  0  0  0  0
  -72.9040  -37.4720  -61.0070 C   0  0  0  0  0
  -68.8160  -35.8650  -60.0590 N   0  0  0  0  0
  -68.2300  -34.5830  -59.6480 C   0  0  0  0  0
  -66.8350  -34.7410  -59.0390 C   0  0  0  0  0
  -66.6200  -35.6390  -58.2380 O   0  0  0  0  0
  -69.1550  -33.8750  -58.6630 C   0  0  0  0  0
  -70.3550  -33.2930  -59.3440 C   0  0  0  0  0
  -71.5580  -33.9900  -59.3870 C   0  0  0  0  0
  -70.2830  -32.0540  -59.9790 C   0  0  0  0  0
  -72.6540  -33.4610  -60.0350 C   0  0  0  0  0
  -71.3760  -31.5200  -60.6280 C   0  0  0  0  0
  -72.5520  -32.2250  -60.6570 C   0  0  0  0  0
  -73.6510  -31.6980  -61.2960 O   0  0  0  0  0
  -65.8880  -33.8420  -59.3780 N   0  0  0  0  0
  -64.5150  -34.1280  -58.9730 C   0  0  0  0  0
  -64.2600  -33.7450  -57.5190 C   0  0  0  0  0
  -63.6900  -32.6900  -57.2400 O   0  0  0  0  0
  -63.6860  -33.2730  -59.9310 C   0  0  0  0  0
  -64.5410  -32.1130  -60.2390 C   0  0  0  0  0
  -65.9900  -32.5400  -60.0680 C   0  0  0  0  0
  -64.6830  -34.6140  -56.6070 N   0  0  0  0  0
  -64.4210  -34.4480  -55.1790 C   0  0  0  0  0
  -62.9630  -34.7770  -54.8030 C   0  0  0  0  0
  -62.4960  -34.4000  -53.7210 O   0  0  0  0  0
  -65.4100  -35.2820  -54.3500 C   0  0  0  0  0
  -66.9240  -35.0480  -54.5190 C   0  0  0  0  0
  -67.7490  -36.1270  -53.7970 C   0  0  0  0  0
  -67.3420  -33.6570  -54.0430 C   0  0  0  0  0
  -62.2660  -35.4850  -55.6970 N   0  0  0  0  0
  -60.8210  -35.7190  -55.5980 C   0  0  0  0  0
  -60.0540  -34.3940  -55.6590 C   0  0  0  0  0
  -59.4130  -33.9830  -54.6840 O   0  0  0  0  0
  -60.3080  -36.6210  -56.7480 C   0  0  0  0  0
  -60.9680  -36.2520  -57.9690 O   0  0  0  0  0
  -60.5500  -38.0900  -56.4510 C   0  0  0  0  0
  -60.1350  -33.7300  -56.8120 N   0  0  0  0  0
  -59.5660  -32.3950  -56.9960 C   0  0  0  0  0
  -60.0100  -31.4290  -55.9090 C   0  0  0  0  0
  -59.2360  -30.5770  -55.4910 O   0  0  0  0  0
  -59.9580  -31.8190  -58.3570 C   0  0  0  0  0
  -59.4880  -32.6270  -59.4190 O   0  0  0  0  0
  -61.2530  -31.5680  -55.4570 N   0  0  0  0  0
  -61.8380  -30.6280  -54.5120 C   0  0  0  0  0
  -61.2430  -30.7120  -53.1020 C   0  0  0  0  0
  -60.8100  -29.6950  -52.5450 O   0  0  0  0  0
  -63.3590  -30.7960  -54.4610 C   0  0  0  0  0
  -64.1130  -29.8290  -53.5430 C   0  0  0  0  0
  -64.3050  -28.4870  -54.2320 C   0  0  0  0  0
  -65.4480  -30.4200  -53.1230 C   0  0  0  0  0
  -61.2220  -31.9160  -52.5320 N   0  0  0  0  0
  -60.7950  -32.0950  -51.1410 C   0  0  0  0  0
  -59.2970  -31.8560  -50.8950 C   0  0  0  0  0
  -58.9020  -31.4870  -49.7810 O   0  0  0  0  0
  -61.2060  -33.4690  -50.6120 C   0  0  0  0  0
  -62.6980  -33.6440  -50.3990 C   0  0  0  0  0
  -62.9580  -34.9190  -49.6200 C   0  0  0  0  0
  -63.8210  -35.8260  -50.3690 N   0  0  0  0  0
  -63.9270  -37.1320  -50.1400 C   0  0  0  0  0
  -63.2260  -37.7070  -49.1690 N   0  0  0  0  0
  -64.7400  -37.8650  -50.8890 N   0  0  0  0  0
  -58.4750  -32.0540  -51.9300 N   0  0  0  0  0
  -57.0260  -31.8230  -51.8290 C   0  0  0  0  0
  -56.6610  -30.3290  -51.8030 C   0  0  0  0  0
  -55.5040  -29.9660  -51.5600 O   0  0  0  0  0
  -56.2880  -32.5290  -52.9790 C   0  0  0  0  0
  -56.7950  -32.1230  -54.2510 O   0  0  0  0  0
  -57.6550  -29.4750  -52.0470 N   0  0  0  0  0
  -57.4470  -28.0340  -52.1580 C   0  0  0  0  0
  -58.3370  -27.3140  -51.1350 C   0  0  0  0  0
  -57.5970  -27.5120  -49.5230 O   0  0  0  0  0
  -57.7780  -27.5730  -53.5830 C   0  0  0  0  0
  -56.7960  -27.7090  -54.7790 C   0  0  0  0  0
  -55.8760  -28.9520  -54.7810 C   0  0  0  0  0
  -57.5920  -27.6350  -56.0920 C   0  0  0  0  0
  -59.4623  -26.6577  -51.4031 O   0  0  0  0  0
  -65.6112  -42.4240  -60.8221 H   0  0  0  0  0
  -67.1074  -42.1564  -61.5052 H   0  0  0  0  0
  -65.7305  -41.6308  -62.2828 H   0  0  0  0  0
  -66.8029  -40.6509  -59.7256 H   0  0  0  0  0
  -64.1633  -40.7340  -60.5360 H   0  0  0  0  0
  -64.9044  -39.6247  -59.2590 H   0  0  0  0  0
  -65.2805  -38.1235  -61.3645 H   0  0  0  0  0
  -63.8439  -39.0618  -61.9687 H   0  0  0  0  0
  -63.8854  -38.7189  -58.7984 H   0  0  0  0  0
  -68.3677  -39.2560  -59.8185 H   0  0  0  0  0
  -69.0528  -38.1017  -62.4478 H   0  0  0  0  0
  -70.4789  -37.5103  -59.8864 H   0  0  0  0  0
  -70.6948  -39.0922  -60.8217 H   0  0  0  0  0
  -71.2911  -36.3219  -61.8086 H   0  0  0  0  0
  -70.6633  -37.8153  -63.6095 H   0  0  0  0  0
  -71.8350  -39.0317  -63.0448 H   0  0  0  0  0
  -72.4086  -37.4675  -63.6736 H   0  0  0  0  0
  -73.1563  -38.5211  -60.8525 H   0  0  0  0  0
  -72.8552  -36.9631  -60.0443 H   0  0  0  0  0
  -73.6651  -37.0018  -61.6298 H   0  0  0  0  0
  -69.5161  -36.2954  -59.4548 H   0  0  0  0  0
  -68.1193  -33.9790  -60.5485 H   0  0  0  0  0
  -68.5992  -33.0620  -58.1958 H   0  0  0  0  0
  -69.4983  -34.6057  -57.9307 H   0  0  0  0  0
  -71.6350  -34.9639  -58.9037 H   0  0  0  0  0
  -69.3459  -31.4975  -59.9621 H   0  0  0  0  0
  -73.5950  -34.0106  -60.0585 H   0  0  0  0  0
  -71.3061  -30.5466  -61.1135 H   0  0  0  0  0
  -74.3859  -32.3116  -61.2248 H   0  0  0  0  0
  -64.2715  -35.1892  -59.0248 H   0  0  0  0  0
  -63.4107  -33.8236  -60.8305 H   0  0  0  0  0
  -62.7376  -32.9707  -59.4868 H   0  0  0  0  0
  -64.3101  -31.2858  -59.5678 H   0  0  0  0  0
  -64.3654  -31.7760  -61.2606 H   0  0  0  0  0
  -66.5753  -31.8136  -59.5042 H   0  0  0  0  0
  -66.5189  -32.6117  -61.0184 H   0  0  0  0  0
  -65.2118  -35.4296  -56.9161 H   0  0  0  0  0
  -64.5701  -33.3941  -54.9443 H   0  0  0  0  0
  -65.2012  -35.0120  -53.3148 H   0  0  0  0  0
  -65.2496  -36.3092  -54.6776 H   0  0  0  0  0
  -67.1309  -35.1161  -55.5870 H   0  0  0  0  0
  -67.5039  -37.1060  -54.2087 H   0  0  0  0  0
  -67.5147  -36.1100  -52.7326 H   0  0  0  0  0
  -68.8109  -35.9268  -53.9399 H   0  0  0  0  0
  -67.0944  -33.5460  -52.9873 H   0  0  0  0  0
  -66.8122  -32.9014  -54.6231 H   0  0  0  0  0
  -68.4164  -33.5350  -54.1803 H   0  0  0  0  0
  -62.7659  -35.8844  -56.4914 H   0  0  0  0  0
  -60.6489  -36.2156  -54.6431 H   0  0  0  0  0
  -59.2323  -36.4757  -56.8475 H   0  0  0  0  0
  -60.6518  -36.8097  -58.6835 H   0  0  0  0  0
  -60.0266  -38.3653  -55.5353 H   0  0  0  0  0
  -61.6189  -38.2628  -56.3260 H   0  0  0  0  0
  -60.1776  -38.6930  -57.2792 H   0  0  0  0  0
  -60.6131  -34.1707  -57.5979 H   0  0  0  0  0
  -58.4836  -32.5098  -56.9389 H   0  0  0  0  0
  -59.5118  -30.8292  -58.4536 H   0  0  0  0  0
  -61.0457  -31.7757  -58.4124 H   0  0  0  0  0
  -59.7507  -32.2377  -60.2563 H   0  0  0  0  0
  -61.8128  -32.3563  -55.7820 H   0  0  0  0  0
  -61.5887  -29.6345  -54.8848 H   0  0  0  0  0
  -63.5428  -31.7960  -54.0681 H   0  0  0  0  0
  -63.7215  -30.6037  -55.4708 H   0  0  0  0  0
  -63.5185  -29.6692  -52.6435 H   0  0  0  0  0
  -63.3310  -28.0617  -54.4742 H   0  0  0  0  0
  -64.8788  -28.6290  -55.1478 H   0  0  0  0  0
  -64.8423  -27.8117  -53.5661 H   0  0  0  0  0
  -66.0539  -30.6114  -54.0086 H   0  0  0  0  0
  -65.2781  -31.3546  -52.5885 H   0  0  0  0  0
  -65.9665  -29.7165  -52.4716 H   0  0  0  0  0
  -61.5091  -32.7304  -53.0749 H   0  0  0  0  0
  -61.3156  -31.3151  -50.5853 H   0  0  0  0  0
  -60.7295  -33.5907  -49.6392 H   0  0  0  0  0
  -60.9037  -34.2013  -51.3606 H   0  0  0  0  0
  -63.1962  -33.7042  -51.3666 H   0  0  0  0  0
  -63.0848  -32.7931  -49.8382 H   0  0  0  0  0
  -63.4527  -34.6607  -48.6837 H   0  0  0  0  0
  -62.0054  -35.4160  -49.4368 H   0  0  0  0  0
  -64.3834  -35.4303  -51.1223 H   0  0  0  0  0
  -63.3139  -38.7093  -49.0013 H   0  0  0  0  0
  -62.5999  -37.1462  -48.5912 H   0  0  0  0  0
  -65.2795  -37.4267  -51.6355 H   0  0  0  0  0
  -58.8642  -32.3749  -52.8165 H   0  0  0  0  0
  -56.7067  -32.2462  -50.8766 H   0  0  0  0  0
  -56.4341  -33.6042  -52.8754 H   0  0  0  0  0
  -55.2320  -32.2640  -52.9268 H   0  0  0  0  0
  -56.3154  -32.5798  -54.9460 H   0  0  0  0  0
  -58.5994  -29.8432  -52.1608 H   0  0  0  0  0
  -56.4046  -27.7924  -51.9505 H   0  0  0  0  0
  -57.8798  -26.4934  -53.4726 H   0  0  0  0  0
  -58.6004  -28.2296  -53.8669 H   0  0  0  0  0
  -56.1028  -26.8746  -54.6722 H   0  0  0  0  0
  -55.2550  -28.9442  -53.8853 H   0  0  0  0  0
  -56.4869  -29.8546  -54.7933 H   0  0  0  0  0
  -55.2399  -28.9302  -55.6659 H   0  0  0  0  0
  -58.3204  -28.4454  -56.1200 H   0  0  0  0  0
  -58.1097  -26.6774  -56.1481 H   0  0  0  0  0
  -56.9084  -27.7299  -56.9357 H   0  0  0  0  0
  -59.6397  -26.7007  -52.3456 H   0  0  0  0  0
  2  1  1  0  0  0
  2  5  1  0  0  0
  3  2  1  0  0  0
  3  4  2  0  0  0
  5  6  1  0  0  0
  6  7  1  0  0  0
  7  9  2  0  0  0
  7  8  1  0  0  0
 11 10  1  0  0  0
 11 14  1  0  0  0
 12 11  1  0  0  0
 12 13  2  0  0  0
 14 15  1  0  0  0
 15 16  1  0  0  0
 15 17  1  0  0  0
 10  3  1  0  0  0
 19 18  1  0  0  0
 19 22  1  0  0  0
 20 19  1  0  0  0
 20 21  2  0  0  0
 22 23  1  0  0  0
 23 24  4  0  0  0
 23 25  4  0  0  0
 25 27  4  0  0  0
 27 28  4  0  0  0
 28 29  1  0  0  0
 26 28  4  0  0  0
 24 26  4  0  0  0
 18 12  1  0  0  0
 32 31  1  0  0  0
 31 34  1  0  0  0
 31 30  1  0  0  0
 30 36  1  0  0  0
 36 35  1  0  0  0
 34 35  1  0  0  0
 32 33  2  0  0  0
 30 20  1  0  0  0
 38 37  1  0  0  0
 38 41  1  0  0  0
 39 38  1  0  0  0
 39 40  2  0  0  0
 41 42  1  0  0  0
 42 43  1  0  0  0
 42 44  1  0  0  0
 37 32  1  0  0  0
 46 45  1  0  0  0
 46 49  1  0  0  0
 47 46  1  0  0  0
 47 48  2  0  0  0
 49 51  1  0  0  0
 49 50  1  0  0  0
 45 39  1  0  0  0
 53 52  1  0  0  0
 53 56  1  0  0  0
 54 53  1  0  0  0
 54 55  2  0  0  0
 56 57  1  0  0  0
 52 47  1  0  0  0
 59 58  1  0  0  0
 59 62  1  0  0  0
 60 59  1  0  0  0
 60 61  2  0  0  0
 62 63  1  0  0  0
 63 64  1  0  0  0
 63 65  1  0  0  0
 58 54  1  0  0  0
 67 66  1  0  0  0
 67 70  1  0  0  0
 68 67  1  0  0  0
 68 69  2  0  0  0
 70 71  1  0  0  0
 71 72  1  0  0  0
 72 73  1  0  0  0
 73 74  1  0  0  0
 74 76  2  0  0  0
 74 75  1  0  0  0
 66 60  1  0  0  0
 78 77  1  0  0  0
 78 81  1  0  0  0
 79 78  1  0  0  0
 79 80  2  0  0  0
 81 82  1  0  0  0
 77 68  1  0  0  0
 83 84  1  0  0  0
 84 87  1  0  0  0
 84 85  1  0  0  0
 85 86  2  0  0  0
 87 88  1  0  0  0
 88 89  1  0  0  0
 88 90  1  0  0  0
 79 83  1  0  0  0
 85 91  1  0  0  0
  1 92  1  0  0  0
  1 93  1  0  0  0
  1 94  1  0  0  0
  2 95  1  0  0  0
  5 96  1  0  0  0
  5 97  1  0  0  0
  6 98  1  0  0  0
  6 99  1  0  0  0
  8100  1  0  0  0
 10101  1  0  0  0
 11102  1  0  0  0
 14103  1  0  0  0
 14104  1  0  0  0
 15105  1  0  0  0
 16106  1  0  0  0
 16107  1  0  0  0
 16108  1  0  0  0
 17109  1  0  0  0
 17110  1  0  0  0
 17111  1  0  0  0
 18112  1  0  0  0
 19113  1  0  0  0
 22114  1  0  0  0
 22115  1  0  0  0
 24116  1  0  0  0
 25117  1  0  0  0
 26118  1  0  0  0
 27119  1  0  0  0
 29120  1  0  0  0
 31121  1  0  0  0
 34122  1  0  0  0
 34123  1  0  0  0
 35124  1  0  0  0
 35125  1  0  0  0
 36126  1  0  0  0
 36127  1  0  0  0
 37128  1  0  0  0
 38129  1  0  0  0
 41130  1  0  0  0
 41131  1  0  0  0
 42132  1  0  0  0
 43133  1  0  0  0
 43134  1  0  0  0
 43135  1  0  0  0
 44136  1  0  0  0
 44137  1  0  0  0
 44138  1  0  0  0
 45139  1  0  0  0
 46140  1  0  0  0
 49141  1  0  0  0
 50142  1  0  0  0
 51143  1  0  0  0
 51144  1  0  0  0
 51145  1  0  0  0
 52146  1  0  0  0
 53147  1  0  0  0
 56148  1  0  0  0
 56149  1  0  0  0
 57150  1  0  0  0
 58151  1  0  0  0
 59152  1  0  0  0
 62153  1  0  0  0
 62154  1  0  0  0
 63155  1  0  0  0
 64156  1  0  0  0
 64157  1  0  0  0
 64158  1  0  0  0
 65159  1  0  0  0
 65160  1  0  0  0
 65161  1  0  0  0
 66162  1  0  0  0
 67163  1  0  0  0
 70164  1  0  0  0
 70165  1  0  0  0
 71166  1  0  0  0
 71167  1  0  0  0
 72168  1  0  0  0
 72169  1  0  0  0
 73170  1  0  0  0
 75171  1  0  0  0
 75172  1  0  0  0
 76173  1  0  0  0
 77174  1  0  0  0
 78175  1  0  0  0
 81176  1  0  0  0
 81177  1  0  0  0
 82178  1  0  0  0
 83179  1  0  0  0
 84180  1  0  0  0
 87181  1  0  0  0
 87182  1  0  0  0
 88183  1  0  0  0
 89184  1  0  0  0
 89185  1  0  0  0
 89186  1  0  0  0
 90187  1  0  0  0
 90188  1  0  0  0
 90189  1  0  0  0
 91190  1  0  0  0
M  END
$$$$
