### 
### Created by X-TOOL on Mon Sep 10 21:12:56 2018
### 

@<TRIPOS>MOLECULE
2r02_ligand
  190   191     1     0     0
SMALL
GAST_HUCK


@<TRIPOS>ATOM
      1 N         -66.1710  -41.7740  -61.3740 N.4       1 GLU         0.2380
      2 CA        -66.2650  -40.4640  -60.6550 C.3       1 GLU         0.0665
      3 C         -67.0980  -39.4150  -61.4210 C.2       1 GLU         0.2268
      4 O         -66.7790  -39.0630  -62.5850 O.2       1 GLU        -0.3907
      5 CB        -64.8640  -39.9320  -60.3040 C.3       1 GLU         0.0194
      6 CG        -64.3960  -38.7030  -61.1000 C.3       1 GLU         0.0075
      7 CD        -63.4640  -37.7900  -60.3020 C.2       1 GLU         0.0351
      8 OE1       -63.3430  -37.9730  -59.0650 O.co2     1 GLU        -0.5690
      9 OE2       -62.8590  -36.8740  -60.9110 O.co2     1 GLU        -0.5690
     10 N         -68.1620  -38.9220  -60.7600 N.am      1 LEU        -0.2610
     11 CA        -69.0310  -37.9100  -61.3750 C.3       1 LEU         0.1313
     12 C         -68.4760  -36.4930  -61.1850 C.2       1 LEU         0.2040
     13 O         -67.7420  -35.9930  -62.0440 O.2       1 LEU        -0.3944
     14 CB        -70.4650  -38.0270  -60.8460 C.3       1 LEU        -0.0101
     15 CG        -71.5540  -37.3740  -61.6990 C.3       1 LEU        -0.0425
     16 CD1       -71.6200  -37.9650  -63.1090 C.3       1 LEU        -0.0625
     17 CD2       -72.9040  -37.4720  -61.0070 C.3       1 LEU        -0.0625
     18 N         -68.8160  -35.8650  -60.0590 N.am      1 TYR        -0.2621
     19 CA        -68.2300  -34.5830  -59.6480 C.3       1 TYR         0.1392
     20 C         -66.8350  -34.7410  -59.0390 C.2       1 TYR         0.2082
     21 O         -66.6200  -35.6390  -58.2380 O.2       1 TYR        -0.3940
     22 CB        -69.1550  -33.8750  -58.6630 C.3       1 TYR         0.0164
     23 CG        -70.3550  -33.2930  -59.3440 C.ar      1 TYR        -0.0493
     24 CD1       -71.5580  -33.9900  -59.3870 C.ar      1 TYR        -0.0685
     25 CD2       -70.2830  -32.0540  -59.9790 C.ar      1 TYR        -0.0685
     26 CE1       -72.6540  -33.4610  -60.0350 C.ar      1 TYR        -0.0398
     27 CE2       -71.3760  -31.5200  -60.6280 C.ar      1 TYR        -0.0398
     28 CZ        -72.5520  -32.2250  -60.6570 C.ar      1 TYR         0.0805
     29 OH        -73.6510  -31.6980  -61.2960 O.3       1 TYR        -0.3376
     30 N         -65.8880  -33.8420  -59.3780 N.am      1 PRO        -0.2497
     31 CA        -64.5150  -34.1280  -58.9730 C.3       1 PRO         0.1338
     32 C         -64.2600  -33.7450  -57.5190 C.2       1 PRO         0.2041
     33 O         -63.6900  -32.6900  -57.2400 O.2       1 PRO        -0.3944
     34 CB        -63.6860  -33.2730  -59.9310 C.3       1 PRO        -0.0104
     35 CG        -64.5410  -32.1130  -60.2390 C.3       1 PRO        -0.0281
     36 CD        -65.9900  -32.5400  -60.0680 C.3       1 PRO         0.0369
     37 N         -64.6830  -34.6140  -56.6070 N.am      1 LEU        -0.2637
     38 CA        -64.4210  -34.4480  -55.1790 C.3       1 LEU         0.1312
     39 C         -62.9630  -34.7770  -54.8030 C.2       1 LEU         0.2040
     40 O         -62.4960  -34.4000  -53.7210 O.2       1 LEU        -0.3944
     41 CB        -65.4100  -35.2820  -54.3500 C.3       1 LEU        -0.0101
     42 CG        -66.9240  -35.0480  -54.5190 C.3       1 LEU        -0.0425
     43 CD1       -67.7490  -36.1270  -53.7970 C.3       1 LEU        -0.0625
     44 CD2       -67.3420  -33.6570  -54.0430 C.3       1 LEU        -0.0625
     45 N         -62.2660  -35.4850  -55.6970 N.am      1 THR        -0.2613
     46 CA        -60.8210  -35.7190  -55.5980 C.3       1 THR         0.1565
     47 C         -60.0540  -34.3940  -55.6590 C.2       1 THR         0.2065
     48 O         -59.4130  -33.9830  -54.6840 O.2       1 THR        -0.3943
     49 CB        -60.3080  -36.6210  -56.7480 C.3       1 THR         0.0924
     50 OG1       -60.9680  -36.2520  -57.9690 O.3       1 THR        -0.3874
     51 CG2       -60.5500  -38.0900  -56.4510 C.3       1 THR        -0.0346
     52 N         -60.1350  -33.7300  -56.8120 N.am      1 SER        -0.2615
     53 CA        -59.5660  -32.3950  -56.9960 C.3       1 SER         0.1539
     54 C         -60.0100  -31.4290  -55.9090 C.2       1 SER         0.2062
     55 O         -59.2360  -30.5770  -55.4910 O.2       1 SER        -0.3943
     56 CB        -59.9580  -31.8190  -58.3570 C.3       1 SER         0.0843
     57 OG        -59.4880  -32.6270  -59.4190 O.3       1 SER        -0.3903
     58 N         -61.2530  -31.5680  -55.4570 N.am      1 LEU        -0.2636
     59 CA        -61.8380  -30.6280  -54.5120 C.3       1 LEU         0.1312
     60 C         -61.2430  -30.7120  -53.1020 C.2       1 LEU         0.2039
     61 O         -60.8100  -29.6950  -52.5450 O.2       1 LEU        -0.3944
     62 CB        -63.3590  -30.7960  -54.4610 C.3       1 LEU        -0.0101
     63 CG        -64.1130  -29.8290  -53.5430 C.3       1 LEU        -0.0425
     64 CD1       -64.3050  -28.4870  -54.2320 C.3       1 LEU        -0.0625
     65 CD2       -65.4480  -30.4200  -53.1230 C.3       1 LEU        -0.0625
     66 N         -61.2220  -31.9160  -52.5320 N.am      1 ARG        -0.2637
     67 CA        -60.7950  -32.0950  -51.1410 C.3       1 ARG         0.1311
     68 C         -59.2970  -31.8560  -50.8950 C.2       1 ARG         0.2040
     69 O         -58.9020  -31.4870  -49.7810 O.2       1 ARG        -0.3944
     70 CB        -61.2060  -33.4690  -50.6120 C.3       1 ARG        -0.0092
     71 CG        -62.6980  -33.6440  -50.3990 C.3       1 ARG        -0.0156
     72 CD        -62.9580  -34.9190  -49.6200 C.3       1 ARG         0.0627
     73 NE        -63.8210  -35.8260  -50.3690 N.pl3     1 ARG        -0.2723
     74 CZ        -63.9270  -37.1320  -50.1400 C.cat     1 ARG         0.2882
     75 NH1       -63.2260  -37.7070  -49.1690 N.pl3     1 ARG        -0.2849
     76 NH2       -64.7400  -37.8650  -50.8890 N.pl3     1 ARG        -0.2849
     77 N         -58.4750  -32.0540  -51.9300 N.am      1 SER        -0.2616
     78 CA        -57.0260  -31.8230  -51.8290 C.3       1 SER         0.1539
     79 C         -56.6610  -30.3290  -51.8030 C.2       1 SER         0.2063
     80 O         -55.5040  -29.9660  -51.5600 O.2       1 SER        -0.3943
     81 CB        -56.2880  -32.5290  -52.9790 C.3       1 SER         0.0843
     82 OG        -56.7950  -32.1230  -54.2510 O.3       1 SER        -0.3903
     83 N         -57.6550  -29.4750  -52.0470 N.am      1 LEU        -0.2623
     84 CA        -57.4470  -28.0340  -52.1580 C.3       1 LEU         0.1422
     85 C         -58.3370  -27.3140  -51.1350 C.2       1 LEU         0.2571
     86 O         -57.5970  -27.5120  -49.5230 O.2       1 LEU        -0.3680
     87 CB        -57.7780  -27.5730  -53.5830 C.3       1 LEU        -0.0087
     88 CG        -56.7960  -27.7090  -54.7790 C.3       1 LEU        -0.0424
     89 CD1       -55.8760  -28.9520  -54.7810 C.3       1 LEU        -0.0624
     90 CD2       -57.5920  -27.6350  -56.0920 C.3       1 LEU        -0.0624
     91 O1        -59.4623  -26.6577  -51.4031 O.3       1 LEU        -0.2910
     92 H1        -65.6180  -42.4172  -60.8295 H         1 GLU         0.2015
     93 H2        -65.7358  -41.6338  -62.2723 H         1 GLU         0.2015
     94 H3        -67.0959  -42.1530  -61.5042 H         1 GLU         0.2015
     95 H4        -66.7884  -40.6548  -59.7065 H         1 GLU         0.1099
     96 H5        -64.1415  -40.7427  -60.4793 H         1 GLU         0.0363
     97 H6        -64.8624  -39.6637  -59.2372 H         1 GLU         0.0363
     98 H7        -65.2809  -38.1230  -61.4007 H         1 GLU         0.0434
     99 H8        -63.8624  -39.0496  -61.9973 H         1 GLU         0.0434
    100 H9        -68.3637  -39.2495  -59.8369 H         1 LEU         0.1884
    101 H10       -69.0586  -38.1101  -62.4563 H         1 LEU         0.0800
    102 H11       -70.4945  -37.5614  -59.8499 H         1 LEU         0.0315
    103 H12       -70.7041  -39.0971  -60.7578 H         1 LEU         0.0315
    104 H13       -71.3029  -36.3077  -61.7987 H         1 LEU         0.0298
    105 H14       -72.4155  -37.4637  -63.6798 H         1 LEU         0.0232
    106 H15       -71.8369  -39.0415  -63.0456 H         1 LEU         0.0232
    107 H16       -70.6551  -37.8146  -63.6152 H         1 LEU         0.0232
    108 H17       -72.8306  -37.0415  -59.9974 H         1 LEU         0.0232
    109 H18       -73.2030  -38.5281  -60.9344 H         1 LEU         0.0232
    110 H19       -73.6552  -36.9173  -61.5884 H         1 LEU         0.0232
    111 H20       -69.5023  -36.2870  -59.4666 H         1 TYR         0.1885
    112 H21       -68.1353  -33.9540  -60.5454 H         1 TYR         0.0821
    113 H22       -68.5973  -33.0645  -58.1710 H         1 TYR         0.0453
    114 H23       -69.4917  -34.5999  -57.9072 H         1 TYR         0.0453
    115 H24       -71.6346  -34.9586  -58.9063 H         1 TYR         0.0530
    116 H25       -69.3511  -31.5006  -59.9622 H         1 TYR         0.0530
    117 H26       -73.5898  -34.0075  -60.0584 H         1 TYR         0.0525
    118 H27       -71.3065  -30.5520  -61.1108 H         1 TYR         0.0525
    119 H28       -73.4446  -31.5543  -62.2121 H         1 TYR         0.2458
    120 H29       -64.2860  -35.1955  -59.1071 H         1 PRO         0.0802
    121 H30       -63.4512  -33.8349  -60.8470 H         1 PRO         0.0313
    122 H31       -62.7514  -32.9483  -59.4502 H         1 PRO         0.0313
    123 H32       -64.3114  -31.2866  -59.5503 H         1 PRO         0.0287
    124 H33       -64.3678  -31.7860  -61.2749 H         1 PRO         0.0287
    125 H34       -66.5442  -31.8132  -59.4559 H         1 PRO         0.0524
    126 H35       -66.4849  -32.6503  -61.0441 H         1 PRO         0.0524
    127 H36       -65.2014  -35.4136  -56.9101 H         1 LEU         0.1883
    128 H37       -64.5902  -33.3890  -54.9344 H         1 LEU         0.0800
    129 H38       -65.1739  -35.1000  -53.2912 H         1 LEU         0.0315
    130 H39       -65.2200  -36.3381  -54.5918 H         1 LEU         0.0315
    131 H40       -67.1500  -35.1159  -55.5934 H         1 LEU         0.0298
    132 H41       -68.8209  -35.9261  -53.9404 H         1 LEU         0.0232
    133 H42       -67.5135  -36.1109  -52.7226 H         1 LEU         0.0232
    134 H43       -67.5026  -37.1156  -54.2116 H         1 LEU         0.0232
    135 H44       -66.7451  -32.8956  -54.5665 H         1 LEU         0.0232
    136 H45       -67.1729  -33.5741  -52.9592 H         1 LEU         0.0232
    137 H46       -68.4087  -33.5001  -54.2608 H         1 LEU         0.0232
    138 H47       -62.7561  -35.8766  -56.4758 H         1 THR         0.1884
    139 H48       -60.6136  -36.2124  -54.6370 H         1 THR         0.0826
    140 H49       -59.2259  -36.4617  -56.8645 H         1 THR         0.0639
    141 H50       -61.9016  -36.4042  -57.8815 H         1 THR         0.2101
    142 H51       -60.1745  -38.6996  -57.2861 H         1 THR         0.0257
    143 H52       -61.6285  -38.2658  -56.3247 H         1 THR         0.0257
    144 H53       -60.0223  -38.3691  -55.5271 H         1 THR         0.0257
    145 H54       -60.6038  -34.1620  -57.5825 H         1 SER         0.1884
    146 H55       -58.4704  -32.4842  -56.9544 H         1 SER         0.0823
    147 H56       -59.5263  -30.8122  -58.4564 H         1 SER         0.0606
    148 H57       -61.0546  -31.7552  -58.4153 H         1 SER         0.0606
    149 H58       -59.7480  -32.2417  -60.2476 H         1 SER         0.2097
    150 H59       -61.8018  -32.3409  -55.7756 H         1 LEU         0.1883
    151 H60       -61.6259  -29.6173  -54.8909 H         1 LEU         0.0800
    152 H61       -63.5729  -31.8195  -54.1194 H         1 LEU         0.0315
    153 H62       -63.7465  -30.6616  -55.4817 H         1 LEU         0.0315
    154 H63       -63.5084  -29.6686  -52.6382 H         1 LEU         0.0298
    155 H64       -64.8472  -27.8046  -53.5609 H         1 LEU         0.0232
    156 H65       -64.8840  -28.6289  -55.1564 H         1 LEU         0.0232
    157 H66       -63.3227  -28.0567  -54.4769 H         1 LEU         0.0232
    158 H67       -65.2810  -31.3882  -52.6283 H         1 LEU         0.0232
    159 H68       -66.0799  -30.5664  -54.0114 H         1 LEU         0.0232
    160 H69       -65.9497  -29.7334  -52.4252 H         1 LEU         0.0232
    161 H70       -61.5034  -32.7145  -53.0642 H         1 ARG         0.1883
    162 H71       -61.3352  -31.3412  -50.5495 H         1 ARG         0.0800
    163 H72       -60.7007  -33.6308  -49.6484 H         1 ARG         0.0313
    164 H73       -60.8712  -34.2286  -51.3337 H         1 ARG         0.0313
    165 H74       -63.2021  -33.7028  -51.3749 H         1 ARG         0.0301
    166 H75       -63.0899  -32.7848  -49.8350 H         1 ARG         0.0301
    167 H76       -63.4452  -34.6647  -48.6671 H         1 ARG         0.0689
    168 H77       -61.9991  -35.4193  -49.4195 H         1 ARG         0.0689
    169 H78       -64.3889  -35.4264  -51.1297 H         1 ARG         0.2642
    170 H79       -63.3150  -38.7191  -48.9995 H         1 ARG         0.2615
    171 H80       -62.5935  -37.1408  -48.5857 H         1 ARG         0.2615
    172 H81       -65.2849  -37.4224  -51.6427 H         1 ARG         0.2615
    173 H82       -64.8264  -38.8769  -50.7170 H         1 ARG         0.2615
    174 H83       -58.8566  -32.3686  -52.7991 H         1 SER         0.1884
    175 H84       -56.6846  -32.2655  -50.8816 H         1 SER         0.0823
    176 H85       -56.4170  -33.6162  -52.8729 H         1 SER         0.0606
    177 H86       -55.2181  -32.2796  -52.9241 H         1 SER         0.0606
    178 H87       -57.7182  -32.3399  -54.3066 H         1 SER         0.2097
    179 H88       -58.5809  -29.8359  -52.1586 H         1 LEU         0.1885
    180 H89       -56.3934  -27.8021  -51.9431 H         1 LEU         0.0816
    181 H90       -58.0102  -26.5006  -53.5055 H         1 LEU         0.0316
    182 H91       -58.6842  -28.1243  -53.8742 H         1 LEU         0.0316
    183 H92       -56.1314  -26.8334  -54.7391 H         1 LEU         0.0298
    184 H93       -55.2335  -28.9312  -55.6736 H         1 LEU         0.0232
    185 H94       -56.4914  -29.8637  -54.7934 H         1 LEU         0.0232
    186 H95       -55.2486  -28.9453  -53.8775 H         1 LEU         0.0232
    187 H96       -58.2416  -26.7474  -56.0774 H         1 LEU         0.0232
    188 H97       -58.2092  -28.5393  -56.1981 H         1 LEU         0.0232
    189 H98       -56.8949  -27.5653  -56.9400 H         1 LEU         0.0232
    190 H99       -59.6379  -26.7002  -52.3358 H         1 LEU         0.2540
@<TRIPOS>BOND
     1    2    1 1  
     2    2    5 1  
     3    3    2 1  
     4    3    4 2  
     5    5    6 1  
     6    6    7 1  
     7    7    9 ar 
     8    7    8 ar 
     9   11   10 1  
    10   11   14 1  
    11   12   11 1  
    12   12   13 2  
    13   14   15 1  
    14   15   16 1  
    15   15   17 1  
    16   10    3 am 
    17   19   18 1  
    18   19   22 1  
    19   20   19 1  
    20   20   21 2  
    21   22   23 1  
    22   23   24 ar 
    23   23   25 ar 
    24   25   27 ar 
    25   27   28 ar 
    26   28   29 1  
    27   26   28 ar 
    28   24   26 ar 
    29   18   12 am 
    30   32   31 1  
    31   31   34 1  
    32   31   30 1  
    33   30   36 1  
    34   36   35 1  
    35   34   35 1  
    36   32   33 2  
    37   30   20 am 
    38   38   37 1  
    39   38   41 1  
    40   39   38 1  
    41   39   40 2  
    42   41   42 1  
    43   42   43 1  
    44   42   44 1  
    45   37   32 am 
    46   46   45 1  
    47   46   49 1  
    48   47   46 1  
    49   47   48 2  
    50   49   51 1  
    51   49   50 1  
    52   45   39 am 
    53   53   52 1  
    54   53   56 1  
    55   54   53 1  
    56   54   55 2  
    57   56   57 1  
    58   52   47 am 
    59   59   58 1  
    60   59   62 1  
    61   60   59 1  
    62   60   61 2  
    63   62   63 1  
    64   63   64 1  
    65   63   65 1  
    66   58   54 am 
    67   67   66 1  
    68   67   70 1  
    69   68   67 1  
    70   68   69 2  
    71   70   71 1  
    72   71   72 1  
    73   72   73 1  
    74   73   74 ar 
    75   74   76 ar 
    76   74   75 ar 
    77   66   60 am 
    78   78   77 1  
    79   78   81 1  
    80   79   78 1  
    81   79   80 2  
    82   81   82 1  
    83   77   68 am 
    84   83   84 1  
    85   84   87 1  
    86   84   85 1  
    87   85   86 2  
    88   87   88 1  
    89   88   89 1  
    90   88   90 1  
    91   79   83 am 
    92   85   91 1  
    93    1   92 1  
    94    1   93 1  
    95    1   94 1  
    96    2   95 1  
    97    5   96 1  
    98    5   97 1  
    99    6   98 1  
   100    6   99 1  
   101   10  100 1  
   102   11  101 1  
   103   14  102 1  
   104   14  103 1  
   105   15  104 1  
   106   16  105 1  
   107   16  106 1  
   108   16  107 1  
   109   17  108 1  
   110   17  109 1  
   111   17  110 1  
   112   18  111 1  
   113   19  112 1  
   114   22  113 1  
   115   22  114 1  
   116   24  115 1  
   117   25  116 1  
   118   26  117 1  
   119   27  118 1  
   120   29  119 1  
   121   31  120 1  
   122   34  121 1  
   123   34  122 1  
   124   35  123 1  
   125   35  124 1  
   126   36  125 1  
   127   36  126 1  
   128   37  127 1  
   129   38  128 1  
   130   41  129 1  
   131   41  130 1  
   132   42  131 1  
   133   43  132 1  
   134   43  133 1  
   135   43  134 1  
   136   44  135 1  
   137   44  136 1  
   138   44  137 1  
   139   45  138 1  
   140   46  139 1  
   141   49  140 1  
   142   50  141 1  
   143   51  142 1  
   144   51  143 1  
   145   51  144 1  
   146   52  145 1  
   147   53  146 1  
   148   56  147 1  
   149   56  148 1  
   150   57  149 1  
   151   58  150 1  
   152   59  151 1  
   153   62  152 1  
   154   62  153 1  
   155   63  154 1  
   156   64  155 1  
   157   64  156 1  
   158   64  157 1  
   159   65  158 1  
   160   65  159 1  
   161   65  160 1  
   162   66  161 1  
   163   67  162 1  
   164   70  163 1  
   165   70  164 1  
   166   71  165 1  
   167   71  166 1  
   168   72  167 1  
   169   72  168 1  
   170   73  169 1  
   171   75  170 1  
   172   75  171 1  
   173   76  172 1  
   174   76  173 1  
   175   77  174 1  
   176   78  175 1  
   177   81  176 1  
   178   81  177 1  
   179   82  178 1  
   180   83  179 1  
   181   84  180 1  
   182   87  181 1  
   183   87  182 1  
   184   88  183 1  
   185   89  184 1  
   186   89  185 1  
   187   89  186 1  
   188   90  187 1  
   189   90  188 1  
   190   90  189 1  
   191   91  190 1  
@<TRIPOS>SUBSTRUCTURE
     1 GLU         1

