4k2y_ligand
  -I-interpret- 

 17 18  0  0  0  0  0  0  0  0999 V2000
   62.0910   60.9400   -1.7040 C   0  0  0  0  0
   64.0610   63.0510   -4.4630 Cl  0  0  0  0  0
   63.4560   61.7420   -3.4970 C   0  0  0  0  0
   63.8810   60.4550   -3.7740 C   0  0  0  0  0
   63.4100   59.4050   -3.0190 C   0  0  0  0  0
   62.5240   59.6480   -2.0000 C   0  0  0  0  0
   61.8420   58.7340   -1.0120 C   0  0  0  0  0
   61.0030   59.6660   -0.1690 C   0  0  0  0  0
   60.2970   59.3350    0.7530 O   0  0  0  0  0
   61.1990   60.9190   -0.6270 N   0  0  0  0  0
   62.5690   62.0010   -2.4690 C   0  0  0  0  0
   64.5852   60.2734   -4.5859 H   0  0  0  0  0
   63.7387   58.3872   -3.2292 H   0  0  0  0  0
   62.5553   58.1664   -0.4144 H   0  0  0  0  0
   61.2413   57.9690   -1.5040 H   0  0  0  0  0
   60.7522   61.7486   -0.2364 H   0  0  0  0  0
   62.2481   63.0215   -2.2600 H   0  0  0  0  0
  1  6  4  0  0  0
  1 10  1  0  0  0
 11  1  4  0  0  0
  3  2  1  0  0  0
  3  4  4  0  0  0
  3 11  4  0  0  0
  4  5  4  0  0  0
  5  6  4  0  0  0
  6  7  1  0  0  0
  7  8  1  0  0  0
  8  9  2  0  0  0
  8 10  1  0  0  0
  4 12  1  0  0  0
  5 13  1  0  0  0
  7 14  1  0  0  0
  7 15  1  0  0  0
 10 16  1  0  0  0
 11 17  1  0  0  0
M  END
$$$$
