5g2g_ligand
  -I-interpret- 

 34 37  0  0  0  0  0  0  0  0999 V2000
    2.9620  -14.1560  -12.4350 C   0  0  0  0  0
    3.1330  -13.0260  -13.2410 C   0  0  0  0  0
    2.4500  -11.8480  -12.9430 C   0  0  0  0  0
    1.5730  -11.7690  -11.8240 C   0  0  0  0  0
    1.4060  -12.8990  -11.0150 C   0  0  0  0  0
    2.0820  -14.1010  -11.3180 C   0  0  0  0  0
    2.6280  -10.6270  -13.7820 C   0  0  0  0  0
    1.9180   -9.4040  -13.4710 C   0  0  0  0  0
    1.0490   -9.2800  -12.3750 C   0  0  0  0  0
    0.8770  -10.5910  -11.5220 C   0  0  0  0  0
    0.5580   -8.4740  -12.0810 C   0  0  0  0  0
    0.3050   -8.2600  -10.8270 C   0  0  0  0  0
   -0.5680   -9.3450  -10.2390 C   0  0  0  0  0
   -0.0490  -10.4470  -10.3540 C   0  0  0  0  0
    0.9580   -7.1800  -12.5140 C   0  0  0  0  0
    0.2950   -6.1590  -11.6750 C   0  0  0  0  0
   -0.2730   -6.8090  -10.7530 C   0  0  0  0  0
    1.5510   -8.1320   -9.9170 C   0  0  0  0  0
    3.6650  -15.3330  -12.7040 O   0  0  0  0  0
   -1.0810   -6.4010   -9.9860 O   0  0  0  0  0
    3.8002  -13.0664  -14.1020 H   0  0  0  0  0
    0.7501  -12.8507  -10.1458 H   0  0  0  0  0
    1.9302  -14.9845  -10.6979 H   0  0  0  0  0
    3.3006  -10.6561  -14.6393 H   0  0  0  0  0
    2.0650   -8.5391  -14.1179 H   0  0  0  0  0
   -1.5368   -9.1681   -9.7719 H   0  0  0  0  0
   -0.2459  -11.2628   -9.6584 H   0  0  0  0  0
    1.6449   -6.9734  -13.3348 H   0  0  0  0  0
   -0.4179   -5.5668  -12.2488 H   0  0  0  0  0
    1.0093   -5.4375  -11.2784 H   0  0  0  0  0
    2.1306   -9.0539   -9.9649 H   0  0  0  0  0
    2.1641   -7.2977  -10.2579 H   0  0  0  0  0
    1.2324   -7.9546   -8.8898 H   0  0  0  0  0
    3.4280  -16.0010  -12.0566 H   0  0  0  0  0
  1  2  4  0  0  0
  1  6  4  0  0  0
  1 19  1  0  0  0
  2  3  4  0  0  0
  3  4  4  0  0  0
  3  7  4  0  0  0
  4  5  4  0  0  0
  4 10  4  0  0  0
  5  6  4  0  0  0
  7  8  4  0  0  0
  8  9  4  0  0  0
  9 10  4  0  0  0
  9 11  1  0  0  0
 10 14  1  0  0  0
 11 12  1  0  0  0
 11 15  2  0  0  0
 12 13  1  0  0  0
 12 17  1  0  0  0
 12 18  1  0  0  0
 13 14  2  0  0  0
 15 16  1  0  0  0
 16 17  1  0  0  0
 17 20  2  0  0  0
  2 21  1  0  0  0
  5 22  1  0  0  0
  6 23  1  0  0  0
  7 24  1  0  0  0
  8 25  1  0  0  0
 13 26  1  0  0  0
 14 27  1  0  0  0
 15 28  1  0  0  0
 16 29  1  0  0  0
 16 30  1  0  0  0
 18 31  1  0  0  0
 18 32  1  0  0  0
 18 33  1  0  0  0
 19 34  1  0  0  0
M  END
$$$$
