1y1z_ligand
  -I-interpret- 

 18 18  0  0  0  0  0  0  0  0999 V2000
   21.1770   31.2640    7.6480 N   0  3  0  0  0
   22.9300   34.0990    8.9290 O   0  0  0  0  0
   21.3890   32.6990    7.8520 C   0  0  0  0  0
   22.6440   32.8520    8.6970 C   0  0  0  0  0
   21.4260   33.4870    6.5130 C   0  0  0  0  0
   20.0600   34.0470    6.8090 C   0  0  0  0  0
   20.1430   33.5410    8.2560 C   0  0  0  0  0
   23.2630   31.9250    9.1010 O   0  0  0  0  0
   22.0602   30.8245    7.3888 H   0  0  0  0  0
   20.8287   30.8469    8.5112 H   0  0  0  0  0
   20.4950   31.1249    6.9024 H   0  0  0  0  0
   22.2830   34.6605    8.4957 H   0  0  0  0  0
   21.6100   32.9625    5.5754 H   0  0  0  0  0
   22.2568   34.1588    6.2972 H   0  0  0  0  0
   19.2138   33.7575    6.1860 H   0  0  0  0  0
   19.8584   35.1012    6.6189 H   0  0  0  0  0
   20.1899   34.2415    9.0898 H   0  0  0  0  0
   19.2828   33.0706    8.7324 H   0  0  0  0  0
  3  1  1  0  0  0
  4  2  1  0  0  0
  3  4  1  0  0  0
  3  5  1  0  0  0
  3  7  1  0  0  0
  4  8  2  0  0  0
  5  6  1  0  0  0
  6  7  1  0  0  0
  1  9  1  0  0  0
  1 10  1  0  0  0
  1 11  1  0  0  0
  2 12  1  0  0  0
  5 13  1  0  0  0
  5 14  1  0  0  0
  6 15  1  0  0  0
  6 16  1  0  0  0
  7 17  1  0  0  0
  7 18  1  0  0  0
M  END
$$$$
