### 
### Created by X-TOOL on Mon Sep 10 21:12:56 2018
### 

@<TRIPOS>MOLECULE
2r9b_ligand
  147   149     1     0     0
SMALL
GAST_HUCK


@<TRIPOS>ATOM
      1 N         -50.1000   33.3750   49.8890 N.4       1 LYS         0.2379
      2 CA        -49.1580   32.7490   50.8910 C.3       1 LYS         0.0652
      3 C         -48.9990   33.7070   52.0820 C.2       1 LYS         0.2292
      4 O         -49.0020   34.9400   51.9150 O.2       1 LYS        -0.3905
      5 CB        -47.8020   32.4850   50.2210 C.3       1 LYS         0.0080
      6 CG        -47.9730   31.9350   48.8130 C.3       1 LYS        -0.0410
      7 CD        -46.6190   31.6290   48.1710 C.3       1 LYS        -0.0123
      8 CE        -46.7570   31.4490   46.6500 C.3       1 LYS        -0.0354
      9 NZ        -45.4450   31.0360   46.0350 N.4       1 LYS         0.2185
     10 N         -48.8350   33.1610   53.2840 N.am      1 PRO        -0.2471
     11 CA        -48.6900   34.0560   54.4230 C.3       1 PRO         0.1339
     12 C         -47.3070   34.7130   54.4490 C.2       1 PRO         0.2042
     13 O         -46.2740   34.0110   54.5180 O.2       1 PRO        -0.3944
     14 CB        -48.9190   33.1260   55.5960 C.3       1 PRO        -0.0104
     15 CG        -48.3510   31.8380   55.1670 C.3       1 PRO        -0.0281
     16 CD        -48.3440   31.8140   53.6210 C.3       1 PRO         0.0371
     17 N         -47.2650   36.0540   54.4400 N.am      1 PHE        -0.2619
     18 CA        -45.9650   36.7490   54.4360 C.3       1 PHE         0.1404
     19 C         -45.0200   36.3030   55.5710 C.2       1 PHE         0.2060
     20 O         -45.1070   36.8010   56.7100 O.2       1 PHE        -0.3942
     21 CB        -46.1540   38.2550   54.5330 C.3       1 PHE         0.0214
     22 CG        -45.0590   39.0340   53.8780 C.ar      1 PHE        -0.0386
     23 CD1       -45.2420   39.5530   52.6090 C.ar      1 PHE        -0.0601
     24 CD2       -43.8340   39.2160   54.5080 C.ar      1 PHE        -0.0601
     25 CE1       -44.2120   40.2550   51.9710 C.ar      1 PHE        -0.0686
     26 CE2       -42.8060   39.9090   53.8900 C.ar      1 PHE        -0.0686
     27 CZ        -42.9840   40.4300   52.6180 C.ar      1 PHE        -0.0687
     28 N         -44.1190   35.3750   55.2420 N.am      1 SER        -0.2614
     29 CA        -43.1710   34.8530   56.2040 C.3       1 SER         0.1538
     30 C         -41.8920   34.4450   55.4790 C.2       1 SER         0.2044
     31 O         -41.9340   33.6490   54.5360 O.2       1 SER        -0.3944
     32 CB        -43.7610   33.6450   56.9190 C.3       1 SER         0.0843
     33 OG        -42.8400   33.1240   57.8580 O.3       1 SER        -0.3903
     34 N         -40.7420   34.9740   55.9100 N.am      1 DCL        -0.2768
     35 CA        -39.5080   34.6590   55.2010 C.3       1 DCL         0.0820
     36 C         -38.7170   33.5760   55.9180 C.3       1 DCL        -0.0081
     37 CB        -38.6470   35.9110   55.0550 C.3       1 DCL        -0.0226
     38 CG        -39.1960   36.9560   54.0800 C.3       1 DCL        -0.0445
     39 CD1       -38.2300   38.1310   54.0030 C.3       1 DCL        -0.0626
     40 CD2       -39.3940   36.3720   52.6700 C.3       1 DCL        -0.0626
     41 N         -39.5890   32.7090   56.6920 N.4       1 LEU         0.2477
     42 CA        -38.9140   31.5640   57.3110 C.3       1 LEU         0.0671
     43 C         -38.4040   30.6100   56.2260 C.2       1 LEU         0.2268
     44 O         -39.1380   30.3520   55.2710 O.2       1 LEU        -0.3907
     45 CB        -39.9070   30.8400   58.2240 C.3       1 LEU         0.0103
     46 CG        -39.2420   29.9120   59.2250 C.3       1 LEU        -0.0394
     47 CD1       -38.2820   30.7040   60.1080 C.3       1 LEU        -0.0623
     48 CD2       -40.2870   29.2420   60.0640 C.3       1 LEU        -0.0623
     49 N         -37.1830   30.0790   56.3500 N.am      1 GLN        -0.2609
     50 CA        -36.7250   29.1260   55.3470 C.3       1 GLN         0.1331
     51 C         -36.7480   27.6510   55.7120 C.2       1 GLN         0.2036
     52 O         -36.4710   27.2840   56.8570 O.2       1 GLN        -0.3944
     53 CB        -35.3280   29.4850   54.8430 C.3       1 GLN         0.0045
     54 CG        -34.2340   29.7030   55.8630 C.3       1 GLN         0.0412
     55 CD        -32.8420   29.7760   55.2530 C.2       1 GLN         0.1737
     56 OE1       -31.8800   30.0620   55.9700 O.2       1 GLN        -0.3973
     57 NE2       -32.7240   29.5070   53.9430 N.am      1 GLN        -0.3009
     58 N         -37.0730   26.8170   54.7160 N.am      1 PHE        -0.2677
     59 CA        -37.0250   25.3650   54.8570 C.3       1 PHE         0.1039
     60 C         -36.2940   24.8130   53.6300 C.2       1 PHE         0.0621
     61 O         -36.8260   23.8950   52.9700 O.co2     1 PHE        -0.5664
     62 CB        -38.4230   24.7510   54.9410 C.3       1 PHE         0.0159
     63 CG        -39.1320   25.0380   56.2180 C.ar      1 PHE        -0.0392
     64 CD1       -39.8250   26.2320   56.3730 C.ar      1 PHE        -0.0602
     65 CD2       -39.1410   24.1120   57.2570 C.ar      1 PHE        -0.0602
     66 CE1       -40.5280   26.5080   57.5560 C.ar      1 PHE        -0.0686
     67 CE2       -39.8360   24.3770   58.4400 C.ar      1 PHE        -0.0686
     68 CZ        -40.5340   25.5710   58.5910 C.ar      1 PHE        -0.0687
     69 OXT       -35.1780   25.3160   53.3420 O.co2     1 PHE        -0.5664
     70 H         -51.0007   33.5503   50.3344 H         1 LYS         0.2015
     71 H         -49.7060   34.2556   49.5579 H         1 LYS         0.2015
     72 H         -50.2269   32.7402   49.1008 H         1 LYS         0.2015
     73 H         -49.5566   31.7990   51.2470 H         1 LYS         0.1098
     74 H         -47.2607   31.7491   50.8156 H         1 LYS         0.0346
     75 H         -47.2581   33.4276   50.1596 H         1 LYS         0.0346
     76 H         -48.4845   32.6828   48.2070 H         1 LYS         0.0270
     77 H         -48.5490   31.0112   48.8677 H         1 LYS         0.0270
     78 H         -46.2308   30.7044   48.5983 H         1 LYS         0.0317
     79 H         -45.9444   32.4631   48.3642 H         1 LYS         0.0317
     80 H         -47.0657   32.3981   46.2117 H         1 LYS         0.0813
     81 H         -47.4953   30.6711   46.4551 H         1 LYS         0.0813
     82 H         -45.5633   30.9235   45.0281 H         1 LYS         0.1994
     83 H         -44.7441   31.7540   46.2181 H         1 LYS         0.1994
     84 H         -45.1426   30.1518   46.4439 H         1 LYS         0.1994
     85 H         -49.3789   34.9007   54.4133 H         1 PRO         0.0802
     86 H         -49.9762   33.0410   55.8475 H         1 PRO         0.0313
     87 H         -48.4474   33.4957   56.5065 H         1 PRO         0.0313
     88 H         -48.9491   31.0134   55.5549 H         1 PRO         0.0287
     89 H         -47.3372   31.7255   55.5512 H         1 PRO         0.0287
     90 H         -47.3622   31.5976   53.1999 H         1 PRO         0.0524
     91 H         -48.9575   31.0166   53.2017 H         1 PRO         0.0524
     92 H         -48.1316   36.5920   54.4359 H         1 PHE         0.1885
     93 H         -45.5000   36.4777   53.4883 H         1 PHE         0.0823
     94 H         -46.1573   38.5183   55.5907 H         1 PHE         0.0474
     95 H         -47.0845   38.5030   54.0224 H         1 PHE         0.0474
     96 H         -46.1964   39.4143   52.1011 H         1 PHE         0.0557
     97 H         -43.6792   38.8062   55.5061 H         1 PHE         0.0557
     98 H         -44.3666   40.6641   50.9726 H         1 PHE         0.0599
     99 H         -41.8551   40.0449   54.4052 H         1 PHE         0.0599
    100 H         -42.1752   40.9708   52.1266 H         1 PHE         0.0559
    101 H         -44.0976   35.0232   54.2848 H         1 SER         0.1884
    102 H         -42.9466   35.6237   56.9414 H         1 SER         0.0823
    103 H         -43.9885   32.8746   56.1822 H         1 SER         0.0606
    104 H         -44.6655   33.9521   57.4441 H         1 SER         0.0606
    105 H         -42.6306   33.7991   58.5076 H         1 SER         0.2097
    106 H         -40.7285   35.5893   56.7234 H         1 DCL         0.1857
    107 H         -39.7802   34.2876   54.2130 H         1 DCL         0.0609
    108 H         -38.0117   34.0543   56.5976 H         1 DCL         0.0837
    109 H         -38.2012   32.9719   55.1716 H         1 DCL         0.0837
    110 H         -37.6822   35.5883   54.6636 H         1 DCL         0.0292
    111 H         -38.6061   36.3837   56.0363 H         1 DCL         0.0292
    112 H         -40.1675   37.2826   54.4509 H         1 DCL         0.0296
    113 H         -38.1216   38.5760   54.9921 H         1 DCL         0.0232
    114 H         -37.2594   37.7794   53.6530 H         1 DCL         0.0232
    115 H         -38.6201   38.8755   53.3090 H         1 DCL         0.0232
    116 H         -38.4374   36.0154   52.2882 H         1 DCL         0.0232
    117 H         -40.0997   35.5426   52.7174 H         1 DCL         0.0232
    118 H         -39.7847   37.1458   52.0092 H         1 DCL         0.0232
    119 H         -40.2845   32.3329   56.0476 H         1 LEU         0.2036
    120 H         -39.9752   33.2730   57.4491 H         1 LEU         0.2036
    121 H         -38.0623   31.9093   57.8970 H         1 LEU         0.1099
    122 H         -40.5516   30.2311   57.5901 H         1 LEU         0.0348
    123 H         -40.4468   31.5997   58.7893 H         1 LEU         0.0348
    124 H         -38.6766   29.1492   58.6897 H         1 LEU         0.0299
    125 H         -37.5180   31.1697   59.4854 H         1 LEU         0.0232
    126 H         -38.8355   31.4751   60.6438 H         1 LEU         0.0232
    127 H         -37.8091   30.0310   60.8232 H         1 LEU         0.0232
    128 H         -40.8621   29.9983   60.5982 H         1 LEU         0.0232
    129 H         -40.9519   28.6647   59.4215 H         1 LEU         0.0232
    130 H         -39.8046   28.5773   60.7806 H         1 LEU         0.0232
    131 H         -36.5824   30.3366   57.1332 H         1 GLN         0.1885
    132 H         -37.4832   29.2320   54.5711 H         1 GLN         0.0801
    133 H         -35.4430   30.4430   54.3360 H         1 GLN         0.0337
    134 H         -35.0053   28.6259   54.2549 H         1 GLN         0.0337
    135 H         -34.2485   28.8536   56.5459 H         1 GLN         0.0504
    136 H         -34.4278   30.6574   56.3526 H         1 GLN         0.0504
    137 H         -31.8069   29.5340   53.4974 H         1 GLN         0.1814
    138 H         -33.5515   29.2756   53.3933 H         1 GLN         0.1814
    139 H         -37.3660   27.2124   53.8226 H         1 PHE         0.1877
    140 H         -36.5093   25.1094   55.7826 H         1 PHE         0.0749
    141 H         -38.3069   23.6695   54.8706 H         1 PHE         0.0467
    142 H         -39.0165   25.1847   54.1361 H         1 PHE         0.0467
    143 H         -39.8227   26.9640   55.5654 H         1 PHE         0.0557
    144 H         -38.6010   23.1716   57.1469 H         1 PHE         0.0557
    145 H         -41.0666   27.4492   57.6661 H         1 PHE         0.0599
    146 H         -39.8312   23.6452   59.2478 H         1 PHE         0.0599
    147 H         -41.0819   25.7736   59.5113 H         1 PHE         0.0559
@<TRIPOS>BOND
     1    1    2 1  
     2    2    3 1  
     3    2    5 1  
     4    3    4 2  
     5    3   10 am 
     6    5    6 1  
     7    6    7 1  
     8    7    8 1  
     9    8    9 1  
    10   10   11 1  
    11   10   16 1  
    12   11   12 1  
    13   11   14 1  
    14   12   13 2  
    15   12   17 am 
    16   14   15 1  
    17   15   16 1  
    18   17   18 1  
    19   18   19 1  
    20   18   21 1  
    21   19   20 2  
    22   19   28 am 
    23   21   22 1  
    24   22   23 ar 
    25   22   24 ar 
    26   23   25 ar 
    27   24   26 ar 
    28   25   27 ar 
    29   26   27 ar 
    30   28   29 1  
    31   29   30 1  
    32   29   32 1  
    33   30   31 2  
    34   30   34 am 
    35   32   33 1  
    36   34   35 1  
    37   35   36 1  
    38   35   37 1  
    39   36   41 1  
    40   37   38 1  
    41   38   39 1  
    42   38   40 1  
    43   41   42 1  
    44   42   43 1  
    45   42   45 1  
    46   43   44 2  
    47   43   49 am 
    48   45   46 1  
    49   46   47 1  
    50   46   48 1  
    51   49   50 1  
    52   50   51 1  
    53   50   53 1  
    54   51   52 2  
    55   51   58 am 
    56   53   54 1  
    57   54   55 1  
    58   55   56 2  
    59   55   57 am 
    60   58   59 1  
    61   59   60 1  
    62   59   62 1  
    63   60   61 ar 
    64   60   69 ar 
    65   62   63 1  
    66   63   64 ar 
    67   63   65 ar 
    68   64   66 ar 
    69   65   67 ar 
    70   66   68 ar 
    71   67   68 ar 
    72    1   70 1  
    73    1   71 1  
    74    1   72 1  
    75    2   73 1  
    76    5   74 1  
    77    5   75 1  
    78    6   76 1  
    79    6   77 1  
    80    7   78 1  
    81    7   79 1  
    82    8   80 1  
    83    8   81 1  
    84    9   82 1  
    85    9   83 1  
    86    9   84 1  
    87   11   85 1  
    88   14   86 1  
    89   14   87 1  
    90   15   88 1  
    91   15   89 1  
    92   16   90 1  
    93   16   91 1  
    94   17   92 1  
    95   18   93 1  
    96   21   94 1  
    97   21   95 1  
    98   23   96 1  
    99   24   97 1  
   100   25   98 1  
   101   26   99 1  
   102   27  100 1  
   103   28  101 1  
   104   29  102 1  
   105   32  103 1  
   106   32  104 1  
   107   33  105 1  
   108   34  106 1  
   109   35  107 1  
   110   36  108 1  
   111   36  109 1  
   112   37  110 1  
   113   37  111 1  
   114   38  112 1  
   115   39  113 1  
   116   39  114 1  
   117   39  115 1  
   118   40  116 1  
   119   40  117 1  
   120   40  118 1  
   121   41  119 1  
   122   41  120 1  
   123   42  121 1  
   124   45  122 1  
   125   45  123 1  
   126   46  124 1  
   127   47  125 1  
   128   47  126 1  
   129   47  127 1  
   130   48  128 1  
   131   48  129 1  
   132   48  130 1  
   133   49  131 1  
   134   50  132 1  
   135   53  133 1  
   136   53  134 1  
   137   54  135 1  
   138   54  136 1  
   139   57  137 1  
   140   57  138 1  
   141   58  139 1  
   142   59  140 1  
   143   62  141 1  
   144   62  142 1  
   145   64  143 1  
   146   65  144 1  
   147   66  145 1  
   148   67  146 1  
   149   68  147 1  
@<TRIPOS>SUBSTRUCTURE
     1 LYS         1

