2r9b_ligand
  -I-interpret- 

148150  0  0  0  0  0  0  0  0999 V2000
  -50.1000   33.3750   49.8890 N   0  3  0  0  0
  -49.1580   32.7490   50.8910 C   0  0  0  0  0
  -48.9990   33.7070   52.0820 C   0  0  0  0  0
  -49.0020   34.9400   51.9150 O   0  0  0  0  0
  -47.8020   32.4850   50.2210 C   0  0  0  0  0
  -47.9730   31.9350   48.8130 C   0  0  0  0  0
  -46.6190   31.6290   48.1710 C   0  0  0  0  0
  -46.7570   31.4490   46.6500 C   0  0  0  0  0
  -45.4450   31.0360   46.0350 N   0  3  0  0  0
  -48.8350   33.1610   53.2840 N   0  0  0  0  0
  -48.6900   34.0560   54.4230 C   0  0  0  0  0
  -47.3070   34.7130   54.4490 C   0  0  0  0  0
  -46.2740   34.0110   54.5180 O   0  0  0  0  0
  -48.9190   33.1260   55.5960 C   0  0  0  0  0
  -48.3510   31.8380   55.1670 C   0  0  0  0  0
  -48.3440   31.8140   53.6210 C   0  0  0  0  0
  -47.2650   36.0540   54.4400 N   0  0  0  0  0
  -45.9650   36.7490   54.4360 C   0  0  0  0  0
  -45.0200   36.3030   55.5710 C   0  0  0  0  0
  -45.1070   36.8010   56.7100 O   0  0  0  0  0
  -46.1540   38.2550   54.5330 C   0  0  0  0  0
  -45.0590   39.0340   53.8780 C   0  0  0  0  0
  -45.2420   39.5530   52.6090 C   0  0  0  0  0
  -43.8340   39.2160   54.5080 C   0  0  0  0  0
  -44.2120   40.2550   51.9710 C   0  0  0  0  0
  -42.8060   39.9090   53.8900 C   0  0  0  0  0
  -42.9840   40.4300   52.6180 C   0  0  0  0  0
  -44.1190   35.3750   55.2420 N   0  0  0  0  0
  -43.1710   34.8530   56.2040 C   0  0  0  0  0
  -41.8920   34.4450   55.4790 C   0  0  0  0  0
  -41.9340   33.6490   54.5360 O   0  0  0  0  0
  -43.7610   33.6450   56.9190 C   0  0  0  0  0
  -42.8400   33.1240   57.8580 O   0  0  0  0  0
  -40.7420   34.9740   55.9100 N   0  0  0  0  0
  -39.5080   34.6590   55.2010 C   0  0  0  0  0
  -38.7170   33.5760   55.9180 C   0  0  0  0  0
  -38.6470   35.9110   55.0550 C   0  0  0  0  0
  -39.1960   36.9560   54.0800 C   0  0  0  0  0
  -38.2300   38.1310   54.0030 C   0  0  0  0  0
  -39.3940   36.3720   52.6700 C   0  0  0  0  0
  -39.5890   32.7090   56.6920 N   0  3  0  0  0
  -38.9140   31.5640   57.3110 C   0  0  0  0  0
  -38.4040   30.6100   56.2260 C   0  0  0  0  0
  -39.1380   30.3520   55.2710 O   0  0  0  0  0
  -39.9070   30.8400   58.2240 C   0  0  0  0  0
  -39.2420   29.9120   59.2250 C   0  0  0  0  0
  -38.2820   30.7040   60.1080 C   0  0  0  0  0
  -40.2870   29.2420   60.0640 C   0  0  0  0  0
  -37.1830   30.0790   56.3500 N   0  0  0  0  0
  -36.7250   29.1260   55.3470 C   0  0  0  0  0
  -36.7480   27.6510   55.7120 C   0  0  0  0  0
  -36.4710   27.2840   56.8570 O   0  0  0  0  0
  -35.3280   29.4850   54.8430 C   0  0  0  0  0
  -34.2340   29.7030   55.8630 C   0  0  0  0  0
  -32.8420   29.7760   55.2530 C   0  0  0  0  0
  -31.8800   30.0620   55.9700 O   0  0  0  0  0
  -32.7240   29.5070   53.9430 N   0  0  0  0  0
  -37.0730   26.8170   54.7160 N   0  0  0  0  0
  -37.0250   25.3650   54.8570 C   0  0  0  0  0
  -36.2940   24.8130   53.6300 C   0  0  0  0  0
  -36.8260   23.8950   52.9700 O   0  0  0  0  0
  -38.4230   24.7510   54.9410 C   0  0  0  0  0
  -39.1320   25.0380   56.2180 C   0  0  0  0  0
  -39.8250   26.2320   56.3730 C   0  0  0  0  0
  -39.1410   24.1120   57.2570 C   0  0  0  0  0
  -40.5280   26.5080   57.5560 C   0  0  0  0  0
  -39.8360   24.3770   58.4400 C   0  0  0  0  0
  -40.5340   25.5710   58.5910 C   0  0  0  0  0
  -35.1780   25.3160   53.3420 O   0  0  0  0  0
  -51.0007   33.5503   50.3344 H   0  0  0  0  0
  -49.7060   34.2556   49.5579 H   0  0  0  0  0
  -50.2269   32.7402   49.1008 H   0  0  0  0  0
  -49.5566   31.7990   51.2470 H   0  0  0  0  0
  -47.2607   31.7491   50.8156 H   0  0  0  0  0
  -47.2581   33.4276   50.1596 H   0  0  0  0  0
  -48.4845   32.6828   48.2070 H   0  0  0  0  0
  -48.5490   31.0112   48.8677 H   0  0  0  0  0
  -46.2308   30.7044   48.5983 H   0  0  0  0  0
  -45.9444   32.4631   48.3642 H   0  0  0  0  0
  -47.0657   32.3981   46.2117 H   0  0  0  0  0
  -47.4953   30.6711   46.4551 H   0  0  0  0  0
  -45.5633   30.9235   45.0281 H   0  0  0  0  0
  -44.7441   31.7540   46.2181 H   0  0  0  0  0
  -45.1426   30.1518   46.4439 H   0  0  0  0  0
  -49.3789   34.9007   54.4133 H   0  0  0  0  0
  -49.9762   33.0410   55.8475 H   0  0  0  0  0
  -48.4474   33.4957   56.5065 H   0  0  0  0  0
  -48.9491   31.0134   55.5549 H   0  0  0  0  0
  -47.3372   31.7255   55.5512 H   0  0  0  0  0
  -47.3622   31.5976   53.1999 H   0  0  0  0  0
  -48.9575   31.0166   53.2017 H   0  0  0  0  0
  -48.1316   36.5920   54.4359 H   0  0  0  0  0
  -45.5000   36.4777   53.4883 H   0  0  0  0  0
  -46.1573   38.5183   55.5907 H   0  0  0  0  0
  -47.0845   38.5030   54.0224 H   0  0  0  0  0
  -46.1964   39.4143   52.1011 H   0  0  0  0  0
  -43.6792   38.8062   55.5061 H   0  0  0  0  0
  -44.3666   40.6641   50.9726 H   0  0  0  0  0
  -41.8551   40.0449   54.4052 H   0  0  0  0  0
  -42.1752   40.9708   52.1266 H   0  0  0  0  0
  -44.0976   35.0232   54.2848 H   0  0  0  0  0
  -42.9466   35.6237   56.9414 H   0  0  0  0  0
  -43.9885   32.8746   56.1822 H   0  0  0  0  0
  -44.6655   33.9521   57.4441 H   0  0  0  0  0
  -43.2286   32.3645   58.2981 H   0  0  0  0  0
  -40.7285   35.5893   56.7234 H   0  0  0  0  0
  -39.7802   34.2876   54.2130 H   0  0  0  0  0
  -38.0117   34.0543   56.5976 H   0  0  0  0  0
  -38.2012   32.9719   55.1716 H   0  0  0  0  0
  -37.6822   35.5883   54.6636 H   0  0  0  0  0
  -38.6061   36.3837   56.0363 H   0  0  0  0  0
  -40.1675   37.2826   54.4509 H   0  0  0  0  0
  -38.1216   38.5760   54.9921 H   0  0  0  0  0
  -37.2594   37.7794   53.6530 H   0  0  0  0  0
  -38.6201   38.8755   53.3090 H   0  0  0  0  0
  -38.4374   36.0154   52.2882 H   0  0  0  0  0
  -40.0997   35.5426   52.7174 H   0  0  0  0  0
  -39.7847   37.1458   52.0092 H   0  0  0  0  0
  -40.2845   32.3329   56.0476 H   0  0  0  0  0
  -39.9752   33.2730   57.4491 H   0  0  0  0  0
  -38.0623   31.9093   57.8970 H   0  0  0  0  0
  -40.5516   30.2311   57.5901 H   0  0  0  0  0
  -40.4468   31.5997   58.7893 H   0  0  0  0  0
  -38.6766   29.1492   58.6897 H   0  0  0  0  0
  -37.5180   31.1697   59.4854 H   0  0  0  0  0
  -38.8355   31.4751   60.6438 H   0  0  0  0  0
  -37.8091   30.0310   60.8232 H   0  0  0  0  0
  -40.8621   29.9983   60.5982 H   0  0  0  0  0
  -40.9519   28.6647   59.4215 H   0  0  0  0  0
  -39.8046   28.5773   60.7806 H   0  0  0  0  0
  -36.5824   30.3366   57.1332 H   0  0  0  0  0
  -37.4832   29.2320   54.5711 H   0  0  0  0  0
  -35.4430   30.4430   54.3360 H   0  0  0  0  0
  -35.0053   28.6259   54.2549 H   0  0  0  0  0
  -34.2485   28.8536   56.5459 H   0  0  0  0  0
  -34.4278   30.6574   56.3526 H   0  0  0  0  0
  -31.8069   29.5340   53.4974 H   0  0  0  0  0
  -33.5515   29.2756   53.3933 H   0  0  0  0  0
  -37.3660   27.2124   53.8226 H   0  0  0  0  0
  -36.5093   25.1094   55.7826 H   0  0  0  0  0
  -38.3069   23.6695   54.8706 H   0  0  0  0  0
  -39.0165   25.1847   54.1361 H   0  0  0  0  0
  -39.8227   26.9640   55.5654 H   0  0  0  0  0
  -38.6010   23.1716   57.1469 H   0  0  0  0  0
  -41.0666   27.4492   57.6661 H   0  0  0  0  0
  -39.8312   23.6452   59.2478 H   0  0  0  0  0
  -41.0819   25.7736   59.5113 H   0  0  0  0  0
  -34.9633   26.0016   53.9788 H   0  0  0  0  0
  1  2  1  0  0  0
  2  3  1  0  0  0
  2  5  1  0  0  0
  3  4  2  0  0  0
  3 10  1  0  0  0
  5  6  1  0  0  0
  6  7  1  0  0  0
  7  8  1  0  0  0
  8  9  1  0  0  0
 10 11  1  0  0  0
 10 16  1  0  0  0
 11 12  1  0  0  0
 11 14  1  0  0  0
 12 13  2  0  0  0
 12 17  1  0  0  0
 14 15  1  0  0  0
 15 16  1  0  0  0
 17 18  1  0  0  0
 18 19  1  0  0  0
 18 21  1  0  0  0
 19 20  2  0  0  0
 19 28  1  0  0  0
 21 22  1  0  0  0
 22 23  4  0  0  0
 22 24  4  0  0  0
 23 25  4  0  0  0
 24 26  4  0  0  0
 25 27  4  0  0  0
 26 27  4  0  0  0
 28 29  1  0  0  0
 29 30  1  0  0  0
 29 32  1  0  0  0
 30 31  2  0  0  0
 30 34  1  0  0  0
 32 33  1  0  0  0
 34 35  1  0  0  0
 35 36  1  0  0  0
 35 37  1  0  0  0
 36 41  1  0  0  0
 37 38  1  0  0  0
 38 39  1  0  0  0
 38 40  1  0  0  0
 41 42  1  0  0  0
 42 43  1  0  0  0
 42 45  1  0  0  0
 43 44  2  0  0  0
 43 49  1  0  0  0
 45 46  1  0  0  0
 46 47  1  0  0  0
 46 48  1  0  0  0
 49 50  1  0  0  0
 50 51  1  0  0  0
 50 53  1  0  0  0
 51 52  2  0  0  0
 51 58  1  0  0  0
 53 54  1  0  0  0
 54 55  1  0  0  0
 55 56  2  0  0  0
 55 57  1  0  0  0
 58 59  1  0  0  0
 59 60  1  0  0  0
 59 62  1  0  0  0
 60 61  2  0  0  0
 60 69  1  0  0  0
 62 63  1  0  0  0
 63 64  4  0  0  0
 63 65  4  0  0  0
 64 66  4  0  0  0
 65 67  4  0  0  0
 66 68  4  0  0  0
 67 68  4  0  0  0
  1 70  1  0  0  0
  1 71  1  0  0  0
  1 72  1  0  0  0
  2 73  1  0  0  0
  5 74  1  0  0  0
  5 75  1  0  0  0
  6 76  1  0  0  0
  6 77  1  0  0  0
  7 78  1  0  0  0
  7 79  1  0  0  0
  8 80  1  0  0  0
  8 81  1  0  0  0
  9 82  1  0  0  0
  9 83  1  0  0  0
  9 84  1  0  0  0
 11 85  1  0  0  0
 14 86  1  0  0  0
 14 87  1  0  0  0
 15 88  1  0  0  0
 15 89  1  0  0  0
 16 90  1  0  0  0
 16 91  1  0  0  0
 17 92  1  0  0  0
 18 93  1  0  0  0
 21 94  1  0  0  0
 21 95  1  0  0  0
 23 96  1  0  0  0
 24 97  1  0  0  0
 25 98  1  0  0  0
 26 99  1  0  0  0
 27100  1  0  0  0
 28101  1  0  0  0
 29102  1  0  0  0
 32103  1  0  0  0
 32104  1  0  0  0
 33105  1  0  0  0
 34106  1  0  0  0
 35107  1  0  0  0
 36108  1  0  0  0
 36109  1  0  0  0
 37110  1  0  0  0
 37111  1  0  0  0
 38112  1  0  0  0
 39113  1  0  0  0
 39114  1  0  0  0
 39115  1  0  0  0
 40116  1  0  0  0
 40117  1  0  0  0
 40118  1  0  0  0
 41119  1  0  0  0
 41120  1  0  0  0
 42121  1  0  0  0
 45122  1  0  0  0
 45123  1  0  0  0
 46124  1  0  0  0
 47125  1  0  0  0
 47126  1  0  0  0
 47127  1  0  0  0
 48128  1  0  0  0
 48129  1  0  0  0
 48130  1  0  0  0
 49131  1  0  0  0
 50132  1  0  0  0
 53133  1  0  0  0
 53134  1  0  0  0
 54135  1  0  0  0
 54136  1  0  0  0
 57137  1  0  0  0
 57138  1  0  0  0
 58139  1  0  0  0
 59140  1  0  0  0
 62141  1  0  0  0
 62142  1  0  0  0
 64143  1  0  0  0
 65144  1  0  0  0
 66145  1  0  0  0
 67146  1  0  0  0
 68147  1  0  0  0
 69148  1  0  0  0
M  END
$$$$
