3qtf_ligand
  -I-interpret- 

 63 66  0  0  0  0  0  0  0  0999 V2000
   40.9670    9.5160   23.0940 C   0  0  0  0  0
   39.8260   10.3680   23.5450 C   0  0  0  0  0
   38.4780    9.9980   23.6320 C   0  0  0  0  0
   37.7700   11.1130   24.0970 N   0  0  0  0  0
   38.6560   12.1500   24.2970 C   0  0  0  0  0
   39.9260   11.7080   24.0140 C   0  0  0  0  0
   41.0750   12.5990   24.1560 C   0  0  0  0  0
   42.2250   12.1610   24.1540 O   0  0  0  0  0
   40.8080   14.0170   24.6660 C   0  0  0  0  0
   39.5280   14.1530   25.5310 C   0  0  0  0  0
   38.3090   13.5110   24.8140 C   0  0  0  0  0
   39.2290   15.6360   25.8520 C   0  0  0  0  0
   39.7600   13.4120   26.8590 C   0  0  0  0  0
   36.3830   11.2190   24.3390 C   0  0  0  0  0
   35.5670   12.1320   23.6770 C   0  0  0  0  0
   34.1870   12.0850   23.9000 C   0  0  0  0  0
   33.6230   11.1340   24.7800 C   0  0  0  0  0
   34.4490   10.2110   25.4670 C   0  0  0  0  0
   35.8280   10.3190   25.2510 C   0  0  0  0  0
   33.9420    9.2800   26.3700 N   0  0  0  0  0
   34.7250    8.3350   27.1730 C   0  0  0  0  0
   35.1630    7.1110   26.3490 C   0  0  0  0  0
   35.7730    7.4700   25.0270 N   0  3  0  0  0
   36.9200    6.6230   24.5420 C   0  0  0  0  0
   38.1060    7.4870   24.1080 C   0  0  0  0  0
   37.8270    8.7010   23.2000 C   0  0  0  0  0
   33.8410    7.8840   28.3480 C   0  0  0  0  0
   32.1520   11.1360   25.0010 C   0  0  0  0  0
   31.6910   10.6610   26.0290 O   0  0  0  0  0
   31.3740   11.7050   24.0170 N   0  0  0  0  0
   41.0488    8.6460   23.7455 H   0  0  0  0  0
   40.7916    9.1889   22.0691 H   0  0  0  0  0
   41.8902   10.0936   23.1394 H   0  0  0  0  0
   40.6730   14.6527   23.7909 H   0  0  0  0  0
   41.6524   14.2957   25.2964 H   0  0  0  0  0
   37.4894   13.4189   25.5266 H   0  0  0  0  0
   38.0204   14.1438   23.9747 H   0  0  0  0  0
   40.0683   16.0642   26.4000 H   0  0  0  0  0
   39.0824   16.1853   24.9220 H   0  0  0  0  0
   38.3262   15.7001   26.4595 H   0  0  0  0  0
   39.9643   12.3607   26.6561 H   0  0  0  0  0
   40.6104   13.8553   27.3772 H   0  0  0  0  0
   38.8692   13.4968   27.4814 H   0  0  0  0  0
   35.9952   12.8693   22.9979 H   0  0  0  0  0
   33.5363   12.7931   23.3869 H   0  0  0  0  0
   36.4971    9.6728   25.8191 H   0  0  0  0  0
   32.9287    9.2527   26.4839 H   0  0  0  0  0
   35.6333    8.8245   27.5245 H   0  0  0  0  0
   34.2731    6.5143   26.1489 H   0  0  0  0  0
   35.9197    6.5800   26.9265 H   0  0  0  0  0
   36.1539    8.4089   25.1448 H   0  0  0  0  0
   35.0302    7.3490   24.3385 H   0  0  0  0  0
   36.5827    6.0412   23.6842 H   0  0  0  0  0
   37.2426    5.9763   25.3580 H   0  0  0  0  0
   38.7429    6.8270   23.5190 H   0  0  0  0  0
   38.5113    7.9040   25.0300 H   0  0  0  0  0
   38.2377    8.4578   22.2201 H   0  0  0  0  0
   36.7504    8.8690   23.2269 H   0  0  0  0  0
   33.5618    8.7521   28.9450 H   0  0  0  0  0
   32.9425    7.4031   27.9613 H   0  0  0  0  0
   34.3945    7.1782   28.9674 H   0  0  0  0  0
   30.3607   11.7445   24.1271 H   0  0  0  0  0
   31.8112   12.0868   23.1783 H   0  0  0  0  0
  1  2  1  0  0  0
  2  3  4  0  0  0
  2  6  4  0  0  0
  3  4  4  0  0  0
  3 26  1  0  0  0
  4  5  4  0  0  0
  4 14  1  0  0  0
  5  6  4  0  0  0
  5 11  1  0  0  0
  6  7  1  0  0  0
  7  8  2  0  0  0
  7  9  1  0  0  0
  9 10  1  0  0  0
 10 11  1  0  0  0
 10 12  1  0  0  0
 10 13  1  0  0  0
 14 15  4  0  0  0
 14 19  4  0  0  0
 15 16  4  0  0  0
 16 17  4  0  0  0
 17 18  4  0  0  0
 17 28  1  0  0  0
 18 19  4  0  0  0
 18 20  1  0  0  0
 20 21  1  0  0  0
 21 22  1  0  0  0
 21 27  1  0  0  0
 22 23  1  0  0  0
 23 24  1  0  0  0
 24 25  1  0  0  0
 25 26  1  0  0  0
 28 29  2  0  0  0
 28 30  1  0  0  0
  1 31  1  0  0  0
  1 32  1  0  0  0
  1 33  1  0  0  0
  9 34  1  0  0  0
  9 35  1  0  0  0
 11 36  1  0  0  0
 11 37  1  0  0  0
 12 38  1  0  0  0
 12 39  1  0  0  0
 12 40  1  0  0  0
 13 41  1  0  0  0
 13 42  1  0  0  0
 13 43  1  0  0  0
 15 44  1  0  0  0
 16 45  1  0  0  0
 19 46  1  0  0  0
 20 47  1  0  0  0
 21 48  1  0  0  0
 22 49  1  0  0  0
 22 50  1  0  0  0
 23 51  1  0  0  0
 23 52  1  0  0  0
 24 53  1  0  0  0
 24 54  1  0  0  0
 25 55  1  0  0  0
 25 56  1  0  0  0
 26 57  1  0  0  0
 26 58  1  0  0  0
 27 59  1  0  0  0
 27 60  1  0  0  0
 27 61  1  0  0  0
 30 62  1  0  0  0
 30 63  1  0  0  0
M  END
$$$$
