3t84_ligand
  -I-interpret- 

 34 34  0  0  0  0  0  0  0  0999 V2000
   16.8280   -0.9160   11.7370 C   0  0  0  0  0
   16.7780   -0.7360   13.1360 O   0  0  0  0  0
   16.3060    0.2350   11.0090 C   0  0  0  0  0
   16.9720    1.4900   11.2790 C   0  0  0  0  0
   17.0290    1.7470   12.7340 C   0  0  0  0  0
   17.3890    0.5030   13.5480 C   0  0  0  0  0
   18.1020   -1.2750   11.2620 O   0  0  0  0  0
   16.2090   -0.0490    9.6460 O   0  0  0  0  0
   16.5180    2.5410   10.4690 O   0  0  0  0  0
   15.8980    2.4350   13.2230 O   0  0  0  0  0
   14.8500    4.0770   14.6020 C   0  0  0  0  0
   16.0510    3.4480   13.9750 C   0  0  0  0  0
   17.1990    3.8120   14.3640 O   0  0  0  0  0
   17.4320    0.6120   15.0700 C   0  0  0  0  0
   16.2230    0.9770   15.6230 O   0  0  0  0  0
   15.4380    0.0960   16.5130 S   0  0  0  0  0
   14.0740    0.4180   16.9500 O   0  0  0  0  0
   16.0570    0.6770   17.7030 O   0  0  0  0  0
   15.8140   -1.4290   16.4490 N   0  0  0  0  0
   16.1713   -1.7632   11.5394 H   0  0  0  0  0
   15.3020    0.4024   11.3988 H   0  0  0  0  0
   18.0149    1.4125   10.9717 H   0  0  0  0  0
   17.8618    2.4351   12.8791 H   0  0  0  0  0
   18.4368    0.4611   13.2506 H   0  0  0  0  0
   18.4242   -2.0330   11.7551 H   0  0  0  0  0
   15.7605   -0.8893    9.5265 H   0  0  0  0  0
   16.5236    2.2612    9.5507 H   0  0  0  0  0
   14.8557    3.8791   15.6739 H   0  0  0  0  0
   14.8733    5.1530   14.4297 H   0  0  0  0  0
   13.9477    3.6562   14.1583 H   0  0  0  0  0
   18.1583    1.3836   15.3254 H   0  0  0  0  0
   17.6923   -0.3703   15.4642 H   0  0  0  0  0
   15.1240   -2.1355   16.7042 H   0  0  0  0  0
   16.7479   -1.7120   16.1522 H   0  0  0  0  0
  1  2  1  0  0  0
  1  3  1  0  0  0
  1  7  1  0  0  0
  2  6  1  0  0  0
  3  4  1  0  0  0
  3  8  1  0  0  0
  4  5  1  0  0  0
  4  9  1  0  0  0
  5  6  1  0  0  0
  5 10  1  0  0  0
  6 14  1  0  0  0
 10 12  1  0  0  0
 12 11  1  0  0  0
 12 13  2  0  0  0
 14 15  1  0  0  0
 15 16  1  0  0  0
 16 17  2  0  0  0
 16 18  2  0  0  0
 16 19  1  0  0  0
  1 20  1  0  0  0
  3 21  1  0  0  0
  4 22  1  0  0  0
  5 23  1  0  0  0
  6 24  1  0  0  0
  7 25  1  0  0  0
  8 26  1  0  0  0
  9 27  1  0  0  0
 11 28  1  0  0  0
 11 29  1  0  0  0
 11 30  1  0  0  0
 14 31  1  0  0  0
 14 32  1  0  0  0
 19 33  1  0  0  0
 19 34  1  0  0  0
M  END
$$$$
