1mfd_ligand
  -I-interpret- 

 67 69  0  0  0  0  0  0  0  0999 V2000
   20.6750   40.5530   23.0620 C   0  0  0  0  0
   19.5720   41.2010   23.9930 C   0  0  0  0  0
   20.1140   42.4320   24.7620 C   0  0  0  0  0
   21.5470   42.1810   25.2890 C   0  0  0  0  0
   22.4370   41.7720   24.1090 C   0  0  0  0  0
   23.9700   41.7110   24.2210 C   0  0  0  0  0
   18.3600   41.6300   23.3570 O   0  0  0  0  0
   19.2250   42.6400   25.8700 O   0  0  0  0  0
   21.4030   41.1540   26.2400 O   0  0  0  0  0
   21.9360   40.4880   23.6930 O   0  0  0  0  0
   24.5790   42.7700   23.4630 O   0  0  0  0  0
   21.9620   41.6870   19.8440 C   0  0  0  0  0
   21.0370   40.7650   20.6280 C   0  0  0  0  0
   19.6410   40.7110   20.0060 C   0  0  0  0  0
   19.0560   42.1370   19.8550 C   0  0  0  0  0
   20.0520   42.9340   18.9460 C   0  0  0  0  0
   19.6210   44.3900   18.6390 C   0  0  0  0  0
   23.6620   40.7160   18.3280 C   0  0  0  0  0
   22.2840   41.0760   18.5930 O   0  0  0  0  0
   20.9260   41.3510   21.9120 O   0  0  0  0  0
   18.8070   39.9600   20.8850 O   0  0  0  0  0
   17.7210   42.1610   19.3700 O   0  0  0  0  0
   21.3270   42.9580   19.6300 O   0  0  0  0  0
   18.9540   45.0340   19.7230 O   0  0  0  0  0
   17.9140   39.0740   20.2720 C   0  0  0  0  0
   16.8540   38.7670   21.3500 C   0  0  0  0  0
   17.4230   37.8610   22.4500 C   0  0  0  0  0
   18.1380   36.6480   21.8660 C   0  0  0  0  0
   19.2340   37.1010   20.8540 C   0  0  0  0  0
   19.9060   35.9110   20.1660 C   0  0  0  0  0
   16.4790   40.0190   21.9370 O   0  0  0  0  0
   17.2290   35.7600   21.2390 O   0  0  0  0  0
   18.6320   37.9200   19.8240 O   0  0  0  0  0
   20.2777   39.5672   22.8202 H   0  0  0  0  0
   19.3251   40.3650   24.6474 H   0  0  0  0  0
   20.1599   43.2996   24.1037 H   0  0  0  0  0
   22.0158   43.0539   25.7432 H   0  0  0  0  0
   22.3513   42.6072   23.4139 H   0  0  0  0  0
   24.3137   40.7543   23.8277 H   0  0  0  0  0
   24.2509   41.8216   25.2684 H   0  0  0  0  0
   17.9823   40.8980   22.8639 H   0  0  0  0  0
   18.3366   42.7955   25.5412 H   0  0  0  0  0
   20.8397   41.4584   26.9552 H   0  0  0  0  0
   25.5337   42.7136   23.5464 H   0  0  0  0  0
   22.8783   41.8519   20.4109 H   0  0  0  0  0
   21.4333   39.7497   20.6429 H   0  0  0  0  0
   19.6942   40.2531   19.0183 H   0  0  0  0  0
   18.9682   42.6066   20.8347 H   0  0  0  0  0
   20.0893   42.4287   17.9809 H   0  0  0  0  0
   18.9219   44.3526   17.8035 H   0  0  0  0  0
   20.5265   44.9597   18.4301 H   0  0  0  0  0
   24.2838   41.6104   18.3673 H   0  0  0  0  0
   24.0009   40.0030   19.0796 H   0  0  0  0  0
   23.7344   40.2648   17.3384 H   0  0  0  0  0
   17.4231   43.0710   19.3011 H   0  0  0  0  0
   18.7164   45.9278   19.4654 H   0  0  0  0  0
   17.4259   39.4753   19.3839 H   0  0  0  0  0
   16.0069   38.2537   20.8949 H   0  0  0  0  0
   16.5964   37.5088   23.0671 H   0  0  0  0  0
   18.1425   38.4370   23.0319 H   0  0  0  0  0
   18.6117   36.1137   22.6895 H   0  0  0  0  0
   19.9837   37.6550   21.4190 H   0  0  0  0  0
   20.3768   35.2770   20.9173 H   0  0  0  0  0
   19.1562   35.3365   19.6221 H   0  0  0  0  0
   20.6621   36.2747   19.4702 H   0  0  0  0  0
   15.8174   39.8674   22.6159 H   0  0  0  0  0
   17.7105   35.0096   20.8831 H   0  0  0  0  0
  1 10  1  0  0  0
  1  2  1  0  0  0
  2  7  1  0  0  0
  2  3  1  0  0  0
  3  8  1  0  0  0
  3  4  1  0  0  0
  4  9  1  0  0  0
  5  4  1  0  0  0
 10  5  1  0  0  0
  5  6  1  0  0  0
  6 11  1  0  0  0
 12 23  1  0  0  0
 12 19  1  0  0  0
 13 12  1  0  0  0
 13 20  1  0  0  0
 14 13  1  0  0  0
 21 14  1  0  0  0
 14 15  1  0  0  0
 15 22  1  0  0  0
 15 16  1  0  0  0
 16 23  1  0  0  0
 16 17  1  0  0  0
 17 24  1  0  0  0
 19 18  1  0  0  0
 25 33  1  0  0  0
 25 26  1  0  0  0
 26 31  1  0  0  0
 26 27  1  0  0  0
 27 28  1  0  0  0
 28 32  1  0  0  0
 29 28  1  0  0  0
 33 29  1  0  0  0
 29 30  1  0  0  0
 20  1  1  0  0  0
 21 25  1  0  0  0
  1 34  1  0  0  0
  2 35  1  0  0  0
  3 36  1  0  0  0
  4 37  1  0  0  0
  5 38  1  0  0  0
  6 39  1  0  0  0
  6 40  1  0  0  0
  7 41  1  0  0  0
  8 42  1  0  0  0
  9 43  1  0  0  0
 11 44  1  0  0  0
 12 45  1  0  0  0
 13 46  1  0  0  0
 14 47  1  0  0  0
 15 48  1  0  0  0
 16 49  1  0  0  0
 17 50  1  0  0  0
 17 51  1  0  0  0
 18 52  1  0  0  0
 18 53  1  0  0  0
 18 54  1  0  0  0
 22 55  1  0  0  0
 24 56  1  0  0  0
 25 57  1  0  0  0
 26 58  1  0  0  0
 27 59  1  0  0  0
 27 60  1  0  0  0
 28 61  1  0  0  0
 29 62  1  0  0  0
 30 63  1  0  0  0
 30 64  1  0  0  0
 30 65  1  0  0  0
 31 66  1  0  0  0
 32 67  1  0  0  0
M  END
$$$$
