1ntk_ligand
  -I-interpret- 

 76 77  0  0  0  0  0  0  0  0999 V2000
   56.7790   67.7760  141.0210 C   0  0  0  0  0
   59.1030   68.6200  141.0450 C   0  0  0  0  0
   59.6250   67.9830  139.9210 C   0  0  0  0  0
   61.8200   69.0310  140.2770 C   0  0  0  0  0
   66.3670   73.8050  143.0130 O   0  0  0  0  0
   61.3330   69.6870  141.3860 C   0  0  0  0  0
   59.9560   69.4780  141.7840 C   0  0  0  0  0
   62.0890   70.6050  142.2640 C   0  0  0  0  0
   64.1650   71.9330  142.7510 C   0  0  0  0  0
   68.6450   73.2180  146.6380 O   0  0  0  0  0
   62.0560   73.5710  142.6060 C   0  0  0  0  0
   65.4880   74.1040  143.7880 C   0  0  0  0  0
   65.5800   74.3110  145.2600 C   0  0  0  0  0
   66.2800   73.0770  145.9100 C   0  0  0  0  0
   60.9660   68.1820  139.5580 C   0  0  0  0  0
   57.8480   68.5510  141.5600 N   0  0  0  0  0
   63.3630   70.9060  142.0660 N   0  0  0  0  0
   56.9790   67.1230  140.0400 O   0  0  0  0  0
   59.4680   70.0210  142.7640 O   0  0  0  0  0
   61.4510   71.0620  143.1960 O   0  0  0  0  0
   63.5600   73.3640  142.4150 C   0  0  0  0  0
   64.1790   74.3210  143.3750 O   0  0  0  0  0
   65.1080   71.4050  144.8300 O   0  0  0  0  0
   65.1890   71.9250  146.2560 C   0  0  0  0  0
   65.7860   70.8390  147.1440 C   0  0  0  0  0
   63.9270   71.6550  144.2260 C   0  0  0  0  0
   66.5370   75.5310  145.5050 C   0  0  0  0  0
   66.0660   76.7850  144.7520 C   0  0  0  0  0
   64.6430   77.1810  145.2010 C   0  0  0  0  0
   62.8850   71.7440  144.8350 O   0  0  0  0  0
   66.4950   73.5990  147.2880 O   0  0  0  0  0
   64.5680   78.5550  145.8830 C   0  0  0  0  0
   64.2750   78.4350  147.3830 C   0  0  0  0  0
   65.4420   78.9440  148.2390 C   0  0  0  0  0
   67.9040   73.5640  147.5470 C   0  0  0  0  0
   68.4230   73.9620  148.8870 C   0  0  0  0  0
   69.8960   73.5670  148.9350 C   0  0  0  0  0
   68.1940   75.4740  149.0480 C   0  0  0  0  0
   55.7975   67.7791  141.4950 H   0  0  0  0  0
   58.9907   67.3290  139.3226 H   0  0  0  0  0
   62.8544   69.1698  139.9627 H   0  0  0  0  0
   65.2167   71.9139  142.4653 H   0  0  0  0  0
   61.5109   72.8754  141.9680 H   0  0  0  0  0
   61.7952   73.3902  143.6488 H   0  0  0  0  0
   61.7943   74.5943  142.3368 H   0  0  0  0  0
   64.5840   74.4635  145.6756 H   0  0  0  0  0
   67.1056   72.7116  145.2993 H   0  0  0  0  0
   60.8958   68.6611  138.5814 H   0  0  0  0  0
   61.4140   67.1977  139.6938 H   0  0  0  0  0
   57.6547   69.0972  142.3994 H   0  0  0  0  0
   63.8472   70.3606  141.3529 H   0  0  0  0  0
   63.7626   73.4971  141.3523 H   0  0  0  0  0
   64.2787   72.2359  146.7686 H   0  0  0  0  0
   66.6283   70.3746  146.6313 H   0  0  0  0  0
   66.1280   71.2831  148.0788 H   0  0  0  0  0
   65.0269   70.0856  147.3545 H   0  0  0  0  0
   67.5301   75.2660  145.1422 H   0  0  0  0  0
   66.5425   75.7536  146.5720 H   0  0  0  0  0
   66.0544   76.5732  143.6828 H   0  0  0  0  0
   66.7482   77.6067  144.9700 H   0  0  0  0  0
   64.3133   76.4388  145.9280 H   0  0  0  0  0
   64.0213   77.2276  144.3069 H   0  0  0  0  0
   63.7591   79.1214  145.4215 H   0  0  0  0  0
   65.5320   79.0491  145.7620 H   0  0  0  0  0
   64.1152   77.3822  147.6159 H   0  0  0  0  0
   63.3973   79.0408  147.6084 H   0  0  0  0  0
   66.3350   78.3593  148.0181 H   0  0  0  0  0
   65.6277   79.9935  148.0107 H   0  0  0  0  0
   65.1895   78.8395  149.2942 H   0  0  0  0  0
   67.9150   73.4658  149.7140 H   0  0  0  0  0
   69.9870   72.4903  148.7920 H   0  0  0  0  0
   70.4362   74.0868  148.1438 H   0  0  0  0  0
   70.3134   73.8427  149.9034 H   0  0  0  0  0
   68.7277   76.0068  148.2610 H   0  0  0  0  0
   67.1278   75.6885  148.9752 H   0  0  0  0  0
   68.5648   75.7947  150.0215 H   0  0  0  0  0
 16  1  1  0  0  0
  1 18  2  0  0  0
  2  3  2  0  0  0
  7  2  1  0  0  0
  2 16  1  0  0  0
 15  3  1  0  0  0
  6  4  2  0  0  0
  4 15  1  0  0  0
 12  5  2  0  0  0
  6  7  1  0  0  0
  8  6  1  0  0  0
  7 19  2  0  0  0
 17  8  1  0  0  0
  8 20  2  0  0  0
  9 17  1  0  0  0
  9 21  1  0  0  0
 26  9  1  0  0  0
 35 10  2  0  0  0
 21 11  1  0  0  0
 13 12  1  0  0  0
 12 22  1  0  0  0
 14 13  1  0  0  0
 13 27  1  0  0  0
 14 24  1  0  0  0
 31 14  1  0  0  0
 22 21  1  0  0  0
 24 23  1  0  0  0
 23 26  1  0  0  0
 24 25  1  0  0  0
 26 30  2  0  0  0
 27 28  1  0  0  0
 28 29  1  0  0  0
 29 32  1  0  0  0
 31 35  1  0  0  0
 32 33  1  0  0  0
 33 34  1  0  0  0
 35 36  1  0  0  0
 36 37  1  0  0  0
 36 38  1  0  0  0
  1 39  1  0  0  0
  3 40  1  0  0  0
  4 41  1  0  0  0
  9 42  1  0  0  0
 11 43  1  0  0  0
 11 44  1  0  0  0
 11 45  1  0  0  0
 13 46  1  0  0  0
 14 47  1  0  0  0
 15 48  1  0  0  0
 15 49  1  0  0  0
 16 50  1  0  0  0
 17 51  1  0  0  0
 21 52  1  0  0  0
 24 53  1  0  0  0
 25 54  1  0  0  0
 25 55  1  0  0  0
 25 56  1  0  0  0
 27 57  1  0  0  0
 27 58  1  0  0  0
 28 59  1  0  0  0
 28 60  1  0  0  0
 29 61  1  0  0  0
 29 62  1  0  0  0
 32 63  1  0  0  0
 32 64  1  0  0  0
 33 65  1  0  0  0
 33 66  1  0  0  0
 34 67  1  0  0  0
 34 68  1  0  0  0
 34 69  1  0  0  0
 36 70  1  0  0  0
 37 71  1  0  0  0
 37 72  1  0  0  0
 37 73  1  0  0  0
 38 74  1  0  0  0
 38 75  1  0  0  0
 38 76  1  0  0  0
M  END
$$$$
