3ti5_ligand
  -I-interpret- 

 45 45  0  0  0  0  0  0  0  0999 V2000
   29.0240   12.4410  -24.0780 C   0  0  0  0  0
   27.8730   12.3690  -24.3830 O   0  0  0  0  0
   30.0650   12.1270  -24.8870 O   0  0  0  0  0
   29.4050   13.2860  -22.8880 C   0  0  0  0  0
   30.8790   13.7170  -22.6450 C   0  0  0  0  0
   31.1660   14.6100  -21.4310 C   0  0  0  0  0
   30.0280   14.8170  -20.4450 C   0  0  0  0  0
   30.2020   15.6980  -19.3560 N   0  0  0  0  0
   30.8210   15.4040  -18.1520 C   0  0  0  0  0
   31.1100   14.3280  -17.8420 O   0  0  0  0  0
   30.9730   16.6000  -17.2400 C   0  0  0  0  0
   28.6070   14.6200  -20.9450 C   0  0  0  0  0
   28.3660   13.8060  -22.0820 O   0  0  0  0  0
   27.4970   14.3380  -19.9630 C   0  0  0  0  0
   27.6230   13.0810  -19.5520 O   0  0  0  0  0
   26.1260   14.6560  -20.5820 C   0  0  0  0  0
   26.0440   15.8100  -21.2620 O   0  0  0  0  0
   25.0100   14.4560  -19.5970 C   0  0  0  0  0
   24.9810   15.3170  -18.6010 O   0  0  0  0  0
   32.4530   14.4330  -20.9040 N   0  0  0  0  0
   33.3070   15.4480  -20.3950 C   0  0  0  0  0
   32.8510   16.6330  -20.3820 N   0  0  0  0  0
   34.3720   15.0980  -19.7310 N   0  0  0  0  0
   30.8892   12.2672  -24.4151 H   0  0  0  0  0
   29.7862   12.4648  -22.2810 H   0  0  0  0  0
   31.1588   14.3087  -23.5166 H   0  0  0  0  0
   31.4287   12.7930  -22.4655 H   0  0  0  0  0
   31.1974   15.6189  -21.8424 H   0  0  0  0  0
   30.1931   13.8833  -19.9073 H   0  0  0  0  0
   29.8362   16.6437  -19.4663 H   0  0  0  0  0
   30.3731   16.4495  -16.3425 H   0  0  0  0  0
   32.0212   16.7133  -16.9632 H   0  0  0  0  0
   30.6340   17.4965  -17.7591 H   0  0  0  0  0
   28.5576   15.6676  -21.2418 H   0  0  0  0  0
   27.5687   14.9863  -19.0897 H   0  0  0  0  0
   26.9250   12.8792  -18.9246 H   0  0  0  0  0
   26.0010   13.9134  -21.3700 H   0  0  0  0  0
   25.1540   15.9147  -21.6062 H   0  0  0  0  0
   25.1554   13.4704  -19.1548 H   0  0  0  0  0
   24.0787   14.5838  -20.1487 H   0  0  0  0  0
   24.2399   15.1140  -18.0255 H   0  0  0  0  0
   32.8128   13.4788  -20.8840 H   0  0  0  0  0
   31.9099   16.8211  -20.7274 H   0  0  0  0  0
   34.8743   15.7879  -19.1723 H   0  0  0  0  0
   34.7034   14.1341  -19.7699 H   0  0  0  0  0
  1  2  2  0  0  0
  1  3  1  0  0  0
  1  4  1  0  0  0
  4  5  1  0  0  0
  4 13  1  0  0  0
  5  6  1  0  0  0
  6  7  1  0  0  0
  6 20  1  0  0  0
  7  8  1  0  0  0
  7 12  1  0  0  0
  8  9  1  0  0  0
  9 10  2  0  0  0
  9 11  1  0  0  0
 12 13  1  0  0  0
 12 14  1  0  0  0
 14 15  1  0  0  0
 14 16  1  0  0  0
 16 17  1  0  0  0
 16 18  1  0  0  0
 18 19  1  0  0  0
 20 21  1  0  0  0
 21 22  2  0  0  0
 21 23  1  0  0  0
  3 24  1  0  0  0
  4 25  1  0  0  0
  5 26  1  0  0  0
  5 27  1  0  0  0
  6 28  1  0  0  0
  7 29  1  0  0  0
  8 30  1  0  0  0
 11 31  1  0  0  0
 11 32  1  0  0  0
 11 33  1  0  0  0
 12 34  1  0  0  0
 14 35  1  0  0  0
 15 36  1  0  0  0
 16 37  1  0  0  0
 17 38  1  0  0  0
 18 39  1  0  0  0
 18 40  1  0  0  0
 19 41  1  0  0  0
 20 42  1  0  0  0
 22 43  1  0  0  0
 23 44  1  0  0  0
 23 45  1  0  0  0
M  END
$$$$
