2zju_ligand
  -I-interpret- 

 29 30  0  0  0  0  0  0  0  0999 V2000
   29.9310  -27.6730  -31.5650 C   0  0  0  0  0
   29.4720  -26.8520  -32.6270 C   0  0  0  0  0
   29.4520  -25.4450  -32.4270 C   0  0  0  0  0
   28.9030  -24.4050  -33.7080 Cl  0  0  0  0  0
   29.8530  -24.9010  -31.2700 N   0  0  0  0  0
   30.2930  -25.6520  -30.2440 C   0  0  0  0  0
   30.3560  -27.0840  -30.3420 C   0  0  0  0  0
   30.8620  -27.9590  -29.1820 C   0  0  0  0  0
   30.4740  -27.5720  -27.8100 N   0  0  0  0  0
   31.2770  -26.6650  -26.9730 C   0  0  0  0  0
   30.5190  -26.5320  -25.6360 C   0  0  0  0  0
   29.3270  -27.3680  -25.7820 N   0  0  0  0  0
   29.3130  -27.9570  -27.0660 C   0  0  0  0  0
   28.4160  -28.7680  -27.5020 N   0  0  0  0  0
   27.2430  -29.2760  -26.9930 N   0  0  0  0  0
   26.8050  -29.0090  -25.7960 O   0  0  0  0  0
   26.5520  -30.0730  -27.7290 O   0  0  0  0  0
   29.9580  -28.7559  -31.6863 H   0  0  0  0  0
   29.1437  -27.2882  -33.5704 H   0  0  0  0  0
   30.6076  -25.1648  -29.3211 H   0  0  0  0  0
   31.9489  -27.8813  -29.2106 H   0  0  0  0  0
   30.4199  -28.9421  -29.3438 H   0  0  0  0  0
   31.4023  -25.6943  -27.4527 H   0  0  0  0  0
   32.2818  -27.0583  -26.8184 H   0  0  0  0  0
   30.2579  -25.4950  -25.4247 H   0  0  0  0  0
   31.1325  -26.8522  -24.7939 H   0  0  0  0  0
   28.4935  -26.7918  -25.6652 H   0  0  0  0  0
   28.3800  -28.3736  -27.4454 H   0  0  0  0  0
   28.6206  -29.1140  -28.4395 H   0  0  0  0  0
  1  2  4  0  0  0
  1  7  4  0  0  0
  2  3  4  0  0  0
  3  4  1  0  0  0
  3  5  4  0  0  0
  5  6  4  0  0  0
  6  7  4  0  0  0
  7  8  1  0  0  0
  8  9  1  0  0  0
  9 10  1  0  0  0
  9 13  1  0  0  0
 10 11  1  0  0  0
 11 12  1  0  0  0
 12 13  1  0  0  0
 13 14  1  0  0  0
 14 15  1  0  0  0
 15 16  2  0  0  0
 15 17  2  0  0  0
  1 18  1  0  0  0
  2 19  1  0  0  0
  6 20  1  0  0  0
  8 21  1  0  0  0
  8 22  1  0  0  0
 10 23  1  0  0  0
 10 24  1  0  0  0
 11 25  1  0  0  0
 11 26  1  0  0  0
 12 27  1  0  0  0
 13 28  1  0  0  0
 14 29  1  0  0  0
M  END
$$$$
