6gg5_ligand
  -I-interpret- 

 27 28  0  0  0  0  0  0  0  0999 V2000
  369.5230  -78.7770  196.0820 N   0  3  0  0  0
  369.3180  -80.2720  196.0590 C   0  0  0  0  0
  369.4120  -80.9770  194.7030 C   0  0  0  0  0
  369.5780  -80.3670  193.6780 O   0  0  0  0  0
  367.9760  -80.6280  196.6760 C   0  0  0  0  0
  366.7830  -80.2360  195.8780 C   0  0  0  0  0
  366.2010  -79.0000  195.8180 C   0  0  0  0  0
  365.9720  -81.1000  195.0790 C   0  0  0  0  0
  365.0830  -79.0380  195.0130 N   0  0  0  0  0
  364.9220  -80.3170  194.5440 C   0  0  0  0  0
  366.0310  -82.4540  194.7530 C   0  0  0  0  0
  363.9580  -80.8450  193.6840 C   0  0  0  0  0
  365.0630  -82.9730  193.8950 C   0  0  0  0  0
  364.0460  -82.1700  193.3790 C   0  0  0  0  0
  369.2980  -82.1940  194.5810 O   0  0  0  0  0
  370.4265  -78.5525  195.6654 H   0  0  0  0  0
  368.7799  -78.3249  195.5493 H   0  0  0  0  0
  369.5007  -78.4468  197.0468 H   0  0  0  0  0
  370.1681  -80.6386  196.6343 H   0  0  0  0  0
  367.9126  -80.0842  197.6185 H   0  0  0  0  0
  367.9507  -81.7144  196.7607 H   0  0  0  0  0
  366.5685  -78.1123  196.3329 H   0  0  0  0  0
  366.8158  -83.0919  195.1596 H   0  0  0  0  0
  363.1648  -80.2211  193.2720 H   0  0  0  0  0
  365.1015  -84.0275  193.6218 H   0  0  0  0  0
  363.3035  -82.6133  192.7155 H   0  0  0  0  0
  369.1702  -82.5906  195.4459 H   0  0  0  0  0
  1  2  1  0  0  0
  2  3  1  0  0  0
  2  5  1  0  0  0
  3  4  2  0  0  0
  3 15  1  0  0  0
  5  6  1  0  0  0
  6  7  4  0  0  0
  6  8  4  0  0  0
  7  9  4  0  0  0
  8 10  4  0  0  0
  8 11  4  0  0  0
  9 10  4  0  0  0
 10 12  4  0  0  0
 11 13  4  0  0  0
 12 14  4  0  0  0
 13 14  4  0  0  0
  1 16  1  0  0  0
  1 17  1  0  0  0
  1 18  1  0  0  0
  2 19  1  0  0  0
  5 20  1  0  0  0
  5 21  1  0  0  0
  7 22  1  0  0  0
 11 23  1  0  0  0
 12 24  1  0  0  0
 13 25  1  0  0  0
 14 26  1  0  0  0
 15 27  1  0  0  0
M  END
$$$$
