5mpz_ligand
  -I-interpret- 

 21 22  0  0  0  0  0  0  0  0999 V2000
    1.0390   20.4310   71.8020 C   0  0  0  0  0
    2.2090   22.5330   74.9800 C   0  0  0  0  0
    2.6550   23.3650   75.9910 C   0  0  0  0  0
    0.0210   22.6490   75.9280 C   0  0  0  0  0
    0.4560   21.3370   73.8950 C   0  0  0  0  0
    0.8750   22.1620   74.9420 C   0  0  0  0  0
    0.8740   24.7550   78.5780 C   0  0  0  0  0
    1.8070   23.8030   76.9130 C   0  0  0  0  0
    0.5110   23.4530   76.8800 C   0  0  0  0  0
    2.0310   24.6070   77.9570 N   0  0  0  0  0
   -0.7070   20.9420   73.7660 O   0  0  0  0  0
    0.7110   25.4330   79.5900 O   0  0  0  0  0
    1.4450   21.1290   72.9780 O   0  0  0  0  0
   -0.0960   24.0480   77.9310 O   0  0  0  0  0
    0.6563   19.4484   72.0781 H   0  0  0  0  0
    0.2573   20.9978   71.2963 H   0  0  0  0  0
    1.8942   20.3153   71.1362 H   0  0  0  0  0
    2.9016   22.1723   74.2195 H   0  0  0  0  0
    3.7033   23.6610   76.0304 H   0  0  0  0  0
   -1.0349   22.3787   75.9249 H   0  0  0  0  0
    2.9225   25.0253   78.2229 H   0  0  0  0  0
 13  1  1  0  0  0
  3  2  4  0  0  0
  2  6  4  0  0  0
  8  3  4  0  0  0
  4  6  4  0  0  0
  9  4  4  0  0  0
  6  5  1  0  0  0
  5 11  2  0  0  0
  5 13  1  0  0  0
 10  7  1  0  0  0
  7 12  2  0  0  0
  7 14  1  0  0  0
  8  9  4  0  0  0
  8 10  1  0  0  0
  9 14  1  0  0  0
  1 15  1  0  0  0
  1 16  1  0  0  0
  1 17  1  0  0  0
  2 18  1  0  0  0
  3 19  1  0  0  0
  4 20  1  0  0  0
 10 21  1  0  0  0
M  END
$$$$
