5oua_ligand
  -I-interpret- 

291293  0  0  0  0  0  0  0  0999 V2000
  -18.4870  -32.6600  -26.8770 N   0  3  0  0  0
  -17.8300  -32.1550  -25.6600 C   0  0  0  0  0
  -16.8970  -30.9890  -25.9380 C   0  0  0  0  0
  -16.5130  -30.7620  -27.0730 O   0  0  0  0  0
  -16.9810  -33.2100  -24.9820 C   0  0  0  0  0
  -15.8770  -33.5380  -25.8340 O   0  0  0  0  0
  -17.7930  -34.4460  -24.6590 C   0  0  0  0  0
  -16.5110  -30.2600  -24.8890 N   0  0  0  0  0
  -15.6160  -29.1320  -25.1150 C   0  0  0  0  0
  -14.2910  -29.6010  -25.6940 C   0  0  0  0  0
  -13.7820  -29.0120  -26.6490 O   0  0  0  0  0
  -15.4150  -28.3600  -23.8250 C   0  0  0  0  0
  -16.7170  -28.0040  -23.3370 O   0  0  0  0  0
  -14.6050  -27.1060  -24.1060 C   0  0  0  0  0
  -13.7510  -30.6950  -25.1580 N   0  0  0  0  0
  -12.5010  -31.2480  -25.6840 C   0  0  0  0  0
  -12.6430  -31.6650  -27.1480 C   0  0  0  0  0
  -11.7620  -31.3770  -27.9640 O   0  0  0  0  0
  -12.0710  -32.4310  -24.8330 C   0  0  0  0  0
  -10.8070  -33.0900  -25.3700 C   0  0  0  0  0
  -10.8750  -34.3050  -26.0480 C   0  0  0  0  0
   -9.5730  -32.4610  -25.2600 C   0  0  0  0  0
   -9.7250  -34.8970  -26.5460 C   0  0  0  0  0
   -8.4270  -33.0420  -25.7540 C   0  0  0  0  0
   -8.5080  -34.2570  -26.4010 C   0  0  0  0  0
   -7.3480  -34.8250  -26.8990 O   0  0  0  0  0
  -13.7450  -32.3410  -27.5080 N   0  0  0  0  0
  -13.9590  -32.6930  -28.9130 C   0  0  0  0  0
  -13.9970  -31.4510  -29.8040 C   0  0  0  0  0
  -13.4310  -31.4350  -30.9090 O   0  0  0  0  0
  -15.2520  -33.4930  -29.0750 C   0  0  0  0  0
  -14.6260  -30.3760  -29.3160 N   0  0  0  0  0
  -14.6760  -29.1360  -30.0720 C   0  0  0  0  0
  -13.2770  -28.5460  -30.2590 C   0  0  0  0  0
  -12.9590  -27.9780  -31.3070 O   0  0  0  0  0
  -15.5560  -28.1230  -29.3280 C   0  0  0  0  0
  -17.0330  -28.4690  -29.3400 C   0  0  0  0  0
  -17.4340  -29.3490  -30.1040 O   0  0  0  0  0
  -17.7950  -27.8310  -28.5760 O   0  0  0  0  0
  -12.4440  -28.6350  -29.2220 N   0  0  0  0  0
  -11.0650  -28.1570  -29.3140 C   0  0  0  0  0
  -10.2950  -28.9200  -30.3980 C   0  0  0  0  0
   -9.6200  -28.3260  -31.2410 O   0  0  0  0  0
  -10.4080  -28.2990  -27.9390 C   0  0  0  0  0
   -8.9590  -27.9130  -27.8850 C   0  0  0  0  0
   -8.0030  -28.8740  -27.6320 C   0  0  0  0  0
   -8.5460  -26.5880  -28.1020 C   0  0  0  0  0
   -6.6750  -28.5520  -27.5480 C   0  0  0  0  0
   -7.1920  -26.2570  -28.0600 C   0  0  0  0  0
   -6.2540  -27.2480  -27.7670 C   0  0  0  0  0
  -10.4170  -30.2520  -30.4070 N   0  0  0  0  0
   -9.7060  -31.0290  -31.4130 C   0  0  0  0  0
  -10.2350  -30.7100  -32.7930 C   0  0  0  0  0
   -9.4700  -30.7040  -33.7690 O   0  0  0  0  0
   -9.8160  -32.5310  -31.1070 C   0  0  0  0  0
   -9.2040  -32.8430  -29.7430 C   0  0  0  0  0
   -9.1410  -33.3490  -32.2120 C   0  0  0  0  0
   -7.8010  -32.4010  -29.5610 C   0  0  0  0  0
  -11.5370  -30.4090  -32.8930 N   0  0  0  0  0
  -12.1620  -30.1940  -34.1960 C   0  0  0  0  0
  -11.7810  -28.8480  -34.7780 C   0  0  0  0  0
  -11.5360  -28.7280  -35.9840 O   0  0  0  0  0
  -13.6810  -30.3190  -34.0850 C   0  0  0  0  0
  -11.7640  -27.8110  -33.9490 N   0  0  0  0  0
  -11.5780  -26.4840  -34.5030 C   0  0  0  0  0
  -10.6700  -25.5790  -33.7020 C   0  0  0  0  0
  -10.3090  -24.5190  -34.2230 O   0  0  0  0  0
  -12.9400  -25.7980  -34.6850 C   0  0  0  0  0
  -13.6240  -25.6960  -33.4700 O   0  0  0  0  0
  -10.2470  -25.9610  -32.4970 N   0  0  0  0  0
   -9.2100  -25.2120  -31.8160 C   0  0  0  0  0
   -7.8440  -25.4340  -32.4450 C   0  0  0  0  0
   -7.6180  -26.3430  -33.2490 O   0  0  0  0  0
   -6.9000  -24.5620  -32.1100 N   0  0  0  0  0
   -5.5130  -24.7770  -32.5100 C   0  0  0  0  0
   -4.8650  -25.7020  -31.4830 C   0  0  0  0  0
   -4.6870  -25.3100  -30.3300 O   0  0  0  0  0
   -4.7960  -23.4360  -32.5890 C   0  0  0  0  0
   -4.9550  -22.7320  -33.9230 C   0  0  0  0  0
   -5.3720  -21.3060  -33.8160 C   0  0  0  0  0
   -4.6340  -20.4650  -32.8650 N   0  0  0  0  0
   -3.7190  -19.5530  -33.1800 C   0  0  0  0  0
   -3.3460  -19.3380  -34.4440 N   0  0  0  0  0
   -3.1760  -18.8170  -32.2290 N   0  0  0  0  0
   -4.5570  -26.9410  -31.8860 N   0  0  0  0  0
   -3.9960  -27.9510  -30.9870 C   0  0  0  0  0
   -2.4670  -28.0360  -31.0270 C   0  0  0  0  0
   -1.8770  -28.6560  -30.1350 O   0  0  0  0  0
   -4.5800  -29.3280  -31.3340 C   0  0  0  0  0
   -4.0900  -29.7250  -32.6370 O   0  0  0  0  0
   -6.1170  -29.3270  -31.3610 C   0  0  0  0  0
   -1.8100  -27.4250  -32.0270 N   0  0  0  0  0
   -0.3680  -27.4260  -32.1350 C   0  0  0  0  0
    0.2420  -26.1600  -31.5670 C   0  0  0  0  0
   -0.4330  -25.3250  -30.9610 O   0  0  0  0  0
    1.5370  -25.9990  -31.8190 N   0  0  0  0  0
    2.2260  -24.8330  -31.3000 C   0  0  0  0  0
    1.6340  -23.5770  -31.9060 C   0  0  0  0  0
    1.3060  -23.5280  -33.1030 O   0  0  0  0  0
    3.7220  -24.9150  -31.5850 C   0  0  0  0  0
    4.4110  -26.0490  -30.8800 C   0  0  0  0  0
    5.9330  -25.9350  -30.9810 C   0  0  0  0  0
    6.5240  -26.8140  -30.0020 N   0  0  0  0  0
    6.7350  -28.1170  -30.1730 C   0  0  0  0  0
    6.4560  -28.7050  -31.3200 N   0  0  0  0  0
    7.2280  -28.8360  -29.1780 N   0  0  0  0  0
    1.5220  -22.5490  -31.0770 N   0  0  0  0  0
    0.8640  -21.3020  -31.4140 C   0  0  0  0  0
    1.8740  -20.1730  -31.5060 C   0  0  0  0  0
    2.6340  -19.9250  -30.5740 O   0  0  0  0  0
   -0.1970  -20.9660  -30.3690 C   0  0  0  0  0
   -1.3170  -21.9810  -30.3680 C   0  0  0  0  0
   -2.1000  -22.0640  -29.0710 C   0  0  0  0  0
   -1.2450  -22.5550  -27.9970 N   0  0  0  0  0
   -1.6900  -23.0050  -26.8320 C   0  0  0  0  0
   -2.9860  -23.0470  -26.5900 N   0  0  0  0  0
   -0.8180  -23.4130  -25.9050 N   0  0  0  0  0
    1.8470  -19.4550  -32.6190 N   0  0  0  0  0
    2.7340  -18.3190  -32.7910 C   0  0  0  0  0
    2.1360  -17.0590  -32.1960 C   0  0  0  0  0
    0.9170  -16.8890  -32.1500 O   0  0  0  0  0
    2.9980  -18.0800  -34.2750 C   0  0  0  0  0
    3.7050  -19.2320  -34.9140 C   0  0  0  0  0
    4.6480  -19.7870  -34.3410 O   0  0  0  0  0
    3.2550  -19.6180  -36.1010 N   0  0  0  0  0
    3.0150  -16.1390  -31.8050 N   0  0  0  0  0
    2.5400  -14.8180  -31.4430 C   0  0  0  0  0
    2.1020  -14.0830  -32.6940 C   0  0  0  0  0
    2.4510  -14.4620  -33.8250 O   0  0  0  0  0
    3.6120  -14.0160  -30.7240 C   0  0  0  0  0
    1.3130  -13.0390  -32.4860 N   0  0  0  0  0
    0.7640  -12.2710  -33.6170 C   0  0  0  0  0
    1.8110  -11.3140  -34.1290 C   0  0  0  0  0
    1.6680  -10.8620  -35.2670 O   0  0  0  0  0
   -0.5470  -11.5580  -33.2320 C   0  0  0  0  0
   -0.3450  -10.5320  -32.1320 C   0  0  0  0  0
   -1.5980  -12.5930  -32.8350 C   0  0  0  0  0
   -1.6710   -9.9020  -31.6490 C   0  0  0  0  0
    2.8210  -11.0050  -33.4770 O   0  0  0  0  0
  -14.8040  -25.1600  -33.9280 C   0  0  0  0  0
  -15.8540  -25.8420  -33.0550 C   0  0  0  0  0
  -16.9040  -24.8360  -32.6040 C   0  0  0  0  0
  -16.2780  -23.6980  -31.8130 C   0  0  0  0  0
  -14.9930  -23.2560  -32.4890 C   0  0  0  0  0
  -16.4660  -26.8990  -33.7890 O   0  0  0  0  0
  -14.9240  -23.7390  -33.8360 O   0  0  0  0  0
  -19.0445  -31.9151  -27.2950 H   0  0  0  0  0
  -17.7776  -32.9692  -27.5415 H   0  0  0  0  0
  -19.0924  -33.4443  -26.6346 H   0  0  0  0  0
  -18.6577  -31.8460  -25.0217 H   0  0  0  0  0
  -16.6092  -32.8126  -24.0376 H   0  0  0  0  0
  -15.3756  -32.7424  -26.0268 H   0  0  0  0  0
  -18.1766  -34.8788  -25.5829 H   0  0  0  0  0
  -17.1592  -35.1731  -24.1513 H   0  0  0  0  0
  -18.6258  -34.1729  -24.0110 H   0  0  0  0  0
  -16.8354  -30.4873  -23.9491 H   0  0  0  0  0
  -16.0716  -28.4624  -25.8445 H   0  0  0  0  0
  -14.8786  -28.9580  -23.0883 H   0  0  0  0  0
  -16.6269  -27.5119  -22.5177 H   0  0  0  0  0
  -13.6352  -27.3860  -24.5174 H   0  0  0  0  0
  -15.1393  -26.4831  -24.8234 H   0  0  0  0  0
  -14.4614  -26.5523  -23.1782 H   0  0  0  0  0
  -14.2135  -31.1525  -24.3724 H   0  0  0  0  0
  -11.7369  -30.4719  -25.6398 H   0  0  0  0  0
  -12.8725  -33.1696  -24.8458 H   0  0  0  0  0
  -11.8655  -32.0695  -23.8254 H   0  0  0  0  0
  -11.8393  -34.7935  -26.1878 H   0  0  0  0  0
   -9.5111  -31.4879  -24.7727 H   0  0  0  0  0
   -9.7797  -35.8622  -27.0494 H   0  0  0  0  0
   -7.4638  -32.5459  -25.6347 H   0  0  0  0  0
   -6.6041  -34.2483  -26.7102 H   0  0  0  0  0
  -14.4325  -32.6092  -26.8039 H   0  0  0  0  0
  -13.1166  -33.3088  -29.2281 H   0  0  0  0  0
  -15.1877  -34.4081  -28.4864 H   0  0  0  0  0
  -16.0941  -32.8944  -28.7276 H   0  0  0  0  0
  -15.3927  -33.7447  -30.1262 H   0  0  0  0  0
  -15.0760  -30.4273  -28.4021 H   0  0  0  0  0
  -15.0941  -29.3505  -31.0555 H   0  0  0  0  0
  -15.4432  -27.1630  -29.8318 H   0  0  0  0  0
  -15.2328  -28.1147  -28.2871 H   0  0  0  0  0
  -17.2815  -27.1968  -28.0702 H   0  0  0  0  0
  -12.7746  -29.0441  -28.3481 H   0  0  0  0  0
  -11.0519  -27.1067  -29.6051 H   0  0  0  0  0
  -10.4625  -29.3544  -27.6719 H   0  0  0  0  0
  -10.9382  -27.6252  -27.2660 H   0  0  0  0  0
   -8.3108  -29.9108  -27.4962 H   0  0  0  0  0
   -9.2874  -25.8150  -28.3042 H   0  0  0  0  0
   -5.9443  -29.3243  -27.3077 H   0  0  0  0  0
   -6.8693  -25.2341  -28.2541 H   0  0  0  0  0
   -5.1944  -26.9986  -27.7104 H   0  0  0  0  0
  -11.0029  -30.7196  -29.7153 H   0  0  0  0  0
   -8.6504  -30.7587  -31.3864 H   0  0  0  0  0
  -10.8700  -32.8069  -31.0753 H   0  0  0  0  0
   -9.2045  -33.9283  -29.6420 H   0  0  0  0  0
   -9.7985  -32.3054  -29.0043 H   0  0  0  0  0
   -9.6288  -33.1425  -33.1647 H   0  0  0  0  0
   -8.0881  -33.0739  -32.2743 H   0  0  0  0  0
   -9.2274  -34.4107  -31.9807 H   0  0  0  0  0
   -7.1686  -32.8886  -30.3029 H   0  0  0  0  0
   -7.7429  -31.3198  -29.6864 H   0  0  0  0  0
   -7.4634  -32.6707  -28.5603 H   0  0  0  0  0
  -12.1003  -30.3288  -32.0465 H   0  0  0  0  0
  -11.7943  -30.9643  -34.8739 H   0  0  0  0  0
  -13.9371  -31.3165  -33.7279 H   0  0  0  0  0
  -14.0553  -29.5734  -33.3836 H   0  0  0  0  0
  -14.1302  -30.1560  -35.0646 H   0  0  0  0  0
  -11.8793  -27.9449  -32.9444 H   0  0  0  0  0
  -11.0786  -26.6408  -35.4591 H   0  0  0  0  0
  -13.5400  -26.3949  -35.3718 H   0  0  0  0  0
  -12.7733  -24.7938  -35.0746 H   0  0  0  0  0
  -10.6547  -26.7836  -32.0526 H   0  0  0  0  0
   -9.1684  -25.5500  -30.7806 H   0  0  0  0  0
   -9.4511  -24.1515  -31.8882 H   0  0  0  0  0
   -7.1467  -23.7340  -31.5679 H   0  0  0  0  0
   -5.4525  -25.2412  -33.4944 H   0  0  0  0  0
   -3.7323  -23.6283  -32.4486 H   0  0  0  0  0
   -5.2322  -22.7897  -31.8273 H   0  0  0  0  0
   -5.7383  -23.2555  -34.4712 H   0  0  0  0  0
   -3.9808  -22.7460  -34.4118 H   0  0  0  0  0
   -6.4023  -21.3232  -33.4607 H   0  0  0  0  0
   -5.1946  -20.8696  -34.7990 H   0  0  0  0  0
   -4.8418  -20.5917  -31.8745 H   0  0  0  0  0
   -2.6557  -18.6178  -34.6566 H   0  0  0  0  0
   -3.7514  -19.8940  -35.1970 H   0  0  0  0  0
   -3.4586  -18.9491  -31.2579 H   0  0  0  0  0
   -4.7202  -27.1919  -32.8611 H   0  0  0  0  0
   -4.2694  -27.6451  -29.9772 H   0  0  0  0  0
   -4.2650  -30.0265  -30.5588 H   0  0  0  0  0
   -4.4494  -30.5857  -32.8642 H   0  0  0  0  0
   -6.4961  -29.0388  -30.3805 H   0  0  0  0  0
   -6.4655  -28.6160  -32.1101 H   0  0  0  0  0
   -6.4754  -30.3255  -31.6115 H   0  0  0  0  0
   -2.3521  -26.9391  -32.7414 H   0  0  0  0  0
   -0.1043  -27.4887  -33.1908 H   0  0  0  0  0
    0.0166  -28.2745  -31.5691 H   0  0  0  0  0
    2.0425  -26.6902  -32.3732 H   0  0  0  0  0
    2.0942  -24.8002  -30.2185 H   0  0  0  0  0
    4.1725  -23.9885  -31.2289 H   0  0  0  0  0
    3.8409  -25.0774  -32.6563 H   0  0  0  0  0
    4.1042  -26.9833  -31.3501 H   0  0  0  0  0
    4.1330  -26.0186  -29.8265 H   0  0  0  0  0
    6.2423  -24.9069  -30.7927 H   0  0  0  0  0
    6.2616  -26.2176  -31.9811 H   0  0  0  0  0
    6.8017  -26.4055  -29.1096 H   0  0  0  0  0
    6.0726  -28.1602  -32.0924 H   0  0  0  0  0
    7.3890  -29.8356  -29.3020 H   0  0  0  0  0
    7.4472  -28.3908  -28.2868 H   0  0  0  0  0
    1.9237  -22.6410  -30.1440 H   0  0  0  0  0
    0.3828  -21.4197  -32.3849 H   0  0  0  0  0
   -0.6176  -19.9889  -30.6067 H   0  0  0  0  0
    0.2737  -20.9712  -29.3859 H   0  0  0  0  0
   -0.8589  -22.9577  -30.5239 H   0  0  0  0  0
   -2.0203  -21.6767  -31.1431 H   0  0  0  0  0
   -2.9367  -22.7500  -29.2027 H   0  0  0  0  0
   -2.4650  -21.0705  -28.8105 H   0  0  0  0  0
   -0.2369  -22.5521  -28.1523 H   0  0  0  0  0
   -3.6478  -22.7329  -27.2998 H   0  0  0  0  0
   -1.1538  -23.7587  -25.0060 H   0  0  0  0  0
    0.1833  -23.3787  -26.0965 H   0  0  0  0  0
    1.1955  -19.7033  -33.3635 H   0  0  0  0  0
    3.6660  -18.5484  -32.2744 H   0  0  0  0  0
    3.6314  -17.1980  -34.3696 H   0  0  0  0  0
    2.0377  -17.9515  -34.7745 H   0  0  0  0  0
    3.6915  -20.4054  -36.5805 H   0  0  0  0  0
    2.4726  -19.1273  -36.5340 H   0  0  0  0  0
    4.0097  -16.3606  -31.7607 H   0  0  0  0  0
    1.6973  -14.9329  -30.7613 H   0  0  0  0  0
    3.9054  -14.5384  -29.8135 H   0  0  0  0  0
    4.4786  -13.9042  -31.3756 H   0  0  0  0  0
    3.2182  -13.0321  -30.4691 H   0  0  0  0  0
    1.0829  -12.7637  -31.5312 H   0  0  0  0  0
    0.5065  -12.9567  -34.4242 H   0  0  0  0  0
   -0.8981  -11.0069  -34.1045 H   0  0  0  0  0
    0.2781   -9.7322  -32.5322 H   0  0  0  0  0
    0.1122  -11.0393  -31.2825 H   0  0  0  0  0
   -1.7829  -13.2620  -33.6755 H   0  0  0  0  0
   -1.2355  -13.1689  -31.9835 H   0  0  0  0  0
   -2.5229  -12.0841  -32.5637 H   0  0  0  0  0
   -2.1602   -9.4024  -32.4852 H   0  0  0  0  0
   -2.3228  -10.6841  -31.2598 H   0  0  0  0  0
   -1.4620   -9.1767  -30.8626 H   0  0  0  0  0
    2.7889  -11.4320  -32.6178 H   0  0  0  0  0
  -14.8997  -25.3342  -34.9997 H   0  0  0  0  0
  -15.3705  -26.2521  -32.1684 H   0  0  0  0  0
  -17.6222  -25.3485  -31.9640 H   0  0  0  0  0
  -17.3862  -24.4189  -33.4881 H   0  0  0  0  0
  -16.0570  -24.0383  -30.8013 H   0  0  0  0  0
  -16.9732  -22.8595  -31.7722 H   0  0  0  0  0
  -14.1489  -23.6606  -31.9305 H   0  0  0  0  0
  -14.9667  -22.1665  -32.5081 H   0  0  0  0  0
  -17.1264  -27.3279  -33.2398 H   0  0  0  0  0
  1  2  1  0  0  0
  2  3  1  0  0  0
  2  5  1  0  0  0
  3  4  2  0  0  0
  3  8  1  0  0  0
  5  6  1  0  0  0
  5  7  1  0  0  0
  8  9  1  0  0  0
  9 10  1  0  0  0
  9 12  1  0  0  0
 10 11  2  0  0  0
 10 15  1  0  0  0
 12 13  1  0  0  0
 12 14  1  0  0  0
 15 16  1  0  0  0
 16 17  1  0  0  0
 16 19  1  0  0  0
 17 18  2  0  0  0
 17 27  1  0  0  0
 19 20  1  0  0  0
 20 21  4  0  0  0
 20 22  4  0  0  0
 21 23  4  0  0  0
 22 24  4  0  0  0
 23 25  4  0  0  0
 24 25  4  0  0  0
 25 26  1  0  0  0
 27 28  1  0  0  0
 28 29  1  0  0  0
 28 31  1  0  0  0
 29 30  2  0  0  0
 29 32  1  0  0  0
 32 33  1  0  0  0
 33 34  1  0  0  0
 33 36  1  0  0  0
 34 35  2  0  0  0
 34 40  1  0  0  0
 36 37  1  0  0  0
 37 38  2  0  0  0
 37 39  1  0  0  0
 40 41  1  0  0  0
 41 42  1  0  0  0
 41 44  1  0  0  0
 42 43  2  0  0  0
 42 51  1  0  0  0
 44 45  1  0  0  0
 45 46  4  0  0  0
 45 47  4  0  0  0
 46 48  4  0  0  0
 47 49  4  0  0  0
 48 50  4  0  0  0
 49 50  4  0  0  0
 51 52  1  0  0  0
 52 53  1  0  0  0
 52 55  1  0  0  0
 53 54  2  0  0  0
 53 59  1  0  0  0
 55 56  1  0  0  0
 55 57  1  0  0  0
 56 58  1  0  0  0
 59 60  1  0  0  0
 60 61  1  0  0  0
 60 63  1  0  0  0
 61 62  2  0  0  0
 61 64  1  0  0  0
 64 65  1  0  0  0
 65 66  1  0  0  0
 65 68  1  0  0  0
 66 67  2  0  0  0
 66 70  1  0  0  0
 68 69  1  0  0  0
 69140  1  0  0  0
 70 71  1  0  0  0
 71 72  1  0  0  0
 72 73  2  0  0  0
 72 74  1  0  0  0
 74 75  1  0  0  0
 75 76  1  0  0  0
 75 78  1  0  0  0
 76 77  2  0  0  0
 76 85  1  0  0  0
 78 79  1  0  0  0
 79 80  1  0  0  0
 80 81  1  0  0  0
 81 82  1  0  0  0
 82 83  1  0  0  0
 82 84  2  0  0  0
 85 86  1  0  0  0
 86 87  1  0  0  0
 86 89  1  0  0  0
 87 88  2  0  0  0
 87 92  1  0  0  0
 89 90  1  0  0  0
 89 91  1  0  0  0
 92 93  1  0  0  0
 93 94  1  0  0  0
 94 95  2  0  0  0
 94 96  1  0  0  0
 96 97  1  0  0  0
 97 98  1  0  0  0
 97100  1  0  0  0
 98 99  2  0  0  0
 98107  1  0  0  0
100101  1  0  0  0
101102  1  0  0  0
102103  1  0  0  0
103104  1  0  0  0
104105  2  0  0  0
104106  1  0  0  0
107108  1  0  0  0
108109  1  0  0  0
108111  1  0  0  0
109110  2  0  0  0
109118  1  0  0  0
111112  1  0  0  0
112113  1  0  0  0
113114  1  0  0  0
114115  1  0  0  0
115116  2  0  0  0
115117  1  0  0  0
118119  1  0  0  0
119120  1  0  0  0
119122  1  0  0  0
120121  2  0  0  0
120126  1  0  0  0
122123  1  0  0  0
123124  2  0  0  0
123125  1  0  0  0
126127  1  0  0  0
127128  1  0  0  0
127130  1  0  0  0
128129  2  0  0  0
128131  1  0  0  0
131132  1  0  0  0
132133  1  0  0  0
132135  1  0  0  0
133134  2  0  0  0
133139  1  0  0  0
135136  1  0  0  0
135137  1  0  0  0
136138  1  0  0  0
140141  1  0  0  0
140146  1  0  0  0
141142  1  0  0  0
141145  1  0  0  0
142143  1  0  0  0
143144  1  0  0  0
144146  1  0  0  0
  1147  1  0  0  0
  1148  1  0  0  0
  1149  1  0  0  0
  2150  1  0  0  0
  5151  1  0  0  0
  6152  1  0  0  0
  7153  1  0  0  0
  7154  1  0  0  0
  7155  1  0  0  0
  8156  1  0  0  0
  9157  1  0  0  0
 12158  1  0  0  0
 13159  1  0  0  0
 14160  1  0  0  0
 14161  1  0  0  0
 14162  1  0  0  0
 15163  1  0  0  0
 16164  1  0  0  0
 19165  1  0  0  0
 19166  1  0  0  0
 21167  1  0  0  0
 22168  1  0  0  0
 23169  1  0  0  0
 24170  1  0  0  0
 26171  1  0  0  0
 27172  1  0  0  0
 28173  1  0  0  0
 31174  1  0  0  0
 31175  1  0  0  0
 31176  1  0  0  0
 32177  1  0  0  0
 33178  1  0  0  0
 36179  1  0  0  0
 36180  1  0  0  0
 39181  1  0  0  0
 40182  1  0  0  0
 41183  1  0  0  0
 44184  1  0  0  0
 44185  1  0  0  0
 46186  1  0  0  0
 47187  1  0  0  0
 48188  1  0  0  0
 49189  1  0  0  0
 50190  1  0  0  0
 51191  1  0  0  0
 52192  1  0  0  0
 55193  1  0  0  0
 56194  1  0  0  0
 56195  1  0  0  0
 57196  1  0  0  0
 57197  1  0  0  0
 57198  1  0  0  0
 58199  1  0  0  0
 58200  1  0  0  0
 58201  1  0  0  0
 59202  1  0  0  0
 60203  1  0  0  0
 63204  1  0  0  0
 63205  1  0  0  0
 63206  1  0  0  0
 64207  1  0  0  0
 65208  1  0  0  0
 68209  1  0  0  0
 68210  1  0  0  0
 70211  1  0  0  0
 71212  1  0  0  0
 71213  1  0  0  0
 74214  1  0  0  0
 75215  1  0  0  0
 78216  1  0  0  0
 78217  1  0  0  0
 79218  1  0  0  0
 79219  1  0  0  0
 80220  1  0  0  0
 80221  1  0  0  0
 81222  1  0  0  0
 83223  1  0  0  0
 83224  1  0  0  0
 84225  1  0  0  0
 85226  1  0  0  0
 86227  1  0  0  0
 89228  1  0  0  0
 90229  1  0  0  0
 91230  1  0  0  0
 91231  1  0  0  0
 91232  1  0  0  0
 92233  1  0  0  0
 93234  1  0  0  0
 93235  1  0  0  0
 96236  1  0  0  0
 97237  1  0  0  0
100238  1  0  0  0
100239  1  0  0  0
101240  1  0  0  0
101241  1  0  0  0
102242  1  0  0  0
102243  1  0  0  0
103244  1  0  0  0
105245  1  0  0  0
106246  1  0  0  0
106247  1  0  0  0
107248  1  0  0  0
108249  1  0  0  0
111250  1  0  0  0
111251  1  0  0  0
112252  1  0  0  0
112253  1  0  0  0
113254  1  0  0  0
113255  1  0  0  0
114256  1  0  0  0
116257  1  0  0  0
117258  1  0  0  0
117259  1  0  0  0
118260  1  0  0  0
119261  1  0  0  0
122262  1  0  0  0
122263  1  0  0  0
125264  1  0  0  0
125265  1  0  0  0
126266  1  0  0  0
127267  1  0  0  0
130268  1  0  0  0
130269  1  0  0  0
130270  1  0  0  0
131271  1  0  0  0
132272  1  0  0  0
135273  1  0  0  0
136274  1  0  0  0
136275  1  0  0  0
137276  1  0  0  0
137277  1  0  0  0
137278  1  0  0  0
138279  1  0  0  0
138280  1  0  0  0
138281  1  0  0  0
139282  1  0  0  0
140283  1  0  0  0
141284  1  0  0  0
142285  1  0  0  0
142286  1  0  0  0
143287  1  0  0  0
143288  1  0  0  0
144289  1  0  0  0
144290  1  0  0  0
145291  1  0  0  0
M  END
$$$$
