### 
### Created by X-TOOL on Mon Aug  2 16:10:28 2021
### 

@<TRIPOS>MOLECULE
5oua_ligand
  292   294     1     0     0
SMALL
GAST_HUCK


@<TRIPOS>ATOM
      1 N         -18.4870  -32.6600  -26.8770 N.4       1 THR         0.2398
      2 CA        -17.8300  -32.1550  -25.6600 C.3       1 THR         0.0910
      3 C         -16.8970  -30.9890  -25.9380 C.2       1 THR         0.2293
      4 O         -16.5130  -30.7620  -27.0730 O.2       1 THR        -0.3906
      5 CB        -16.9810  -33.2100  -24.9820 C.3       1 THR         0.1120
      6 OG1       -15.8770  -33.5380  -25.8340 O.3       1 THR        -0.3840
      7 CG2       -17.7930  -34.4460  -24.6590 C.3       1 THR        -0.0314
      8 N         -16.5110  -30.2600  -24.8890 N.am      1 THR        -0.2585
      9 CA        -15.6160  -29.1320  -25.1150 C.3       1 THR         0.1566
     10 C         -14.2910  -29.6010  -25.6940 C.2       1 THR         0.2066
     11 O         -13.7820  -29.0120  -26.6490 O.2       1 THR        -0.3943
     12 CB        -15.4150  -28.3600  -23.8250 C.3       1 THR         0.0924
     13 OG1       -16.7170  -28.0040  -23.3370 O.3       1 THR        -0.3874
     14 CG2       -14.6050  -27.1060  -24.1060 C.3       1 THR        -0.0346
     15 N         -13.7510  -30.6950  -25.1580 N.am      1 THR        -0.2621
     16 CA        -12.5010  -31.2480  -25.6840 C.3       1 THR         0.1390
     17 C         -12.6430  -31.6650  -27.1480 C.2       1 THR         0.2057
     18 O         -11.7620  -31.3770  -27.9640 O.2       1 THR        -0.3942
     19 CB        -12.0710  -32.4310  -24.8330 C.3       1 THR         0.0163
     20 CG        -10.8070  -33.0900  -25.3700 C.ar      1 THR        -0.0493
     21 CD1       -10.8750  -34.3050  -26.0480 C.ar      1 THR        -0.0685
     22 CD2        -9.5730  -32.4610  -25.2600 C.ar      1 THR        -0.0685
     23 CE1        -9.7250  -34.8970  -26.5460 C.ar      1 THR        -0.0398
     24 CE2        -8.4270  -33.0420  -25.7540 C.ar      1 THR        -0.0398
     25 CZ         -8.5080  -34.2570  -26.4010 C.ar      1 THR         0.0805
     26 OH         -7.3480  -34.8250  -26.8990 O.3       1 THR        -0.3376
     27 N         -13.7450  -32.3410  -27.5080 N.am      1 THR        -0.2639
     28 CA        -13.9590  -32.6930  -28.9130 C.3       1 THR         0.1282
     29 C         -13.9970  -31.4510  -29.8040 C.2       1 THR         0.2037
     30 O         -13.4310  -31.4350  -30.9090 O.2       1 THR        -0.3944
     31 CB        -15.2520  -33.4930  -29.0750 C.3       1 THR        -0.0244
     32 N         -14.6260  -30.3760  -29.3160 N.am      1 THR        -0.2622
     33 CA        -14.6760  -29.1360  -30.0720 C.3       1 THR         0.1423
     34 C         -13.2770  -28.5460  -30.2590 C.2       1 THR         0.2057
     35 O         -12.9590  -27.9780  -31.3070 O.2       1 THR        -0.3943
     36 CB        -15.5560  -28.1230  -29.3280 C.3       1 THR         0.0406
     37 CG        -17.0330  -28.4690  -29.3400 C.2       1 THR         0.0393
     38 OD1       -17.4340  -29.3490  -30.1040 O.co2     1 THR        -0.5688
     39 OD2       -17.7950  -27.8310  -28.5760 O.co2     1 THR        -0.5688
     40 N         -12.4440  -28.6350  -29.2220 N.am      1 THR        -0.2618
     41 CA        -11.0650  -28.1570  -29.3140 C.3       1 THR         0.1404
     42 C         -10.2950  -28.9200  -30.3980 C.2       1 THR         0.2060
     43 O          -9.6200  -28.3260  -31.2410 O.2       1 THR        -0.3942
     44 CB        -10.4080  -28.2990  -27.9390 C.3       1 THR         0.0214
     45 CG         -8.9590  -27.9130  -27.8850 C.ar      1 THR        -0.0386
     46 CD1        -8.0030  -28.8740  -27.6320 C.ar      1 THR        -0.0601
     47 CD2        -8.5460  -26.5880  -28.1020 C.ar      1 THR        -0.0601
     48 CE1        -6.6750  -28.5520  -27.5480 C.ar      1 THR        -0.0686
     49 CE2        -7.1920  -26.2570  -28.0600 C.ar      1 THR        -0.0686
     50 CZ         -6.2540  -27.2480  -27.7670 C.ar      1 THR        -0.0687
     51 N         -10.4170  -30.2520  -30.4070 N.am      1 THR        -0.2633
     52 CA         -9.7060  -31.0290  -31.4130 C.3       1 THR         0.1335
     53 C         -10.2350  -30.7100  -32.7930 C.2       1 THR         0.2041
     54 O          -9.4700  -30.7040  -33.7690 O.2       1 THR        -0.3944
     55 CB         -9.8160  -32.5310  -31.1070 C.3       1 THR        -0.0037
     56 CG1        -9.2040  -32.8430  -29.7430 C.3       1 THR        -0.0491
     57 CG2        -9.1410  -33.3490  -32.2120 C.3       1 THR        -0.0582
     58 CD1        -7.8010  -32.4010  -29.5610 C.3       1 THR        -0.0648
     59 N         -11.5370  -30.4090  -32.8930 N.am      1 THR        -0.2640
     60 CA        -12.1620  -30.1940  -34.1960 C.3       1 THR         0.1282
     61 C         -11.7810  -28.8480  -34.7780 C.2       1 THR         0.2037
     62 O         -11.5360  -28.7280  -35.9840 O.2       1 THR        -0.3944
     63 CB        -13.6810  -30.3190  -34.0850 C.3       1 THR        -0.0244
     64 N         -11.7640  -27.8110  -33.9490 N.am      1 THR        -0.2616
     65 CA        -11.5780  -26.4840  -34.5030 C.3       1 THR         0.1543
     66 C         -10.6700  -25.5790  -33.7020 C.2       1 THR         0.2060
     67 O         -10.3090  -24.5190  -34.2230 O.2       1 THR        -0.3943
     68 CB        -12.9400  -25.7980  -34.6850 C.3       1 THR         0.0909
     69 OG        -13.6240  -25.6960  -33.4700 O.3       1 THR        -0.3441
     70 N         -10.2470  -25.9610  -32.4970 N.am      1 THR        -0.2663
     71 CA         -9.2100  -25.2120  -31.8160 C.3       1 THR         0.1201
     72 C          -7.8440  -25.4340  -32.4450 C.2       1 THR         0.2007
     73 O          -7.6180  -26.3430  -33.2490 O.2       1 THR        -0.3947
     74 N          -6.9000  -24.5620  -32.1100 N.am      1 THR        -0.2640
     75 CA         -5.5130  -24.7770  -32.5100 C.3       1 THR         0.1311
     76 C          -4.8650  -25.7020  -31.4830 C.2       1 THR         0.2040
     77 O          -4.6870  -25.3100  -30.3300 O.2       1 THR        -0.3944
     78 CB         -4.7960  -23.4360  -32.5890 C.3       1 THR        -0.0092
     79 CG         -4.9550  -22.7320  -33.9230 C.3       1 THR        -0.0156
     80 CD         -5.3720  -21.3060  -33.8160 C.3       1 THR         0.0627
     81 NE         -4.6340  -20.4650  -32.8650 N.pl3     1 THR        -0.2723
     82 CZ         -3.7190  -19.5530  -33.1800 C.cat     1 THR         0.2882
     83 NH1        -3.3460  -19.3380  -34.4440 N.pl3     1 THR        -0.2849
     84 NH2        -3.1760  -18.8170  -32.2290 N.pl3     1 THR        -0.2849
     85 N          -4.5570  -26.9410  -31.8860 N.am      1 THR        -0.2613
     86 CA         -3.9960  -27.9510  -30.9870 C.3       1 THR         0.1565
     87 C          -2.4670  -28.0360  -31.0270 C.2       1 THR         0.2063
     88 O          -1.8770  -28.6560  -30.1350 O.2       1 THR        -0.3943
     89 CB         -4.5800  -29.3280  -31.3340 C.3       1 THR         0.0924
     90 OG1        -4.0900  -29.7250  -32.6370 O.3       1 THR        -0.3874
     91 CG2        -6.1170  -29.3270  -31.3610 C.3       1 THR        -0.0346
     92 N          -1.8100  -27.4250  -32.0270 N.am      1 THR        -0.2663
     93 CA         -0.3680  -27.4260  -32.1350 C.3       1 THR         0.1201
     94 C           0.2420  -26.1600  -31.5670 C.2       1 THR         0.2007
     95 O          -0.4330  -25.3250  -30.9610 O.2       1 THR        -0.3947
     96 N           1.5370  -25.9990  -31.8190 N.am      1 THR        -0.2640
     97 CA          2.2260  -24.8330  -31.3000 C.3       1 THR         0.1311
     98 C           1.6340  -23.5770  -31.9060 C.2       1 THR         0.2039
     99 O           1.3060  -23.5280  -33.1030 O.2       1 THR        -0.3944
    100 CB          3.7220  -24.9150  -31.5850 C.3       1 THR        -0.0092
    101 CG          4.4110  -26.0490  -30.8800 C.3       1 THR        -0.0156
    102 CD          5.9330  -25.9350  -30.9810 C.3       1 THR         0.0627
    103 NE          6.5240  -26.8140  -30.0020 N.pl3     1 THR        -0.2723
    104 CZ          6.7350  -28.1170  -30.1730 C.cat     1 THR         0.2882
    105 NH1         6.4560  -28.7050  -31.3200 N.pl3     1 THR        -0.2849
    106 NH2         7.2280  -28.8360  -29.1780 N.pl3     1 THR        -0.2849
    107 N           1.5220  -22.5490  -31.0770 N.am      1 THR        -0.2637
    108 CA          0.8640  -21.3020  -31.4140 C.3       1 THR         0.1311
    109 C           1.8740  -20.1730  -31.5060 C.2       1 THR         0.2040
    110 O           2.6340  -19.9250  -30.5740 O.2       1 THR        -0.3944
    111 CB         -0.1970  -20.9660  -30.3690 C.3       1 THR        -0.0092
    112 CG         -1.3170  -21.9810  -30.3680 C.3       1 THR        -0.0156
    113 CD         -2.1000  -22.0640  -29.0710 C.3       1 THR         0.0627
    114 NE         -1.2450  -22.5550  -27.9970 N.pl3     1 THR        -0.2723
    115 CZ         -1.6900  -23.0050  -26.8320 C.cat     1 THR         0.2882
    116 NH1        -2.9860  -23.0470  -26.5900 N.pl3     1 THR        -0.2849
    117 NH2        -0.8180  -23.4130  -25.9050 N.pl3     1 THR        -0.2849
    118 N           1.8470  -19.4550  -32.6190 N.am      1 THR        -0.2616
    119 CA          2.7340  -18.3190  -32.7910 C.3       1 THR         0.1476
    120 C           2.1360  -17.0590  -32.1960 C.2       1 THR         0.2062
    121 O           0.9170  -16.8890  -32.1500 O.2       1 THR        -0.3942
    122 CB          2.9980  -18.0800  -34.2750 C.3       1 THR         0.0773
    123 CG          3.7050  -19.2320  -34.9140 C.2       1 THR         0.1780
    124 OD1         4.6480  -19.7870  -34.3410 O.2       1 THR        -0.3970
    125 ND2         3.2550  -19.6180  -36.1010 N.am      1 THR        -0.3007
    126 N           3.0150  -16.1390  -31.8050 N.am      1 THR        -0.2639
    127 CA          2.5400  -14.8180  -31.4430 C.3       1 THR         0.1282
    128 C           2.1020  -14.0830  -32.6940 C.2       1 THR         0.2031
    129 O           2.4510  -14.4620  -33.8250 O.2       1 THR        -0.3944
    130 CB          3.6120  -14.0160  -30.7240 C.3       1 THR        -0.0244
    131 N           1.3130  -13.0390  -32.4860 N.am      1 THR        -0.2692
    132 CA          0.7640  -12.2710  -33.6170 C.3       1 THR         0.0969
    133 C           1.8110  -11.3140  -34.1290 C.2       1 THR         0.0604
    134 O           1.6680  -10.8620  -35.2670 O.co2     1 THR        -0.5666
    135 CB         -0.5470  -11.5580  -33.2320 C.3       1 THR        -0.0092
    136 CG1        -0.3450  -10.5320  -32.1320 C.3       1 THR        -0.0497
    137 CG2        -1.5980  -12.5930  -32.8350 C.3       1 THR        -0.0588
    138 CD1        -1.6710   -9.9020  -31.6490 C.3       1 THR        -0.0649
    139 OXT         2.8210  -11.0050  -33.4770 O.co2     1 THR        -0.5666
    140 C1        -14.8040  -25.1600  -33.9280 C.3       1 THR         0.1851
    141 C2        -15.8540  -25.8420  -33.0550 C.3       1 THR         0.1060
    142 C3        -16.9040  -24.8360  -32.6040 C.3       1 THR        -0.0200
    143 C4        -16.2780  -23.6980  -31.8130 C.3       1 THR        -0.0269
    144 C5        -14.9930  -23.2560  -32.4890 C.3       1 THR         0.0508
    145 O2        -16.4660  -26.8990  -33.7890 O.3       1 THR        -0.3868
    146 O5        -14.9240  -23.7390  -33.8360 O.3       1 THR        -0.3488
    147 H1        -19.0383  -31.9247  -27.2910 H         1 THR         0.2016
    148 H2        -19.0856  -33.4352  -26.6387 H         1 THR         0.2016
    149 H3        -17.7869  -32.9658  -27.5346 H         1 THR         0.2016
    150 H4        -18.6175  -31.8264  -24.9658 H         1 THR         0.1125
    151 H5        -16.5912  -32.7964  -24.0402 H         1 THR         0.0674
    152 H6        -15.3565  -32.7587  -25.9902 H         1 THR         0.2102
    153 H7        -17.1484  -35.1904  -24.1687 H         1 THR         0.0258
    154 H8        -18.2012  -34.8698  -25.5884 H         1 THR         0.0258
    155 H9        -18.6194  -34.1761  -23.9851 H         1 THR         0.0258
    156 H10       -16.8290  -30.4829  -23.9675 H         1 THR         0.1885
    157 H11       -16.0873  -28.4593  -25.8466 H         1 THR         0.0826
    158 H12       -14.8900  -28.9829  -23.0858 H         1 THR         0.0639
    159 H13       -17.2218  -28.7933  -23.1798 H         1 THR         0.2101
    160 H14       -14.4593  -26.5463  -23.1703 H         1 THR         0.0257
    161 H15       -15.1431  -26.4764  -24.8299 H         1 THR         0.0257
    162 H16       -13.6260  -27.3872  -24.5212 H         1 THR         0.0257
    163 H17       -14.2045  -31.1435  -24.3878 H         1 THR         0.1885
    164 H18       -11.7248  -30.4710  -25.6221 H         1 THR         0.0821
    165 H19       -12.8819  -33.1742  -24.8221 H         1 THR         0.0453
    166 H20       -11.8808  -32.0807  -23.8078 H         1 THR         0.0453
    167 H21       -11.8340  -34.7908  -26.1871 H         1 THR         0.0530
    168 H22        -9.5115  -31.4933  -24.7754 H         1 THR         0.0530
    169 H23        -9.7794  -35.8569  -27.0466 H         1 THR         0.0525
    170 H24        -7.4691  -32.5486  -25.6354 H         1 THR         0.0525
    171 H25        -7.5557  -35.6534  -27.3152 H         1 THR         0.2458
    172 H26       -14.4190  -32.6039  -26.8177 H         1 THR         0.1883
    173 H27       -13.1183  -33.3232  -29.2386 H         1 THR         0.0797
    174 H28       -15.3951  -33.7477  -30.1355 H         1 THR         0.0277
    175 H29       -16.1027  -32.8899  -28.7247 H         1 THR         0.0277
    176 H30       -15.1884  -34.4169  -28.4814 H         1 THR         0.0277
    177 H31       -15.0672  -30.4263  -28.4200 H         1 THR         0.1884
    178 H32       -15.1125  -29.3391  -31.0610 H         1 THR         0.0819
    179 H33       -15.4268  -27.1383  -29.8009 H         1 THR         0.0478
    180 H34       -15.2199  -28.0743  -28.2818 H         1 THR         0.0478
    181 H35       -12.7682  -29.0361  -28.3652 H         1 THR         0.1885
    182 H36       -11.0767  -27.0918  -29.5882 H         1 THR         0.0823
    183 H37       -10.4927  -29.3505  -27.6274 H         1 THR         0.0474
    184 H38       -10.9575  -27.6613  -27.2309 H         1 THR         0.0474
    185 H39        -8.3091  -29.9051  -27.4969 H         1 THR         0.0557
    186 H40        -9.2833  -25.8192  -28.3030 H         1 THR         0.0557
    187 H41        -5.9483  -29.3200  -27.3091 H         1 THR         0.0599
    188 H42        -6.8711  -25.2397  -28.2531 H         1 THR         0.0599
    189 H43        -5.2003  -26.9999  -27.7107 H         1 THR         0.0559
    190 H44       -10.9914  -30.7104  -29.7288 H         1 THR         0.1883
    191 H45        -8.6427  -30.7491  -31.3795 H         1 THR         0.0803
    192 H46       -10.8815  -32.8029  -31.0776 H         1 THR         0.0345
    193 H47        -9.2385  -33.9326  -29.5965 H         1 THR         0.0267
    194 H48        -9.8177  -32.3501  -28.9746 H         1 THR         0.0267
    195 H49        -9.6002  -33.1050  -33.1813 H         1 THR         0.0235
    196 H50        -9.2698  -34.4216  -32.0049 H         1 THR         0.0235
    197 H51        -8.0682  -33.1078  -32.2435 H         1 THR         0.0235
    198 H52        -7.4591  -32.6726  -28.5514 H         1 THR         0.0230
    199 H53        -7.7410  -31.3099  -29.6873 H         1 THR         0.0230
    200 H54        -7.1617  -32.8925  -30.3092 H         1 THR         0.0230
    201 H55       -12.0893  -30.3303  -32.0631 H         1 THR         0.1883
    202 H56       -11.8011  -30.9757  -34.8806 H         1 THR         0.0797
    203 H57       -14.1356  -30.1546  -35.0731 H         1 THR         0.0277
    204 H58       -14.0601  -29.5670  -33.3774 H         1 THR         0.0277
    205 H59       -13.9408  -31.3253  -33.7247 H         1 THR         0.0277
    206 H60       -11.8770  -27.9423  -32.9641 H         1 THR         0.1884
    207 H61       -11.1202  -26.6093  -35.4953 H         1 THR         0.0824
    208 H62       -13.5464  -26.3866  -35.3892 H         1 THR         0.0610
    209 H63       -12.7812  -24.7887  -35.0925 H         1 THR         0.0610
    210 H64       -10.6468  -26.7675  -32.0613 H         1 THR         0.1881
    211 H65        -9.1732  -25.5314  -30.7641 H         1 THR         0.0763
    212 H66        -9.4543  -24.1406  -31.8656 H         1 THR         0.0763
    213 H67        -7.1419  -23.7502  -31.5785 H         1 THR         0.1883
    214 H68        -5.4829  -25.2567  -33.4994 H         1 THR         0.0800
    215 H69        -3.7236  -23.6057  -32.4126 H         1 THR         0.0313
    216 H70        -5.1981  -22.7813  -31.8018 H         1 THR         0.0313
    217 H71        -5.7148  -23.2703  -34.5086 H         1 THR         0.0301
    218 H72        -3.9904  -22.7705  -34.4503 H         1 THR         0.0301
    219 H73        -6.4311  -21.2914  -33.5193 H         1 THR         0.0689
    220 H74        -5.2641  -20.8530  -34.8126 H         1 THR         0.0689
    221 H75        -4.8438  -20.5929  -31.8647 H         1 THR         0.2642
    222 H76        -2.6344  -18.6243  -34.6567 H         1 THR         0.2615
    223 H77        -3.7698  -19.8858  -35.2063 H         1 THR         0.2615
    224 H78        -3.4471  -18.9636  -31.2462 H         1 THR         0.2615
    225 H79        -2.4810  -18.0959  -32.4694 H         1 THR         0.2615
    226 H80        -4.7170  -27.1870  -32.8420 H         1 THR         0.1884
    227 H81        -4.2931  -27.6892  -29.9608 H         1 THR         0.0826
    228 H82        -4.2422  -30.0539  -30.5797 H         1 THR         0.0639
    229 H83        -3.1414  -29.7721  -32.6165 H         1 THR         0.2101
    230 H84        -6.4799  -30.3342  -31.6137 H         1 THR         0.0257
    231 H85        -6.4700  -28.6098  -32.1167 H         1 THR         0.0257
    232 H86        -6.5009  -29.0364  -30.3720 H         1 THR         0.0257
    233 H87        -2.3415  -26.9486  -32.7274 H         1 THR         0.1881
    234 H88        -0.0909  -27.5092  -33.1963 H         1 THR         0.0763
    235 H89         0.0294  -28.2907  -31.5834 H         1 THR         0.0763
    236 H90         2.0326  -26.6767  -32.3623 H         1 THR         0.1883
    237 H91         2.0823  -24.7978  -30.2100 H         1 THR         0.0800
    238 H92         4.1887  -23.9721  -31.2640 H         1 THR         0.0313
    239 H93         3.8624  -25.0434  -32.6684 H         1 THR         0.0313
    240 H94         4.0934  -26.9982  -31.3361 H         1 THR         0.0301
    241 H95         4.1221  -26.0374  -29.8187 H         1 THR         0.0301
    242 H96         6.2414  -24.8979  -30.7825 H         1 THR         0.0689
    243 H97         6.2610  -26.2286  -31.9891 H         1 THR         0.0689
    244 H98         6.8045  -26.4015  -29.1008 H         1 THR         0.2642
    245 H99         6.6253  -29.7144  -31.4359 H         1 THR         0.2615
    246 H100        6.0688  -28.1549  -32.1000 H         1 THR         0.2615
    247 H101        7.4493  -28.3865  -28.2781 H         1 THR         0.2615
    248 H102        7.3905  -29.8454  -29.3032 H         1 THR         0.2615
    249 H103        1.9158  -22.6392  -30.1622 H         1 THR         0.1883
    250 H104        0.3736  -21.4167  -32.3919 H         1 THR         0.0800
    251 H105       -0.6151  -19.9731  -30.5910 H         1 THR         0.0313
    252 H106        0.2730  -20.9519  -29.3746 H         1 THR         0.0313
    253 H107       -0.8817  -22.9710  -30.5687 H         1 THR         0.0301
    254 H108       -2.0176  -21.7182  -31.1743 H         1 THR         0.0301
    255 H109       -2.9489  -22.7511  -29.2024 H         1 THR         0.0689
    256 H110       -2.4750  -21.0638  -28.8083 H         1 THR         0.0689
    257 H111       -0.2270  -22.5521  -28.1538 H         1 THR         0.2642
    258 H112       -3.3297  -23.3969  -25.6843 H         1 THR         0.2615
    259 H113       -3.6543  -22.7299  -27.3067 H         1 THR         0.2615
    260 H114        0.1931  -23.3784  -26.0984 H         1 THR         0.2615
    261 H115       -1.1571  -23.7620  -24.9972 H         1 THR         0.2615
    262 H116        1.2083  -19.6984  -33.3489 H         1 THR         0.1885
    263 H117        3.6862  -18.5360  -32.2848 H         1 THR         0.0826
    264 H118        3.6188  -17.1785  -34.3840 H         1 THR         0.0551
    265 H119        2.0361  -17.9268  -34.7861 H         1 THR         0.0551
    266 H120        3.6894  -20.3835  -36.5757 H         1 THR         0.1814
    267 H121        2.4814  -19.1434  -36.5209 H         1 THR         0.1814
    268 H122        3.9902  -16.3562  -31.7615 H         1 THR         0.1883
    269 H123        1.6759  -14.9273  -30.7712 H         1 THR         0.0797
    270 H124        3.2157  -13.0228  -30.4662 H         1 THR         0.0277
    271 H125        4.4872  -13.9024  -31.3806 H         1 THR         0.0277
    272 H126        3.9090  -14.5422  -29.8048 H         1 THR         0.0277
    273 H127        1.0874  -12.7691  -31.5499 H         1 THR         0.1875
    274 H128        0.5291  -12.9779  -34.4264 H         1 THR         0.0729
    275 H129       -0.9133  -11.0234  -34.1208 H         1 THR         0.0338
    276 H130        0.3059   -9.7314  -32.5134 H         1 THR         0.0267
    277 H131        0.1418  -11.0244  -31.2773 H         1 THR         0.0267
    278 H132       -1.7218  -13.3211  -33.6502 H         1 THR         0.0234
    279 H133       -2.5567  -12.0880  -32.6456 H         1 THR         0.0234
    280 H134       -1.2723  -13.1153  -31.9234 H         1 THR         0.0234
    281 H135       -1.4613   -9.1698  -30.8553 H         1 THR         0.0230
    282 H136       -2.3297  -10.6903  -31.2559 H         1 THR         0.0230
    283 H137       -2.1657   -9.3974  -32.4920 H         1 THR         0.0230
    284 H138      -14.9430  -25.4407  -34.9825 H         1 THR         0.0936
    285 H139      -15.3613  -26.2624  -32.1659 H         1 THR         0.0644
    286 H140      -17.6422  -25.3489  -31.9700 H         1 THR         0.0292
    287 H141      -17.4068  -24.4217  -33.4903 H         1 THR         0.0292
    288 H142      -16.0554  -24.0408  -30.7918 H         1 THR         0.0288
    289 H143      -16.9795  -22.8518  -31.7710 H         1 THR         0.0288
    290 H144      -14.1359  -23.6490  -31.9225 H         1 THR         0.0561
    291 H145      -14.9527  -22.1568  -32.4994 H         1 THR         0.0561
    292 H146      -15.8006  -27.5187  -34.0640 H         1 THR         0.2100
@<TRIPOS>BOND
     1    1    2 1  
     2    2    3 1  
     3    2    5 1  
     4    3    4 2  
     5    3    8 am 
     6    5    6 1  
     7    5    7 1  
     8    8    9 1  
     9    9   10 1  
    10    9   12 1  
    11   10   11 2  
    12   10   15 am 
    13   12   13 1  
    14   12   14 1  
    15   15   16 1  
    16   16   17 1  
    17   16   19 1  
    18   17   18 2  
    19   17   27 am 
    20   19   20 1  
    21   20   21 ar 
    22   20   22 ar 
    23   21   23 ar 
    24   22   24 ar 
    25   23   25 ar 
    26   24   25 ar 
    27   25   26 1  
    28   27   28 1  
    29   28   29 1  
    30   28   31 1  
    31   29   30 2  
    32   29   32 am 
    33   32   33 1  
    34   33   34 1  
    35   33   36 1  
    36   34   35 2  
    37   34   40 am 
    38   36   37 1  
    39   37   38 ar 
    40   37   39 ar 
    41   40   41 1  
    42   41   42 1  
    43   41   44 1  
    44   42   43 2  
    45   42   51 am 
    46   44   45 1  
    47   45   46 ar 
    48   45   47 ar 
    49   46   48 ar 
    50   47   49 ar 
    51   48   50 ar 
    52   49   50 ar 
    53   51   52 1  
    54   52   53 1  
    55   52   55 1  
    56   53   54 2  
    57   53   59 am 
    58   55   56 1  
    59   55   57 1  
    60   56   58 1  
    61   59   60 1  
    62   60   61 1  
    63   60   63 1  
    64   61   62 2  
    65   61   64 am 
    66   64   65 1  
    67   65   66 1  
    68   65   68 1  
    69   66   67 2  
    70   66   70 am 
    71   68   69 1  
    72   69  140 1  
    73   70   71 1  
    74   71   72 1  
    75   72   73 2  
    76   72   74 am 
    77   74   75 1  
    78   75   76 1  
    79   75   78 1  
    80   76   77 2  
    81   76   85 am 
    82   78   79 1  
    83   79   80 1  
    84   80   81 1  
    85   81   82 ar 
    86   82   83 ar 
    87   82   84 ar 
    88   85   86 1  
    89   86   87 1  
    90   86   89 1  
    91   87   88 2  
    92   87   92 am 
    93   89   90 1  
    94   89   91 1  
    95   92   93 1  
    96   93   94 1  
    97   94   95 2  
    98   94   96 am 
    99   96   97 1  
   100   97   98 1  
   101   97  100 1  
   102   98   99 2  
   103   98  107 am 
   104  100  101 1  
   105  101  102 1  
   106  102  103 1  
   107  103  104 ar 
   108  104  105 ar 
   109  104  106 ar 
   110  107  108 1  
   111  108  109 1  
   112  108  111 1  
   113  109  110 2  
   114  109  118 am 
   115  111  112 1  
   116  112  113 1  
   117  113  114 1  
   118  114  115 ar 
   119  115  116 ar 
   120  115  117 ar 
   121  118  119 1  
   122  119  120 1  
   123  119  122 1  
   124  120  121 2  
   125  120  126 am 
   126  122  123 1  
   127  123  124 2  
   128  123  125 am 
   129  126  127 1  
   130  127  128 1  
   131  127  130 1  
   132  128  129 2  
   133  128  131 am 
   134  131  132 1  
   135  132  133 1  
   136  132  135 1  
   137  133  134 ar 
   138  133  139 ar 
   139  135  136 1  
   140  135  137 1  
   141  136  138 1  
   142  140  141 1  
   143  140  146 1  
   144  141  142 1  
   145  141  145 1  
   146  142  143 1  
   147  143  144 1  
   148  144  146 1  
   149    1  147 1  
   150    1  148 1  
   151    1  149 1  
   152    2  150 1  
   153    5  151 1  
   154    6  152 1  
   155    7  153 1  
   156    7  154 1  
   157    7  155 1  
   158    8  156 1  
   159    9  157 1  
   160   12  158 1  
   161   13  159 1  
   162   14  160 1  
   163   14  161 1  
   164   14  162 1  
   165   15  163 1  
   166   16  164 1  
   167   19  165 1  
   168   19  166 1  
   169   21  167 1  
   170   22  168 1  
   171   23  169 1  
   172   24  170 1  
   173   26  171 1  
   174   27  172 1  
   175   28  173 1  
   176   31  174 1  
   177   31  175 1  
   178   31  176 1  
   179   32  177 1  
   180   33  178 1  
   181   36  179 1  
   182   36  180 1  
   183   40  181 1  
   184   41  182 1  
   185   44  183 1  
   186   44  184 1  
   187   46  185 1  
   188   47  186 1  
   189   48  187 1  
   190   49  188 1  
   191   50  189 1  
   192   51  190 1  
   193   52  191 1  
   194   55  192 1  
   195   56  193 1  
   196   56  194 1  
   197   57  195 1  
   198   57  196 1  
   199   57  197 1  
   200   58  198 1  
   201   58  199 1  
   202   58  200 1  
   203   59  201 1  
   204   60  202 1  
   205   63  203 1  
   206   63  204 1  
   207   63  205 1  
   208   64  206 1  
   209   65  207 1  
   210   68  208 1  
   211   68  209 1  
   212   70  210 1  
   213   71  211 1  
   214   71  212 1  
   215   74  213 1  
   216   75  214 1  
   217   78  215 1  
   218   78  216 1  
   219   79  217 1  
   220   79  218 1  
   221   80  219 1  
   222   80  220 1  
   223   81  221 1  
   224   83  222 1  
   225   83  223 1  
   226   84  224 1  
   227   84  225 1  
   228   85  226 1  
   229   86  227 1  
   230   89  228 1  
   231   90  229 1  
   232   91  230 1  
   233   91  231 1  
   234   91  232 1  
   235   92  233 1  
   236   93  234 1  
   237   93  235 1  
   238   96  236 1  
   239   97  237 1  
   240  100  238 1  
   241  100  239 1  
   242  101  240 1  
   243  101  241 1  
   244  102  242 1  
   245  102  243 1  
   246  103  244 1  
   247  105  245 1  
   248  105  246 1  
   249  106  247 1  
   250  106  248 1  
   251  107  249 1  
   252  108  250 1  
   253  111  251 1  
   254  111  252 1  
   255  112  253 1  
   256  112  254 1  
   257  113  255 1  
   258  113  256 1  
   259  114  257 1  
   260  116  258 1  
   261  116  259 1  
   262  117  260 1  
   263  117  261 1  
   264  118  262 1  
   265  119  263 1  
   266  122  264 1  
   267  122  265 1  
   268  125  266 1  
   269  125  267 1  
   270  126  268 1  
   271  127  269 1  
   272  130  270 1  
   273  130  271 1  
   274  130  272 1  
   275  131  273 1  
   276  132  274 1  
   277  135  275 1  
   278  136  276 1  
   279  136  277 1  
   280  137  278 1  
   281  137  279 1  
   282  137  280 1  
   283  138  281 1  
   284  138  282 1  
   285  138  283 1  
   286  140  284 1  
   287  141  285 1  
   288  142  286 1  
   289  142  287 1  
   290  143  288 1  
   291  143  289 1  
   292  144  290 1  
   293  144  291 1  
   294  145  292 1  
@<TRIPOS>SUBSTRUCTURE
     1 THR         1

