### 
### Created by X-TOOL on Mon Sep 10 21:13:25 2018
### 

@<TRIPOS>MOLECULE
4y6s_ligand
   35    35     1     0     0
SMALL
GAST_HUCK


@<TRIPOS>ATOM
      1 C11         3.4690   10.9700   19.2250 C.3       1 48S         0.0516
      2 C13         0.4280   11.6200   23.0800 C.ar      1 48S        -0.0431
      3 C14         0.9630   10.9720   24.1940 C.ar      1 48S        -0.0664
      4 C15        -0.8050   11.2230   22.5920 C.ar      1 48S        -0.0664
      5 C16        -1.5210   10.2140   23.2310 C.ar      1 48S        -0.0671
      6 O5         -1.7490   14.1240   22.7670 O.co2     1 48S        -0.5621
      7 P4         -0.5550   14.7350   22.0820 P.3       1 48S         0.0601
      8 O7         -1.0330   15.6940   21.0100 O.co2     1 48S        -0.5621
      9 O6          0.2780   15.5000   23.0780 O.co2     1 48S        -0.5621
     10 C1          0.4240   13.4350   21.3260 C.3       1 48S         0.0331
     11 C2          1.2130   12.6560   22.3740 C.3       1 48S         0.0212
     12 C3          2.2570   11.8360   21.6270 C.3       1 48S         0.0519
     13 C8          3.3280   12.6620   20.9670 C.2       1 48S         0.2032
     14 N9          3.8920   12.2260   19.8370 N.am      1 48S        -0.1537
     15 O10         4.8920   12.9580   19.2090 O.3       1 48S        -0.2694
     16 O12         3.6770   13.7040   21.4850 O.2       1 48S        -0.3966
     17 C18        -0.9980    9.5810   24.3550 C.ar      1 48S        -0.0528
     18 C19        -1.7800    8.4910   25.0390 C.3       1 48S        -0.0343
     19 C17         0.2490    9.9610   24.8370 C.ar      1 48S        -0.0671
     20 H1          4.0524   10.7936   18.3093 H         1 48S         0.0514
     21 H2          2.3997   11.0266   18.9733 H         1 48S         0.0514
     22 H3          3.6362   10.1434   19.9312 H         1 48S         0.0514
     23 H4          1.9418   11.2567   24.5628 H         1 48S         0.0540
     24 H5         -1.2149   11.6995   21.7088 H         1 48S         0.0540
     25 H6         -2.4924    9.9195   22.8505 H         1 48S         0.0540
     26 H7          1.1269   13.8858   20.6100 H         1 48S         0.0476
     27 H8         -0.2469   12.7435   20.7953 H         1 48S         0.0476
     28 H9          1.6690   13.3534   23.0921 H         1 48S         0.0486
     29 H10         1.7448   11.2495   20.8501 H         1 48S         0.0526
     30 H11         2.7386   11.1542   22.3434 H         1 48S         0.0526
     31 H12         5.6286   13.0581   19.8005 H         1 48S         0.2492
     32 H13        -1.2085    8.1151   25.9005 H         1 48S         0.0378
     33 H14        -1.9591    7.6686   24.3309 H         1 48S         0.0378
     34 H15        -2.7435    8.8930   25.3854 H         1 48S         0.0378
     35 H16         0.6657    9.4728   25.7106 H         1 48S         0.0540
@<TRIPOS>BOND
     1   14    1 1  
     2    2    3 ar 
     3    2    4 ar 
     4   11    2 1  
     5    3   19 ar 
     6    4    5 ar 
     7    5   17 ar 
     8    7    6 ar 
     9    7    8 ar 
    10    7    9 ar 
    11   10    7 1  
    12   11   10 1  
    13   12   11 1  
    14   13   12 1  
    15   13   14 am 
    16   13   16 2  
    17   14   15 1  
    18   17   18 1  
    19   17   19 ar 
    20    1   20 1  
    21    1   21 1  
    22    1   22 1  
    23    3   23 1  
    24    4   24 1  
    25    5   25 1  
    26   10   26 1  
    27   10   27 1  
    28   11   28 1  
    29   12   29 1  
    30   12   30 1  
    31   15   31 1  
    32   18   32 1  
    33   18   33 1  
    34   18   34 1  
    35   19   35 1  
@<TRIPOS>SUBSTRUCTURE
     1 48S         1

