4y6s_ligand
  -I-interpret- 

 37 37  0  0  0  0  0  0  0  0999 V2000
    3.4690   10.9700   19.2250 C   0  0  0  0  0
    0.4280   11.6200   23.0800 C   0  0  0  0  0
    0.9630   10.9720   24.1940 C   0  0  0  0  0
   -0.8050   11.2230   22.5920 C   0  0  0  0  0
   -1.5210   10.2140   23.2310 C   0  0  0  0  0
   -1.7490   14.1240   22.7670 O   0  0  0  0  0
   -0.5550   14.7350   22.0820 P   0  0  0  0  0
   -1.0330   15.6940   21.0100 O   0  0  0  0  0
    0.2780   15.5000   23.0780 O   0  0  0  0  0
    0.4240   13.4350   21.3260 C   0  0  0  0  0
    1.2130   12.6560   22.3740 C   0  0  0  0  0
    2.2570   11.8360   21.6270 C   0  0  0  0  0
    3.3280   12.6620   20.9670 C   0  0  0  0  0
    3.8920   12.2260   19.8370 N   0  0  0  0  0
    4.8920   12.9580   19.2090 O   0  0  0  0  0
    3.6770   13.7040   21.4850 O   0  0  0  0  0
   -0.9980    9.5810   24.3550 C   0  0  0  0  0
   -1.7800    8.4910   25.0390 C   0  0  0  0  0
    0.2490    9.9610   24.8370 C   0  0  0  0  0
    3.6352   10.1518   19.9257 H   0  0  0  0  0
    2.4094   11.0274   18.9761 H   0  0  0  0  0
    4.0477   10.7963   18.3178 H   0  0  0  0  0
    1.9472   11.2583   24.5648 H   0  0  0  0  0
   -1.2171   11.7021   21.7039 H   0  0  0  0  0
   -2.4977    9.9178   22.8484 H   0  0  0  0  0
   -0.2743   16.0855   20.5711 H   0  0  0  0  0
    1.0356   15.8849   22.6313 H   0  0  0  0  0
    1.1276   13.8906   20.6293 H   0  0  0  0  0
   -0.2486   12.7463   20.8148 H   0  0  0  0  0
    1.5812   13.3956   23.0850 H   0  0  0  0  0
    1.7369   11.2920   20.8386 H   0  0  0  0  0
    2.7485   11.1950   22.3589 H   0  0  0  0  0
    5.1764   12.4954   18.4173 H   0  0  0  0  0
   -2.7344    8.8906   25.3817 H   0  0  0  0  0
   -1.9569    7.6767   24.3363 H   0  0  0  0  0
   -1.2128    8.1194   25.8924 H   0  0  0  0  0
    0.6680    9.4701   25.7154 H   0  0  0  0  0
 14  1  1  0  0  0
  2  3  4  0  0  0
  2  4  4  0  0  0
 11  2  1  0  0  0
  3 19  4  0  0  0
  4  5  4  0  0  0
  5 17  4  0  0  0
  7  6  2  0  0  0
  7  8  1  0  0  0
  7  9  1  0  0  0
 10  7  1  0  0  0
 11 10  1  0  0  0
 12 11  1  0  0  0
 13 12  1  0  0  0
 13 14  1  0  0  0
 13 16  2  0  0  0
 14 15  1  0  0  0
 17 18  1  0  0  0
 17 19  4  0  0  0
  1 20  1  0  0  0
  1 21  1  0  0  0
  1 22  1  0  0  0
  3 23  1  0  0  0
  4 24  1  0  0  0
  5 25  1  0  0  0
  8 26  1  0  0  0
  9 27  1  0  0  0
 10 28  1  0  0  0
 10 29  1  0  0  0
 11 30  1  0  0  0
 12 31  1  0  0  0
 12 32  1  0  0  0
 15 33  1  0  0  0
 18 34  1  0  0  0
 18 35  1  0  0  0
 18 36  1  0  0  0
 19 37  1  0  0  0
M  END
$$$$
