5aqo_ligand
  -I-interpret- 

 21 22  0  0  0  0  0  0  0  0999 V2000
  200.2780   -5.9990    0.8700 N   0  0  0  0  0
  200.3990   -4.7440    1.2580 C   0  0  0  0  0
  201.1620   -4.2520    2.2380 N   0  0  0  0  0
  201.9090   -5.1050    2.9340 C   0  0  0  0  0
  202.6290   -7.5180    3.2970 C   0  0  0  0  0
  202.5420   -8.8430    2.9410 C   0  0  0  0  0
  201.6960   -9.1920    1.8920 C   0  0  0  0  0
  200.9630   -8.2620    1.2190 C   0  0  0  0  0
  201.8890   -6.5190    2.6300 C   0  0  0  0  0
  201.0360   -6.8990    1.5680 C   0  0  0  0  0
  203.3440   -9.8980    3.6630 C   0  0  0  0  0
  202.6730   -4.6230    3.9240 N   0  0  0  0  0
  199.8007   -4.0164    0.7096 H   0  0  0  0  0
  203.2876   -7.2315    4.1169 H   0  0  0  0  0
  201.6180  -10.2395    1.6009 H   0  0  0  0  0
  200.3132   -8.5755    0.4019 H   0  0  0  0  0
  204.4066   -9.6776    3.5614 H   0  0  0  0  0
  203.0715   -9.9008    4.7184 H   0  0  0  0  0
  203.1311  -10.8749    3.2289 H   0  0  0  0  0
  202.6723   -3.6237    4.1284 H   0  0  0  0  0
  203.2552   -5.2555    4.4731 H   0  0  0  0  0
  2  1  4  0  0  0
  1 10  4  0  0  0
  3  2  4  0  0  0
  4  3  4  0  0  0
  9  4  4  0  0  0
  4 12  1  0  0  0
  5  6  4  0  0  0
  5  9  4  0  0  0
  6  7  4  0  0  0
  6 11  1  0  0  0
  7  8  4  0  0  0
  8 10  4  0  0  0
  9 10  4  0  0  0
  2 13  1  0  0  0
  5 14  1  0  0  0
  7 15  1  0  0  0
  8 16  1  0  0  0
 11 17  1  0  0  0
 11 18  1  0  0  0
 11 19  1  0  0  0
 12 20  1  0  0  0
 12 21  1  0  0  0
M  END
$$$$
