### 
### Created by X-TOOL on Mon Sep 10 21:13:25 2018
### 

@<TRIPOS>MOLECULE
2mps_ligand
  234   238     1     0     0
SMALL
GAST_HUCK


@<TRIPOS>ATOM
      1 N          61.0240    0.1560    9.3120 N.4       1 ASP         0.2391
      2 CA         60.0600   -0.5230   10.2040 C.3       1 ASP         0.0764
      3 C          60.7560   -1.2690   11.3240 C.2       1 ASP         0.2282
      4 O          60.1200   -1.9740   12.1130 O.2       1 ASP        -0.3906
      5 CB         59.1350   -1.4580    9.4340 C.3       1 ASP         0.0607
      6 CG         59.8820   -2.4760    8.6330 C.2       1 ASP         0.0425
      7 OD1        60.2930   -3.5050    9.1680 O.co2     1 ASP        -0.5686
      8 OD2        60.0660   -2.2670    7.4260 O.co2     1 ASP        -0.5686
      9 N          62.0400   -1.1130   11.4010 N.am      1 GLY        -0.2636
     10 CA         62.7920   -1.6990   12.4530 C.3       1 GLY         0.1202
     11 C          63.6030   -2.8590   11.9810 C.2       1 GLY         0.2005
     12 O          64.6510   -2.6940   11.3360 O.2       1 GLY        -0.3947
     13 N          63.1130   -3.9990   12.2650 N.am      1 GLY        -0.2666
     14 CA         63.7600   -5.2310   11.9210 C.3       1 GLY         0.1201
     15 C          62.7730   -6.3440   12.0340 C.2       1 GLY         0.2008
     16 O          62.9210   -7.2570   12.8610 O.2       1 GLY        -0.3947
     17 N          61.7630   -6.2610   11.2280 N.am      1 THR        -0.2616
     18 CA         60.6690   -7.1710   11.2580 C.3       1 THR         0.1565
     19 C          61.0620   -8.5580   10.7290 C.2       1 THR         0.2065
     20 O          61.7900   -8.6800    9.7310 O.2       1 THR        -0.3943
     21 CB         59.4670   -6.5420   10.5270 C.3       1 THR         0.0924
     22 OG1        59.8810   -6.0260    9.2440 O.3       1 THR        -0.3874
     23 CG2        58.9250   -5.3910   11.3660 C.3       1 THR        -0.0346
     24 N          60.6220   -9.5920   11.4360 N.am      1 THR        -0.2613
     25 CA         61.0170  -10.9460   11.1230 C.3       1 THR         0.1565
     26 C          60.4560  -11.4180    9.7980 C.2       1 THR         0.2066
     27 O          59.2640  -11.1920    9.4810 O.2       1 THR        -0.3943
     28 CB         60.6700  -11.9680   12.2580 C.3       1 THR         0.0924
     29 OG1        61.1200  -13.2840   11.8940 O.3       1 THR        -0.3874
     30 CG2        59.1750  -12.0180   12.5480 C.3       1 THR        -0.0346
     31 N          61.3170  -12.1050    9.0380 N.am      1 PHE        -0.2619
     32 CA         60.9780  -12.6670    7.7430 C.3       1 PHE         0.1404
     33 C          59.8020  -13.6370    7.8690 C.2       1 PHE         0.2060
     34 O          58.9940  -13.7780    6.9610 O.2       1 PHE        -0.3942
     35 CB         62.2050  -13.3680    7.1250 C.3       1 PHE         0.0214
     36 CG         61.9510  -13.9620    5.7710 C.ar      1 PHE        -0.0386
     37 CD1        62.0520  -13.1860    4.6400 C.ar      1 PHE        -0.0601
     38 CD2        61.5990  -15.2940    5.6320 C.ar      1 PHE        -0.0601
     39 CE1        61.8070  -13.7200    3.4020 C.ar      1 PHE        -0.0686
     40 CE2        61.3540  -15.8310    4.3960 C.ar      1 PHE        -0.0686
     41 CZ         61.4580  -15.0390    3.2810 C.ar      1 PHE        -0.0687
     42 N          59.6870  -14.2400    9.0340 N.am      1 GLU        -0.2635
     43 CA         58.6620  -15.2180    9.3120 C.3       1 GLU         0.1325
     44 C          57.2640  -14.5930    9.2240 C.2       1 GLU         0.2041
     45 O          56.3250  -15.2050    8.7040 O.2       1 GLU        -0.3944
     46 CB         58.8850  -15.7820   10.7110 C.3       1 GLU        -0.0008
     47 CG         57.9170  -16.8750   11.1100 C.3       1 GLU         0.0044
     48 CD         58.1380  -17.3400   12.5170 C.2       1 GLU         0.0350
     49 OE1        58.9310  -18.2720   12.7280 O.co2     1 GLU        -0.5690
     50 OE2        57.5220  -16.7860   13.4370 O.co2     1 GLU        -0.5690
     51 N          57.1470  -13.3580    9.6620 N.am      1 HIS        -0.2619
     52 CA         55.8510  -12.7420    9.7700 C.3       1 HIS         0.1421
     53 C          55.5080  -11.9260    8.5420 C.2       1 HIS         0.2060
     54 O          54.4950  -12.1740    7.9110 O.2       1 HIS        -0.3942
     55 CB         55.7530  -11.8700   11.0330 C.3       1 HIS         0.0427
     56 CG         54.3870  -11.2700   11.2690 C.2       1 HIS         0.0561
     57 ND1        54.0860   -9.9500   11.0140 N.pl3     1 HIS        -0.2623
     58 CD2        53.2490  -11.8240   11.7480 C.2       1 HIS        -0.0276
     59 CE1        52.8330   -9.7130   11.3190 C.2       1 HIS         0.0875
     60 NE2        52.2940  -10.8330   11.7700 N.2       1 HIS        -0.3437
     61 N          56.3760  -11.0040    8.1760 N.am      1 LEU        -0.2636
     62 CA         56.0560  -10.0180    7.1290 C.3       1 LEU         0.1312
     63 C          55.8660  -10.6470    5.7400 C.2       1 LEU         0.2040
     64 O          55.2350  -10.0590    4.8600 O.2       1 LEU        -0.3944
     65 CB         57.0840   -8.8610    7.1270 C.3       1 LEU        -0.0101
     66 CG         58.4020   -8.9860    6.3290 C.3       1 LEU        -0.0425
     67 CD1        59.3360   -7.9120    6.7490 C.3       1 LEU        -0.0625
     68 CD2        59.0880  -10.2960    6.4950 C.3       1 LEU        -0.0625
     69 N          56.4000  -11.8340    5.5720 N.am      1 TRP        -0.2627
     70 CA         56.2760  -12.5690    4.3500 C.3       1 TRP         0.1352
     71 C          54.9640  -13.3420    4.3470 C.2       1 TRP         0.2052
     72 O          54.2070  -13.2910    3.4010 O.2       1 TRP        -0.3942
     73 CB         57.4850  -13.5010    4.1800 C.3       1 TRP         0.0042
     74 CG         57.3870  -14.4480    3.0280 C.2       1 TRP        -0.0418
     75 CD1        57.0220  -15.7410    3.0900 C.2       1 TRP         0.0167
     76 CD2        57.6520  -14.1790    1.6520 C.ar      1 TRP        -0.0214
     77 NE1        57.0360  -16.2990    1.8420 N.pl3     1 TRP        -0.2890
     78 CE2        57.4210  -15.3710    0.9430 C.ar      1 TRP         0.0603
     79 CE3        58.0570  -13.0600    0.9580 C.ar      1 TRP        -0.0747
     80 CZ2        57.5820  -15.4720   -0.4320 C.ar      1 TRP        -0.0443
     81 CZ3        58.2190  -13.1530   -0.4020 C.ar      1 TRP        -0.0792
     82 CH2        57.9840  -14.3510   -1.0890 C.ar      1 TRP        -0.0768
     83 N          54.6710  -13.9840    5.4540 N.am      1 SER        -0.2615
     84 CA         53.4890  -14.8130    5.5730 C.3       1 SER         0.1539
     85 C          52.2100  -13.9630    5.7340 C.2       1 SER         0.2062
     86 O          51.1120  -14.4690    5.6210 O.2       1 SER        -0.3943
     87 CB         53.6490  -15.7340    6.7810 C.3       1 SER         0.0843
     88 OG         54.8890  -16.4440    6.7350 O.3       1 SER        -0.3903
     89 N          52.3860  -12.6830    5.9820 N.am      1 SER        -0.2615
     90 CA         51.3040  -11.7610    6.2700 C.3       1 SER         0.1539
     91 C          51.1880  -10.6750    5.1970 C.2       1 SER         0.2062
     92 O          50.6020   -9.6000    5.4410 O.2       1 SER        -0.3943
     93 CB         51.5420  -11.1250    7.6360 C.3       1 SER         0.0843
     94 OG         51.6050  -12.1190    8.6550 O.3       1 SER        -0.3903
     95 N          51.7210  -10.9250    4.0150 N.am      1 LEU        -0.2636
     96 CA         51.7430   -9.8740    3.0260 C.3       1 LEU         0.1312
     97 C          50.5800   -9.9810    2.0660 C.2       1 LEU         0.2039
     98 O          50.4020   -9.1220    1.2220 O.2       1 LEU        -0.3944
     99 CB         53.1230   -9.7560    2.3070 C.3       1 LEU        -0.0101
    100 CG         53.6240  -10.9190    1.4240 C.3       1 LEU        -0.0425
    101 CD1        52.9140  -10.9630    0.0760 C.3       1 LEU        -0.0625
    102 CD2        55.1200  -10.8120    1.2200 C.3       1 LEU        -0.0625
    103 N          49.7610  -10.9930    2.2520 N.am      1 GLU        -0.2636
    104 CA         48.6500  -11.2520    1.3660 C.3       1 GLU         0.1327
    105 C          47.5420  -10.1990    1.5930 C.2       1 GLU         0.2065
    106 O          47.4670   -9.6130    2.6770 O.2       1 GLU        -0.3942
    107 CB         48.0880  -12.6720    1.5870 C.3       1 GLU        -0.0008
    108 CG         47.3380  -12.8550    2.8860 C.3       1 GLU         0.0044
    109 CD         48.1820  -13.0680    4.1020 C.2       1 GLU         0.0350
    110 OE1        48.5500  -12.0780    4.7490 O.co2     1 GLU        -0.5690
    111 OE2        48.4170  -14.2260    4.4720 O.co2     1 GLU        -0.5690
    112 N          46.6810   -9.9510    0.5920 N.am      1 PRO        -0.2498
    113 CA         45.6140   -8.9450    0.6880 C.3       1 PRO         0.1337
    114 C          44.6820   -9.1650    1.8730 C.2       1 PRO         0.2036
    115 O          44.7210   -8.4020    2.8450 O.2       1 PRO        -0.3944
    116 CB         44.8620   -9.0470   -0.6480 C.3       1 PRO        -0.0104
    117 CG         45.3510  -10.3020   -1.2970 C.3       1 PRO        -0.0281
    118 CD         46.7050  -10.6070   -0.7150 C.3       1 PRO         0.0369
    119 N          43.9050  -10.2140    1.8280 N.am      1 ASP        -0.2679
    120 CA         42.9660  -10.5060    2.8760 C.3       1 ASP         0.1057
    121 C          42.6000  -11.9470    2.8240 C.2       1 ASP         0.0618
    122 O          42.0580  -12.3830    1.7970 O.co2     1 ASP        -0.5665
    123 CB         41.7180   -9.6360    2.7790 C.3       1 ASP         0.0351
    124 CG         40.6700  -10.0130    3.8160 C.2       1 ASP         0.0387
    125 OD1        40.7880   -9.5590    4.9770 O.co2     1 ASP        -0.5688
    126 OD2        39.7230  -10.7570    3.4960 O.co2     1 ASP        -0.5688
    127 OXT        42.8670  -12.6730    3.7910 O.co2     1 ASP        -0.5665
    128 H1         60.5238    0.6393    8.5824 H         1 ASP         0.2016
    129 H2         61.6403   -0.5275    8.9008 H         1 ASP         0.2016
    130 H3         61.5651    0.8191    9.8445 H         1 ASP         0.2016
    131 H4         59.4351    0.2569   10.6635 H         1 ASP         0.1117
    132 H5         58.5163   -0.8574    8.7510 H         1 ASP         0.0512
    133 H6         58.4864   -1.9815   10.1518 H         1 ASP         0.0512
    134 H7         62.5104   -0.5693   10.7059 H         1 GLY         0.1882
    135 H8         62.0997   -2.0444   13.2349 H         1 GLY         0.0763
    136 H9         63.4686   -0.9395   12.8717 H         1 GLY         0.0763
    137 H10        62.2388   -4.0367   12.7491 H         1 GLY         0.1881
    138 H11        64.5998   -5.4113   12.6081 H         1 GLY         0.0763
    139 H12        64.1362   -5.1747   10.8889 H         1 GLY         0.0763
    140 H13        61.7511   -5.5232   10.5531 H         1 THR         0.1884
    141 H14        60.3765   -7.3053   12.3098 H         1 THR         0.0826
    142 H15        58.6839   -7.3012   10.3844 H         1 THR         0.0639
    143 H16        60.5504   -5.3640    9.3712 H         1 THR         0.2101
    144 H17        58.0659   -4.9353   10.8518 H         1 THR         0.0257
    145 H18        59.7124   -4.6355   11.5043 H         1 THR         0.0257
    146 H19        58.6053   -5.7714   12.3474 H         1 THR         0.0257
    147 H20        60.0022   -9.4297   12.2038 H         1 THR         0.1884
    148 H21        62.1126  -10.9373   11.0248 H         1 THR         0.0826
    149 H22        61.1919  -11.6548   13.1742 H         1 THR         0.0639
    150 H23        60.9044  -13.8947   12.5890 H         1 THR         0.2101
    151 H24        58.9810  -12.7467   13.3488 H         1 THR         0.0257
    152 H25        58.6350  -12.3202   11.6386 H         1 THR         0.0257
    153 H26        58.8297  -11.0232   12.8660 H         1 THR         0.0257
    154 H27        62.2466  -12.2388    9.3815 H         1 PHE         0.1885
    155 H28        60.6773  -11.8453    7.0764 H         1 PHE         0.0823
    156 H29        62.5203  -14.1748    7.8029 H         1 PHE         0.0474
    157 H30        63.0149  -12.6295    7.0322 H         1 PHE         0.0474
    158 H31        62.3282  -12.1415    4.7288 H         1 PHE         0.0557
    159 H32        61.5162  -15.9201    6.5131 H         1 PHE         0.0557
    160 H33        61.8894  -13.0982    2.5179 H         1 PHE         0.0599
    161 H34        61.0797  -16.8753    4.2996 H         1 PHE         0.0599
    162 H35        61.2633  -15.4584    2.3006 H         1 PHE         0.0559
    163 H36        60.3379  -14.0105    9.7576 H         1 GLU         0.1883
    164 H37        58.7344  -16.0322    8.5760 H         1 GLU         0.0801
    165 H38        58.7886  -14.9577   11.4329 H         1 GLU         0.0330
    166 H39        59.9044  -16.1926   10.7572 H         1 GLU         0.0330
    167 H40        58.0474  -17.7296   10.4298 H         1 GLU         0.0433
    168 H41        56.8907  -16.4892   11.0214 H         1 GLU         0.0433
    169 H42        57.9644  -12.8437    9.9217 H         1 HIS         0.1885
    170 H43        55.1067  -13.5473    9.8564 H         1 HIS         0.0824
    171 H44        56.4790  -11.0487   10.9419 H         1 HIS         0.0491
    172 H45        56.0108  -12.4926   11.9025 H         1 HIS         0.0491
    173 H46        54.7463   -9.2537   10.6398 H         1 HIS         0.2386
    174 H47        53.1142  -12.8593   12.0578 H         1 HIS         0.0324
    175 H48        52.3229   -8.7562   11.2180 H         1 HIS         0.1149
    176 H49        57.2720  -10.9730    8.6190 H         1 LEU         0.1883
    177 H50        55.0858   -9.5766    7.4007 H         1 LEU         0.0800
    178 H51        57.3657   -8.6874    8.1760 H         1 LEU         0.0315
    179 H52        56.5615   -7.9754    6.7363 H         1 LEU         0.0315
    180 H53        58.1647   -8.8577    5.2626 H         1 LEU         0.0298
    181 H54        60.2744   -7.9997    6.1819 H         1 LEU         0.0232
    182 H55        59.5469   -8.0092    7.8242 H         1 LEU         0.0232
    183 H56        58.8790   -6.9310    6.5522 H         1 LEU         0.0232
    184 H57        58.4103  -11.1063    6.1881 H         1 LEU         0.0232
    185 H58        59.3682  -10.4321    7.5500 H         1 LEU         0.0232
    186 H59        59.9926  -10.3181    5.8696 H         1 LEU         0.0232
    187 H60        56.9137  -12.2409    6.3273 H         1 TRP         0.1884
    188 H61        56.2634  -11.8598    3.5093 H         1 TRP         0.0815
    189 H62        57.5939  -14.0923    5.1011 H         1 TRP         0.0397
    190 H63        58.3801  -12.8781    4.0361 H         1 TRP         0.0397
    191 H64        56.7535  -16.2684    4.0042 H         1 TRP         0.0795
    192 H65        56.7909  -17.2751    1.6230 H         1 TRP         0.2216
    193 H66        58.2438  -12.1257    1.4750 H         1 TRP         0.0540
    194 H67        57.3959  -16.4014   -0.9579 H         1 TRP         0.0541
    195 H68        58.5365  -12.2782   -0.9578 H         1 TRP         0.0510
    196 H69        58.1250  -14.3852   -2.1632 H         1 TRP         0.0530
    197 H70        55.2832  -13.8980    6.2400 H         1 SER         0.1884
    198 H71        53.3924  -15.4240    4.6634 H         1 SER         0.0823
    199 H72        52.8217  -16.4589    6.7905 H         1 SER         0.0606
    200 H73        53.6169  -15.1290    7.6991 H         1 SER         0.0606
    201 H74        55.6081  -15.8232    6.7312 H         1 SER         0.2097
    202 H75        53.3197  -12.3251    5.9713 H         1 SER         0.1884
    203 H76        50.3598  -12.3246    6.2981 H         1 SER         0.0823
    204 H77        50.7175  -10.4320    7.8593 H         1 SER         0.0606
    205 H78        52.4917  -10.5703    7.6146 H         1 SER         0.0606
    206 H79        52.3182  -12.7181    8.4678 H         1 SER         0.2097
    207 H80        52.1025  -11.8261    3.8089 H         1 LEU         0.1883
    208 H81        51.6034   -8.9305    3.5740 H         1 LEU         0.0800
    209 H82        53.8794   -9.6009    3.0905 H         1 LEU         0.0315
    210 H83        53.0731   -8.8650    1.6639 H         1 LEU         0.0315
    211 H84        53.4121  -11.8611    1.9508 H         1 LEU         0.0298
    212 H85        53.3028  -11.8047   -0.5159 H         1 LEU         0.0232
    213 H86        53.0933  -10.0215   -0.4638 H         1 LEU         0.0232
    214 H87        51.8335  -11.0946    0.2348 H         1 LEU         0.0232
    215 H88        55.6221  -10.7810    2.1982 H         1 LEU         0.0232
    216 H89        55.3490   -9.8927    0.6610 H         1 LEU         0.0232
    217 H90        55.4761  -11.6845    0.6526 H         1 LEU         0.0232
    218 H91        49.9120  -11.6019    3.0307 H         1 GLU         0.1883
    219 H92        49.0041  -11.1742    0.3275 H         1 GLU         0.0801
    220 H93        48.9295  -13.3803    1.5737 H         1 GLU         0.0330
    221 H94        47.4016  -12.9024    0.7589 H         1 GLU         0.0330
    222 H95        46.6798  -13.7293    2.7751 H         1 GLU         0.0433
    223 H96        46.7276  -11.9552    3.0526 H         1 GLU         0.0433
    224 H97        46.0621   -7.9453    0.7874 H         1 PRO         0.0802
    225 H98        45.0865   -8.1760   -1.2812 H         1 PRO         0.0313
    226 H99        43.7774   -9.1037   -0.4735 H         1 PRO         0.0313
    227 H100       45.4325  -10.1567   -2.3843 H         1 PRO         0.0287
    228 H101       44.6565  -11.1291   -1.0886 H         1 PRO         0.0287
    229 H102       46.8488  -11.6921   -0.6059 H         1 PRO         0.0524
    230 H103       47.5048  -10.1927   -1.3464 H         1 PRO         0.0524
    231 H104       43.9652  -10.8306    1.0430 H         1 ASP         0.1876
    232 H105       43.4511  -10.3017    3.8418 H         1 ASP         0.0745
    233 H106       41.2817   -9.7536    1.7761 H         1 ASP         0.0471
    234 H107       42.0060   -8.5856    2.9327 H         1 ASP         0.0471
@<TRIPOS>BOND
     1    1    2 1  
     2    2    3 1  
     3    2    5 1  
     4    3    4 2  
     5    3    9 am 
     6    5    6 1  
     7    6    7 ar 
     8    6    8 ar 
     9    9   10 1  
    10   10   11 1  
    11   11   12 2  
    12   11   13 am 
    13   13   14 1  
    14   14   15 1  
    15   15   16 2  
    16   15   17 am 
    17   17   18 1  
    18   18   19 1  
    19   18   21 1  
    20   19   20 2  
    21   19   24 am 
    22   21   22 1  
    23   21   23 1  
    24   24   25 1  
    25   25   26 1  
    26   25   28 1  
    27   26   27 2  
    28   26   31 am 
    29   28   29 1  
    30   28   30 1  
    31   31   32 1  
    32   32   33 1  
    33   32   35 1  
    34   33   34 2  
    35   33   42 am 
    36   35   36 1  
    37   36   37 ar 
    38   36   38 ar 
    39   37   39 ar 
    40   38   40 ar 
    41   39   41 ar 
    42   40   41 ar 
    43   42   43 1  
    44   43   44 1  
    45   43   46 1  
    46   44   45 2  
    47   44   51 am 
    48   46   47 1  
    49   47   48 1  
    50   48   49 ar 
    51   48   50 ar 
    52   51   52 1  
    53   52   53 1  
    54   52   55 1  
    55   53   54 2  
    56   53   61 am 
    57   55   56 1  
    58   56   57 1  
    59   56   58 2  
    60   57   59 1  
    61   58   60 1  
    62   59   60 2  
    63   61   62 1  
    64   62   63 1  
    65   62   65 1  
    66   63   64 2  
    67   63   69 am 
    68   65   66 1  
    69   66   67 1  
    70   66   68 1  
    71   69   70 1  
    72   70   71 1  
    73   70   73 1  
    74   71   72 2  
    75   71   83 am 
    76   73   74 1  
    77   74   75 2  
    78   74   76 1  
    79   75   77 1  
    80   76   78 ar 
    81   76   79 ar 
    82   77   78 1  
    83   78   80 ar 
    84   79   81 ar 
    85   80   82 ar 
    86   81   82 ar 
    87   83   84 1  
    88   84   85 1  
    89   84   87 1  
    90   85   86 2  
    91   85   89 am 
    92   87   88 1  
    93   89   90 1  
    94   90   91 1  
    95   90   93 1  
    96   91   92 2  
    97   91   95 am 
    98   93   94 1  
    99   95   96 1  
   100   96   97 1  
   101   96   99 1  
   102   97   98 2  
   103   97  103 am 
   104   99  100 1  
   105  100  101 1  
   106  100  102 1  
   107  103  104 1  
   108  104  105 1  
   109  104  107 1  
   110  105  106 2  
   111  105  112 am 
   112  107  108 1  
   113  108  109 1  
   114  109  110 ar 
   115  109  111 ar 
   116  112  113 1  
   117  112  118 1  
   118  113  114 1  
   119  113  116 1  
   120  114  115 2  
   121  114  119 am 
   122  116  117 1  
   123  117  118 1  
   124  119  120 1  
   125  120  121 1  
   126  120  123 1  
   127  121  122 ar 
   128  121  127 ar 
   129  123  124 1  
   130  124  125 ar 
   131  124  126 ar 
   132    1  128 1  
   133    1  129 1  
   134    1  130 1  
   135    2  131 1  
   136    5  132 1  
   137    5  133 1  
   138    9  134 1  
   139   10  135 1  
   140   10  136 1  
   141   13  137 1  
   142   14  138 1  
   143   14  139 1  
   144   17  140 1  
   145   18  141 1  
   146   21  142 1  
   147   22  143 1  
   148   23  144 1  
   149   23  145 1  
   150   23  146 1  
   151   24  147 1  
   152   25  148 1  
   153   28  149 1  
   154   29  150 1  
   155   30  151 1  
   156   30  152 1  
   157   30  153 1  
   158   31  154 1  
   159   32  155 1  
   160   35  156 1  
   161   35  157 1  
   162   37  158 1  
   163   38  159 1  
   164   39  160 1  
   165   40  161 1  
   166   41  162 1  
   167   42  163 1  
   168   43  164 1  
   169   46  165 1  
   170   46  166 1  
   171   47  167 1  
   172   47  168 1  
   173   51  169 1  
   174   52  170 1  
   175   55  171 1  
   176   55  172 1  
   177   57  173 1  
   178   58  174 1  
   179   59  175 1  
   180   61  176 1  
   181   62  177 1  
   182   65  178 1  
   183   65  179 1  
   184   66  180 1  
   185   67  181 1  
   186   67  182 1  
   187   67  183 1  
   188   68  184 1  
   189   68  185 1  
   190   68  186 1  
   191   69  187 1  
   192   70  188 1  
   193   73  189 1  
   194   73  190 1  
   195   75  191 1  
   196   77  192 1  
   197   79  193 1  
   198   80  194 1  
   199   81  195 1  
   200   82  196 1  
   201   83  197 1  
   202   84  198 1  
   203   87  199 1  
   204   87  200 1  
   205   88  201 1  
   206   89  202 1  
   207   90  203 1  
   208   93  204 1  
   209   93  205 1  
   210   94  206 1  
   211   95  207 1  
   212   96  208 1  
   213   99  209 1  
   214   99  210 1  
   215  100  211 1  
   216  101  212 1  
   217  101  213 1  
   218  101  214 1  
   219  102  215 1  
   220  102  216 1  
   221  102  217 1  
   222  103  218 1  
   223  104  219 1  
   224  107  220 1  
   225  107  221 1  
   226  108  222 1  
   227  108  223 1  
   228  113  224 1  
   229  116  225 1  
   230  116  226 1  
   231  117  227 1  
   232  117  228 1  
   233  118  229 1  
   234  118  230 1  
   235  119  231 1  
   236  120  232 1  
   237  123  233 1  
   238  123  234 1  
@<TRIPOS>SUBSTRUCTURE
     1 ASP         1

