2mps_ligand
  -I-interpret- 

237241  0  0  0  0  0  0  0  0999 V2000
   61.0240    0.1560    9.3120 N   0  3  0  0  0
   60.0600   -0.5230   10.2040 C   0  0  0  0  0
   60.7560   -1.2690   11.3240 C   0  0  0  0  0
   60.1200   -1.9740   12.1130 O   0  0  0  0  0
   59.1350   -1.4580    9.4340 C   0  0  0  0  0
   59.8820   -2.4760    8.6330 C   0  0  0  0  0
   60.2930   -3.5050    9.1680 O   0  0  0  0  0
   60.0660   -2.2670    7.4260 O   0  0  0  0  0
   62.0400   -1.1130   11.4010 N   0  0  0  0  0
   62.7920   -1.6990   12.4530 C   0  0  0  0  0
   63.6030   -2.8590   11.9810 C   0  0  0  0  0
   64.6510   -2.6940   11.3360 O   0  0  0  0  0
   63.1130   -3.9990   12.2650 N   0  0  0  0  0
   63.7600   -5.2310   11.9210 C   0  0  0  0  0
   62.7730   -6.3440   12.0340 C   0  0  0  0  0
   62.9210   -7.2570   12.8610 O   0  0  0  0  0
   61.7630   -6.2610   11.2280 N   0  0  0  0  0
   60.6690   -7.1710   11.2580 C   0  0  0  0  0
   61.0620   -8.5580   10.7290 C   0  0  0  0  0
   61.7900   -8.6800    9.7310 O   0  0  0  0  0
   59.4670   -6.5420   10.5270 C   0  0  0  0  0
   59.8810   -6.0260    9.2440 O   0  0  0  0  0
   58.9250   -5.3910   11.3660 C   0  0  0  0  0
   60.6220   -9.5920   11.4360 N   0  0  0  0  0
   61.0170  -10.9460   11.1230 C   0  0  0  0  0
   60.4560  -11.4180    9.7980 C   0  0  0  0  0
   59.2640  -11.1920    9.4810 O   0  0  0  0  0
   60.6700  -11.9680   12.2580 C   0  0  0  0  0
   61.1200  -13.2840   11.8940 O   0  0  0  0  0
   59.1750  -12.0180   12.5480 C   0  0  0  0  0
   61.3170  -12.1050    9.0380 N   0  0  0  0  0
   60.9780  -12.6670    7.7430 C   0  0  0  0  0
   59.8020  -13.6370    7.8690 C   0  0  0  0  0
   58.9940  -13.7780    6.9610 O   0  0  0  0  0
   62.2050  -13.3680    7.1250 C   0  0  0  0  0
   61.9510  -13.9620    5.7710 C   0  0  0  0  0
   62.0520  -13.1860    4.6400 C   0  0  0  0  0
   61.5990  -15.2940    5.6320 C   0  0  0  0  0
   61.8070  -13.7200    3.4020 C   0  0  0  0  0
   61.3540  -15.8310    4.3960 C   0  0  0  0  0
   61.4580  -15.0390    3.2810 C   0  0  0  0  0
   59.6870  -14.2400    9.0340 N   0  0  0  0  0
   58.6620  -15.2180    9.3120 C   0  0  0  0  0
   57.2640  -14.5930    9.2240 C   0  0  0  0  0
   56.3250  -15.2050    8.7040 O   0  0  0  0  0
   58.8850  -15.7820   10.7110 C   0  0  0  0  0
   57.9170  -16.8750   11.1100 C   0  0  0  0  0
   58.1380  -17.3400   12.5170 C   0  0  0  0  0
   58.9310  -18.2720   12.7280 O   0  0  0  0  0
   57.5220  -16.7860   13.4370 O   0  0  0  0  0
   57.1470  -13.3580    9.6620 N   0  0  0  0  0
   55.8510  -12.7420    9.7700 C   0  0  0  0  0
   55.5080  -11.9260    8.5420 C   0  0  0  0  0
   54.4950  -12.1740    7.9110 O   0  0  0  0  0
   55.7530  -11.8700   11.0330 C   0  0  0  0  0
   54.3870  -11.2700   11.2690 C   0  0  0  0  0
   54.0860   -9.9500   11.0140 N   0  0  0  0  0
   53.2490  -11.8240   11.7480 C   0  0  0  0  0
   52.8330   -9.7130   11.3190 C   0  0  0  0  0
   52.2940  -10.8330   11.7700 N   0  0  0  0  0
   56.3760  -11.0040    8.1760 N   0  0  0  0  0
   56.0560  -10.0180    7.1290 C   0  0  0  0  0
   55.8660  -10.6470    5.7400 C   0  0  0  0  0
   55.2350  -10.0590    4.8600 O   0  0  0  0  0
   57.0840   -8.8610    7.1270 C   0  0  0  0  0
   58.4020   -8.9860    6.3290 C   0  0  0  0  0
   59.3360   -7.9120    6.7490 C   0  0  0  0  0
   59.0880  -10.2960    6.4950 C   0  0  0  0  0
   56.4000  -11.8340    5.5720 N   0  0  0  0  0
   56.2760  -12.5690    4.3500 C   0  0  0  0  0
   54.9640  -13.3420    4.3470 C   0  0  0  0  0
   54.2070  -13.2910    3.4010 O   0  0  0  0  0
   57.4850  -13.5010    4.1800 C   0  0  0  0  0
   57.3870  -14.4480    3.0280 C   0  0  0  0  0
   57.0220  -15.7410    3.0900 C   0  0  0  0  0
   57.6520  -14.1790    1.6520 C   0  0  0  0  0
   57.0360  -16.2990    1.8420 N   0  0  0  0  0
   57.4210  -15.3710    0.9430 C   0  0  0  0  0
   58.0570  -13.0600    0.9580 C   0  0  0  0  0
   57.5820  -15.4720   -0.4320 C   0  0  0  0  0
   58.2190  -13.1530   -0.4020 C   0  0  0  0  0
   57.9840  -14.3510   -1.0890 C   0  0  0  0  0
   54.6710  -13.9840    5.4540 N   0  0  0  0  0
   53.4890  -14.8130    5.5730 C   0  0  0  0  0
   52.2100  -13.9630    5.7340 C   0  0  0  0  0
   51.1120  -14.4690    5.6210 O   0  0  0  0  0
   53.6490  -15.7340    6.7810 C   0  0  0  0  0
   54.8890  -16.4440    6.7350 O   0  0  0  0  0
   52.3860  -12.6830    5.9820 N   0  0  0  0  0
   51.3040  -11.7610    6.2700 C   0  0  0  0  0
   51.1880  -10.6750    5.1970 C   0  0  0  0  0
   50.6020   -9.6000    5.4410 O   0  0  0  0  0
   51.5420  -11.1250    7.6360 C   0  0  0  0  0
   51.6050  -12.1190    8.6550 O   0  0  0  0  0
   51.7210  -10.9250    4.0150 N   0  0  0  0  0
   51.7430   -9.8740    3.0260 C   0  0  0  0  0
   50.5800   -9.9810    2.0660 C   0  0  0  0  0
   50.4020   -9.1220    1.2220 O   0  0  0  0  0
   53.1230   -9.7560    2.3070 C   0  0  0  0  0
   53.6240  -10.9190    1.4240 C   0  0  0  0  0
   52.9140  -10.9630    0.0760 C   0  0  0  0  0
   55.1200  -10.8120    1.2200 C   0  0  0  0  0
   49.7610  -10.9930    2.2520 N   0  0  0  0  0
   48.6500  -11.2520    1.3660 C   0  0  0  0  0
   47.5420  -10.1990    1.5930 C   0  0  0  0  0
   47.4670   -9.6130    2.6770 O   0  0  0  0  0
   48.0880  -12.6720    1.5870 C   0  0  0  0  0
   47.3380  -12.8550    2.8860 C   0  0  0  0  0
   48.1820  -13.0680    4.1020 C   0  0  0  0  0
   48.5500  -12.0780    4.7490 O   0  0  0  0  0
   48.4170  -14.2260    4.4720 O   0  0  0  0  0
   46.6810   -9.9510    0.5920 N   0  0  0  0  0
   45.6140   -8.9450    0.6880 C   0  0  0  0  0
   44.6820   -9.1650    1.8730 C   0  0  0  0  0
   44.7210   -8.4020    2.8450 O   0  0  0  0  0
   44.8620   -9.0470   -0.6480 C   0  0  0  0  0
   45.3510  -10.3020   -1.2970 C   0  0  0  0  0
   46.7050  -10.6070   -0.7150 C   0  0  0  0  0
   43.9050  -10.2140    1.8280 N   0  0  0  0  0
   42.9660  -10.5060    2.8760 C   0  0  0  0  0
   42.6000  -11.9470    2.8240 C   0  0  0  0  0
   42.0580  -12.3830    1.7970 O   0  0  0  0  0
   41.7180   -9.6360    2.7790 C   0  0  0  0  0
   40.6700  -10.0130    3.8160 C   0  0  0  0  0
   40.7880   -9.5590    4.9770 O   0  0  0  0  0
   39.7230  -10.7570    3.4960 O   0  0  0  0  0
   42.8670  -12.6730    3.7910 O   0  0  0  0  0
   61.6222    0.7702    9.8645 H   0  0  0  0  0
   61.5969   -0.5423    8.8380 H   0  0  0  0  0
   60.5156    0.7068    8.6203 H   0  0  0  0  0
   59.4487    0.2606   10.6515 H   0  0  0  0  0
   58.5470   -0.8537    8.7432 H   0  0  0  0  0
   58.5169   -1.9890   10.1580 H   0  0  0  0  0
   59.6796   -1.4215    7.1863 H   0  0  0  0  0
   62.5198   -0.5584   10.6920 H   0  0  0  0  0
   62.0958   -2.0560   13.2119 H   0  0  0  0  0
   63.4731   -0.9445   12.8466 H   0  0  0  0  0
   62.2213   -4.0375   12.7588 H   0  0  0  0  0
   64.5955   -5.4096   12.5979 H   0  0  0  0  0
   64.1376   -5.1760   10.9000 H   0  0  0  0  0
   61.7508   -5.5085   10.5396 H   0  0  0  0  0
   60.3683   -7.3484   12.2906 H   0  0  0  0  0
   58.6997   -7.3022   10.3802 H   0  0  0  0  0
   59.1252   -5.6369    8.7978 H   0  0  0  0  0
   58.6086   -5.7692   12.3381 H   0  0  0  0  0
   59.7062   -4.6432   11.5023 H   0  0  0  0  0
   58.0739   -4.9403   10.8555 H   0  0  0  0  0
   59.9898   -9.4265   12.2191 H   0  0  0  0  0
   62.1033  -10.9121   11.0398 H   0  0  0  0  0
   61.1811  -11.6296   13.1593 H   0  0  0  0  0
   60.9021  -13.9011   12.5963 H   0  0  0  0  0
   58.8341  -11.0317   12.8629 H   0  0  0  0  0
   58.6411  -12.3175   11.6462 H   0  0  0  0  0
   58.9841  -12.7404   13.3416 H   0  0  0  0  0
   62.2651  -12.2415    9.3884 H   0  0  0  0  0
   60.6772  -11.8560    7.0798 H   0  0  0  0  0
   62.4791  -14.1864    7.7908 H   0  0  0  0  0
   62.9826  -12.6134    7.0063 H   0  0  0  0  0
   62.3297  -12.1358    4.7293 H   0  0  0  0  0
   61.5158  -15.9235    6.5179 H   0  0  0  0  0
   61.8899  -13.0948    2.5130 H   0  0  0  0  0
   61.0781  -16.8811    4.2991 H   0  0  0  0  0
   61.2622  -15.4607    2.2951 H   0  0  0  0  0
   60.3510  -14.0059    9.7721 H   0  0  0  0  0
   58.7234  -16.0134    8.5693 H   0  0  0  0  0
   58.7436  -14.9596   11.4123 H   0  0  0  0  0
   59.8829  -16.2204   10.7224 H   0  0  0  0  0
   58.0705  -17.7240   10.4439 H   0  0  0  0  0
   56.9056  -16.4748   11.0398 H   0  0  0  0  0
   59.3060  -18.5664   11.8948 H   0  0  0  0  0
   57.9807  -12.8335    9.9269 H   0  0  0  0  0
   55.1236  -13.5501    9.8475 H   0  0  0  0  0
   56.4498  -11.0415   10.9058 H   0  0  0  0  0
   55.9725  -12.5134   11.8850 H   0  0  0  0  0
   53.1140  -12.8602   12.0581 H   0  0  0  0  0
   52.3224   -8.7553   11.2179 H   0  0  0  0  0
   57.2899  -10.9724    8.6278 H   0  0  0  0  0
   55.0837   -9.5933    7.3787 H   0  0  0  0  0
   57.4048   -8.7845    8.1659 H   0  0  0  0  0
   56.5578   -8.0345    6.6494 H   0  0  0  0  0
   58.1276   -8.8985    5.2777 H   0  0  0  0  0
   58.8820   -6.9405    6.5535 H   0  0  0  0  0
   59.5441   -8.0094    7.8145 H   0  0  0  0  0
   60.2654   -8.0000    6.1864 H   0  0  0  0  0
   59.3324  -10.4460    7.5466 H   0  0  0  0  0
   58.4289  -11.0953    6.1562 H   0  0  0  0  0
   60.0034  -10.3028    5.9034 H   0  0  0  0  0
   56.9239  -12.2491    6.3424 H   0  0  0  0  0
   56.2621  -11.8825    3.5034 H   0  0  0  0  0
   57.5480  -14.1068    5.0840 H   0  0  0  0  0
   58.3515  -12.8659    3.9956 H   0  0  0  0  0
   56.7533  -16.2689    4.0050 H   0  0  0  0  0
   58.2449  -12.1205    1.4778 H   0  0  0  0  0
   57.3949  -16.4066   -0.9608 H   0  0  0  0  0
   58.5382  -12.2733   -0.9609 H   0  0  0  0  0
   58.1258  -14.3854   -2.1692 H   0  0  0  0  0
   55.2954  -13.8963    6.2557 H   0  0  0  0  0
   53.3851  -15.3975    4.6588 H   0  0  0  0  0
   52.8348  -16.4586    6.7741 H   0  0  0  0  0
   53.6320  -15.1253    7.6850 H   0  0  0  0  0
   54.9597  -17.0125    7.5053 H   0  0  0  0  0
   53.3384  -12.3179    5.9711 H   0  0  0  0  0
   50.3668  -12.3175    6.2745 H   0  0  0  0  0
   50.7163  -10.4484    7.8565 H   0  0  0  0  0
   52.4895  -10.5868    7.6120 H   0  0  0  0  0
   51.7550  -11.6964    9.5038 H   0  0  0  0  0
   52.1101  -11.8441    3.8047 H   0  0  0  0  0
   51.6131   -8.9328    3.5602 H   0  0  0  0  0
   53.8508   -9.6901    3.1157 H   0  0  0  0  0
   53.0053   -8.9184    1.6195 H   0  0  0  0  0
   53.3928  -11.8474    1.9462 H   0  0  0  0  0
   51.8435  -11.0934    0.2347 H   0  0  0  0  0
   53.0924  -10.0296   -0.4578 H   0  0  0  0  0
   53.3001  -11.7974   -0.5095 H   0  0  0  0  0
   55.3520   -9.8659    0.7310 H   0  0  0  0  0
   55.6213  -10.8552    2.1869 H   0  0  0  0  0
   55.4603  -11.6381    0.5956 H   0  0  0  0  0
   49.9151  -11.6141    3.0463 H   0  0  0  0  0
   49.0052  -11.1843    0.3377 H   0  0  0  0  0
   48.9399  -13.3515    1.6125 H   0  0  0  0  0
   47.3801  -12.8636    0.7806 H   0  0  0  0  0
   46.7353  -13.7556    2.7686 H   0  0  0  0  0
   46.7845  -11.9311    3.0541 H   0  0  0  0  0
   48.2709  -11.2791    4.2957 H   0  0  0  0  0
   46.0298   -7.9526    0.8621 H   0  0  0  0  0
   45.0508   -8.1766   -1.2763 H   0  0  0  0  0
   43.7833   -9.0749   -0.4943 H   0  0  0  0  0
   45.4181  -10.1739   -2.3774 H   0  0  0  0  0
   44.6598  -11.1241   -1.1113 H   0  0  0  0  0
   46.8908  -11.6782   -0.6375 H   0  0  0  0  0
   47.5177  -10.2455   -1.3451 H   0  0  0  0  0
   43.9664  -10.8429    1.0273 H   0  0  0  0  0
   43.4406  -10.2813    3.8312 H   0  0  0  0  0
   41.9380  -11.6655    1.1706 H   0  0  0  0  0
   41.2822   -9.7785    1.7901 H   0  0  0  0  0
   42.0121   -8.6014    2.9557 H   0  0  0  0  0
   41.5745   -9.0108    5.0266 H   0  0  0  0  0
  1  2  1  0  0  0
  2  3  1  0  0  0
  2  5  1  0  0  0
  3  4  2  0  0  0
  3  9  1  0  0  0
  5  6  1  0  0  0
  6  7  2  0  0  0
  6  8  1  0  0  0
  9 10  1  0  0  0
 10 11  1  0  0  0
 11 12  2  0  0  0
 11 13  1  0  0  0
 13 14  1  0  0  0
 14 15  1  0  0  0
 15 16  2  0  0  0
 15 17  1  0  0  0
 17 18  1  0  0  0
 18 19  1  0  0  0
 18 21  1  0  0  0
 19 20  2  0  0  0
 19 24  1  0  0  0
 21 22  1  0  0  0
 21 23  1  0  0  0
 24 25  1  0  0  0
 25 26  1  0  0  0
 25 28  1  0  0  0
 26 27  2  0  0  0
 26 31  1  0  0  0
 28 29  1  0  0  0
 28 30  1  0  0  0
 31 32  1  0  0  0
 32 33  1  0  0  0
 32 35  1  0  0  0
 33 34  2  0  0  0
 33 42  1  0  0  0
 35 36  1  0  0  0
 36 37  4  0  0  0
 36 38  4  0  0  0
 37 39  4  0  0  0
 38 40  4  0  0  0
 39 41  4  0  0  0
 40 41  4  0  0  0
 42 43  1  0  0  0
 43 44  1  0  0  0
 43 46  1  0  0  0
 44 45  2  0  0  0
 44 51  1  0  0  0
 46 47  1  0  0  0
 47 48  1  0  0  0
 48 49  1  0  0  0
 48 50  2  0  0  0
 51 52  1  0  0  0
 52 53  1  0  0  0
 52 55  1  0  0  0
 53 54  2  0  0  0
 53 61  1  0  0  0
 55 56  1  0  0  0
 56 57  4  0  0  0
 56 58  4  0  0  0
 57 59  4  0  0  0
 58 60  4  0  0  0
 59 60  4  0  0  0
 61 62  1  0  0  0
 62 63  1  0  0  0
 62 65  1  0  0  0
 63 64  2  0  0  0
 63 69  1  0  0  0
 65 66  1  0  0  0
 66 67  1  0  0  0
 66 68  1  0  0  0
 69 70  1  0  0  0
 70 71  1  0  0  0
 70 73  1  0  0  0
 71 72  2  0  0  0
 71 83  1  0  0  0
 73 74  1  0  0  0
 74 75  4  0  0  0
 74 76  4  0  0  0
 75 77  4  0  0  0
 76 78  4  0  0  0
 76 79  4  0  0  0
 77 78  4  0  0  0
 78 80  4  0  0  0
 79 81  4  0  0  0
 80 82  4  0  0  0
 81 82  4  0  0  0
 83 84  1  0  0  0
 84 85  1  0  0  0
 84 87  1  0  0  0
 85 86  2  0  0  0
 85 89  1  0  0  0
 87 88  1  0  0  0
 89 90  1  0  0  0
 90 91  1  0  0  0
 90 93  1  0  0  0
 91 92  2  0  0  0
 91 95  1  0  0  0
 93 94  1  0  0  0
 95 96  1  0  0  0
 96 97  1  0  0  0
 96 99  1  0  0  0
 97 98  2  0  0  0
 97103  1  0  0  0
 99100  1  0  0  0
100101  1  0  0  0
100102  1  0  0  0
103104  1  0  0  0
104105  1  0  0  0
104107  1  0  0  0
105106  2  0  0  0
105112  1  0  0  0
107108  1  0  0  0
108109  1  0  0  0
109110  1  0  0  0
109111  2  0  0  0
112113  1  0  0  0
112118  1  0  0  0
113114  1  0  0  0
113116  1  0  0  0
114115  2  0  0  0
114119  1  0  0  0
116117  1  0  0  0
117118  1  0  0  0
119120  1  0  0  0
120121  1  0  0  0
120123  1  0  0  0
121122  1  0  0  0
121127  2  0  0  0
123124  1  0  0  0
124125  1  0  0  0
124126  2  0  0  0
  1128  1  0  0  0
  1129  1  0  0  0
  1130  1  0  0  0
  2131  1  0  0  0
  5132  1  0  0  0
  5133  1  0  0  0
  8134  1  0  0  0
  9135  1  0  0  0
 10136  1  0  0  0
 10137  1  0  0  0
 13138  1  0  0  0
 14139  1  0  0  0
 14140  1  0  0  0
 17141  1  0  0  0
 18142  1  0  0  0
 21143  1  0  0  0
 22144  1  0  0  0
 23145  1  0  0  0
 23146  1  0  0  0
 23147  1  0  0  0
 24148  1  0  0  0
 25149  1  0  0  0
 28150  1  0  0  0
 29151  1  0  0  0
 30152  1  0  0  0
 30153  1  0  0  0
 30154  1  0  0  0
 31155  1  0  0  0
 32156  1  0  0  0
 35157  1  0  0  0
 35158  1  0  0  0
 37159  1  0  0  0
 38160  1  0  0  0
 39161  1  0  0  0
 40162  1  0  0  0
 41163  1  0  0  0
 42164  1  0  0  0
 43165  1  0  0  0
 46166  1  0  0  0
 46167  1  0  0  0
 47168  1  0  0  0
 47169  1  0  0  0
 49170  1  0  0  0
 51171  1  0  0  0
 52172  1  0  0  0
 55173  1  0  0  0
 55174  1  0  0  0
 58175  1  0  0  0
 59176  1  0  0  0
 61177  1  0  0  0
 62178  1  0  0  0
 65179  1  0  0  0
 65180  1  0  0  0
 66181  1  0  0  0
 67182  1  0  0  0
 67183  1  0  0  0
 67184  1  0  0  0
 68185  1  0  0  0
 68186  1  0  0  0
 68187  1  0  0  0
 69188  1  0  0  0
 70189  1  0  0  0
 73190  1  0  0  0
 73191  1  0  0  0
 75192  1  0  0  0
 79193  1  0  0  0
 80194  1  0  0  0
 81195  1  0  0  0
 82196  1  0  0  0
 83197  1  0  0  0
 84198  1  0  0  0
 87199  1  0  0  0
 87200  1  0  0  0
 88201  1  0  0  0
 89202  1  0  0  0
 90203  1  0  0  0
 93204  1  0  0  0
 93205  1  0  0  0
 94206  1  0  0  0
 95207  1  0  0  0
 96208  1  0  0  0
 99209  1  0  0  0
 99210  1  0  0  0
100211  1  0  0  0
101212  1  0  0  0
101213  1  0  0  0
101214  1  0  0  0
102215  1  0  0  0
102216  1  0  0  0
102217  1  0  0  0
103218  1  0  0  0
104219  1  0  0  0
107220  1  0  0  0
107221  1  0  0  0
108222  1  0  0  0
108223  1  0  0  0
110224  1  0  0  0
113225  1  0  0  0
116226  1  0  0  0
116227  1  0  0  0
117228  1  0  0  0
117229  1  0  0  0
118230  1  0  0  0
118231  1  0  0  0
119232  1  0  0  0
120233  1  0  0  0
122234  1  0  0  0
123235  1  0  0  0
123236  1  0  0  0
125237  1  0  0  0
M  END
$$$$
