5u2c_ligand
  -I-interpret- 

 45 48  0  0  0  0  0  0  0  0999 V2000
   -5.2580   44.6590   14.6220 C   0  0  0  0  0
   -8.2260   42.6760   11.8190 C   0  0  0  0  0
  -10.0370   44.4270   11.7440 C   0  0  0  0  0
  -11.3130   46.5310   11.2600 C   0  0  0  0  0
   -9.2900   46.6500   12.6130 C   0  0  0  0  0
   -1.8930   44.2940   18.2920 O   0  0  0  0  0
   -2.6410   43.7150   17.2670 N   0  0  0  0  0
   -3.5920   44.4980   16.5530 C   0  0  0  0  0
   -3.7470   45.6560   16.8330 O   0  0  0  0  0
   -4.4300   43.8600   15.4170 C   0  0  0  0  0
   -4.3660   42.4610   15.1800 C   0  0  0  0  0
   -5.1370   41.8700   14.1370 C   0  0  0  0  0
   -5.9700   42.6810   13.3330 C   0  0  0  0  0
   -6.0320   44.0690   13.5750 C   0  0  0  0  0
   -6.8410   42.1100   12.1790 C   0  0  0  0  0
   -6.5330   41.0200   11.2580 C   0  0  0  0  0
   -7.7560   40.8170   10.2250 S   0  0  0  0  0
   -8.7990   41.9820   10.7170 C   0  0  0  0  0
   -8.9050   43.8080   12.5290 O   0  0  0  0  0
  -10.6310   43.6710   10.5940 C   0  0  0  0  0
  -10.1030   42.3700   10.2350 C   0  0  0  0  0
  -10.7510   41.6150    9.5360 O   0  0  0  0  0
  -10.2120   45.8840   11.8760 N   0  3  0  0  0
  -11.4200   48.0030   11.5660 C   0  0  0  0  0
  -10.1540   48.6190   11.3650 O   0  0  0  0  0
   -9.2300   48.1630   12.3300 C   0  0  0  0  0
   -5.3132   45.7328   14.8010 H   0  0  0  0  0
  -10.9113   44.1487   12.3324 H   0  0  0  0  0
  -12.2174   46.0579   11.6426 H   0  0  0  0  0
  -11.1777   46.4370   10.1825 H   0  0  0  0  0
   -8.3073   46.2632   12.3434 H   0  0  0  0  0
   -9.6010   46.5596   13.6538 H   0  0  0  0  0
   -1.3036   43.6359   18.6675 H   0  0  0  0  0
   -2.5070   42.7322   17.0293 H   0  0  0  0  0
   -3.7233   41.8355   15.7996 H   0  0  0  0  0
   -5.0844   40.7958   13.9599 H   0  0  0  0  0
   -6.6753   44.6970   12.9587 H   0  0  0  0  0
   -5.6153   40.4319   11.2668 H   0  0  0  0  0
  -10.4320   44.2964    9.7237 H   0  0  0  0  0
  -11.6591   43.4744   10.8980 H   0  0  0  0  0
   -9.9991   44.8868   11.9005 H   0  0  0  0  0
  -11.7309   48.1383   12.6019 H   0  0  0  0  0
  -12.1568   48.4600   10.9054 H   0  0  0  0  0
   -8.2340   48.3740   11.9406 H   0  0  0  0  0
   -9.4701   48.6706   13.2643 H   0  0  0  0  0
  1 10  4  0  0  0
 14  1  4  0  0  0
 15  2  4  0  0  0
  2 18  4  0  0  0
  2 19  1  0  0  0
 19  3  1  0  0  0
  3 20  1  0  0  0
  3 23  1  0  0  0
 23  4  1  0  0  0
  4 24  1  0  0  0
 23  5  1  0  0  0
  5 26  1  0  0  0
  7  6  1  0  0  0
  8  7  1  0  0  0
  8  9  2  0  0  0
 10  8  1  0  0  0
 11 10  4  0  0  0
 12 11  4  0  0  0
 13 12  4  0  0  0
 13 14  4  0  0  0
 13 15  1  0  0  0
 15 16  4  0  0  0
 16 17  4  0  0  0
 17 18  4  0  0  0
 18 21  1  0  0  0
 20 21  1  0  0  0
 21 22  2  0  0  0
 24 25  1  0  0  0
 25 26  1  0  0  0
  1 27  1  0  0  0
  3 28  1  0  0  0
  4 29  1  0  0  0
  4 30  1  0  0  0
  5 31  1  0  0  0
  5 32  1  0  0  0
  6 33  1  0  0  0
  7 34  1  0  0  0
 11 35  1  0  0  0
 12 36  1  0  0  0
 14 37  1  0  0  0
 16 38  1  0  0  0
 20 39  1  0  0  0
 20 40  1  0  0  0
 23 41  1  0  0  0
 24 42  1  0  0  0
 24 43  1  0  0  0
 26 44  1  0  0  0
 26 45  1  0  0  0
M  END
$$$$
