4und_ligand
  -I-interpret- 

 42 46  0  0  0  0  0  0  0  0999 V2000
    0.3870   63.9150  190.4380 N   0  0  0  0  0
    1.1370   62.3990  186.5710 N   0  0  0  0  0
   -1.4770   62.3180  190.5570 C   0  0  0  0  0
    1.6040   64.1070  188.5680 C   0  0  0  0  0
    1.8630   63.5710  187.0940 C   0  0  0  0  0
    0.0550   61.9380  187.2580 C   0  0  0  0  0
   -0.7730   60.9750  186.6680 C   0  0  0  0  0
   -2.0450   60.9110  188.7020 C   0  0  0  0  0
    4.7170   64.8910  185.4450 C   0  0  0  0  0
    5.3770   64.2140  187.6550 C   0  0  0  0  0
    1.0690   65.5750  188.4420 C   0  0  0  0  0
    7.4250   65.4000  185.9850 F   0  0  0  0  0
    5.6880   64.7880  186.4150 C   0  0  0  0  0
    3.4570   64.4170  185.6890 C   0  0  0  0  0
    4.1130   63.7510  187.9160 C   0  0  0  0  0
    3.1720   63.8050  186.9000 C   0  0  0  0  0
   -0.2450   65.9840  188.6520 N   0  0  0  0  0
   -0.4570   67.3180  188.4510 C   0  0  0  0  0
    0.7200   67.8200  188.1200 N   0  0  0  0  0
    1.6890   66.7600  188.0840 N   0  0  0  0  0
    3.0590   67.2140  187.7160 C   0  0  0  0  0
    0.6440   63.4150  189.1920 C   0  0  0  0  0
   -0.1560   62.4070  188.5420 C   0  0  0  0  0
   -1.8420   60.4530  187.4130 C   0  0  0  0  0
   -2.7970   59.4420  186.9090 F   0  0  0  0  0
   -1.2240   61.8760  189.2500 C   0  0  0  0  0
   -2.3870   61.8030  191.2070 O   0  0  0  0  0
   -0.6990   63.3440  191.1440 N   0  0  0  0  0
    1.4394   61.9420  185.7107 H   0  0  0  0  0
    2.5341   64.0218  189.1299 H   0  0  0  0  0
    1.2881   64.0823  186.3219 H   0  0  0  0  0
   -0.5905   60.6367  185.6480 H   0  0  0  0  0
   -2.8650   60.5042  189.2937 H   0  0  0  0  0
    4.9514   65.3493  184.4842 H   0  0  0  0  0
    6.1487   64.1347  188.4207 H   0  0  0  0  0
    2.6788   64.5203  184.9328 H   0  0  0  0  0
    3.8551   63.3511  188.8966 H   0  0  0  0  0
   -1.4001   67.8564  188.5441 H   0  0  0  0  0
    3.7414   67.0119  188.5416 H   0  0  0  0  0
    3.3920   66.6769  186.8279 H   0  0  0  0  0
    3.0427   68.2843  187.5101 H   0  0  0  0  0
   -0.9224   63.6745  192.0827 H   0  0  0  0  0
 22  1  2  0  0  0
  1 28  1  0  0  0
  5  2  1  0  0  0
  2  6  1  0  0  0
  3 26  1  0  0  0
  3 27  2  0  0  0
 28  3  1  0  0  0
  5  4  1  0  0  0
  4 11  1  0  0  0
  4 22  1  0  0  0
 16  5  1  0  0  0
  6  7  4  0  0  0
  6 23  4  0  0  0
  7 24  4  0  0  0
 24  8  4  0  0  0
  8 26  4  0  0  0
  9 13  4  0  0  0
 14  9  4  0  0  0
 13 10  4  0  0  0
 10 15  4  0  0  0
 11 17  4  0  0  0
 11 20  4  0  0  0
 14 16  4  0  0  0
 15 16  4  0  0  0
 17 18  4  0  0  0
 18 19  4  0  0  0
 19 20  4  0  0  0
 20 21  1  0  0  0
 22 23  1  0  0  0
 23 26  4  0  0  0
 24 25  1  0  0  0
 13 12  1  0  0  0
  2 29  1  0  0  0
  4 30  1  0  0  0
  5 31  1  0  0  0
  7 32  1  0  0  0
  8 33  1  0  0  0
  9 34  1  0  0  0
 10 35  1  0  0  0
 14 36  1  0  0  0
 15 37  1  0  0  0
 18 38  1  0  0  0
 21 39  1  0  0  0
 21 40  1  0  0  0
 21 41  1  0  0  0
 28 42  1  0  0  0
M  END
$$$$
