5y9l_ligand
  -I-interpret- 

 63 65  0  0  0  0  0  0  0  0999 V2000
   18.9860   39.5820   21.8140 C   0  0  0  0  0
   17.9170   39.5880   22.4640 O   0  0  0  0  0
   16.5270   48.0140   23.5650 O   0  0  0  0  0
   17.1970   46.9620   23.3070 C   0  0  0  0  0
   17.8890   46.9020   22.2430 O   0  0  0  0  0
   17.1520   45.7960   24.2720 C   0  0  0  0  0
   17.8900   44.6310   24.0360 C   0  0  0  0  0
   16.3920   45.8360   25.4530 C   0  0  0  0  0
   16.3710   44.7530   26.3280 C   0  0  0  0  0
   17.1090   43.6060   26.0620 C   0  0  0  0  0
   17.8870   43.5240   24.9110 C   0  0  0  0  0
   18.6090   42.3260   24.7120 N   0  0  0  0  0
   19.4510   42.0050   23.6420 C   0  0  0  0  0
   19.7120   42.6950   22.6470 O   0  0  0  0  0
   20.1120   40.6190   23.7140 C   0  0  0  0  0
   20.1770   40.0820   22.3520 N   0  0  0  0  0
   21.4720   40.1520   21.6470 C   0  0  0  0  0
   22.0620   38.7920   21.2490 C   0  0  0  0  0
   23.3400   38.6240   21.4640 N   0  0  0  0  0
   23.8000   37.4020   21.0720 N   0  0  0  0  0
   24.2150   36.4410   22.1090 C   0  0  0  0  0
   24.7660   37.5390   19.9640 C   0  0  0  0  0
   21.2890   37.7940   20.7150 N   0  0  0  0  0
   19.8930   37.7300   20.3980 C   0  0  0  0  0
   19.0730   39.0150   20.3870 C   0  0  0  0  0
   17.7030   38.7420   19.7210 C   0  0  0  0  0
   17.7040   38.0000   18.3960 C   0  0  0  0  0
   17.1380   36.6990   18.3380 C   0  0  0  0  0
   18.2550   38.5750   17.2160 C   0  0  0  0  0
   18.7800   39.8500   17.3720 O   0  0  0  0  0
   19.3990   40.6350   16.3390 C   0  0  0  0  0
   18.2110   37.8120   16.0200 C   0  0  0  0  0
   17.6350   36.5300   15.9800 C   0  0  0  0  0
   17.1050   35.9640   17.1400 C   0  0  0  0  0
   16.4160   34.3710   17.0670 Cl  0  0  0  0  0
   16.0631   47.9004   24.3978 H   0  0  0  0  0
   18.4968   44.5758   23.1322 H   0  0  0  0  0
   15.8105   46.7276   25.6877 H   0  0  0  0  0
   15.7674   44.8057   27.2341 H   0  0  0  0  0
   17.0784   42.7673   26.7575 H   0  0  0  0  0
   18.5041   41.6118   25.4326 H   0  0  0  0  0
   19.5311   39.9557   24.3548 H   0  0  0  0  0
   21.1133   40.6990   24.1373 H   0  0  0  0  0
   22.1810   40.6163   22.3325 H   0  0  0  0  0
   21.3003   40.7051   20.7236 H   0  0  0  0  0
   25.0274   36.8698   22.6957 H   0  0  0  0  0
   23.3690   36.2245   22.7613 H   0  0  0  0  0
   24.5545   35.5203   21.6344 H   0  0  0  0  0
   24.2789   38.0212   19.1165 H   0  0  0  0  0
   25.6102   38.1451   20.2926 H   0  0  0  0  0
   25.1196   36.5514   19.6678 H   0  0  0  0  0
   21.8026   36.9383   20.5042 H   0  0  0  0  0
   19.4540   37.1256   21.1918 H   0  0  0  0  0
   19.8564   37.3669   19.3709 H   0  0  0  0  0
   19.5530   39.7883   19.7872 H   0  0  0  0  0
   17.2793   39.7234   19.5077 H   0  0  0  0  0
   17.1610   38.1009   20.4162 H   0  0  0  0  0
   16.7193   36.2599   19.2435 H   0  0  0  0  0
   20.2660   40.1015   15.9493 H   0  0  0  0  0
   18.6831   40.8041   15.5346 H   0  0  0  0  0
   19.7156   41.5925   16.7525 H   0  0  0  0  0
   18.6353   38.2313   15.1077 H   0  0  0  0  0
   17.6024   35.9773   15.0411 H   0  0  0  0  0
  1  2  2  0  0  0
 16  1  1  0  0  0
  1 25  1  0  0  0
  4  3  1  0  0  0
  4  5  2  0  0  0
  6  4  1  0  0  0
  7  6  4  0  0  0
  6  8  4  0  0  0
 11  7  4  0  0  0
  9  8  4  0  0  0
 10  9  4  0  0  0
 11 10  4  0  0  0
 12 11  1  0  0  0
 13 12  1  0  0  0
 13 14  2  0  0  0
 15 13  1  0  0  0
 15 16  1  0  0  0
 16 17  1  0  0  0
 17 18  1  0  0  0
 18 19  2  0  0  0
 18 23  1  0  0  0
 19 20  1  0  0  0
 20 21  1  0  0  0
 20 22  1  0  0  0
 23 24  1  0  0  0
 24 25  1  0  0  0
 25 26  1  0  0  0
 26 27  1  0  0  0
 27 28  4  0  0  0
 27 29  4  0  0  0
 28 34  4  0  0  0
 29 30  1  0  0  0
 29 32  4  0  0  0
 30 31  1  0  0  0
 32 33  4  0  0  0
 33 34  4  0  0  0
 34 35  1  0  0  0
  3 36  1  0  0  0
  7 37  1  0  0  0
  8 38  1  0  0  0
  9 39  1  0  0  0
 10 40  1  0  0  0
 12 41  1  0  0  0
 15 42  1  0  0  0
 15 43  1  0  0  0
 17 44  1  0  0  0
 17 45  1  0  0  0
 21 46  1  0  0  0
 21 47  1  0  0  0
 21 48  1  0  0  0
 22 49  1  0  0  0
 22 50  1  0  0  0
 22 51  1  0  0  0
 23 52  1  0  0  0
 24 53  1  0  0  0
 24 54  1  0  0  0
 25 55  1  0  0  0
 26 56  1  0  0  0
 26 57  1  0  0  0
 28 58  1  0  0  0
 31 59  1  0  0  0
 31 60  1  0  0  0
 31 61  1  0  0  0
 32 62  1  0  0  0
 33 63  1  0  0  0
M  END
$$$$
