4tte_ligand
  -I-interpret- 

 32 33  0  0  0  0  0  0  0  0999 V2000
  -12.1500   23.8040   12.5600 C   0  0  0  0  0
  -13.4110   24.1590   11.7580 C   0  0  0  0  0
  -14.4700   24.9110   12.2620 O   0  0  0  0  0
  -15.2830   25.0300   11.4020 N   0  0  0  0  0
  -14.8910   24.4030   10.3050 C   0  0  0  0  0
  -15.7220   24.3600    9.0050 C   0  0  0  0  0
  -13.7150   23.8350   10.5090 C   0  0  0  0  0
  -13.0040   23.1660    9.5860 C   0  0  0  0  0
  -13.5960   22.1950    8.7700 C   0  0  0  0  0
  -11.6570   23.5000    9.3750 C   0  0  0  0  0
  -10.9070   22.8500    8.3950 C   0  0  0  0  0
   -9.6320   23.1670    8.2190 N   0  0  0  0  0
  -11.4950   21.8720    7.5990 C   0  0  0  0  0
  -12.8470   21.5370    7.7830 C   0  0  0  0  0
  -13.4400   20.5650    6.9640 C   0  0  0  0  0
  -12.7840   20.0430    6.0560 O   0  0  0  0  0
  -14.7810   20.3450    7.1840 O   0  0  0  0  0
  -15.2890   19.0650    6.7830 C   0  0  0  0  0
  -11.6465   24.7205   12.8675 H   0  0  0  0  0
  -12.4319   23.2293   13.4422 H   0  0  0  0  0
  -11.4799   23.2111   11.9374 H   0  0  0  0  0
  -16.6844   23.8894    9.2059 H   0  0  0  0  0
  -15.8813   25.3758    8.6433 H   0  0  0  0  0
  -15.1851   23.7845    8.2509 H   0  0  0  0  0
  -14.6492   21.9477    8.9027 H   0  0  0  0  0
  -11.1922   24.2757    9.9836 H   0  0  0  0  0
   -9.2003   23.8857    8.8000 H   0  0  0  0  0
   -9.0826   22.6923    7.5026 H   0  0  0  0  0
  -10.9071   21.3660    6.8332 H   0  0  0  0  0
  -15.1347   18.9336    5.7120 H   0  0  0  0  0
  -14.7626   18.2802    7.3263 H   0  0  0  0  0
  -16.3544   19.0119    7.0071 H   0  0  0  0  0
  1  2  1  0  0  0
  2  3  4  0  0  0
  2  7  4  0  0  0
  3  4  4  0  0  0
  4  5  4  0  0  0
  5  6  1  0  0  0
  5  7  4  0  0  0
  7  8  1  0  0  0
  8  9  4  0  0  0
  8 10  4  0  0  0
  9 14  4  0  0  0
 10 11  4  0  0  0
 11 12  1  0  0  0
 11 13  4  0  0  0
 13 14  4  0  0  0
 14 15  1  0  0  0
 15 16  2  0  0  0
 15 17  1  0  0  0
 17 18  1  0  0  0
  1 19  1  0  0  0
  1 20  1  0  0  0
  1 21  1  0  0  0
  6 22  1  0  0  0
  6 23  1  0  0  0
  6 24  1  0  0  0
  9 25  1  0  0  0
 10 26  1  0  0  0
 12 27  1  0  0  0
 12 28  1  0  0  0
 13 29  1  0  0  0
 18 30  1  0  0  0
 18 31  1  0  0  0
 18 32  1  0  0  0
M  END
$$$$
