1gqs_ligand
  -I-interpret- 

 28 28  0  0  0  0  0  0  0  0999 V2000
    4.5940   67.3870   65.1590 C   0  0  0  0  0
    4.4330   66.8070   62.8020 C   0  0  0  0  0
    4.9620   68.0540   62.4570 C   0  0  0  0  0
    5.3440   69.0270   63.4270 C   0  0  0  0  0
    5.1430   68.6690   64.7860 C   0  0  0  0  0
    5.0720   68.2550   61.1270 O   0  0  0  0  0
    4.4100   63.7850   63.9790 N   0  3  0  0  0
    4.0240   62.6560   64.7300 C   0  0  0  0  0
    4.1670   63.2930   62.6380 C   0  0  0  0  0
    3.5870   65.0270   64.4630 C   0  0  0  0  0
    3.0370   64.8100   65.7840 C   0  0  0  0  0
    4.2290   66.4230   64.1260 C   0  0  0  0  0
    4.4523   67.1394   66.2110 H   0  0  0  0  0
    4.1705   66.1096   62.0065 H   0  0  0  0  0
    5.7662   69.9905   63.1413 H   0  0  0  0  0
    5.4100   69.3802   65.5677 H   0  0  0  0  0
    5.4403   69.1267   60.9656 H   0  0  0  0  0
    5.3667   64.1289   64.0620 H   0  0  0  0  0
    2.9784   62.4255   64.5257 H   0  0  0  0  0
    4.6461   61.8056   64.4510 H   0  0  0  0  0
    4.1501   62.8671   65.7919 H   0  0  0  0  0
    4.7818   62.4109   62.4590 H   0  0  0  0  0
    3.1141   63.0308   62.5338 H   0  0  0  0  0
    4.4229   64.0684   61.9159 H   0  0  0  0  0
    2.6986   65.1158   63.8377 H   0  0  0  0  0
    2.3775   63.9424   65.7636 H   0  0  0  0  0
    3.8488   64.6343   66.4898 H   0  0  0  0  0
    2.4719   65.6904   66.0900 H   0  0  0  0  0
  1  5  4  0  0  0
 12  1  4  0  0  0
  2  3  4  0  0  0
 12  2  4  0  0  0
  3  4  4  0  0  0
  3  6  1  0  0  0
  5  4  4  0  0  0
  7  8  1  0  0  0
  7  9  1  0  0  0
 10  7  1  0  0  0
 10 11  1  0  0  0
 12 10  1  0  0  0
  1 13  1  0  0  0
  2 14  1  0  0  0
  4 15  1  0  0  0
  5 16  1  0  0  0
  6 17  1  0  0  0
  7 18  1  0  0  0
  8 19  1  0  0  0
  8 20  1  0  0  0
  8 21  1  0  0  0
  9 22  1  0  0  0
  9 23  1  0  0  0
  9 24  1  0  0  0
 10 25  1  0  0  0
 11 26  1  0  0  0
 11 27  1  0  0  0
 11 28  1  0  0  0
M  END
$$$$
