5mae_ligand
  -I-interpret- 

 51 54  0  0  0  0  0  0  0  0999 V2000
   -7.2770    4.7440   18.5120 C   0  0  0  0  0
   -6.2600    7.7770   22.1010 C   0  0  0  0  0
   -4.9250    8.0800   21.7410 C   0  0  0  0  0
   -8.0710    7.4940   18.9160 C   0  0  0  0  0
   -6.9500    7.6900   19.7960 C   0  0  0  0  0
   -5.5970    8.0140   19.4830 C   0  0  0  0  0
   -5.6110   11.8110   17.1840 C   0  0  0  0  0
   -6.6150   12.9200   17.3960 C   0  0  0  0  0
   -6.7280   13.3510   15.0600 C   0  0  0  0  0
   -5.8280   12.1400   14.7060 C   0  0  0  0  0
   -6.3300   13.8530   16.3560 O   0  0  0  0  0
   -6.0860   11.2770   15.8730 N   0  0  0  0  0
   -7.2150    8.5140   11.9020 N   0  0  0  0  0
   -7.3680    7.7710   12.9760 C   0  0  0  0  0
   -4.5860    8.1040   20.4260 N   0  0  0  0  0
   -7.2540    7.5520   21.1370 N   0  0  0  0  0
   -8.3910    3.7880   18.8610 C   0  0  0  0  0
   -9.2650    3.7540   17.5850 C   0  0  0  0  0
   -9.1430    5.2080   17.0110 C   0  0  0  0  0
   -7.6100    5.6150   17.3110 C   0  0  0  0  0
   -7.4770    7.0630   17.5900 N   0  0  0  0  0
   -6.7810    9.2270   16.7510 N   0  0  0  0  0
   -7.1570    7.9210   16.5490 C   0  0  0  0  0
   -7.3180    7.4400   15.3150 N   0  0  0  0  0
   -7.1080    8.2700   14.2840 C   0  0  0  0  0
   -6.7850    9.5600   14.4610 N   0  0  0  0  0
   -6.5500    9.9960   15.7030 C   0  0  0  0  0
   -6.3940    4.1547   18.2649 H   0  0  0  0  0
   -7.1166    5.3995   19.3680 H   0  0  0  0  0
   -6.5231    7.7168   23.1571 H   0  0  0  0  0
   -4.1798    8.2910   22.5080 H   0  0  0  0  0
   -8.6600    8.4052   18.8116 H   0  0  0  0  0
   -8.7586    6.7442   19.3073 H   0  0  0  0  0
   -5.3431    8.2020   18.4398 H   0  0  0  0  0
   -5.5795   11.0731   17.9857 H   0  0  0  0  0
   -4.5714   12.1386   17.1864 H   0  0  0  0  0
   -6.5297   13.3685   18.3858 H   0  0  0  0  0
   -7.6424   12.5584   17.3541 H   0  0  0  0  0
   -7.7735   13.0438   15.0844 H   0  0  0  0  0
   -6.6155   14.1315   14.3075 H   0  0  0  0  0
   -4.7778   12.3894   14.5546 H   0  0  0  0  0
   -6.0545   11.6770   13.7456 H   0  0  0  0  0
   -6.9009    9.4803   11.9909 H   0  0  0  0  0
   -7.7045    6.7406   12.8614 H   0  0  0  0  0
   -8.9521    4.1087   19.7388 H   0  0  0  0  0
   -8.0189    2.8006   19.1344 H   0  0  0  0  0
  -10.2976    3.4758   17.7959 H   0  0  0  0  0
   -8.9330    2.9974   16.8740 H   0  0  0  0  0
   -9.8521    5.8961   17.4713 H   0  0  0  0  0
   -9.3842    5.2559   15.9491 H   0  0  0  0  0
   -6.9322    5.4532   16.4728 H   0  0  0  0  0
  1 17  1  0  0  0
 20  1  1  0  0  0
  2  3  4  0  0  0
 16  2  4  0  0  0
 15  3  4  0  0  0
  4  5  1  0  0  0
 21  4  1  0  0  0
  5  6  4  0  0  0
  5 16  4  0  0  0
  6 15  4  0  0  0
  7  8  1  0  0  0
 12  7  1  0  0  0
  8 11  1  0  0  0
 10  9  1  0  0  0
  9 11  1  0  0  0
 12 10  1  0  0  0
 27 12  1  0  0  0
 14 13  2  0  0  0
 25 14  1  0  0  0
 18 17  1  0  0  0
 19 18  1  0  0  0
 20 19  1  0  0  0
 21 20  1  0  0  0
 23 21  1  0  0  0
 23 22  4  0  0  0
 22 27  4  0  0  0
 24 23  4  0  0  0
 24 25  4  0  0  0
 25 26  4  0  0  0
 26 27  4  0  0  0
  1 28  1  0  0  0
  1 29  1  0  0  0
  2 30  1  0  0  0
  3 31  1  0  0  0
  4 32  1  0  0  0
  4 33  1  0  0  0
  6 34  1  0  0  0
  7 35  1  0  0  0
  7 36  1  0  0  0
  8 37  1  0  0  0
  8 38  1  0  0  0
  9 39  1  0  0  0
  9 40  1  0  0  0
 10 41  1  0  0  0
 10 42  1  0  0  0
 13 43  1  0  0  0
 14 44  1  0  0  0
 17 45  1  0  0  0
 17 46  1  0  0  0
 18 47  1  0  0  0
 18 48  1  0  0  0
 19 49  1  0  0  0
 19 50  1  0  0  0
 20 51  1  0  0  0
M  END
$$$$
