### 
### Created by X-TOOL on Mon Sep 10 21:13:30 2018
### 

@<TRIPOS>MOLECULE
5mae_ligand
   51    54     1     0     0
SMALL
GAST_HUCK


@<TRIPOS>ATOM
      1 C16        -7.2770    4.7440   18.5120 C.3       1 7KN        -0.0288
      2 C12        -6.2600    7.7770   22.1010 C.ar      1 7KN         0.0334
      3 C11        -4.9250    8.0800   21.7410 C.ar      1 7KN         0.0344
      4 C15        -8.0710    7.4940   18.9160 C.3       1 7KN         0.0915
      5 C14        -6.9500    7.6900   19.7960 C.ar      1 7KN         0.0819
      6 C9         -5.5970    8.0140   19.4830 C.ar      1 7KN         0.0454
      7 C1         -5.6110   11.8110   17.1840 C.3       1 7KN         0.0592
      8 C2         -6.6150   12.9200   17.3960 C.3       1 7KN         0.0687
      9 C4         -6.7280   13.3510   15.0600 C.3       1 7KN         0.0687
     10 C5         -5.8280   12.1400   14.7060 C.3       1 7KN         0.0592
     11 O3         -6.3300   13.8530   16.3560 O.3       1 7KN        -0.3756
     12 N6         -6.0860   11.2770   15.8730 N.pl3     1 7KN        -0.2673
     13 N7         -7.2150    8.5140   11.9020 N.2       1 7KN        -0.3220
     14 C8         -7.3680    7.7710   12.9760 C.2       1 7KN         0.0629
     15 N10        -4.5860    8.1040   20.4260 N.ar      1 7KN        -0.2791
     16 N13        -7.2540    7.5520   21.1370 N.ar      1 7KN        -0.2708
     17 C17        -8.3910    3.7880   18.8610 C.3       1 7KN        -0.0508
     18 C18        -9.2650    3.7540   17.5850 C.3       1 7KN        -0.0508
     19 C19        -9.1430    5.2080   17.0110 C.3       1 7KN        -0.0288
     20 C20        -7.6100    5.6150   17.3110 C.3       1 7KN         0.0495
     21 N21        -7.4770    7.0630   17.5900 N.pl3     1 7KN        -0.2537
     22 N22        -6.7810    9.2270   16.7510 N.ar      1 7KN        -0.2116
     23 C23        -7.1570    7.9210   16.5490 C.ar      1 7KN         0.1973
     24 N24        -7.3180    7.4400   15.3150 N.ar      1 7KN        -0.2283
     25 C25        -7.1080    8.2700   14.2840 C.ar      1 7KN         0.1398
     26 N26        -6.7850    9.5600   14.4610 N.ar      1 7KN        -0.2285
     27 C27        -6.5500    9.9960   15.7030 C.ar      1 7KN         0.1949
     28 H1         -6.3714    4.1623   18.2852 H         1 7KN         0.0288
     29 H2         -7.0872    5.3953   19.3779 H         1 7KN         0.0288
     30 H3         -6.5217    7.7171   23.1512 H         1 7KN         0.0904
     31 H4         -4.1839    8.2898   22.5038 H         1 7KN         0.0863
     32 H5         -8.6349    8.4310   18.7977 H         1 7KN         0.0742
     33 H6         -8.7370    6.7125   19.3106 H         1 7KN         0.0742
     34 H7         -5.3445    8.2010   18.4455 H         1 7KN         0.0870
     35 H8         -5.6674   11.0521   17.9783 H         1 7KN         0.0554
     36 H9         -4.5833   12.1978   17.1188 H         1 7KN         0.0554
     37 H10        -6.4808   13.3842   18.3842 H         1 7KN         0.0581
     38 H11        -7.6427   12.5382   17.3068 H         1 7KN         0.0581
     39 H12        -7.7810   13.0344   15.0918 H         1 7KN         0.0581
     40 H13        -6.6048   14.1392   14.3027 H         1 7KN         0.0581
     41 H14        -4.7681   12.4260   14.6366 H         1 7KN         0.0554
     42 H15        -6.1406   11.6602   13.7668 H         1 7KN         0.0554
     43 H16        -7.4081    8.1286   10.9908 H         1 7KN         0.1465
     44 H17        -7.7042    6.7415   12.8615 H         1 7KN         0.1182
     45 H18        -8.9686    4.1572   19.7213 H         1 7KN         0.0266
     46 H19        -7.9921    2.7885   19.0889 H         1 7KN         0.0266
     47 H20       -10.3103    3.5164   17.8319 H         1 7KN         0.0266
     48 H21        -8.8809    3.0152   16.8662 H         1 7KN         0.0266
     49 H22        -9.8368    5.8908   17.5233 H         1 7KN         0.0288
     50 H23        -9.3472    5.2207   15.9302 H         1 7KN         0.0288
     51 H24        -6.9634    5.3596   16.4585 H         1 7KN         0.0569
@<TRIPOS>BOND
     1    1   17 1  
     2   20    1 1  
     3    2    3 ar 
     4   16    2 ar 
     5   15    3 ar 
     6    4    5 1  
     7   21    4 1  
     8    5    6 ar 
     9    5   16 ar 
    10    6   15 ar 
    11    7    8 1  
    12   12    7 1  
    13    8   11 1  
    14   10    9 1  
    15    9   11 1  
    16   12   10 1  
    17   27   12 1  
    18   14   13 2  
    19   25   14 1  
    20   18   17 1  
    21   19   18 1  
    22   20   19 1  
    23   21   20 1  
    24   23   21 1  
    25   23   22 ar 
    26   22   27 ar 
    27   24   23 ar 
    28   24   25 ar 
    29   25   26 ar 
    30   26   27 ar 
    31    1   28 1  
    32    1   29 1  
    33    2   30 1  
    34    3   31 1  
    35    4   32 1  
    36    4   33 1  
    37    6   34 1  
    38    7   35 1  
    39    7   36 1  
    40    8   37 1  
    41    8   38 1  
    42    9   39 1  
    43    9   40 1  
    44   10   41 1  
    45   10   42 1  
    46   13   43 1  
    47   14   44 1  
    48   17   45 1  
    49   17   46 1  
    50   18   47 1  
    51   18   48 1  
    52   19   49 1  
    53   19   50 1  
    54   20   51 1  
@<TRIPOS>SUBSTRUCTURE
     1 7KN         1

