4avh_ligand
  -I-interpret- 

 43 43  0  0  0  0  0  0  0  0999 V2000
  -59.5600  -16.5790  -20.9070 O   0  0  0  0  0
  -60.8670  -16.8520  -20.3710 C   0  0  0  0  0
  -61.2620  -18.2800  -20.7120 C   0  0  0  0  0
  -61.1550  -18.5120  -22.1380 O   0  0  0  0  0
  -60.3820  -19.2610  -19.9420 C   0  0  0  0  0
  -60.5720  -19.1100  -18.5280 O   0  0  0  0  0
  -60.7150  -20.6980  -20.3180 C   0  0  0  0  0
  -59.8220  -21.5720  -19.6170 O   0  0  0  0  0
  -60.6050  -20.8770  -21.8330 C   0  0  0  0  0
  -59.2570  -20.6500  -22.2880 O   0  0  0  0  0
  -61.5050  -19.8570  -22.5240 C   0  0  0  0  0
  -62.8570  -20.1380  -22.1570 O   0  0  0  0  0
  -63.7680  -19.5240  -23.0640 C   0  0  0  0  0
  -65.2000  -19.7770  -22.6230 C   0  0  0  0  0
  -66.0290  -18.5270  -22.8650 C   0  0  0  0  0
  -68.4490  -17.1740  -22.1860 C   0  0  0  0  0
  -67.8730  -15.8240  -21.7750 C   0  0  0  0  0
  -68.8090  -14.6870  -22.1430 C   0  0  0  0  0
  -67.3570  -18.4800  -21.7200 S   0  0  0  0  0
  -59.3093  -15.6775  -20.6924 H   0  0  0  0  0
  -61.5902  -16.1604  -20.8031 H   0  0  0  0  0
  -60.8508  -16.7266  -19.2884 H   0  0  0  0  0
  -62.3007  -18.4356  -20.4204 H   0  0  0  0  0
  -59.3466  -19.0422  -20.2033 H   0  0  0  0  0
  -60.3660  -18.2077  -18.2731 H   0  0  0  0  0
  -61.7387  -20.9410  -20.0332 H   0  0  0  0  0
  -59.9170  -21.4336  -18.6718 H   0  0  0  0  0
  -60.9015  -21.8980  -22.0731 H   0  0  0  0  0
  -59.2175  -20.7688  -23.2398 H   0  0  0  0  0
  -61.3793  -19.9314  -23.6042 H   0  0  0  0  0
  -63.6211  -19.9471  -24.0577 H   0  0  0  0  0
  -63.5847  -18.4496  -23.0806 H   0  0  0  0  0
  -65.2162  -20.0255  -21.5618 H   0  0  0  0  0
  -65.6162  -20.6068  -23.1942 H   0  0  0  0  0
  -66.4239  -18.5425  -23.8808 H   0  0  0  0  0
  -65.4036  -17.6439  -22.7343 H   0  0  0  0  0
  -68.5777  -17.1893  -23.2683 H   0  0  0  0  0
  -69.4066  -17.3176  -21.6854 H   0  0  0  0  0
  -66.9280  -15.6773  -22.2979 H   0  0  0  0  0
  -67.7340  -15.8217  -20.6939 H   0  0  0  0  0
  -68.9667  -14.6825  -23.2215 H   0  0  0  0  0
  -69.7637  -14.8253  -21.6355 H   0  0  0  0  0
  -68.3664  -13.7396  -21.8353 H   0  0  0  0  0
  2  1  1  0  0  0
  3  2  1  0  0  0
  4  3  1  0  0  0
  3  5  1  0  0  0
 11  4  1  0  0  0
  5  6  1  0  0  0
  7  5  1  0  0  0
  7  8  1  0  0  0
  9  7  1  0  0  0
  9 10  1  0  0  0
 11  9  1  0  0  0
 12 11  1  0  0  0
 13 12  1  0  0  0
 14 13  1  0  0  0
 15 14  1  0  0  0
 19 15  1  0  0  0
 16 17  1  0  0  0
 16 19  1  0  0  0
 17 18  1  0  0  0
  1 20  1  0  0  0
  2 21  1  0  0  0
  2 22  1  0  0  0
  3 23  1  0  0  0
  5 24  1  0  0  0
  6 25  1  0  0  0
  7 26  1  0  0  0
  8 27  1  0  0  0
  9 28  1  0  0  0
 10 29  1  0  0  0
 11 30  1  0  0  0
 13 31  1  0  0  0
 13 32  1  0  0  0
 14 33  1  0  0  0
 14 34  1  0  0  0
 15 35  1  0  0  0
 15 36  1  0  0  0
 16 37  1  0  0  0
 16 38  1  0  0  0
 17 39  1  0  0  0
 17 40  1  0  0  0
 18 41  1  0  0  0
 18 42  1  0  0  0
 18 43  1  0  0  0
M  END
$$$$
