5cei_ligand
  -I-interpret- 

 32 34  0  0  0  0  0  0  0  0999 V2000
    5.5210   58.8400   53.1600 C   0  0  0  0  0
    5.7480   58.7770   51.8390 C   0  0  0  0  0
    8.8330   60.6720   52.1690 C   0  0  0  0  0
    6.9210   59.4080   51.3980 C   0  0  0  0  0
    7.4820   59.5230   50.0910 C   0  0  0  0  0
    8.6740   60.1960   49.9240 C   0  0  0  0  0
    7.6310   60.0010   52.4520 C   0  0  0  0  0
    3.5460   57.4150   53.2360 N   0  0  0  0  0
    4.3860   58.2500   53.8730 C   0  0  0  0  0
    2.4330   56.8340   53.9880 C   0  0  0  0  0
    4.2330   58.4830   55.0580 O   0  0  0  0  0
    9.3230   60.7380   50.9450 N   0  0  0  0  0
    6.7720   59.7430   53.9780 S   0  0  0  0  0
    6.8680   59.0190   48.9900 O   0  0  0  0  0
    6.6370   57.7090   48.7050 C   0  0  0  0  0
    5.7670   57.4250   47.6620 C   0  0  0  0  0
    5.4860   56.1200   47.3140 C   0  0  0  0  0
    6.0720   55.0690   47.9940 C   0  0  0  0  0
    6.9500   55.3550   49.0340 C   0  0  0  0  0
    7.2370   56.6650   49.3920 C   0  0  0  0  0
    5.6170   53.0880   47.4140 I   0  0  0  0  0
    5.0674   58.2701   51.1550 H   0  0  0  0  0
    9.3761   61.1516   52.9833 H   0  0  0  0  0
    9.0951   60.2850   48.9226 H   0  0  0  0  0
    3.6817   57.1915   52.2501 H   0  0  0  0  0
    2.8245   56.2520   54.8224 H   0  0  0  0  0
    1.7964   57.6331   54.3678 H   0  0  0  0  0
    1.8521   56.1857   53.3320 H   0  0  0  0  0
    5.3005   58.2420   47.1116 H   0  0  0  0  0
    4.7957   55.9159   46.4955 H   0  0  0  0  0
    7.4210   54.5360   49.5775 H   0  0  0  0  0
    7.9296   56.8715   50.2079 H   0  0  0  0  0
  2  1  4  0  0  0
  1  9  1  0  0  0
  1 13  4  0  0  0
  4  2  4  0  0  0
  7  3  4  0  0  0
  3 12  4  0  0  0
  4  5  4  0  0  0
  4  7  4  0  0  0
  5  6  4  0  0  0
  5 14  1  0  0  0
  6 12  4  0  0  0
  7 13  4  0  0  0
  9  8  1  0  0  0
  8 10  1  0  0  0
  9 11  2  0  0  0
 14 15  1  0  0  0
 15 16  4  0  0  0
 15 20  4  0  0  0
 16 17  4  0  0  0
 17 18  4  0  0  0
 18 19  4  0  0  0
 18 21  1  0  0  0
 19 20  4  0  0  0
  2 22  1  0  0  0
  3 23  1  0  0  0
  6 24  1  0  0  0
  8 25  1  0  0  0
 10 26  1  0  0  0
 10 27  1  0  0  0
 10 28  1  0  0  0
 16 29  1  0  0  0
 17 30  1  0  0  0
 19 31  1  0  0  0
 20 32  1  0  0  0
M  END
$$$$
