2qtb_ligand
  -I-interpret- 

 63 66  0  0  0  0  0  0  0  0999 V2000
   39.4600   51.4740   36.3070 C   0  0  0  0  0
   38.3490   51.0840   35.2830 C   0  0  0  0  0
   36.9340   51.2220   35.8910 C   0  0  0  0  0
   36.1340   50.1150   35.8650 N   0  0  0  0  0
   39.6620   50.5030   37.3120 C   0  0  0  0  0
   38.3350   51.9220   34.0800 N   0  3  0  0  0
   36.5650   52.2830   36.3690 O   0  0  0  0  0
   39.6690   49.3410   36.8670 O   0  0  0  0  0
   39.8410   50.7430   38.6840 N   0  0  0  0  0
   39.8400   52.0530   39.3650 C   0  0  0  0  0
   40.0490   49.5400   39.5210 C   0  0  0  0  0
   36.4680   48.7750   35.3410 C   0  0  0  0  0
   35.2210   47.9690   35.6210 C   0  0  0  0  0
   34.1370   49.0000   35.6290 C   0  0  0  0  0
   34.7750   50.1580   36.3930 C   0  0  0  0  0
   35.3120   47.4430   36.8590 F   0  0  0  0  0
   43.9150   51.5700   35.2350 C   0  0  0  0  0
   43.2120   52.7430   35.9650 C   0  0  0  0  0
   41.9060   52.3700   36.6390 C   0  0  0  0  0
   40.8650   51.8300   35.6160 C   0  0  0  0  0
   41.5390   50.6190   34.8280 C   0  0  0  0  0
   42.9090   50.9930   34.1840 C   0  0  0  0  0
   47.9280   52.3380   33.7030 C   0  0  0  0  0
   46.8350   52.7230   32.7650 C   0  0  0  0  0
   45.5410   52.5440   33.1610 C   0  0  0  0  0
   45.2380   51.8890   34.4870 C   0  0  0  0  0
   46.2370   51.5180   35.3430 C   0  0  0  0  0
   47.6470   51.7120   34.8780 N   0  0  0  0  0
   48.7020   51.4680   35.5080 N   0  0  0  0  0
   49.6960   51.8710   34.6930 C   0  0  0  0  0
   49.2510   52.4130   33.5330 N   0  0  0  0  0
   35.0350   47.0020   34.7230 F   0  0  0  0  0
   39.0739   52.3771   36.7798 H   0  0  0  0  0
   38.5898   50.0530   35.0238 H   0  0  0  0  0
   39.2468   51.8768   33.6250 H   0  0  0  0  0
   37.6169   51.5834   33.4396 H   0  0  0  0  0
   38.1316   52.8867   34.3415 H   0  0  0  0  0
   39.0417   52.0748   40.1069 H   0  0  0  0  0
   40.8001   52.2056   39.8579 H   0  0  0  0  0
   39.6774   52.8424   38.6312 H   0  0  0  0  0
   41.0161   49.6083   40.0191 H   0  0  0  0  0
   39.2577   49.4775   40.2681 H   0  0  0  0  0
   40.0257   48.6515   38.8900 H   0  0  0  0  0
   37.3552   48.3507   35.8110 H   0  0  0  0  0
   36.7268   48.7919   34.2823 H   0  0  0  0  0
   33.2165   48.6434   36.0913 H   0  0  0  0  0
   33.8123   49.2811   34.6272 H   0  0  0  0  0
   34.2730   51.1147   36.2489 H   0  0  0  0  0
   34.7168   50.0600   37.4770 H   0  0  0  0  0
   44.1993   50.8794   36.0290 H   0  0  0  0  0
   42.9790   53.4949   35.2110 H   0  0  0  0  0
   43.8895   53.0841   36.7478 H   0  0  0  0  0
   41.4945   53.2631   37.1092 H   0  0  0  0  0
   42.1078   51.5869   37.3699 H   0  0  0  0  0
   40.6012   52.6023   34.8935 H   0  0  0  0  0
   40.8628   50.3313   34.0230 H   0  0  0  0  0
   41.7183   49.8174   35.5445 H   0  0  0  0  0
   43.3432   50.0883   33.7585 H   0  0  0  0  0
   42.7319   51.7573   33.4274 H   0  0  0  0  0
   47.0643   53.1386   31.7838 H   0  0  0  0  0
   44.7249   52.8746   32.5186 H   0  0  0  0  0
   46.0162   51.0980   36.3243 H   0  0  0  0  0
   50.7526   51.7712   34.9415 H   0  0  0  0  0
  1  2  1  0  0  0
  1  5  1  0  0  0
 20  1  1  0  0  0
  2  3  1  0  0  0
  2  6  1  0  0  0
  3  4  1  0  0  0
  3  7  2  0  0  0
  4 12  1  0  0  0
  4 15  1  0  0  0
  5  8  2  0  0  0
  5  9  1  0  0  0
  9 10  1  0  0  0
  9 11  1  0  0  0
 12 13  1  0  0  0
 14 13  1  0  0  0
 13 16  1  0  0  0
 13 32  1  0  0  0
 15 14  1  0  0  0
 17 18  1  0  0  0
 17 22  1  0  0  0
 26 17  1  0  0  0
 18 19  1  0  0  0
 19 20  1  0  0  0
 21 20  1  0  0  0
 22 21  1  0  0  0
 24 23  4  0  0  0
 23 28  4  0  0  0
 23 31  4  0  0  0
 25 24  4  0  0  0
 25 26  4  0  0  0
 26 27  4  0  0  0
 27 28  4  0  0  0
 28 29  4  0  0  0
 29 30  4  0  0  0
 30 31  4  0  0  0
  1 33  1  0  0  0
  2 34  1  0  0  0
  6 35  1  0  0  0
  6 36  1  0  0  0
  6 37  1  0  0  0
 10 38  1  0  0  0
 10 39  1  0  0  0
 10 40  1  0  0  0
 11 41  1  0  0  0
 11 42  1  0  0  0
 11 43  1  0  0  0
 12 44  1  0  0  0
 12 45  1  0  0  0
 14 46  1  0  0  0
 14 47  1  0  0  0
 15 48  1  0  0  0
 15 49  1  0  0  0
 17 50  1  0  0  0
 18 51  1  0  0  0
 18 52  1  0  0  0
 19 53  1  0  0  0
 19 54  1  0  0  0
 20 55  1  0  0  0
 21 56  1  0  0  0
 21 57  1  0  0  0
 22 58  1  0  0  0
 22 59  1  0  0  0
 24 60  1  0  0  0
 25 61  1  0  0  0
 27 62  1  0  0  0
 30 63  1  0  0  0
M  END
$$$$
