3d78_ligand
  -I-interpret- 

 29 29  0  0  0  0  0  0  0  0999 V2000
   15.7640   16.5820    2.2820 O   0  0  0  0  0
   14.6900   17.5370    2.0290 S   0  0  0  0  0
   14.9500   17.9750    0.6140 O   0  0  0  0  0
   14.6030   18.6870    3.1040 N   0  0  0  0  0
   13.3370   19.3540    3.6400 C   0  0  0  0  0
   13.3130   19.8580    5.1230 C   0  0  0  0  0
   11.9490   20.1580    5.8020 C   0  0  0  0  0
   11.8010   21.3150    6.7910 C   0  0  0  0  0
   13.2840   16.7420    2.1630 C   0  0  0  0  0
   12.3770   16.6840    1.1190 C   0  0  0  0  0
   11.1630   16.0250    1.1880 C   0  0  0  0  0
   10.8280   15.3980    2.3690 C   0  0  0  0  0
   11.7040   15.4680    3.4480 C   0  0  0  0  0
   12.9320   16.1270    3.3550 C   0  0  0  0  0
   15.4885   19.0224    3.4831 H   0  0  0  0  0
   12.5711   18.5797    3.5944 H   0  0  0  0  0
   13.2165   20.2533    3.0361 H   0  0  0  0  0
   13.8289   20.8179    5.0990 H   0  0  0  0  0
   13.7378   19.0382    5.7023 H   0  0  0  0  0
   11.7506   19.2698    6.4018 H   0  0  0  0  0
   11.2955   20.4322    4.9739 H   0  0  0  0  0
   12.4762   21.1605    7.6326 H   0  0  0  0  0
   12.0488   22.2518    6.2920 H   0  0  0  0  0
   10.7729   21.3544    7.1508 H   0  0  0  0  0
   12.6348   17.1875    0.1873 H   0  0  0  0  0
   10.4892   16.0020    0.3315 H   0  0  0  0  0
    9.8878   14.8536    2.4567 H   0  0  0  0  0
   11.4246   14.9963    4.3901 H   0  0  0  0  0
   13.6067   16.1576    4.2106 H   0  0  0  0  0
  1  2  2  0  0  0
  2  3  2  0  0  0
  2  4  1  0  0  0
  2  9  1  0  0  0
  4  5  1  0  0  0
  5  6  1  0  0  0
  6  7  1  0  0  0
  7  8  1  0  0  0
  9 10  4  0  0  0
  9 14  4  0  0  0
 10 11  4  0  0  0
 11 12  4  0  0  0
 12 13  4  0  0  0
 13 14  4  0  0  0
  4 15  1  0  0  0
  5 16  1  0  0  0
  5 17  1  0  0  0
  6 18  1  0  0  0
  6 19  1  0  0  0
  7 20  1  0  0  0
  7 21  1  0  0  0
  8 22  1  0  0  0
  8 23  1  0  0  0
  8 24  1  0  0  0
 10 25  1  0  0  0
 11 26  1  0  0  0
 12 27  1  0  0  0
 13 28  1  0  0  0
 14 29  1  0  0  0
M  END
$$$$
