6os6_ligand
  -I-interpret- 

 27 28  0  0  0  0  0  0  0  0999 V2000
   45.0680   11.1760   20.5080 N   0  3  0  0  0
   44.5330   11.9460   19.3830 C   0  0  0  0  0
   45.2460   13.2800   19.2760 C   0  0  0  0  0
   44.9860   14.0370   18.3290 O   0  0  0  0  0
   43.0170   12.1270   19.5160 C   0  0  0  0  0
   42.5720   12.5660   20.8650 C   0  0  0  0  0
   42.1210   11.7690   21.8810 C   0  0  0  0  0
   42.5680   13.9040   21.3770 C   0  0  0  0  0
   41.8320   12.5250   22.9840 N   0  0  0  0  0
   42.1030   13.8380   22.7040 C   0  0  0  0  0
   42.9030   15.1510   20.8420 C   0  0  0  0  0
   41.9460   14.9760   23.4990 C   0  0  0  0  0
   42.7570   16.2730   21.6390 C   0  0  0  0  0
   42.2820   16.1760   22.9490 C   0  0  0  0  0
   46.1010   13.5560   20.1200 O   0  0  0  0  0
   46.0763   11.0694   20.3966 H   0  0  0  0  0
   44.8711   11.6681   21.3795 H   0  0  0  0  0
   44.6279   10.2561   20.5287 H   0  0  0  0  0
   44.7135   11.3917   18.4620 H   0  0  0  0  0
   44.2968   13.6453   17.7876 H   0  0  0  0  0
   42.5592   11.1561   19.3263 H   0  0  0  0  0
   42.7228   12.9047   18.8113 H   0  0  0  0  0
   42.0080   10.6866   21.8205 H   0  0  0  0  0
   43.2711   15.2379   19.8197 H   0  0  0  0  0
   41.5694   14.9064   24.5195 H   0  0  0  0  0
   43.0179   17.2518   21.2365 H   0  0  0  0  0
   42.1777   17.0823   23.5455 H   0  0  0  0  0
  1  2  1  0  0  0
  2  3  1  0  0  0
  2  5  1  0  0  0
  3  4  1  0  0  0
  3 15  2  0  0  0
  5  6  1  0  0  0
  6  7  4  0  0  0
  6  8  4  0  0  0
  7  9  4  0  0  0
  8 10  4  0  0  0
  8 11  4  0  0  0
  9 10  4  0  0  0
 10 12  4  0  0  0
 11 13  4  0  0  0
 12 14  4  0  0  0
 13 14  4  0  0  0
  1 16  1  0  0  0
  1 17  1  0  0  0
  1 18  1  0  0  0
  2 19  1  0  0  0
  4 20  1  0  0  0
  5 21  1  0  0  0
  5 22  1  0  0  0
  7 23  1  0  0  0
 11 24  1  0  0  0
 12 25  1  0  0  0
 13 26  1  0  0  0
 14 27  1  0  0  0
M  END
$$$$
