6nk0_ligand
  -I-interpret- 

176181  0  0  0  0  0  0  0  0999 V2000
  -39.9970    9.9250  -46.5760 N   0  3  0  0  0
  -39.4760    8.6040  -46.2570 C   0  0  0  0  0
  -38.0110    8.7830  -45.7870 C   0  0  0  0  0
  -37.3410    7.4850  -45.4560 C   0  0  0  0  0
  -37.8760    6.4150  -45.6240 O   0  0  0  0  0
  -36.1160    7.6170  -44.9780 N   0  0  0  0  0
  -35.3810    6.5310  -44.4060 C   0  0  0  0  0
  -35.9330    6.1950  -43.0300 C   0  0  0  0  0
  -36.3320    7.0890  -42.2620 O   0  0  0  0  0
  -33.9110    6.8940  -44.2500 C   0  0  0  0  0
  -33.1900    7.1710  -45.5320 C   0  0  0  0  0
  -32.9120    8.3870  -46.1180 C   0  0  0  0  0
  -32.6150    6.1930  -46.3720 C   0  0  0  0  0
  -32.2000    8.2060  -47.2590 N   0  0  0  0  0
  -32.0230    6.8640  -47.4560 C   0  0  0  0  0
  -32.5710    4.8060  -46.3360 C   0  0  0  0  0
  -31.3570    6.2050  -48.4690 C   0  0  0  0  0
  -31.9070    4.1580  -47.3650 C   0  0  0  0  0
  -31.3110    4.8510  -48.3940 C   0  0  0  0  0
  -35.8930    4.9230  -42.6730 N   0  0  0  0  0
  -36.2750    4.5010  -41.3340 C   0  0  0  0  0
  -35.0460    4.2710  -40.4660 C   0  0  0  0  0
  -34.0690    3.6480  -40.8830 O   0  0  0  0  0
  -37.1050    3.2190  -41.3480 C   0  0  0  0  0
  -38.4210    3.2790  -42.0880 C   0  0  0  0  0
  -39.1260    1.9020  -42.0390 C   0  0  0  0  0
  -39.2570    4.3810  -41.5040 C   0  0  0  0  0
  -35.1300    4.6750  -39.2110 N   0  0  0  0  0
  -34.0480    4.4400  -38.2740 C   0  0  0  0  0
  -34.0070    3.0290  -37.7140 C   0  0  0  0  0
  -32.9460    2.5950  -37.2410 O   0  0  0  0  0
  -34.1450    5.4100  -37.0840 C   0  0  0  0  0
  -35.1310    2.3260  -37.7080 N   0  0  0  0  0
  -35.2180    1.0180  -37.0560 C   0  0  0  0  0
  -36.0360    0.0910  -37.9480 C   0  0  0  0  0
  -37.0810    0.5030  -38.4860 O   0  0  0  0  0
  -35.8630    1.1660  -35.6770 C   0  0  0  0  0
  -35.6410   -0.0140  -34.7680 C   0  0  0  0  0
  -36.4940   -1.0940  -34.7860 C   0  0  0  0  0
  -34.5660   -0.0610  -33.8990 C   0  0  0  0  0
  -36.2940   -2.1890  -33.9580 C   0  0  0  0  0
  -34.3720   -1.1250  -33.0770 C   0  0  0  0  0
  -35.2490   -2.1980  -33.0920 C   0  0  0  0  0
  -35.0590   -3.2860  -32.2650 O   0  0  0  0  0
  -35.6160   -1.1670  -38.1400 N   0  0  0  0  0
  -36.3460   -2.0190  -39.0750 C   0  0  0  0  0
  -37.7880   -2.2490  -38.6530 C   0  0  0  0  0
  -38.0960   -2.3880  -37.4680 O   0  0  0  0  0
  -35.5550   -3.3360  -39.0650 C   0  0  0  0  0
  -34.1770   -2.9770  -38.5730 C   0  0  0  0  0
  -34.4100   -1.8400  -37.6220 C   0  0  0  0  0
  -38.6590   -2.3470  -39.6540 N   0  0  0  0  0
  -40.0530   -2.7330  -39.4310 C   0  0  0  0  0
  -40.7360   -1.8420  -38.4050 C   0  0  0  0  0
  -41.5040   -2.3130  -37.5620 O   0  0  0  0  0
  -40.1220   -4.1960  -39.0240 C   0  0  0  0  0
  -39.4360   -5.0860  -40.0140 C   0  0  0  0  0
  -39.8530   -5.0620  -41.1990 O   0  0  0  0  0
  -38.4560   -5.7700  -39.6390 O   0  0  0  0  0
  -40.4070   -0.5550  -38.4290 N   0  0  0  0  0
  -41.0240    0.4030  -37.5240 C   0  0  0  0  0
  -41.9970    1.2990  -38.2770 C   0  0  0  0  0
  -41.8140    1.6130  -39.4550 O   0  0  0  0  0
  -39.9600    1.2190  -36.7540 C   0  0  0  0  0
  -39.1470    1.9870  -37.6120 O   0  0  0  0  0
  -43.0680    1.6470  -37.5810 N   0  0  0  0  0
  -44.1540    2.4840  -38.0840 C   0  0  0  0  0
  -44.5460    3.4810  -37.0230 C   0  0  0  0  0
  -44.3570    3.2540  -35.8040 O   0  0  0  0  0
  -45.3800    1.6490  -38.4780 C   0  0  0  0  0
  -45.0510    0.5960  -39.5880 C   0  0  0  0  0
  -45.9480    0.9340  -37.2970 C   0  0  0  0  0
  -45.1320    4.6040  -37.4030 N   0  0  0  0  0
  -45.5700    5.5750  -36.4040 C   0  0  0  0  0
  -46.5920    4.9850  -35.4480 C   0  0  0  0  0
  -47.4410    4.1750  -35.8190 O   0  0  0  0  0
  -46.1670    6.7110  -37.2320 C   0  0  0  0  0
  -45.4370    6.5740  -38.5840 C   0  0  0  0  0
  -45.2800    5.1020  -38.7920 C   0  0  0  0  0
  -46.5200    5.4370  -34.2060 N   0  0  0  0  0
  -47.4570    5.0600  -33.1980 C   0  0  0  0  0
  -48.2120    6.3120  -32.8960 C   0  0  0  0  0
  -47.6280    7.2100  -32.2600 O   0  0  0  0  0
  -46.8050    4.5390  -31.9540 C   0  0  0  0  0
  -47.8400    4.3640  -30.8650 C   0  0  0  0  0
  -48.2140    5.4410  -30.0760 C   0  0  0  0  0
  -48.4850    3.1540  -30.6620 C   0  0  0  0  0
  -49.1750    5.3080  -29.0730 C   0  0  0  0  0
  -49.4320    3.0050  -29.6560 C   0  0  0  0  0
  -49.7770    4.0880  -28.8760 C   0  0  0  0  0
  -50.7260    3.9440  -27.8930 O   0  0  0  0  0
  -49.3890    6.3980  -33.2950 O   0  0  0  0  0
  -40.9639    9.8411  -46.8899 H   0  0  0  0  0
  -39.9582   10.5144  -45.7444 H   0  0  0  0  0
  -39.4328   10.3420  -47.3164 H   0  0  0  0  0
  -39.5193    7.9554  -47.1320 H   0  0  0  0  0
  -40.0735    8.1373  -45.4739 H   0  0  0  0  0
  -38.0240    9.3906  -44.8822 H   0  0  0  0  0
  -37.4546    9.2460  -46.6020 H   0  0  0  0  0
  -35.6742    8.5355  -45.0188 H   0  0  0  0  0
  -35.4788    5.6761  -45.0751 H   0  0  0  0  0
  -33.4210    6.0348  -43.7920 H   0  0  0  0  0
  -33.8734    7.8114  -43.6626 H   0  0  0  0  0
  -33.2197    9.3548  -45.7220 H   0  0  0  0  0
  -33.0418    4.2469  -45.5274 H   0  0  0  0  0
  -30.8896    6.7469  -49.2912 H   0  0  0  0  0
  -31.8552    3.0692  -47.3595 H   0  0  0  0  0
  -30.7866    4.2957  -49.1716 H   0  0  0  0  0
  -35.5883    4.2233  -43.3497 H   0  0  0  0  0
  -36.8810    5.3072  -40.9206 H   0  0  0  0  0
  -37.3520    3.0069  -40.3078 H   0  0  0  0  0
  -36.5010    2.4729  -41.8644 H   0  0  0  0  0
  -38.2574    3.5052  -43.1417 H   0  0  0  0  0
  -38.4878    1.1517  -42.5057 H   0  0  0  0  0
  -39.3123    1.6274  -41.0007 H   0  0  0  0  0
  -40.0726    1.9606  -42.5762 H   0  0  0  0  0
  -39.4361    4.1788  -40.4480 H   0  0  0  0  0
  -38.7305    5.3296  -41.6094 H   0  0  0  0  0
  -40.2092    4.4318  -42.0321 H   0  0  0  0  0
  -35.9699    5.1603  -38.8956 H   0  0  0  0  0
  -33.1376    4.5990  -38.8519 H   0  0  0  0  0
  -34.0830    6.4359  -37.4471 H   0  0  0  0  0
  -35.0958    5.2612  -36.5722 H   0  0  0  0  0
  -33.3247    5.2178  -36.3924 H   0  0  0  0  0
  -35.9570    2.7065  -38.1699 H   0  0  0  0  0
  -34.2235    0.5952  -36.9134 H   0  0  0  0  0
  -36.9381    1.2583  -35.8308 H   0  0  0  0  0
  -35.4082    2.0333  -35.1984 H   0  0  0  0  0
  -37.3458   -1.0889  -35.4661 H   0  0  0  0  0
  -33.8618    0.7706  -33.8733 H   0  0  0  0  0
  -36.9741   -3.0396  -34.0028 H   0  0  0  0  0
  -33.5184   -1.1349  -32.3992 H   0  0  0  0  0
  -34.2842   -3.1390  -31.7176 H   0  0  0  0  0
  -36.4166   -1.5644  -40.0632 H   0  0  0  0  0
  -35.5192   -3.7869  -40.0567 H   0  0  0  0  0
  -36.0266   -4.0792  -38.4221 H   0  0  0  0  0
  -33.5083   -2.7007  -39.3883 H   0  0  0  0  0
  -33.6795   -3.8195  -38.0926 H   0  0  0  0  0
  -34.5433   -2.1855  -36.5968 H   0  0  0  0  0
  -33.5548   -1.1659  -37.5736 H   0  0  0  0  0
  -38.3462   -2.1474  -40.6041 H   0  0  0  0  0
  -40.5956   -2.5993  -40.3669 H   0  0  0  0  0
  -41.1713   -4.4869  -38.9736 H   0  0  0  0  0
  -39.6215   -4.3064  -38.0620 H   0  0  0  0  0
  -40.6096   -4.4741  -41.2590 H   0  0  0  0  0
  -39.7067   -0.2314  -39.0963 H   0  0  0  0  0
  -41.5945   -0.1497  -36.7776 H   0  0  0  0  0
  -39.3187    0.5178  -36.2200 H   0  0  0  0  0
  -40.4799    1.9015  -36.0817 H   0  0  0  0  0
  -38.5045    2.4742  -37.0910 H   0  0  0  0  0
  -43.1400    1.3053  -36.6226 H   0  0  0  0  0
  -43.7984    2.9983  -38.9768 H   0  0  0  0  0
  -46.1107    2.3555  -38.8716 H   0  0  0  0  0
  -44.6917    1.1100  -40.4795 H   0  0  0  0  0
  -44.2813   -0.0848  -39.2245 H   0  0  0  0  0
  -45.9517    0.0320  -39.8304 H   0  0  0  0  0
  -45.1928    0.2684  -36.8791 H   0  0  0  0  0
  -46.2496    1.6618  -36.5437 H   0  0  0  0  0
  -46.8149    0.3516  -37.6089 H   0  0  0  0  0
  -44.7517    5.9066  -35.7648 H   0  0  0  0  0
  -46.0254    7.6891  -36.7722 H   0  0  0  0  0
  -47.2505    6.6405  -37.3274 H   0  0  0  0  0
  -44.4746    7.0857  -38.5769 H   0  0  0  0  0
  -45.9980    7.0388  -39.3947 H   0  0  0  0  0
  -46.1179    4.6510  -39.3236 H   0  0  0  0  0
  -44.4364    4.8458  -39.4330 H   0  0  0  0  0
  -45.7664    6.0789  -33.9602 H   0  0  0  0  0
  -48.0896    4.2452  -33.5501 H   0  0  0  0  0
  -46.7331    6.9272  -32.0579 H   0  0  0  0  0
  -46.0484    5.2491  -31.6202 H   0  0  0  0  0
  -46.3413    3.5759  -32.1674 H   0  0  0  0  0
  -47.7476    6.4120  -30.2427 H   0  0  0  0  0
  -48.2453    2.3050  -31.3023 H   0  0  0  0  0
  -49.4454    6.1623  -28.4524 H   0  0  0  0  0
  -49.9001    2.0357  -29.4844 H   0  0  0  0  0
  -51.0443    3.0383  -27.8873 H   0  0  0  0  0
  1  2  1  0  0  0
  2  3  1  0  0  0
  3  4  1  0  0  0
  4  5  2  0  0  0
  4  6  1  0  0  0
  6  7  1  0  0  0
  7  8  1  0  0  0
  7 10  1  0  0  0
  8  9  2  0  0  0
  8 20  1  0  0  0
 10 11  1  0  0  0
 11 12  4  0  0  0
 11 13  4  0  0  0
 12 14  4  0  0  0
 13 15  4  0  0  0
 13 16  4  0  0  0
 14 15  4  0  0  0
 15 17  4  0  0  0
 16 18  4  0  0  0
 17 19  4  0  0  0
 18 19  4  0  0  0
 20 21  1  0  0  0
 21 22  1  0  0  0
 21 24  1  0  0  0
 22 23  2  0  0  0
 22 28  1  0  0  0
 24 25  1  0  0  0
 25 26  1  0  0  0
 25 27  1  0  0  0
 28 29  1  0  0  0
 29 30  1  0  0  0
 29 32  1  0  0  0
 30 31  2  0  0  0
 30 33  1  0  0  0
 33 34  1  0  0  0
 34 35  1  0  0  0
 34 37  1  0  0  0
 35 36  2  0  0  0
 35 45  1  0  0  0
 37 38  1  0  0  0
 38 39  4  0  0  0
 38 40  4  0  0  0
 39 41  4  0  0  0
 40 42  4  0  0  0
 41 43  4  0  0  0
 42 43  4  0  0  0
 43 44  1  0  0  0
 45 46  1  0  0  0
 45 51  1  0  0  0
 46 47  1  0  0  0
 46 49  1  0  0  0
 47 48  2  0  0  0
 47 52  1  0  0  0
 49 50  1  0  0  0
 50 51  1  0  0  0
 52 53  1  0  0  0
 53 54  1  0  0  0
 53 56  1  0  0  0
 54 55  2  0  0  0
 54 60  1  0  0  0
 56 57  1  0  0  0
 57 58  1  0  0  0
 57 59  2  0  0  0
 60 61  1  0  0  0
 61 62  1  0  0  0
 61 64  1  0  0  0
 62 63  2  0  0  0
 62 66  1  0  0  0
 64 65  1  0  0  0
 66 67  1  0  0  0
 67 68  1  0  0  0
 67 70  1  0  0  0
 68 69  2  0  0  0
 68 73  1  0  0  0
 70 71  1  0  0  0
 70 72  1  0  0  0
 73 74  1  0  0  0
 73 79  1  0  0  0
 74 75  1  0  0  0
 74 77  1  0  0  0
 75 76  2  0  0  0
 75 80  1  0  0  0
 77 78  1  0  0  0
 78 79  1  0  0  0
 80 81  1  0  0  0
 81 82  1  0  0  0
 81 84  1  0  0  0
 82 83  1  0  0  0
 82 92  2  0  0  0
 84 85  1  0  0  0
 85 86  4  0  0  0
 85 87  4  0  0  0
 86 88  4  0  0  0
 87 89  4  0  0  0
 88 90  4  0  0  0
 89 90  4  0  0  0
 90 91  1  0  0  0
  1 93  1  0  0  0
  1 94  1  0  0  0
  1 95  1  0  0  0
  2 96  1  0  0  0
  2 97  1  0  0  0
  3 98  1  0  0  0
  3 99  1  0  0  0
  6100  1  0  0  0
  7101  1  0  0  0
 10102  1  0  0  0
 10103  1  0  0  0
 12104  1  0  0  0
 16105  1  0  0  0
 17106  1  0  0  0
 18107  1  0  0  0
 19108  1  0  0  0
 20109  1  0  0  0
 21110  1  0  0  0
 24111  1  0  0  0
 24112  1  0  0  0
 25113  1  0  0  0
 26114  1  0  0  0
 26115  1  0  0  0
 26116  1  0  0  0
 27117  1  0  0  0
 27118  1  0  0  0
 27119  1  0  0  0
 28120  1  0  0  0
 29121  1  0  0  0
 32122  1  0  0  0
 32123  1  0  0  0
 32124  1  0  0  0
 33125  1  0  0  0
 34126  1  0  0  0
 37127  1  0  0  0
 37128  1  0  0  0
 39129  1  0  0  0
 40130  1  0  0  0
 41131  1  0  0  0
 42132  1  0  0  0
 44133  1  0  0  0
 46134  1  0  0  0
 49135  1  0  0  0
 49136  1  0  0  0
 50137  1  0  0  0
 50138  1  0  0  0
 51139  1  0  0  0
 51140  1  0  0  0
 52141  1  0  0  0
 53142  1  0  0  0
 56143  1  0  0  0
 56144  1  0  0  0
 58145  1  0  0  0
 60146  1  0  0  0
 61147  1  0  0  0
 64148  1  0  0  0
 64149  1  0  0  0
 65150  1  0  0  0
 66151  1  0  0  0
 67152  1  0  0  0
 70153  1  0  0  0
 71154  1  0  0  0
 71155  1  0  0  0
 71156  1  0  0  0
 72157  1  0  0  0
 72158  1  0  0  0
 72159  1  0  0  0
 74160  1  0  0  0
 77161  1  0  0  0
 77162  1  0  0  0
 78163  1  0  0  0
 78164  1  0  0  0
 79165  1  0  0  0
 79166  1  0  0  0
 80167  1  0  0  0
 81168  1  0  0  0
 83169  1  0  0  0
 84170  1  0  0  0
 84171  1  0  0  0
 86172  1  0  0  0
 87173  1  0  0  0
 88174  1  0  0  0
 89175  1  0  0  0
 91176  1  0  0  0
M  END
$$$$
