### 
### Created by X-TOOL on Mon Aug  2 16:11:44 2021
### 

@<TRIPOS>MOLECULE
6nk0_ligand
  175   180     1     0     0
SMALL
GAST_HUCK


@<TRIPOS>ATOM
      1 N         -39.9970    9.9250  -46.5760 N.4       1 BAL         0.2202
      2 CB        -39.4760    8.6040  -46.2570 C.3       1 BAL        -0.0184
      3 CA        -38.0110    8.7830  -45.7870 C.3       1 BAL         0.0773
      4 C         -37.3410    7.4850  -45.4560 C.2       1 BAL         0.1834
      5 O         -37.8760    6.4150  -45.6240 O.2       1 BAL        -0.3967
      6 N         -36.1160    7.6170  -44.9780 N.am      1 BAL        -0.2644
      7 CA        -35.3810    6.5310  -44.4060 C.3       1 BAL         0.1351
      8 C         -35.9330    6.1950  -43.0300 C.2       1 BAL         0.2052
      9 O         -36.3320    7.0890  -42.2620 O.2       1 BAL        -0.3942
     10 CB        -33.9110    6.8940  -44.2500 C.3       1 BAL         0.0042
     11 CG        -33.1900    7.1710  -45.5320 C.2       1 BAL        -0.0418
     12 CD1       -32.9120    8.3870  -46.1180 C.2       1 BAL         0.0167
     13 CD2       -32.6150    6.1930  -46.3720 C.ar      1 BAL        -0.0214
     14 NE1       -32.2000    8.2060  -47.2590 N.pl3     1 BAL        -0.2890
     15 CE2       -32.0230    6.8640  -47.4560 C.ar      1 BAL         0.0603
     16 CE3       -32.5710    4.8060  -46.3360 C.ar      1 BAL        -0.0747
     17 CZ2       -31.3570    6.2050  -48.4690 C.ar      1 BAL        -0.0443
     18 CZ3       -31.9070    4.1580  -47.3650 C.ar      1 BAL        -0.0792
     19 CH2       -31.3110    4.8510  -48.3940 C.ar      1 BAL        -0.0768
     20 N         -35.8930    4.9230  -42.6730 N.am      1 BAL        -0.2636
     21 CA        -36.2750    4.5010  -41.3340 C.3       1 BAL         0.1312
     22 C         -35.0460    4.2710  -40.4660 C.2       1 BAL         0.2039
     23 O         -34.0690    3.6480  -40.8830 O.2       1 BAL        -0.3944
     24 CB        -37.1050    3.2190  -41.3480 C.3       1 BAL        -0.0101
     25 CG        -38.4210    3.2790  -42.0880 C.3       1 BAL        -0.0425
     26 CD1       -39.1260    1.9020  -42.0390 C.3       1 BAL        -0.0625
     27 CD2       -39.2570    4.3810  -41.5040 C.3       1 BAL        -0.0625
     28 N         -35.1300    4.6750  -39.2110 N.am      1 BAL        -0.2640
     29 CA        -34.0480    4.4400  -38.2740 C.3       1 BAL         0.1282
     30 C         -34.0070    3.0290  -37.7140 C.2       1 BAL         0.2037
     31 O         -32.9460    2.5950  -37.2410 O.2       1 BAL        -0.3944
     32 CB        -34.1450    5.4100  -37.0840 C.3       1 BAL        -0.0244
     33 N         -35.1310    2.3260  -37.7080 N.am      1 BAL        -0.2621
     34 CA        -35.2180    1.0180  -37.0560 C.3       1 BAL         0.1392
     35 C         -36.0360    0.0910  -37.9480 C.2       1 BAL         0.2082
     36 O         -37.0810    0.5030  -38.4860 O.2       1 BAL        -0.3940
     37 CB        -35.8630    1.1660  -35.6770 C.3       1 BAL         0.0164
     38 CG        -35.6410   -0.0140  -34.7680 C.ar      1 BAL        -0.0493
     39 CD1       -36.4940   -1.0940  -34.7860 C.ar      1 BAL        -0.0685
     40 CD2       -34.5660   -0.0610  -33.8990 C.ar      1 BAL        -0.0685
     41 CE1       -36.2940   -2.1890  -33.9580 C.ar      1 BAL        -0.0398
     42 CE2       -34.3720   -1.1250  -33.0770 C.ar      1 BAL        -0.0398
     43 CZ        -35.2490   -2.1980  -33.0920 C.ar      1 BAL         0.0805
     44 OH        -35.0590   -3.2860  -32.2650 O.3       1 BAL        -0.3376
     45 N         -35.6160   -1.1670  -38.1400 N.am      1 BAL        -0.2497
     46 CA        -36.3460   -2.0190  -39.0750 C.3       1 BAL         0.1338
     47 C         -37.7880   -2.2490  -38.6530 C.2       1 BAL         0.2042
     48 O         -38.0960   -2.3880  -37.4680 O.2       1 BAL        -0.3944
     49 CB        -35.5550   -3.3360  -39.0650 C.3       1 BAL        -0.0104
     50 CG        -34.1770   -2.9770  -38.5730 C.3       1 BAL        -0.0281
     51 CD        -34.4100   -1.8400  -37.6220 C.3       1 BAL         0.0369
     52 N         -38.6590   -2.3470  -39.6540 N.am      1 BAL        -0.2622
     53 CA        -40.0530   -2.7330  -39.4310 C.3       1 BAL         0.1423
     54 C         -40.7360   -1.8420  -38.4050 C.2       1 BAL         0.2057
     55 O         -41.5040   -2.3130  -37.5620 O.2       1 BAL        -0.3943
     56 CB        -40.1220   -4.1960  -39.0240 C.3       1 BAL         0.0406
     57 CG        -39.4360   -5.0860  -40.0140 C.2       1 BAL         0.0393
     58 OD1       -39.8530   -5.0620  -41.1990 O.co2     1 BAL        -0.5688
     59 OD2       -38.4560   -5.7700  -39.6390 O.co2     1 BAL        -0.5688
     60 N         -40.4070   -0.5550  -38.4290 N.am      1 BAL        -0.2615
     61 CA        -41.0240    0.4030  -37.5240 C.3       1 BAL         0.1539
     62 C         -41.9970    1.2990  -38.2770 C.2       1 BAL         0.2062
     63 O         -41.8140    1.6130  -39.4550 O.2       1 BAL        -0.3943
     64 CB        -39.9600    1.2190  -36.7540 C.3       1 BAL         0.0843
     65 OG        -39.1470    1.9870  -37.6120 O.3       1 BAL        -0.3903
     66 N         -43.0680    1.6470  -37.5810 N.am      1 BAL        -0.2634
     67 CA        -44.1540    2.4840  -38.0840 C.3       1 BAL         0.1334
     68 C         -44.5460    3.4810  -37.0230 C.2       1 BAL         0.2066
     69 O         -44.3570    3.2540  -35.8040 O.2       1 BAL        -0.3942
     70 CB        -45.3800    1.6490  -38.4780 C.3       1 BAL        -0.0062
     71 CG1       -45.0510    0.5960  -39.5880 C.3       1 BAL        -0.0584
     72 CG2       -45.9480    0.9340  -37.2970 C.3       1 BAL        -0.0584
     73 N         -45.1320    4.6040  -37.4030 N.am      1 BAL        -0.2498
     74 CA        -45.5700    5.5750  -36.4040 C.3       1 BAL         0.1337
     75 C         -46.5920    4.9850  -35.4480 C.2       1 BAL         0.2037
     76 O         -47.4410    4.1750  -35.8190 O.2       1 BAL        -0.3944
     77 CB        -46.1670    6.7110  -37.2320 C.3       1 BAL        -0.0104
     78 CG        -45.4370    6.5740  -38.5840 C.3       1 BAL        -0.0281
     79 CD        -45.2800    5.1020  -38.7920 C.3       1 BAL         0.0369
     80 N         -46.5200    5.4370  -34.2060 N.am      1 BAL        -0.2679
     81 CA        -47.4570    5.0600  -33.1980 C.3       1 BAL         0.1025
     82 C         -48.2120    6.3120  -32.8960 C.2       1 BAL         0.0619
     83 O         -47.6280    7.2100  -32.2600 O.co2     1 BAL        -0.5665
     84 CB        -46.8050    4.5390  -31.9540 C.3       1 BAL         0.0108
     85 CG        -47.8400    4.3640  -30.8650 C.ar      1 BAL        -0.0499
     86 CD1       -48.2140    5.4410  -30.0760 C.ar      1 BAL        -0.0686
     87 CD2       -48.4850    3.1540  -30.6620 C.ar      1 BAL        -0.0686
     88 CE1       -49.1750    5.3080  -29.0730 C.ar      1 BAL        -0.0398
     89 CE2       -49.4320    3.0050  -29.6560 C.ar      1 BAL        -0.0398
     90 CZ        -49.7770    4.0880  -28.8760 C.ar      1 BAL         0.0805
     91 OH        -50.7260    3.9440  -27.8930 O.3       1 BAL        -0.3376
     92 OXT       -49.3890    6.3980  -33.2950 O.co2     1 BAL        -0.5665
     93 H1        -40.9525    9.8433  -46.8864 H         1 BAL         0.1996
     94 H2        -39.4402   10.3381  -47.3077 H         1 BAL         0.1996
     95 H3        -39.9592   10.5084  -45.7549 H         1 BAL         0.1996
     96 H4        -39.5083    7.9618  -47.1495 H         1 BAL         0.0839
     97 H5        -40.0747    8.1476  -45.4550 H         1 BAL         0.0839
     98 H6        -38.0058    9.4192  -44.8897 H         1 BAL         0.0556
     99 H7        -37.4429    9.2762  -46.5895 H         1 BAL         0.0556
    100 H8        -35.6829    8.5174  -45.0180 H         1 BAL         0.1884
    101 H9        -35.4718    5.6531  -45.0625 H         1 BAL         0.0815
    102 H10       -33.4041    6.0573  -43.7470 H         1 BAL         0.0397
    103 H11       -33.8463    7.7937  -43.6205 H         1 BAL         0.0397
    104 H12       -33.2194    9.3539  -45.7224 H         1 BAL         0.0795
    105 H13       -31.8509    8.9546  -47.8743 H         1 BAL         0.2216
    106 H14       -33.0392    4.2500  -45.5319 H         1 BAL         0.0540
    107 H15       -30.8922    6.7439  -49.2867 H         1 BAL         0.0541
    108 H16       -31.8555    3.0752  -47.3595 H         1 BAL         0.0510
    109 H17       -30.7894    4.2988  -49.1674 H         1 BAL         0.0530
    110 H18       -35.5942    4.2370  -43.3364 H         1 BAL         0.1883
    111 H19       -36.8797    5.3025  -40.8847 H         1 BAL         0.0800
    112 H20       -37.3203    2.9482  -40.3038 H         1 BAL         0.0315
    113 H21       -36.4952    2.4305  -41.8131 H         1 BAL         0.0315
    114 H22       -38.2222    3.5205  -43.1426 H         1 BAL         0.0298
    115 H23       -40.0815    1.9598  -42.5808 H         1 BAL         0.0232
    116 H24       -39.3147    1.6237  -40.9917 H         1 BAL         0.0232
    117 H25       -38.4829    1.1438  -42.5097 H         1 BAL         0.0232
    118 H26       -38.7064    5.3312  -41.5663 H         1 BAL         0.0232
    119 H27       -39.4788    4.1542  -40.4507 H         1 BAL         0.0232
    120 H28       -40.1982    4.4650  -42.0671 H         1 BAL         0.0232
    121 H29       -35.9534    5.1508  -38.9018 H         1 BAL         0.1883
    122 H30       -33.1030    4.6241  -38.8060 H         1 BAL         0.0797
    123 H31       -33.3176    5.2170  -36.3853 H         1 BAL         0.0277
    124 H32       -35.1042    5.2608  -36.5666 H         1 BAL         0.0277
    125 H33       -34.0825    6.4457  -37.4491 H         1 BAL         0.0277
    126 H34       -35.9408    2.6990  -38.1608 H         1 BAL         0.1885
    127 H35       -34.2070    0.6023  -36.9332 H         1 BAL         0.0821
    128 H36       -36.9464    1.2982  -35.8141 H         1 BAL         0.0453
    129 H37       -35.4429    2.0598  -35.1926 H         1 BAL         0.0453
    130 H38       -37.3411   -1.0889  -35.4623 H         1 BAL         0.0530
    131 H39       -33.8657    0.7660  -33.8734 H         1 BAL         0.0530
    132 H40       -36.9704   -3.0349  -34.0026 H         1 BAL         0.0525
    133 H41       -33.5231   -1.1349  -32.4029 H         1 BAL         0.0525
    134 H42       -35.0755   -3.0005  -31.3591 H         1 BAL         0.2458
    135 H43       -36.3383   -1.5723  -40.0802 H         1 BAL         0.0802
    136 H44       -35.5024   -3.7601  -40.0786 H         1 BAL         0.0313
    137 H45       -36.0274   -4.0626  -38.3875 H         1 BAL         0.0313
    138 H46       -33.5345   -2.6614  -39.4082 H         1 BAL         0.0287
    139 H47       -33.7132   -3.8296  -38.0554 H         1 BAL         0.0287
    140 H48       -34.5816   -2.2150  -36.6022 H         1 BAL         0.0524
    141 H49       -33.5514   -1.1524  -37.6202 H         1 BAL         0.0524
    142 H50       -38.3523   -2.1513  -40.5855 H         1 BAL         0.1884
    143 H51       -40.5921   -2.6180  -40.3829 H         1 BAL         0.0819
    144 H52       -41.1781   -4.4947  -38.9499 H         1 BAL         0.0478
    145 H53       -39.6375   -4.3153  -38.0437 H         1 BAL         0.0478
    146 H54       -39.7204   -0.2378  -39.0832 H         1 BAL         0.1884
    147 H55       -41.6033   -0.1648  -36.7810 H         1 BAL         0.0823
    148 H56       -39.3207    0.5233  -36.1907 H         1 BAL         0.0606
    149 H57       -40.4721    1.8952  -36.0537 H         1 BAL         0.0606
    150 H58       -38.6945    1.4112  -38.2171 H         1 BAL         0.2097
    151 H59       -43.1386    1.3120  -36.6414 H         1 BAL         0.1883
    152 H60       -43.7979    3.0254  -38.9728 H         1 BAL         0.0803
    153 H61       -46.1433    2.3371  -38.8702 H         1 BAL         0.0343
    154 H62       -45.9593    0.0261  -39.8335 H         1 BAL         0.0234
    155 H63       -44.2743   -0.0918  -39.2223 H         1 BAL         0.0234
    156 H64       -44.6883    1.1134  -40.4884 H         1 BAL         0.0234
    157 H65       -46.1848    1.6617  -36.5069 H         1 BAL         0.0234
    158 H66       -45.2126    0.2086  -36.9189 H         1 BAL         0.0234
    159 H67       -46.8652    0.4049  -37.5949 H         1 BAL         0.0234
    160 H68       -44.7095    5.9373  -35.8224 H         1 BAL         0.0802
    161 H69       -45.9624    7.6877  -36.7692 H         1 BAL         0.0313
    162 H70       -47.2527    6.5833  -37.3540 H         1 BAL         0.0313
    163 H71       -44.4538    7.0657  -38.5440 H         1 BAL         0.0287
    164 H72       -46.0359    7.0170  -39.3933 H         1 BAL         0.0287
    165 H73       -46.1677    4.6709  -39.2779 H         1 BAL         0.0524
    166 H74       -44.3870    4.8772  -39.3937 H         1 BAL         0.0524
    167 H75       -45.7812    6.0663  -33.9650 H         1 BAL         0.1877
    168 H76       -48.1355    4.2883  -33.5905 H         1 BAL         0.0747
    169 H77       -46.0386    5.2527  -31.6175 H         1 BAL         0.0446
    170 H78       -46.3335    3.5686  -32.1683 H         1 BAL         0.0446
    171 H79       -47.7501    6.4066  -30.2418 H         1 BAL         0.0530
    172 H80       -48.2467    2.3097  -31.2987 H         1 BAL         0.0530
    173 H81       -49.4439    6.1576  -28.4558 H         1 BAL         0.0525
    174 H82       -49.8975    2.0411  -29.4853 H         1 BAL         0.0525
    175 H83       -50.8492    4.7749  -27.4492 H         1 BAL         0.2458
@<TRIPOS>BOND
     1    1    2 1  
     2    2    3 1  
     3    3    4 1  
     4    4    5 2  
     5    4    6 am 
     6    6    7 1  
     7    7    8 1  
     8    7   10 1  
     9    8    9 2  
    10    8   20 am 
    11   10   11 1  
    12   11   12 2  
    13   11   13 1  
    14   12   14 1  
    15   13   15 ar 
    16   13   16 ar 
    17   14   15 1  
    18   15   17 ar 
    19   16   18 ar 
    20   17   19 ar 
    21   18   19 ar 
    22   20   21 1  
    23   21   22 1  
    24   21   24 1  
    25   22   23 2  
    26   22   28 am 
    27   24   25 1  
    28   25   26 1  
    29   25   27 1  
    30   28   29 1  
    31   29   30 1  
    32   29   32 1  
    33   30   31 2  
    34   30   33 am 
    35   33   34 1  
    36   34   35 1  
    37   34   37 1  
    38   35   36 2  
    39   35   45 am 
    40   37   38 1  
    41   38   39 ar 
    42   38   40 ar 
    43   39   41 ar 
    44   40   42 ar 
    45   41   43 ar 
    46   42   43 ar 
    47   43   44 1  
    48   45   46 1  
    49   45   51 1  
    50   46   47 1  
    51   46   49 1  
    52   47   48 2  
    53   47   52 am 
    54   49   50 1  
    55   50   51 1  
    56   52   53 1  
    57   53   54 1  
    58   53   56 1  
    59   54   55 2  
    60   54   60 am 
    61   56   57 1  
    62   57   58 ar 
    63   57   59 ar 
    64   60   61 1  
    65   61   62 1  
    66   61   64 1  
    67   62   63 2  
    68   62   66 am 
    69   64   65 1  
    70   66   67 1  
    71   67   68 1  
    72   67   70 1  
    73   68   69 2  
    74   68   73 am 
    75   70   71 1  
    76   70   72 1  
    77   73   74 1  
    78   73   79 1  
    79   74   75 1  
    80   74   77 1  
    81   75   76 2  
    82   75   80 am 
    83   77   78 1  
    84   78   79 1  
    85   80   81 1  
    86   81   82 1  
    87   81   84 1  
    88   82   83 ar 
    89   82   92 ar 
    90   84   85 1  
    91   85   86 ar 
    92   85   87 ar 
    93   86   88 ar 
    94   87   89 ar 
    95   88   90 ar 
    96   89   90 ar 
    97   90   91 1  
    98    1   93 1  
    99    1   94 1  
   100    1   95 1  
   101    2   96 1  
   102    2   97 1  
   103    3   98 1  
   104    3   99 1  
   105    6  100 1  
   106    7  101 1  
   107   10  102 1  
   108   10  103 1  
   109   12  104 1  
   110   14  105 1  
   111   16  106 1  
   112   17  107 1  
   113   18  108 1  
   114   19  109 1  
   115   20  110 1  
   116   21  111 1  
   117   24  112 1  
   118   24  113 1  
   119   25  114 1  
   120   26  115 1  
   121   26  116 1  
   122   26  117 1  
   123   27  118 1  
   124   27  119 1  
   125   27  120 1  
   126   28  121 1  
   127   29  122 1  
   128   32  123 1  
   129   32  124 1  
   130   32  125 1  
   131   33  126 1  
   132   34  127 1  
   133   37  128 1  
   134   37  129 1  
   135   39  130 1  
   136   40  131 1  
   137   41  132 1  
   138   42  133 1  
   139   44  134 1  
   140   46  135 1  
   141   49  136 1  
   142   49  137 1  
   143   50  138 1  
   144   50  139 1  
   145   51  140 1  
   146   51  141 1  
   147   52  142 1  
   148   53  143 1  
   149   56  144 1  
   150   56  145 1  
   151   60  146 1  
   152   61  147 1  
   153   64  148 1  
   154   64  149 1  
   155   65  150 1  
   156   66  151 1  
   157   67  152 1  
   158   70  153 1  
   159   71  154 1  
   160   71  155 1  
   161   71  156 1  
   162   72  157 1  
   163   72  158 1  
   164   72  159 1  
   165   74  160 1  
   166   77  161 1  
   167   77  162 1  
   168   78  163 1  
   169   78  164 1  
   170   79  165 1  
   171   79  166 1  
   172   80  167 1  
   173   81  168 1  
   174   84  169 1  
   175   84  170 1  
   176   86  171 1  
   177   87  172 1  
   178   88  173 1  
   179   89  174 1  
   180   91  175 1  
@<TRIPOS>SUBSTRUCTURE
     1 BAL         1

