2b55_ligand
  -I-interpret- 

 63 67  0  0  0  0  0  0  0  0999 V2000
   29.0940    7.5150   10.4310 N   0  3  0  0  0
   28.5320    7.1900   11.7590 C   0  0  0  0  0
   29.5590    6.5260   12.6850 C   0  0  0  0  0
   28.9150    6.1700   14.0290 C   0  0  0  0  0
   28.5540    7.3900   14.8760 C   0  0  0  0  0
   29.7120    8.2970   15.0290 N   0  3  0  0  0
   30.3730    8.7020   13.7720 C   0  0  0  0  0
   30.7340    7.4800   12.9320 C   0  0  0  0  0
   29.9930    8.9990   16.2910 C   0  0  0  0  0
   29.5990   10.4670   16.2590 C   0  0  0  0  0
   28.7400   10.8700   15.3220 N   0  0  0  0  0
   28.1710   12.1580   15.1560 C   0  0  0  0  0
   28.4790   13.3430   15.9850 C   0  0  0  0  0
   27.8610   14.6350   15.6430 C   0  0  0  0  0
   26.9420   14.7280   14.4930 C   0  0  0  0  0
   26.6440   13.5430   13.6800 C   0  0  0  0  0
   27.2550   12.2490   14.0050 C   0  0  0  0  0
   25.8850   13.3310   12.4660 C   0  0  0  0  0
   26.0540   11.9570   12.0580 C   0  0  0  0  0
   26.8850   11.2530   13.0140 C   0  0  0  0  0
   24.7720   13.0240   10.4910 N   0  0  0  0  0
   25.3550   11.7750   10.8020 C   0  0  0  0  0
   25.2020   10.5260    9.9530 C   0  0  0  0  0
   24.1450   10.5800    8.8460 C   0  0  0  0  0
   23.9080    9.2260    8.1800 C   0  0  0  0  0
   25.2220    8.6290    7.6830 C   0  0  0  0  0
   26.2400    8.4840    8.8260 C   0  0  0  0  0
   26.4920    9.8370    9.5020 C   0  0  0  0  0
   30.0260   11.2660   17.0910 O   0  0  0  0  0
   27.1960   10.0670   13.0090 O   0  0  0  0  0
   25.1060   14.0640   11.5440 N   0  0  0  0  0
   28.3739    7.9526    9.8562 H   0  0  0  0  0
   29.8783    8.1574   10.5430 H   0  0  0  0  0
   29.4162    6.6584    9.9806 H   0  0  0  0  0
   27.7086    6.4907   11.6137 H   0  0  0  0  0
   28.2113    8.1214   12.2255 H   0  0  0  0  0
   29.9171    5.6157   12.2041 H   0  0  0  0  0
   29.6394    5.5827   14.5934 H   0  0  0  0  0
   27.9900    5.6340   13.8166 H   0  0  0  0  0
   28.2468    7.0485   15.8645 H   0  0  0  0  0
   27.7503    7.9330   14.3788 H   0  0  0  0  0
   30.3755    7.6627   15.4737 H   0  0  0  0  0
   31.2868    9.2446   14.0142 H   0  0  0  0  0
   29.6893    9.3310   13.2020 H   0  0  0  0  0
   31.0671    7.8423   11.9594 H   0  0  0  0  0
   31.4938    6.9230   13.4802 H   0  0  0  0  0
   31.0678    8.9488   16.4651 H   0  0  0  0  0
   29.4088    8.5168   17.0748 H   0  0  0  0  0
   28.4576   10.1650   14.6411 H   0  0  0  0  0
   29.1538   13.2613   16.8371 H   0  0  0  0  0
   28.0822   15.5208   16.2384 H   0  0  0  0  0
   26.4807   15.6840   14.2451 H   0  0  0  0  0
   24.7857    9.8562   10.7054 H   0  0  0  0  0
   24.5014   11.2688    8.0801 H   0  0  0  0  0
   23.2054   10.8959    9.2993 H   0  0  0  0  0
   23.2409    9.3648    7.3292 H   0  0  0  0  0
   23.4676    8.5473    8.9104 H   0  0  0  0  0
   25.6412    9.2946    6.9285 H   0  0  0  0  0
   25.0194    7.6399    7.2723 H   0  0  0  0  0
   27.1799    8.1144    8.4160 H   0  0  0  0  0
   25.8427    7.7890    9.5657 H   0  0  0  0  0
   27.1016    9.6585   10.3878 H   0  0  0  0  0
   26.9803   10.4866    8.7756 H   0  0  0  0  0
  1  2  1  0  0  0
  2  3  1  0  0  0
  3  4  1  0  0  0
  3  8  1  0  0  0
  4  5  1  0  0  0
  5  6  1  0  0  0
  6  7  1  0  0  0
  6  9  1  0  0  0
  7  8  1  0  0  0
  9 10  1  0  0  0
 10 11  1  0  0  0
 10 29  2  0  0  0
 11 12  1  0  0  0
 12 13  4  0  0  0
 12 17  4  0  0  0
 13 14  4  0  0  0
 14 15  4  0  0  0
 15 16  4  0  0  0
 16 17  4  0  0  0
 16 18  1  0  0  0
 17 20  1  0  0  0
 18 19  4  0  0  0
 18 31  4  0  0  0
 19 20  1  0  0  0
 19 22  4  0  0  0
 20 30  2  0  0  0
 22 21  4  0  0  0
 21 31  4  0  0  0
 22 23  1  0  0  0
 23 24  1  0  0  0
 23 28  1  0  0  0
 24 25  1  0  0  0
 25 26  1  0  0  0
 26 27  1  0  0  0
 27 28  1  0  0  0
  1 32  1  0  0  0
  1 33  1  0  0  0
  1 34  1  0  0  0
  2 35  1  0  0  0
  2 36  1  0  0  0
  3 37  1  0  0  0
  4 38  1  0  0  0
  4 39  1  0  0  0
  5 40  1  0  0  0
  5 41  1  0  0  0
  6 42  1  0  0  0
  7 43  1  0  0  0
  7 44  1  0  0  0
  8 45  1  0  0  0
  8 46  1  0  0  0
  9 47  1  0  0  0
  9 48  1  0  0  0
 11 49  1  0  0  0
 13 50  1  0  0  0
 14 51  1  0  0  0
 15 52  1  0  0  0
 23 53  1  0  0  0
 24 54  1  0  0  0
 24 55  1  0  0  0
 25 56  1  0  0  0
 25 57  1  0  0  0
 26 58  1  0  0  0
 26 59  1  0  0  0
 27 60  1  0  0  0
 27 61  1  0  0  0
 28 62  1  0  0  0
 28 63  1  0  0  0
M  END
$$$$
