3lpb_ligand
  -I-interpret- 

 56 59  0  0  0  0  0  0  0  0999 V2000
  111.9540   62.7430    7.2580 S   0  0  0  0  0
  111.0950   62.6620    8.4100 O   0  0  0  0  0
  112.3600   61.5320    6.6270 O   0  0  0  0  0
  111.0970   63.6160    6.2030 N   0  0  0  0  0
  110.2420   64.6810    6.6980 C   0  0  0  0  0
  113.3930   63.7400    7.5650 C   0  0  0  0  0
  113.8950   63.8160    8.8730 C   0  0  0  0  0
  115.0450   64.5560    9.1440 C   0  0  0  0  0
  115.6780   65.2800    8.0970 C   0  0  0  0  0
  115.1560   65.2220    6.7890 C   0  0  0  0  0
  114.0210   64.4470    6.5110 C   0  0  0  0  0
  116.9060   66.0850    8.3270 C   0  0  0  0  0
  117.1090   66.8010    9.5090 C   0  0  0  0  0
  116.1580   66.8230   10.4690 N   0  0  0  0  0
  116.3370   67.5720   11.5870 C   0  0  0  0  0
  117.5160   68.2960   11.7660 C   0  0  0  0  0
  118.4520   68.2780   10.7980 N   0  0  0  0  0
  118.2740   67.5680    9.6660 C   0  0  0  0  0
  119.2750   67.5650    8.6720 C   0  0  0  0  0
  119.1050   66.8130    7.4980 C   0  0  0  0  0
  117.9130   66.0900    7.3280 C   0  0  0  0  0
  115.2550   67.5140   12.6070 C   0  0  0  0  0
  114.0510   66.9160   12.2940 C   0  0  0  0  0
  113.0240   66.8340   13.2520 C   0  0  0  0  0
  113.2420   67.3150   14.5460 C   0  0  0  0  0
  114.4590   67.8790   14.8820 C   0  0  0  0  0
  115.4820   67.9800   13.9050 C   0  0  0  0  0
  114.6180   68.3650   16.1720 O   0  0  0  0  0
  115.4890   69.4610   16.4860 C   0  0  0  0  0
  112.2540   67.2060   15.5110 O   0  0  0  0  0
  112.1690   65.9590   16.2470 C   0  0  0  0  0
  111.7790   66.2830   12.9670 O   0  0  0  0  0
  111.3400   65.8480   11.6450 C   0  0  0  0  0
  111.1554   63.4221    5.2033 H   0  0  0  0  0
  109.4974   64.2624    7.3750 H   0  0  0  0  0
  110.8481   65.4138    7.2307 H   0  0  0  0  0
  109.7413   65.1631    5.8584 H   0  0  0  0  0
  113.3832   63.2938    9.6814 H   0  0  0  0  0
  115.4565   64.5793   10.1531 H   0  0  0  0  0
  115.6378   65.7833    5.9884 H   0  0  0  0  0
  113.6271   64.3895    5.4963 H   0  0  0  0  0
  117.6777   68.8695   12.6787 H   0  0  0  0  0
  120.1842   68.1488    8.8157 H   0  0  0  0  0
  119.8824   66.7910    6.7343 H   0  0  0  0  0
  117.7587   65.5218    6.4107 H   0  0  0  0  0
  113.8947   66.5042   11.2970 H   0  0  0  0  0
  116.4442   68.4206   14.1661 H   0  0  0  0  0
  116.5097   69.2052   16.2019 H   0  0  0  0  0
  115.1689   70.3466   15.9371 H   0  0  0  0  0
  115.4478   69.6609   17.5567 H   0  0  0  0  0
  111.9842   65.1401   15.5517 H   0  0  0  0  0
  113.1070   65.7851   16.7742 H   0  0  0  0  0
  111.3521   66.0180   16.9662 H   0  0  0  0  0
  111.3609   66.6953   10.9596 H   0  0  0  0  0
  112.0078   65.0675   11.2804 H   0  0  0  0  0
  110.3245   65.4574   11.7111 H   0  0  0  0  0
  1  2  2  0  0  0
  1  3  2  0  0  0
  1  4  1  0  0  0
  1  6  1  0  0  0
  4  5  1  0  0  0
  6  7  4  0  0  0
  6 11  4  0  0  0
  7  8  4  0  0  0
  8  9  4  0  0  0
  9 10  4  0  0  0
  9 12  1  0  0  0
 10 11  4  0  0  0
 12 13  4  0  0  0
 12 21  4  0  0  0
 13 14  4  0  0  0
 13 18  4  0  0  0
 14 15  4  0  0  0
 15 16  4  0  0  0
 15 22  1  0  0  0
 16 17  4  0  0  0
 17 18  4  0  0  0
 18 19  4  0  0  0
 19 20  4  0  0  0
 20 21  4  0  0  0
 22 23  4  0  0  0
 22 27  4  0  0  0
 23 24  4  0  0  0
 24 25  4  0  0  0
 24 32  1  0  0  0
 25 26  4  0  0  0
 25 30  1  0  0  0
 26 27  4  0  0  0
 26 28  1  0  0  0
 28 29  1  0  0  0
 30 31  1  0  0  0
 32 33  1  0  0  0
  4 34  1  0  0  0
  5 35  1  0  0  0
  5 36  1  0  0  0
  5 37  1  0  0  0
  7 38  1  0  0  0
  8 39  1  0  0  0
 10 40  1  0  0  0
 11 41  1  0  0  0
 16 42  1  0  0  0
 19 43  1  0  0  0
 20 44  1  0  0  0
 21 45  1  0  0  0
 23 46  1  0  0  0
 27 47  1  0  0  0
 29 48  1  0  0  0
 29 49  1  0  0  0
 29 50  1  0  0  0
 31 51  1  0  0  0
 31 52  1  0  0  0
 31 53  1  0  0  0
 33 54  1  0  0  0
 33 55  1  0  0  0
 33 56  1  0  0  0
M  END
$$$$
