5kbi_ligand
  -I-interpret- 

 14 14  0  0  0  0  0  0  0  0999 V2000
   31.4700    2.7640  -13.0710 C   0  0  0  0  0
   30.3580    2.4950  -12.2770 C   0  0  0  0  0
   29.0920    2.4620  -12.8670 C   0  0  0  0  0
   27.9250    2.2080  -12.1920 O   0  0  0  0  0
   28.9770    2.7040  -14.2250 C   0  0  0  0  0
   27.7140    2.6340  -14.6980 O   0  0  0  0  0
   30.0790    2.9940  -15.0360 C   0  0  0  0  0
   31.3180    3.0090  -14.4350 C   0  0  0  0  0
   32.4639    2.7831  -12.6239 H   0  0  0  0  0
   30.4739    2.3125  -11.2087 H   0  0  0  0  0
   27.1881    2.2385  -12.8065 H   0  0  0  0  0
   27.7164    2.8125  -15.6413 H   0  0  0  0  0
   29.9620    3.1997  -16.1000 H   0  0  0  0  0
   32.2005    3.2173  -15.0399 H   0  0  0  0  0
  1  2  4  0  0  0
  1  8  4  0  0  0
  2  3  4  0  0  0
  3  4  1  0  0  0
  3  5  4  0  0  0
  5  6  1  0  0  0
  5  7  4  0  0  0
  7  8  4  0  0  0
  1  9  1  0  0  0
  2 10  1  0  0  0
  4 11  1  0  0  0
  6 12  1  0  0  0
  7 13  1  0  0  0
  8 14  1  0  0  0
M  END
$$$$
