5op5_ligand
  -I-interpret- 

 37 40  0  0  0  0  0  0  0  0999 V2000
    4.1470   -1.7160   20.2460 N   0  0  0  0  0
    8.0950   -4.5060   16.8190 C   0  0  0  0  0
    2.8320   -3.4320   19.5530 N   0  0  0  0  0
    6.2950   -3.3740   18.1030 C   0  0  0  0  0
    5.8540   -4.5800   16.0280 C   0  0  0  0  0
    5.1880   -2.1410   19.5330 C   0  0  0  0  0
    2.0870   -5.3590   17.8870 C   0  0  0  0  0
    7.1060   -2.3280   18.5460 C   0  0  0  0  0
   11.0560   -5.7140   15.5820 N   0  0  0  0  0
    4.5390   -6.0590   17.9610 C   0  0  0  0  0
    6.2900   -5.3350   14.9150 C   0  0  0  0  0
    7.6400   -5.6660   14.7530 C   0  0  0  0  0
    8.5430   -5.2500   15.7220 C   0  0  0  0  0
    6.7680   -4.2520   17.0270 C   0  0  0  0  0
    6.3980   -1.6130   19.4030 N   0  0  0  0  0
    5.0540   -3.2470   18.7210 C   0  0  0  0  0
    3.8140   -3.8850   18.7490 C   0  0  0  0  0
    2.9790   -2.3380   20.2970 C   0  0  0  0  0
    3.4950   -5.0230   18.0810 N   0  0  0  0  0
    1.9830   -6.4150   16.7690 C   0  0  0  0  0
    2.8020   -7.5060   16.9470 O   0  0  0  0  0
    4.1880   -7.2060   17.0090 C   0  0  0  0  0
    9.9310   -5.5290   15.6200 C   0  0  0  0  0
    8.8255   -4.1175   17.5286 H   0  0  0  0  0
    4.8153   -4.2584   16.1036 H   0  0  0  0  0
    1.5275   -4.4663   17.6075 H   0  0  0  0  0
    1.6692   -5.7557   18.8123 H   0  0  0  0  0
    8.1347   -2.1360   18.2411 H   0  0  0  0  0
    4.6713   -6.4951   18.9512 H   0  0  0  0  0
    5.4277   -5.5717   17.5598 H   0  0  0  0  0
    5.5637   -5.6642   14.1719 H   0  0  0  0  0
    7.9746   -6.2368   13.8868 H   0  0  0  0  0
    2.1683   -1.9680   20.9247 H   0  0  0  0  0
    2.2875   -5.9319   15.8405 H   0  0  0  0  0
    0.9561   -6.7804   16.7658 H   0  0  0  0  0
    4.6942   -8.0977   17.3788 H   0  0  0  0  0
    4.4963   -6.9003   16.0092 H   0  0  0  0  0
  6  1  4  0  0  0
 18  1  4  0  0  0
  2 13  4  0  0  0
 14  2  4  0  0  0
 17  3  4  0  0  0
  3 18  4  0  0  0
  4  8  4  0  0  0
  4 14  1  0  0  0
 16  4  4  0  0  0
  5 11  4  0  0  0
 14  5  4  0  0  0
  6 15  4  0  0  0
 16  6  4  0  0  0
 19  7  1  0  0  0
  7 20  1  0  0  0
 15  8  4  0  0  0
 23  9  3  0  0  0
 19 10  1  0  0  0
 10 22  1  0  0  0
 11 12  4  0  0  0
 13 12  4  0  0  0
 13 23  1  0  0  0
 17 16  4  0  0  0
 17 19  1  0  0  0
 20 21  1  0  0  0
 21 22  1  0  0  0
  2 24  1  0  0  0
  5 25  1  0  0  0
  7 26  1  0  0  0
  7 27  1  0  0  0
  8 28  1  0  0  0
 10 29  1  0  0  0
 10 30  1  0  0  0
 11 31  1  0  0  0
 12 32  1  0  0  0
 18 33  1  0  0  0
 20 34  1  0  0  0
 20 35  1  0  0  0
 22 36  1  0  0  0
 22 37  1  0  0  0
M  END
$$$$
