4msl_ligand
  -I-interpret- 

 45 46  0  0  0  0  0  0  0  0999 V2000
  -32.9190   38.5640   15.8490 C   0  0  0  0  0
  -32.4500   34.5860   17.5840 C   0  0  0  0  0
  -33.8860   36.3900   16.8000 C   0  0  0  0  0
  -36.2430   34.8880   17.5020 C   0  0  0  0  0
  -34.9620   34.3210   17.7060 C   0  0  0  0  0
  -34.3890   39.3790   13.4310 O   0  0  0  0  0
  -33.6450   40.3830   13.6010 C   0  0  0  0  0
  -34.0230   41.5210   13.2100 O   0  0  0  0  0
  -32.3380   40.2280   14.2510 C   0  0  0  0  0
  -31.2460   40.6040   13.2690 C   0  0  0  0  0
  -29.8870   41.0400   13.8510 C   0  0  0  0  0
  -28.7120   40.7440   12.9720 C   0  0  0  0  0
  -29.6910   40.6290   15.2510 C   0  0  0  0  0
  -32.1740   38.8570   14.6630 N   0  3  0  0  0
  -32.7520   37.1470   16.4670 C   0  0  0  0  0
  -31.4680   36.6270   16.6910 C   0  0  0  0  0
  -30.3660   37.3570   16.3690 O   0  0  0  0  0
  -31.3220   35.3440   17.2500 C   0  0  0  0  0
  -33.7460   35.1010   17.3620 C   0  0  0  0  0
  -35.2170   36.9530   16.5580 O   0  0  0  0  0
  -36.3720   36.2430   16.9520 C   0  0  0  0  0
  -37.4660   36.7510   16.8370 O   0  0  0  0  0
  -34.8850   32.9250   18.2730 C   0  0  0  0  0
  -33.9682   38.6386   15.5633 H   0  0  0  0  0
  -32.5543   39.2595   16.6049 H   0  0  0  0  0
  -32.3276   33.5934   18.0175 H   0  0  0  0  0
  -37.1364   34.3167   17.7541 H   0  0  0  0  0
  -33.3453   42.1696   13.4140 H   0  0  0  0  0
  -32.2770   40.8771   15.1246 H   0  0  0  0  0
  -31.6246   41.4699   12.7258 H   0  0  0  0  0
  -31.0433   39.7001   12.6945 H   0  0  0  0  0
  -29.9391   42.1286   13.8708 H   0  0  0  0  0
  -28.6526   39.6699   12.7965 H   0  0  0  0  0
  -28.8316   41.2628   12.0209 H   0  0  0  0  0
  -27.7992   41.0845   13.4609 H   0  0  0  0  0
  -30.4704   41.0721   15.8709 H   0  0  0  0  0
  -29.7438   39.5425   15.3201 H   0  0  0  0  0
  -28.7142   40.9692   15.5948 H   0  0  0  0  0
  -32.5152   38.2547   13.9138 H   0  0  0  0  0
  -31.1857   38.6976   14.8584 H   0  0  0  0  0
  -29.5767   36.8556   16.5862 H   0  0  0  0  0
  -30.3253   34.9385   17.4238 H   0  0  0  0  0
  -35.3625   32.9053   19.2527 H   0  0  0  0  0
  -35.3972   32.2337   17.6038 H   0  0  0  0  0
  -33.8399   32.6311   18.3707 H   0  0  0  0  0
 14  1  1  0  0  0
  1 15  1  0  0  0
  2 18  4  0  0  0
 19  2  4  0  0  0
 15  3  4  0  0  0
  3 19  4  0  0  0
  3 20  1  0  0  0
  5  4  2  0  0  0
  4 21  1  0  0  0
 19  5  1  0  0  0
  5 23  1  0  0  0
  7  6  2  0  0  0
  7  8  1  0  0  0
  9  7  1  0  0  0
  9 10  1  0  0  0
  9 14  1  0  0  0
 10 11  1  0  0  0
 11 12  1  0  0  0
 11 13  1  0  0  0
 15 16  4  0  0  0
 16 17  1  0  0  0
 16 18  4  0  0  0
 20 21  1  0  0  0
 21 22  2  0  0  0
  1 24  1  0  0  0
  1 25  1  0  0  0
  2 26  1  0  0  0
  4 27  1  0  0  0
  8 28  1  0  0  0
  9 29  1  0  0  0
 10 30  1  0  0  0
 10 31  1  0  0  0
 11 32  1  0  0  0
 12 33  1  0  0  0
 12 34  1  0  0  0
 12 35  1  0  0  0
 13 36  1  0  0  0
 13 37  1  0  0  0
 13 38  1  0  0  0
 14 39  1  0  0  0
 14 40  1  0  0  0
 17 41  1  0  0  0
 18 42  1  0  0  0
 23 43  1  0  0  0
 23 44  1  0  0  0
 23 45  1  0  0  0
M  END
$$$$
