4ef6_ligand
  -I-interpret- 

 24 25  0  0  0  0  0  0  0  0999 V2000
   14.0110    9.9680   -3.9600 C   0  0  0  0  0
   15.3410   10.2550   -3.8840 C   0  0  0  0  0
   15.9060   10.5870   -2.6350 C   0  0  0  0  0
   13.2090    9.9760   -2.8380 C   0  0  0  0  0
   13.7160   10.2740   -1.5970 C   0  0  0  0  0
   15.0860   10.5630   -1.4630 C   0  0  0  0  0
   15.6130   10.9140   -0.1970 C   0  0  0  0  0
   17.0060   10.2600    0.0980 C   0  0  0  0  0
   18.2290   11.1310   -0.3530 C   0  0  0  0  0
   18.1410   12.3670   -0.4680 O   0  0  0  0  0
   11.8820    9.5630   -4.6270 C   0  0  0  0  0
   19.2480   10.5040   -0.5910 O   0  0  0  0  0
   13.2800    9.6100   -5.0770 O   0  0  0  0  0
   11.9130    9.6480   -3.1680 O   0  0  0  0  0
   15.9620   10.2283   -4.7794 H   0  0  0  0  0
   16.9589   10.8597   -2.5633 H   0  0  0  0  0
   13.0631   10.2864   -0.7243 H   0  0  0  0  0
   14.9149   10.5577    0.5605 H   0  0  0  0  0
   15.7479   11.9956   -0.1849 H   0  0  0  0  0
   17.0499    9.3266   -0.4632 H   0  0  0  0  0
   17.0808   10.1329    1.1780 H   0  0  0  0  0
   17.2540   12.6470   -0.2304 H   0  0  0  0  0
   11.3972    8.6432   -4.9543 H   0  0  0  0  0
   11.3066   10.3845   -5.0538 H   0  0  0  0  0
  1  2  4  0  0  0
  1  4  4  0  0  0
  1 13  1  0  0  0
  2  3  4  0  0  0
  3  6  4  0  0  0
  4  5  4  0  0  0
  4 14  1  0  0  0
  5  6  4  0  0  0
  6  7  1  0  0  0
  7  8  1  0  0  0
  8  9  1  0  0  0
  9 10  1  0  0  0
  9 12  2  0  0  0
 13 11  1  0  0  0
 11 14  1  0  0  0
  2 15  1  0  0  0
  3 16  1  0  0  0
  5 17  1  0  0  0
  7 18  1  0  0  0
  7 19  1  0  0  0
  8 20  1  0  0  0
  8 21  1  0  0  0
 10 22  1  0  0  0
 11 23  1  0  0  0
 11 24  1  0  0  0
M  END
$$$$
