### 
### Created by X-TOOL on Mon Aug  2 16:12:52 2021
### 

@<TRIPOS>MOLECULE
6d1a_ligand
   29    30     1     0     0
SMALL
GAST_HUCK


@<TRIPOS>ATOM
      1 C01        48.3170   15.9810   46.7160 C.3       1 TWB        -0.0326
      2 C02        49.0920   14.7200   46.3330 C.ar      1 TWB        -0.0446
      3 C03        49.7780   14.7710   45.1400 C.ar      1 TWB        -0.0240
      4 C04        50.5130   13.7020   44.6770 C.ar      1 TWB         0.1303
      5 C06        51.8870   12.8210   43.0250 C.2       1 TWB         0.2448
      6 C08        51.9610   11.6400   43.7740 C.2       1 TWB         0.0100
      7 C09        51.2890   11.5230   44.9770 C.2       1 TWB        -0.0111
      8 C10        51.2330   10.2620   45.8530 C.3       1 TWB         0.0588
      9 C15        50.5450   12.5850   45.4620 C.ar      1 TWB         0.0212
     10 C16        49.8790   12.5070   46.7000 C.ar      1 TWB        -0.0574
     11 C17        49.1510   13.6190   47.1190 C.ar      1 TWB        -0.0471
     12 C18        48.4080   13.6030   48.4270 C.3       1 TWB        -0.0365
     13 O05        51.1610   13.8240   43.4930 O.3       1 TWB        -0.2191
     14 O07        52.4260   12.9420   41.9890 O.2       1 TWB        -0.3876
     15 O12        48.8650    9.3330   46.8960 O.co2     1 TWB        -0.5604
     16 O13        50.0600    7.7430   45.6080 O.co2     1 TWB        -0.5604
     17 O14        48.8810    9.6630   44.5680 O.co2     1 TWB        -0.5604
     18 P11        49.6650    9.2330   45.7330 P.3       1 TWB         0.0731
     19 H1         48.4210   16.7316   45.9186 H         1 TWB         0.0389
     20 H2         48.7186   16.3869   47.6562 H         1 TWB         0.0389
     21 H3         47.2538   15.7319   46.8487 H         1 TWB         0.0389
     22 H4         49.7384   15.6784   44.5483 H         1 TWB         0.0492
     23 H5         52.5542   10.8046   43.4051 H         1 TWB         0.0428
     24 H6         51.3479   10.5765   46.9008 H         1 TWB         0.0655
     25 H7         52.0786    9.6185   45.5685 H         1 TWB         0.0655
     26 H8         49.9308   11.6108   47.3077 H         1 TWB         0.0551
     27 H9         47.9011   14.5683   48.5726 H         1 TWB         0.0361
     28 H10        49.1180   13.4339   49.2500 H         1 TWB         0.0361
     29 H11        47.6616   12.7951   48.4149 H         1 TWB         0.0361
@<TRIPOS>BOND
     1    2    1 1  
     2    3    2 ar 
     3    2   11 ar 
     4    4    3 ar 
     5    4    9 ar 
     6   13    4 1  
     7    5    6 1  
     8    5   13 1  
     9    5   14 2  
    10    6    7 2  
    11    7    8 1  
    12    7    9 1  
    13    8   18 1  
    14    9   10 ar 
    15   10   11 ar 
    16   11   12 1  
    17   18   15 ar 
    18   18   16 ar 
    19   18   17 ar 
    20    1   19 1  
    21    1   20 1  
    22    1   21 1  
    23    3   22 1  
    24    6   23 1  
    25    8   24 1  
    26    8   25 1  
    27   10   26 1  
    28   12   27 1  
    29   12   28 1  
    30   12   29 1  
@<TRIPOS>SUBSTRUCTURE
     1 TWB         1

