6d1a_ligand
  -I-interpret- 

 31 32  0  0  0  0  0  0  0  0999 V2000
   48.3170   15.9810   46.7160 C   0  0  0  0  0
   49.0920   14.7200   46.3330 C   0  0  0  0  0
   49.7780   14.7710   45.1400 C   0  0  0  0  0
   50.5130   13.7020   44.6770 C   0  0  0  0  0
   51.8870   12.8210   43.0250 C   0  0  0  0  0
   51.9610   11.6400   43.7740 C   0  0  0  0  0
   51.2890   11.5230   44.9770 C   0  0  0  0  0
   51.2330   10.2620   45.8530 C   0  0  0  0  0
   50.5450   12.5850   45.4620 C   0  0  0  0  0
   49.8790   12.5070   46.7000 C   0  0  0  0  0
   49.1510   13.6190   47.1190 C   0  0  0  0  0
   48.4080   13.6030   48.4270 C   0  0  0  0  0
   51.1610   13.8240   43.4930 O   0  0  0  0  0
   52.4260   12.9420   41.9890 O   0  0  0  0  0
   48.8650    9.3330   46.8960 O   0  0  0  0  0
   50.0600    7.7430   45.6080 O   0  0  0  0  0
   48.8810    9.6630   44.5680 O   0  0  0  0  0
   49.6650    9.2330   45.7330 P   0  0  0  0  0
   49.0084   16.8195   46.7997 H   0  0  0  0  0
   47.5739   16.1965   45.9482 H   0  0  0  0  0
   47.8181   15.8229   47.6721 H   0  0  0  0  0
   49.7382   15.6834   44.5451 H   0  0  0  0  0
   52.5548   10.8038   43.4047 H   0  0  0  0  0
   51.2912   10.6070   46.8853 H   0  0  0  0  0
   52.0445    9.6193   45.5117 H   0  0  0  0  0
   49.9311   11.6059   47.3110 H   0  0  0  0  0
   48.7767   14.4080   49.0627 H   0  0  0  0  0
   47.3434   13.7442   48.2404 H   0  0  0  0  0
   48.5675   12.6452   48.9223 H   0  0  0  0  0
   50.6073    7.6225   44.8286 H   0  0  0  0  0
   49.4216    9.5961   43.7775 H   0  0  0  0  0
  2  1  1  0  0  0
  3  2  4  0  0  0
  2 11  4  0  0  0
  4  3  4  0  0  0
  4  9  4  0  0  0
 13  4  1  0  0  0
  5  6  1  0  0  0
  5 13  1  0  0  0
  5 14  2  0  0  0
  6  7  2  0  0  0
  7  8  1  0  0  0
  7  9  1  0  0  0
  8 18  1  0  0  0
  9 10  4  0  0  0
 10 11  4  0  0  0
 11 12  1  0  0  0
 18 15  2  0  0  0
 18 16  1  0  0  0
 18 17  1  0  0  0
  1 19  1  0  0  0
  1 20  1  0  0  0
  1 21  1  0  0  0
  3 22  1  0  0  0
  6 23  1  0  0  0
  8 24  1  0  0  0
  8 25  1  0  0  0
 10 26  1  0  0  0
 12 27  1  0  0  0
 12 28  1  0  0  0
 12 29  1  0  0  0
 16 30  1  0  0  0
 17 31  1  0  0  0
M  END
$$$$
