### 
### Created by X-TOOL on Mon Sep 10 21:13:07 2018
### 

@<TRIPOS>MOLECULE
3lkj_ligand
  127   135     1     0     0
SMALL
GAST_HUCK


@<TRIPOS>ATOM
      1 C1         32.2050   23.1730   17.7160 C.2       1 LKJ         0.2279
      2 N1         33.2950   22.7670   18.4300 N.am      1 LKJ        -0.2644
      3 O1         32.2580   23.6750   16.6060 O.2       1 LKJ        -0.3785
      4 C2         34.6960   22.6730   17.9620 C.3       1 LKJ         0.0726
      5 N2         36.1660   23.0640   16.1020 N.pl3     1 LKJ        -0.2803
      6 O2         24.1890   25.0170   20.8780 O.2       1 LKJ        -0.3785
      7 C3         35.4950   23.1700   19.1750 C.3       1 LKJ        -0.0251
      8 N3         23.7430   27.1030   20.2570 N.am      1 LKJ        -0.2727
      9 O3         28.4550   28.1000   16.2600 O.2       1 LKJ        -0.3785
     10 C4         34.6270   22.8270   20.3780 C.3       1 LKJ        -0.0303
     11 N4         25.8690   26.8480   18.2930 N.ar      1 LKJ        -0.2556
     12 O4         31.6570   17.6070   23.1070 O.co2     1 LKJ        -0.5666
     13 C5         33.3390   22.2290   19.7920 C.3       1 LKJ         0.0341
     14 N5         26.2380   28.1150   15.7550 N.am      1 LKJ        -0.2621
     15 O5         33.0250   19.0900   22.2200 O.co2     1 LKJ        -0.5666
     16 C6         34.8670   23.4250   16.6410 C.3       1 LKJ         0.0764
     17 N6         28.3160   29.7870   13.8000 N.4       1 LKJ         0.2369
     18 O6         28.4670   20.3260   21.2450 O.2       1 LKJ        -0.3786
     19 C7         36.4310   21.7500   15.5370 C.2       1 LKJ         0.0145
     20 N7         30.6030   20.0710   20.6600 N.am      1 LKJ        -0.2682
     21 C8         37.8220   21.9470   14.9440 C.2       1 LKJ        -0.0873
     22 N8         30.7250   22.1120   19.3300 N.ar      1 LKJ        -0.2556
     23 C9         38.3660   23.2980   15.4260 C.2       1 LKJ        -0.0873
     24 C10        37.2370   24.0660   16.1010 C.2       1 LKJ         0.0145
     25 C11        30.9110   23.1200   18.4580 C.ar      1 LKJ         0.1286
     26 C12        29.9150   24.0620   18.2740 C.ar      1 LKJ        -0.0005
     27 C13        28.7270   23.9470   18.9990 C.ar      1 LKJ         0.0221
     28 C14        27.7600   24.8950   18.7780 C.ar      1 LKJ         0.0221
     29 C15        26.5590   24.9300   19.4800 C.ar      1 LKJ        -0.0005
     30 C16        25.5960   25.8940   19.2050 C.ar      1 LKJ         0.1285
     31 C17        24.3840   25.9290   20.0850 C.2       1 LKJ         0.2270
     32 C18        22.6230   27.3710   21.1850 C.3       1 LKJ         0.0642
     33 C19        21.3190   27.5410   20.4520 C.ar      1 LKJ        -0.0206
     34 C20        20.6970   26.3930   19.9660 C.ar      1 LKJ        -0.0583
     35 C21        19.4920   26.4610   19.2820 C.ar      1 LKJ        -0.0677
     36 C22        18.9290   27.7220   19.1190 C.ar      1 LKJ        -0.0609
     37 C23        19.5440   28.8820   19.6090 C.ar      1 LKJ        -0.0247
     38 C24        18.9150   30.1060   19.3870 C.ar      1 LKJ        -0.0196
     39 C25        17.7230   30.1490   18.6510 C.ar      1 LKJ        -0.0541
     40 C26        17.0940   31.3770   18.4110 C.ar      1 LKJ        -0.0612
     41 C27        17.6410   32.5710   18.9230 C.ar      1 LKJ        -0.0617
     42 C28        18.8430   32.5480   19.6400 C.ar      1 LKJ        -0.0612
     43 C29        19.4720   31.3180   19.8580 C.ar      1 LKJ        -0.0541
     44 C30        20.7660   28.7960   20.2830 C.ar      1 LKJ        -0.0510
     45 C31        27.0480   26.8220   17.6040 C.ar      1 LKJ         0.1286
     46 C32        27.3120   27.8030   16.5240 C.2       1 LKJ         0.2280
     47 C33        26.2130   29.1000   14.6450 C.3       1 LKJ         0.0845
     48 C34        24.8460   28.9660   13.9770 C.3       1 LKJ        -0.0229
     49 C35        24.1560   27.8380   14.6940 C.3       1 LKJ        -0.0302
     50 C36        24.8720   27.6730   16.0240 C.3       1 LKJ         0.0342
     51 C37        27.2950   28.7880   13.6200 C.3       1 LKJ        -0.0081
     52 C38        29.4100   29.9070   12.8400 C.3       1 LKJ        -0.0316
     53 C39        30.4910   30.5720   13.6810 C.3       1 LKJ        -0.0077
     54 C40        29.8250   30.9320   15.0110 C.3       1 LKJ        -0.0077
     55 C41        28.3180   30.6670   14.9320 C.3       1 LKJ        -0.0316
     56 C42        28.0180   25.8610   17.8270 C.ar      1 LKJ        -0.0005
     57 C43        28.5540   22.9130   19.9230 C.ar      1 LKJ        -0.0005
     58 C44        29.6250   22.0330   20.0970 C.ar      1 LKJ         0.1285
     59 C45        29.5390   20.7900   20.8660 C.2       1 LKJ         0.2268
     60 C46        31.1520   18.7580   20.9870 C.3       1 LKJ         0.0969
     61 C47        30.4320   17.6580   20.1940 C.3       1 LKJ        -0.0061
     62 C48        29.2410   16.9390   20.7680 C.3       1 LKJ        -0.0466
     63 C49        28.8570   15.7540   19.8570 C.3       1 LKJ        -0.0526
     64 C50        29.5080   15.7080   18.4740 C.3       1 LKJ        -0.0530
     65 C51        31.0160   15.9930   18.4350 C.3       1 LKJ        -0.0526
     66 C52        31.4990   16.7020   19.6900 C.3       1 LKJ        -0.0466
     67 C53        31.9530   18.4520   22.2300 C.2       1 LKJ         0.0604
     68 H1         34.9622   21.6224   17.7739 H         1 LKJ         0.0587
     69 H2         35.6593   24.2558   19.1125 H         1 LKJ         0.0289
     70 H3         36.4651   22.6553   19.2376 H         1 LKJ         0.0289
     71 H4         24.0574   27.8715   19.6997 H         1 LKJ         0.1875
     72 H5         34.4010   23.7323   20.9606 H         1 LKJ         0.0285
     73 H6         35.1339   22.0934   21.0221 H         1 LKJ         0.0285
     74 H7         33.3875   21.1302   19.7784 H         1 LKJ         0.0522
     75 H8         32.4594   22.5501   20.3693 H         1 LKJ         0.0522
     76 H9         34.8211   24.5098   16.8170 H         1 LKJ         0.0645
     77 H10        34.0736   23.1339   15.9370 H         1 LKJ         0.0645
     78 H11        27.7638   30.4472   13.2754 H         1 LKJ         0.2034
     79 H12        35.8023   20.8608   15.5374 H         1 LKJ         0.0796
     80 H13        31.2538   20.5808   20.0973 H         1 LKJ         0.1872
     81 H14        38.3408   21.2478   14.2898 H         1 LKJ         0.0273
     82 H15        39.3896   23.6496   15.3055 H         1 LKJ         0.0273
     83 H16        37.2276   25.0864   16.4812 H         1 LKJ         0.0796
     84 H17        30.0549   24.8793   17.5758 H         1 LKJ         0.0810
     85 H18        26.3715   24.1940   20.2534 H         1 LKJ         0.0810
     86 H19        22.8384   28.2918   21.7468 H         1 LKJ         0.0683
     87 H20        22.5307   26.5275   21.8850 H         1 LKJ         0.0683
     88 H21        21.1638   25.4277   20.1255 H         1 LKJ         0.0559
     89 H22        19.0110   25.5712   18.8922 H         1 LKJ         0.0600
     90 H23        17.9837   27.8106   18.5959 H         1 LKJ         0.0567
     91 H24        17.2884   29.2328   18.2680 H         1 LKJ         0.0624
     92 H25        16.1808   31.4095   17.8279 H         1 LKJ         0.0618
     93 H26        17.1281   33.5121   18.7606 H         1 LKJ         0.0618
     94 H27        19.2779   33.4658   20.0190 H         1 LKJ         0.0618
     95 H28        20.4096   31.2928   20.4014 H         1 LKJ         0.0624
     96 H29        21.2623   29.6830   20.6598 H         1 LKJ         0.0561
     97 H30        26.3546   30.1181   15.0368 H         1 LKJ         0.0611
     98 H31        24.9617   28.7288   12.9091 H         1 LKJ         0.0290
     99 H32        24.2723   29.8982   14.0855 H         1 LKJ         0.0290
    100 H33        24.2291   26.9117   14.1052 H         1 LKJ         0.0285
    101 H34        23.0969   28.0842   14.8602 H         1 LKJ         0.0285
    102 H35        24.4050   28.2993   16.7984 H         1 LKJ         0.0522
    103 H36        24.8589   26.6212   16.3458 H         1 LKJ         0.0522
    104 H37        27.7084   27.7838   13.7951 H         1 LKJ         0.0837
    105 H38        26.8830   28.8425   12.6015 H         1 LKJ         0.0837
    106 H39        29.1246   30.5364   11.9842 H         1 LKJ         0.0814
    107 H40        29.7348   28.9205   12.4776 H         1 LKJ         0.0814
    108 H41        30.8613   31.4789   13.1807 H         1 LKJ         0.0319
    109 H42        31.3276   29.8775   13.8476 H         1 LKJ         0.0319
    110 H43        29.9966   31.9967   15.2277 H         1 LKJ         0.0319
    111 H44        30.2608   30.3194   15.8140 H         1 LKJ         0.0319
    112 H45        27.9354   30.1763   15.8391 H         1 LKJ         0.0814
    113 H46        27.7449   31.5867   14.7431 H         1 LKJ         0.0814
    114 H47        28.9497   25.8667   17.2730 H         1 LKJ         0.0810
    115 H48        27.6307   22.7989   20.4795 H         1 LKJ         0.0810
    116 H49        32.0365   18.8309   20.3371 H         1 LKJ         0.0729
    117 H50        30.0271   18.1698   19.3085 H         1 LKJ         0.0341
    118 H51        28.3926   17.6357   20.8380 H         1 LKJ         0.0270
    119 H52        29.4901   16.5626   21.7711 H         1 LKJ         0.0270
    120 H53        27.7672   15.7862   19.7108 H         1 LKJ         0.0265
    121 H54        29.1291   14.8275   20.3838 H         1 LKJ         0.0265
    122 H55        29.0071   16.4546   17.8403 H         1 LKJ         0.0265
    123 H56        29.3436   14.7035   18.0569 H         1 LKJ         0.0265
    124 H57        31.2342   16.6276   17.5634 H         1 LKJ         0.0265
    125 H58        31.5545   15.0388   18.3378 H         1 LKJ         0.0265
    126 H59        31.7158   15.9558   20.4686 H         1 LKJ         0.0270
    127 H60        32.4139   17.2673   19.4590 H         1 LKJ         0.0270
@<TRIPOS>BOND
     1    1    2 am 
     2    1    3 2  
     3   25    1 1  
     4    2    4 1  
     5    2   13 1  
     6    4    7 1  
     7    4   16 1  
     8   16    5 1  
     9    5   19 1  
    10    5   24 1  
    11   31    6 2  
    12   10    7 1  
    13   31    8 am 
    14    8   32 1  
    15   46    9 2  
    16   13   10 1  
    17   30   11 ar 
    18   45   11 ar 
    19   67   12 ar 
    20   46   14 am 
    21   14   47 1  
    22   14   50 1  
    23   67   15 ar 
    24   51   17 1  
    25   17   52 1  
    26   17   55 1  
    27   59   18 2  
    28   19   21 2  
    29   20   59 am 
    30   60   20 1  
    31   23   21 1  
    32   22   25 ar 
    33   58   22 ar 
    34   24   23 2  
    35   25   26 ar 
    36   27   26 ar 
    37   27   28 1  
    38   57   27 ar 
    39   28   29 ar 
    40   28   56 ar 
    41   29   30 ar 
    42   30   31 1  
    43   32   33 1  
    44   33   34 ar 
    45   33   44 ar 
    46   34   35 ar 
    47   35   36 ar 
    48   37   36 ar 
    49   37   38 1  
    50   44   37 ar 
    51   38   39 ar 
    52   38   43 ar 
    53   39   40 ar 
    54   40   41 ar 
    55   42   41 ar 
    56   43   42 ar 
    57   45   46 1  
    58   56   45 ar 
    59   47   48 1  
    60   47   51 1  
    61   49   48 1  
    62   50   49 1  
    63   52   53 1  
    64   54   53 1  
    65   55   54 1  
    66   58   57 ar 
    67   59   58 1  
    68   60   61 1  
    69   60   67 1  
    70   61   62 1  
    71   61   66 1  
    72   62   63 1  
    73   63   64 1  
    74   64   65 1  
    75   65   66 1  
    76    4   68 1  
    77    7   69 1  
    78    7   70 1  
    79    8   71 1  
    80   10   72 1  
    81   10   73 1  
    82   13   74 1  
    83   13   75 1  
    84   16   76 1  
    85   16   77 1  
    86   17   78 1  
    87   19   79 1  
    88   20   80 1  
    89   21   81 1  
    90   23   82 1  
    91   24   83 1  
    92   26   84 1  
    93   29   85 1  
    94   32   86 1  
    95   32   87 1  
    96   34   88 1  
    97   35   89 1  
    98   36   90 1  
    99   39   91 1  
   100   40   92 1  
   101   41   93 1  
   102   42   94 1  
   103   43   95 1  
   104   44   96 1  
   105   47   97 1  
   106   48   98 1  
   107   48   99 1  
   108   49  100 1  
   109   49  101 1  
   110   50  102 1  
   111   50  103 1  
   112   51  104 1  
   113   51  105 1  
   114   52  106 1  
   115   52  107 1  
   116   53  108 1  
   117   53  109 1  
   118   54  110 1  
   119   54  111 1  
   120   55  112 1  
   121   55  113 1  
   122   56  114 1  
   123   57  115 1  
   124   60  116 1  
   125   61  117 1  
   126   62  118 1  
   127   62  119 1  
   128   63  120 1  
   129   63  121 1  
   130   64  122 1  
   131   64  123 1  
   132   65  124 1  
   133   65  125 1  
   134   66  126 1  
   135   66  127 1  
@<TRIPOS>SUBSTRUCTURE
     1 LKJ         1

