3lkj_ligand
  -I-interpret- 

128136  0  0  0  0  0  0  0  0999 V2000
   32.2050   23.1730   17.7160 C   0  0  0  0  0
   33.2950   22.7670   18.4300 N   0  0  0  0  0
   32.2580   23.6750   16.6060 O   0  0  0  0  0
   34.6960   22.6730   17.9620 C   0  0  0  0  0
   36.1660   23.0640   16.1020 N   0  0  0  0  0
   24.1890   25.0170   20.8780 O   0  0  0  0  0
   35.4950   23.1700   19.1750 C   0  0  0  0  0
   23.7430   27.1030   20.2570 N   0  0  0  0  0
   28.4550   28.1000   16.2600 O   0  0  0  0  0
   34.6270   22.8270   20.3780 C   0  0  0  0  0
   25.8690   26.8480   18.2930 N   0  0  0  0  0
   31.6570   17.6070   23.1070 O   0  0  0  0  0
   33.3390   22.2290   19.7920 C   0  0  0  0  0
   26.2380   28.1150   15.7550 N   0  0  0  0  0
   33.0250   19.0900   22.2200 O   0  0  0  0  0
   34.8670   23.4250   16.6410 C   0  0  0  0  0
   28.3160   29.7870   13.8000 N   0  3  0  0  0
   28.4670   20.3260   21.2450 O   0  0  0  0  0
   36.4310   21.7500   15.5370 C   0  0  0  0  0
   30.6030   20.0710   20.6600 N   0  0  0  0  0
   37.8220   21.9470   14.9440 C   0  0  0  0  0
   30.7250   22.1120   19.3300 N   0  0  0  0  0
   38.3660   23.2980   15.4260 C   0  0  0  0  0
   37.2370   24.0660   16.1010 C   0  0  0  0  0
   30.9110   23.1200   18.4580 C   0  0  0  0  0
   29.9150   24.0620   18.2740 C   0  0  0  0  0
   28.7270   23.9470   18.9990 C   0  0  0  0  0
   27.7600   24.8950   18.7780 C   0  0  0  0  0
   26.5590   24.9300   19.4800 C   0  0  0  0  0
   25.5960   25.8940   19.2050 C   0  0  0  0  0
   24.3840   25.9290   20.0850 C   0  0  0  0  0
   22.6230   27.3710   21.1850 C   0  0  0  0  0
   21.3190   27.5410   20.4520 C   0  0  0  0  0
   20.6970   26.3930   19.9660 C   0  0  0  0  0
   19.4920   26.4610   19.2820 C   0  0  0  0  0
   18.9290   27.7220   19.1190 C   0  0  0  0  0
   19.5440   28.8820   19.6090 C   0  0  0  0  0
   18.9150   30.1060   19.3870 C   0  0  0  0  0
   17.7230   30.1490   18.6510 C   0  0  0  0  0
   17.0940   31.3770   18.4110 C   0  0  0  0  0
   17.6410   32.5710   18.9230 C   0  0  0  0  0
   18.8430   32.5480   19.6400 C   0  0  0  0  0
   19.4720   31.3180   19.8580 C   0  0  0  0  0
   20.7660   28.7960   20.2830 C   0  0  0  0  0
   27.0480   26.8220   17.6040 C   0  0  0  0  0
   27.3120   27.8030   16.5240 C   0  0  0  0  0
   26.2130   29.1000   14.6450 C   0  0  0  0  0
   24.8460   28.9660   13.9770 C   0  0  0  0  0
   24.1560   27.8380   14.6940 C   0  0  0  0  0
   24.8720   27.6730   16.0240 C   0  0  0  0  0
   27.2950   28.7880   13.6200 C   0  0  0  0  0
   29.4100   29.9070   12.8400 C   0  0  0  0  0
   30.4910   30.5720   13.6810 C   0  0  0  0  0
   29.8250   30.9320   15.0110 C   0  0  0  0  0
   28.3180   30.6670   14.9320 C   0  0  0  0  0
   28.0180   25.8610   17.8270 C   0  0  0  0  0
   28.5540   22.9130   19.9230 C   0  0  0  0  0
   29.6250   22.0330   20.0970 C   0  0  0  0  0
   29.5390   20.7900   20.8660 C   0  0  0  0  0
   31.1520   18.7580   20.9870 C   0  0  0  0  0
   30.4320   17.6580   20.1940 C   0  0  0  0  0
   29.2410   16.9390   20.7680 C   0  0  0  0  0
   28.8570   15.7540   19.8570 C   0  0  0  0  0
   29.5080   15.7080   18.4740 C   0  0  0  0  0
   31.0160   15.9930   18.4350 C   0  0  0  0  0
   31.4990   16.7020   19.6900 C   0  0  0  0  0
   31.9530   18.4520   22.2300 C   0  0  0  0  0
   35.0512   21.6797   17.6877 H   0  0  0  0  0
   35.7021   24.2385   19.1149 H   0  0  0  0  0
   36.4766   22.7000   19.2351 H   0  0  0  0  0
   24.0636   27.8869   19.6885 H   0  0  0  0  0
   34.4197   23.7070   20.9868 H   0  0  0  0  0
   35.1268   22.1257   21.0462 H   0  0  0  0  0
   30.7896   17.2416   22.9179 H   0  0  0  0  0
   33.3413   21.1391   19.8088 H   0  0  0  0  0
   32.4556   22.4943   20.3727 H   0  0  0  0  0
   34.8058   24.5012   16.8029 H   0  0  0  0  0
   34.0749   23.1557   15.9424 H   0  0  0  0  0
   27.3120   29.7375   13.6267 H   0  0  0  0  0
   35.8017   20.8600   15.5374 H   0  0  0  0  0
   31.2668   20.5909   20.0860 H   0  0  0  0  0
   38.3413   21.2472   14.2892 H   0  0  0  0  0
   39.3905   23.6500   15.3054 H   0  0  0  0  0
   37.2276   25.0874   16.4816 H   0  0  0  0  0
   30.0556   24.8838   17.5719 H   0  0  0  0  0
   26.3704   24.1899   20.2577 H   0  0  0  0  0
   22.8369   28.2946   21.7229 H   0  0  0  0  0
   22.5278   26.5218   21.8617 H   0  0  0  0  0
   21.1664   25.4224   20.1263 H   0  0  0  0  0
   19.0083   25.5663   18.8900 H   0  0  0  0  0
   17.9785   27.8111   18.5930 H   0  0  0  0  0
   17.2860   29.2277   18.2658 H   0  0  0  0  0
   16.1757   31.4097   17.8246 H   0  0  0  0  0
   17.1252   33.5173   18.7597 H   0  0  0  0  0
   19.2803   33.4709   20.0211 H   0  0  0  0  0
   20.4148   31.2927   20.4044 H   0  0  0  0  0
   21.2651   29.6879   20.6619 H   0  0  0  0  0
   26.3893   30.1058   15.0264 H   0  0  0  0  0
   24.9413   28.7619   12.9105 H   0  0  0  0  0
   24.2751   29.8919   14.0472 H   0  0  0  0  0
   24.1994   26.9187   14.1099 H   0  0  0  0  0
   23.0990   28.0582   14.8436 H   0  0  0  0  0
   24.4017   28.2528   16.8182 H   0  0  0  0  0
   24.8366   26.6450   16.3846 H   0  0  0  0  0
   27.6961   27.7847   13.7639 H   0  0  0  0  0
   26.8955   28.8116   12.6061 H   0  0  0  0  0
   29.1439   30.4747   11.9484 H   0  0  0  0  0
   29.7187   28.9528   12.4131 H   0  0  0  0  0
   30.8893   31.4573   13.1854 H   0  0  0  0  0
   31.3409   29.9063   13.8314 H   0  0  0  0  0
   29.9925   31.9883   15.2213 H   0  0  0  0  0
   30.2552   30.3206   15.8042 H   0  0  0  0  0
   27.8703   30.2588   15.8381 H   0  0  0  0  0
   27.6951   31.5557   14.8302 H   0  0  0  0  0
   28.9549   25.8667   17.2700 H   0  0  0  0  0
   27.6256   22.7983   20.4825 H   0  0  0  0  0
   32.2042   18.8247   20.7103 H   0  0  0  0  0
   29.9047   18.2000   19.4089 H   0  0  0  0  0
   28.4005   17.6298   20.8343 H   0  0  0  0  0
   29.4901   16.5644   21.7608 H   0  0  0  0  0
   27.7855   15.8474   19.6803 H   0  0  0  0  0
   29.1933   14.8564   20.3760 H   0  0  0  0  0
   29.0316   16.4907   17.8836 H   0  0  0  0  0
   29.3777   14.6902   18.1064 H   0  0  0  0  0
   31.2169   16.6402   17.5812 H   0  0  0  0  0
   31.5395   15.0398   18.3612 H   0  0  0  0  0
   31.7077   15.9607   20.4613 H   0  0  0  0  0
   32.4024   17.2656   19.4568 H   0  0  0  0  0
  1  2  1  0  0  0
  1  3  2  0  0  0
 25  1  1  0  0  0
  2  4  1  0  0  0
  2 13  1  0  0  0
  4  7  1  0  0  0
  4 16  1  0  0  0
 16  5  1  0  0  0
  5 19  4  0  0  0
  5 24  4  0  0  0
 31  6  2  0  0  0
 10  7  1  0  0  0
 31  8  1  0  0  0
  8 32  1  0  0  0
 46  9  2  0  0  0
 13 10  1  0  0  0
 30 11  4  0  0  0
 45 11  4  0  0  0
 67 12  1  0  0  0
 46 14  1  0  0  0
 14 47  1  0  0  0
 14 50  1  0  0  0
 67 15  2  0  0  0
 51 17  1  0  0  0
 17 52  1  0  0  0
 17 55  1  0  0  0
 59 18  2  0  0  0
 19 21  4  0  0  0
 20 59  1  0  0  0
 60 20  1  0  0  0
 23 21  4  0  0  0
 22 25  4  0  0  0
 58 22  4  0  0  0
 24 23  4  0  0  0
 25 26  4  0  0  0
 27 26  4  0  0  0
 27 28  1  0  0  0
 57 27  4  0  0  0
 28 29  4  0  0  0
 28 56  4  0  0  0
 29 30  4  0  0  0
 30 31  1  0  0  0
 32 33  1  0  0  0
 33 34  4  0  0  0
 33 44  4  0  0  0
 34 35  4  0  0  0
 35 36  4  0  0  0
 37 36  4  0  0  0
 37 38  1  0  0  0
 44 37  4  0  0  0
 38 39  4  0  0  0
 38 43  4  0  0  0
 39 40  4  0  0  0
 40 41  4  0  0  0
 42 41  4  0  0  0
 43 42  4  0  0  0
 45 46  1  0  0  0
 56 45  4  0  0  0
 47 48  1  0  0  0
 47 51  1  0  0  0
 49 48  1  0  0  0
 50 49  1  0  0  0
 52 53  1  0  0  0
 54 53  1  0  0  0
 55 54  1  0  0  0
 58 57  4  0  0  0
 59 58  1  0  0  0
 60 61  1  0  0  0
 60 67  1  0  0  0
 61 62  1  0  0  0
 61 66  1  0  0  0
 62 63  1  0  0  0
 63 64  1  0  0  0
 64 65  1  0  0  0
 65 66  1  0  0  0
  4 68  1  0  0  0
  7 69  1  0  0  0
  7 70  1  0  0  0
  8 71  1  0  0  0
 10 72  1  0  0  0
 10 73  1  0  0  0
 12 74  1  0  0  0
 13 75  1  0  0  0
 13 76  1  0  0  0
 16 77  1  0  0  0
 16 78  1  0  0  0
 17 79  1  0  0  0
 19 80  1  0  0  0
 20 81  1  0  0  0
 21 82  1  0  0  0
 23 83  1  0  0  0
 24 84  1  0  0  0
 26 85  1  0  0  0
 29 86  1  0  0  0
 32 87  1  0  0  0
 32 88  1  0  0  0
 34 89  1  0  0  0
 35 90  1  0  0  0
 36 91  1  0  0  0
 39 92  1  0  0  0
 40 93  1  0  0  0
 41 94  1  0  0  0
 42 95  1  0  0  0
 43 96  1  0  0  0
 44 97  1  0  0  0
 47 98  1  0  0  0
 48 99  1  0  0  0
 48100  1  0  0  0
 49101  1  0  0  0
 49102  1  0  0  0
 50103  1  0  0  0
 50104  1  0  0  0
 51105  1  0  0  0
 51106  1  0  0  0
 52107  1  0  0  0
 52108  1  0  0  0
 53109  1  0  0  0
 53110  1  0  0  0
 54111  1  0  0  0
 54112  1  0  0  0
 55113  1  0  0  0
 55114  1  0  0  0
 56115  1  0  0  0
 57116  1  0  0  0
 60117  1  0  0  0
 61118  1  0  0  0
 62119  1  0  0  0
 62120  1  0  0  0
 63121  1  0  0  0
 63122  1  0  0  0
 64123  1  0  0  0
 64124  1  0  0  0
 65125  1  0  0  0
 65126  1  0  0  0
 66127  1  0  0  0
 66128  1  0  0  0
M  END
$$$$
