4mgv_ligand
  -I-interpret- 

 43 46  0  0  0  0  0  0  0  0999 V2000
  -11.4000    3.6780   20.1100 O   0  0  0  0  0
  -11.2060    3.5180   21.3080 C   0  0  0  0  0
   -9.8490    3.0410   21.7430 C   0  0  0  0  0
   -9.9970    2.6060   23.2240 C   0  0  0  0  0
   -8.6440    2.2000   23.7810 C   0  0  0  0  0
   -8.1620    1.0390   22.9090 C   0  0  0  0  0
   -7.9710    1.4670   21.4430 C   0  0  0  0  0
   -9.3370    1.8790   20.8880 C   0  0  0  0  0
   -7.7050    3.4140   23.6270 C   0  0  0  0  0
   -7.4840    3.8420   22.1640 C   0  0  0  0  0
   -6.9790    2.6500   21.3620 C   0  0  0  0  0
   -8.8440    4.2010   21.5640 C   0  0  0  0  0
  -12.0740    3.7080   22.3390 N   0  0  0  0  0
  -13.4210    4.1970   22.3580 N   0  0  0  0  0
  -13.4460    5.4480   22.8170 C   0  0  0  0  0
  -12.3830    5.9420   23.1150 O   0  0  0  0  0
  -14.6250    6.3590   23.0280 C   0  0  0  0  0
  -15.4510    6.2160   24.1430 C   0  0  0  0  0
  -16.5120    7.1010   24.3470 C   0  0  0  0  0
  -16.7210    8.1040   23.4780 N   0  0  0  0  0
  -15.9340    8.2800   22.3990 C   0  0  0  0  0
  -14.8650    7.4220   22.1560 C   0  0  0  0  0
  -10.6793    1.7580   23.2832 H   0  0  0  0  0
  -10.3900    3.4396   23.8060 H   0  0  0  0  0
   -8.6771    1.9013   24.8287 H   0  0  0  0  0
   -8.9144    0.2510   22.9408 H   0  0  0  0  0
   -7.2015    0.6967   23.2941 H   0  0  0  0  0
   -7.5628    0.6432   20.8574 H   0  0  0  0  0
   -9.2490    2.1829   19.8449 H   0  0  0  0  0
  -10.0330    1.0411   20.9271 H   0  0  0  0  0
   -6.7346    3.1300   24.0343 H   0  0  0  0  0
   -8.1682    4.2530   24.1462 H   0  0  0  0  0
   -6.7788    4.6726   22.1330 H   0  0  0  0  0
   -6.8759    2.9489   20.3189 H   0  0  0  0  0
   -6.0213    2.3320   21.7740 H   0  0  0  0  0
   -9.2312    5.0823   22.0754 H   0  0  0  0  0
   -8.7173    4.3938   20.4987 H   0  0  0  0  0
  -11.7018    3.4597   23.2556 H   0  0  0  0  0
  -14.2403    3.6656   22.0635 H   0  0  0  0  0
  -15.2681    5.4123   24.8562 H   0  0  0  0  0
  -17.1684    6.9783   25.2085 H   0  0  0  0  0
  -16.1358    9.1007   21.7107 H   0  0  0  0  0
  -14.2203    7.5792   21.2913 H   0  0  0  0  0
  1  2  2  0  0  0
  2  3  1  0  0  0
  2 13  1  0  0  0
  3  4  1  0  0  0
  3  8  1  0  0  0
  3 12  1  0  0  0
  4  5  1  0  0  0
  5  6  1  0  0  0
  5  9  1  0  0  0
  6  7  1  0  0  0
  7  8  1  0  0  0
  7 11  1  0  0  0
  9 10  1  0  0  0
 10 11  1  0  0  0
 10 12  1  0  0  0
 13 14  1  0  0  0
 14 15  1  0  0  0
 15 16  2  0  0  0
 15 17  1  0  0  0
 17 18  4  0  0  0
 17 22  4  0  0  0
 18 19  4  0  0  0
 19 20  4  0  0  0
 20 21  4  0  0  0
 21 22  4  0  0  0
  4 23  1  0  0  0
  4 24  1  0  0  0
  5 25  1  0  0  0
  6 26  1  0  0  0
  6 27  1  0  0  0
  7 28  1  0  0  0
  8 29  1  0  0  0
  8 30  1  0  0  0
  9 31  1  0  0  0
  9 32  1  0  0  0
 10 33  1  0  0  0
 11 34  1  0  0  0
 11 35  1  0  0  0
 12 36  1  0  0  0
 12 37  1  0  0  0
 13 38  1  0  0  0
 14 39  1  0  0  0
 18 40  1  0  0  0
 19 41  1  0  0  0
 21 42  1  0  0  0
 22 43  1  0  0  0
M  END
$$$$
