3zsz_ligand
  -I-interpret- 

 56 58  0  0  0  0  0  0  0  0999 V2000
   10.2620  -48.0120    6.2140 C   0  0  0  0  0
   11.0820  -48.8570    5.4910 C   0  0  0  0  0
    9.2760  -47.2570    5.5920 C   0  0  0  0  0
   10.8970  -48.9370    4.1200 C   0  0  0  0  0
   11.3250  -44.9980   -0.9090 C   0  0  0  0  0
   12.1910  -44.5200   -1.8840 C   0  0  0  0  0
    9.0970  -47.3250    4.2200 C   0  0  0  0  0
   13.1900  -45.5680    0.5200 C   0  0  0  0  0
    9.9140  -48.1800    3.4960 C   0  0  0  0  0
   11.8080  -45.5270    0.2880 C   0  0  0  0  0
   13.5540  -44.5660   -1.6450 C   0  0  0  0  0
   14.0410  -45.0710   -0.4730 C   0  0  0  0  0
    8.0380  -46.5020    3.5090 C   0  0  0  0  0
   13.7490  -46.1020    1.8010 C   0  0  0  0  0
   15.7280  -44.2460   -1.6520 C   0  0  0  0  0
    7.9040  -42.1320    1.4780 C   0  0  0  0  0
    6.1730  -43.5540    3.4870 C   0  0  0  0  0
   10.9630  -48.2390   -0.0680 C   0  0  0  0  0
    9.7360  -48.2680    2.0130 C   0  0  0  0  0
   10.8210  -46.0610    1.3010 C   0  0  0  0  0
    8.4550  -43.1240    2.4500 C   0  0  0  0  0
    7.4270  -44.1730    2.8620 C   0  0  0  0  0
    8.0350  -45.1340    3.7710 N   0  0  0  0  0
   10.8180  -47.5770    1.2740 N   0  3  0  0  0
   14.7890  -45.5190    2.2480 O   0  0  0  0  0
    7.2350  -47.0020    2.7250 O   0  0  0  0  0
   13.1430  -47.0500    2.3700 O   0  0  0  0  0
   14.5680  -44.1390   -2.4920 O   0  0  0  0  0
   15.4380  -45.0110   -0.4540 O   0  0  0  0  0
   10.3915  -47.9364    7.2936 H   0  0  0  0  0
   11.8544  -49.4454    5.9862 H   0  0  0  0  0
    8.6375  -46.6054    6.1885 H   0  0  0  0  0
   11.5278  -49.5991    3.5268 H   0  0  0  0  0
   10.2495  -44.9591   -1.0821 H   0  0  0  0  0
   11.8048  -44.1162   -2.8199 H   0  0  0  0  0
   16.0391  -43.2435   -1.3583 H   0  0  0  0  0
   16.5152  -44.7549   -2.2083 H   0  0  0  0  0
    7.5750  -42.6513    0.5779 H   0  0  0  0  0
    7.0581  -41.6139    1.9298 H   0  0  0  0  0
    8.6783  -41.4097    1.2197 H   0  0  0  0  0
    6.4526  -42.9904    4.3771 H   0  0  0  0  0
    5.7009  -42.8865    2.7661 H   0  0  0  0  0
    5.4763  -44.3462    3.7610 H   0  0  0  0  0
   11.2149  -49.2902    0.0722 H   0  0  0  0  0
   10.0234  -48.1590   -0.6146 H   0  0  0  0  0
   11.7555  -47.7461   -0.6311 H   0  0  0  0  0
    8.7917  -47.7875    1.7570 H   0  0  0  0  0
    9.7544  -49.3211    1.7324 H   0  0  0  0  0
    9.8235  -45.6963    1.0561 H   0  0  0  0  0
   11.1091  -45.7209    2.2957 H   0  0  0  0  0
    8.7601  -42.5828    3.3456 H   0  0  0  0  0
    9.2864  -43.6393    1.9691 H   0  0  0  0  0
    7.1028  -44.6858    1.9564 H   0  0  0  0  0
    8.4729  -44.7946    4.6274 H   0  0  0  0  0
   11.6877  -47.7050    1.7913 H   0  0  0  0  0
   15.0586  -44.8324    1.6336 H   0  0  0  0  0
  1  2  4  0  0  0
  3  1  4  0  0  0
  4  2  4  0  0  0
  7  3  4  0  0  0
  9  4  4  0  0  0
  5  6  4  0  0  0
 10  5  4  0  0  0
  6 11  4  0  0  0
  7  9  4  0  0  0
 13  7  1  0  0  0
 10  8  4  0  0  0
  8 12  4  0  0  0
  8 14  1  0  0  0
  9 19  1  0  0  0
 20 10  1  0  0  0
 12 11  4  0  0  0
 11 28  1  0  0  0
 12 29  1  0  0  0
 23 13  1  0  0  0
 13 26  2  0  0  0
 14 25  1  0  0  0
 14 27  2  0  0  0
 15 28  1  0  0  0
 29 15  1  0  0  0
 21 16  1  0  0  0
 22 17  1  0  0  0
 24 18  1  0  0  0
 19 24  1  0  0  0
 24 20  1  0  0  0
 22 21  1  0  0  0
 22 23  1  0  0  0
  1 30  1  0  0  0
  2 31  1  0  0  0
  3 32  1  0  0  0
  4 33  1  0  0  0
  5 34  1  0  0  0
  6 35  1  0  0  0
 15 36  1  0  0  0
 15 37  1  0  0  0
 16 38  1  0  0  0
 16 39  1  0  0  0
 16 40  1  0  0  0
 17 41  1  0  0  0
 17 42  1  0  0  0
 17 43  1  0  0  0
 18 44  1  0  0  0
 18 45  1  0  0  0
 18 46  1  0  0  0
 19 47  1  0  0  0
 19 48  1  0  0  0
 20 49  1  0  0  0
 20 50  1  0  0  0
 21 51  1  0  0  0
 21 52  1  0  0  0
 22 53  1  0  0  0
 23 54  1  0  0  0
 24 55  1  0  0  0
 25 56  1  0  0  0
M  END
$$$$
