5TGY_LIGAND
  -I-interpret- 

 49 56  0  0  0  0  0  0  0  0999 V2000
   -0.5190   -8.3200  -18.8080 N   0  0  0  0  0
   -2.7100   -8.0020  -20.6190 N   0  3  0  0  0
   -2.2290   -9.6160  -16.8960 N   0  3  0  0  0
    0.2300   -9.7560  -16.9300 C   0  0  0  0  0
   -0.5750   -6.7790  -20.7340 C   0  0  0  0  0
   -4.8800   -9.0390  -21.1400 C   0  0  0  0  0
   -4.6160   -9.9010  -16.3270 C   0  0  0  0  0
    0.4600   -8.8830  -18.0310 C   0  0  0  0  0
   -1.8440   -7.1520  -21.2580 C   0  0  0  0  0
   -5.2320   -9.4260  -19.8170 C   0  0  0  0  0
   -3.2230   -9.9690  -16.0210 C   0  0  0  0  0
    1.5010  -10.3220  -16.2820 C   0  0  0  0  0
    0.2420   -5.7080  -21.4560 C   0  0  0  0  0
   -5.9560   -9.3290  -22.1880 C   0  0  0  0  0
   -5.6230  -10.2100  -15.2170 C   0  0  0  0  0
    1.7590   -8.3540  -18.4430 C   0  0  0  0  0
   -2.3580   -6.8490  -22.5820 C   0  0  0  0  0
   -6.5580   -9.8600  -19.3810 C   0  0  0  0  0
   -2.6260  -10.5820  -14.8440 C   0  0  0  0  0
    1.5310   -7.4850  -19.4530 C   0  0  0  0  0
   -3.5220   -7.5290  -22.7210 C   0  0  0  0  0
   -6.5010  -10.0370  -18.0440 C   0  0  0  0  0
   -1.2880  -10.6020  -15.0400 C   0  0  0  0  0
    0.0930   -7.4730  -19.6890 C   0  0  0  0  0
   -3.7490   -8.2570  -21.4820 C   0  0  0  0  0
   -5.1440   -9.7200  -17.6320 C   0  0  0  0  0
   -1.0310   -9.9940  -16.3330 C   0  0  0  0  0
   -4.4040   -9.3560  -18.7300 N   0  0  0  0  0
    2.1010   -9.4080  -15.4930 F   0  0  0  0  0
   -0.5450   -4.7380  -21.9840 F   0  0  0  0  0
   -5.5210   -9.3740  -23.4570 F   0  0  0  0  0
   -6.7100   -9.4060  -15.2500 F   0  0  0  0  0
    2.4300  -10.6650  -17.2030 F   0  0  0  0  0
    0.9770   -6.1820  -22.4850 F   0  0  0  0  0
   -6.5480  -10.5280  -21.9770 F   0  0  0  0  0
   -5.0830  -10.0400  -13.9940 F   0  0  0  0  0
    1.3140  -11.4200  -15.5140 F   0  0  0  0  0
    1.0990   -5.0940  -20.6200 F   0  0  0  0  0
   -6.9380   -8.3990  -22.1530 F   0  0  0  0  0
   -6.0750  -11.4840  -15.2770 F   0  0  0  0  0
   -2.5690   -8.4360  -18.5910 Zn  0  0  0  0  0
    2.7284   -8.6116  -18.0163 H   0  0  0  0  0
   -1.8952   -6.1979  -23.3236 H   0  0  0  0  0
   -7.4301  -10.0123  -20.0169 H   0  0  0  0  0
   -3.1575  -10.9551  -13.9686 H   0  0  0  0  0
    2.2808   -6.9034  -19.9893 H   0  0  0  0  0
   -4.1685   -7.5303  -23.5986 H   0  0  0  0  0
   -7.3175  -10.3568  -17.3966 H   0  0  0  0  0
   -0.5407  -11.0009  -14.3540 H   0  0  0  0  0
  1  8  4  0  0  0
 24  1  4  0  0  0
  2  9  4  0  0  0
 25  2  4  0  0  0
  3 11  4  0  0  0
 27  3  4  0  0  0
  8  4  4  0  0  0
  4 12  1  0  0  0
  4 27  4  0  0  0
  9  5  4  0  0  0
  5 13  1  0  0  0
  5 24  4  0  0  0
  6 10  4  0  0  0
  6 14  1  0  0  0
  6 25  4  0  0  0
 11  7  4  0  0  0
  7 15  1  0  0  0
  7 26  4  0  0  0
  8 16  4  0  0  0
  9 17  1  0  0  0
 10 18  4  0  0  0
 10 28  4  0  0  0
 11 19  1  0  0  0
 12 29  1  0  0  0
 12 33  1  0  0  0
 12 37  1  0  0  0
 13 30  1  0  0  0
 13 34  1  0  0  0
 13 38  1  0  0  0
 14 31  1  0  0  0
 14 35  1  0  0  0
 14 39  1  0  0  0
 15 32  1  0  0  0
 15 36  1  0  0  0
 15 40  1  0  0  0
 16 20  4  0  0  0
 17 21  2  0  0  0
 18 22  4  0  0  0
 19 23  2  0  0  0
 20 24  4  0  0  0
 21 25  1  0  0  0
 22 26  4  0  0  0
 23 27  1  0  0  0
 26 28  4  0  0  0
  1 41  1  0  0  0
 41  2  1  0  0  0
 41  3  1  0  0  0
 41 28  1  0  0  0
 16 42  1  0  0  0
 17 43  1  0  0  0
 18 44  1  0  0  0
 19 45  1  0  0  0
 20 46  1  0  0  0
 21 47  1  0  0  0
 22 48  1  0  0  0
 23 49  1  0  0  0
M  END
$$$$
