### 
### Created by X-TOOL on Mon Sep 10 21:13:34 2018
### 

@<TRIPOS>MOLECULE
5TGY_LIGAND
   49    56     1     0     0
SMALL
GAST_HUCK


@<TRIPOS>ATOM
      1 NA1        -0.5190   -8.3200  -18.8080 N.pl3     1 7BU         0.0323
      2 NB2        -2.7100   -8.0020  -20.6190 N.2       1 7BU        -0.2432
      3 ND4        -2.2290   -9.6160  -16.8960 N.2       1 7BU        -0.2432
      4 CHA         0.2300   -9.7560  -16.9300 C.2       1 7BU         0.2049
      5 CHB        -0.5750   -6.7790  -20.7340 C.2       1 7BU         0.2049
      6 CHC        -4.8800   -9.0390  -21.1400 C.2       1 7BU         0.1698
      7 CHD        -4.6160   -9.9010  -16.3270 C.2       1 7BU         0.1698
      8 C1A         0.4600   -8.8830  -18.0310 C.2       1 7BU         0.2673
      9 C1B        -1.8440   -7.1520  -21.2580 C.2       1 7BU         0.1239
     10 C1C        -5.2320   -9.4260  -19.8170 C.2       1 7BU         0.2346
     11 C1D        -3.2230   -9.9690  -16.0210 C.2       1 7BU         0.1161
     12 C1FA        1.5010  -10.3220  -16.2820 C.3       1 7BU         0.4135
     13 C1FB        0.2420   -5.7080  -21.4560 C.3       1 7BU         0.4135
     14 C1FC       -5.9560   -9.3290  -22.1880 C.3       1 7BU         0.3945
     15 C1FD       -5.6230  -10.2100  -15.2170 C.3       1 7BU         0.3945
     16 C2A         1.7590   -8.3540  -18.4430 C.2       1 7BU         0.0998
     17 C2B        -2.3580   -6.8490  -22.5820 C.2       1 7BU         0.0316
     18 C2C        -6.5580   -9.8600  -19.3810 C.2       1 7BU         0.0740
     19 C2D        -2.6260  -10.5820  -14.8440 C.2       1 7BU         0.0292
     20 C3A         1.5310   -7.4850  -19.4530 C.2       1 7BU         0.0998
     21 C3B        -3.5220   -7.5290  -22.7210 C.2       1 7BU         0.0292
     22 C3C        -6.5010  -10.0370  -18.0440 C.2       1 7BU         0.0740
     23 C3D        -1.2880  -10.6020  -15.0400 C.2       1 7BU         0.0316
     24 C4A         0.0930   -7.4730  -19.6890 C.2       1 7BU         0.2673
     25 C4B        -3.7490   -8.2570  -21.4820 C.2       1 7BU         0.1161
     26 C4C        -5.1440   -9.7200  -17.6320 C.2       1 7BU         0.2346
     27 C4D        -1.0310   -9.9940  -16.3330 C.2       1 7BU         0.1239
     28 NC3        -4.4040   -9.3560  -18.7300 N.pl3     1 7BU        -0.0002
     29 F21A        2.1010   -9.4080  -15.4930 F         1 7BU        -0.2171
     30 F21B       -0.5450   -4.7380  -21.9840 F         1 7BU        -0.2171
     31 F21C       -5.5210   -9.3740  -23.4570 F         1 7BU        -0.2290
     32 F21D       -6.7100   -9.4060  -15.2500 F         1 7BU        -0.2290
     33 F22A        2.4300  -10.6650  -17.2030 F         1 7BU        -0.2171
     34 F22B        0.9770   -6.1820  -22.4850 F         1 7BU        -0.2171
     35 F22C       -6.5480  -10.5280  -21.9770 F         1 7BU        -0.2290
     36 F22D       -5.0830  -10.0400  -13.9940 F         1 7BU        -0.2290
     37 F23A        1.3140  -11.4200  -15.5140 F         1 7BU        -0.2171
     38 F23B        1.0990   -5.0940  -20.6200 F         1 7BU        -0.2171
     39 F23C       -6.9380   -8.3990  -22.1530 F         1 7BU        -0.2290
     40 F23D       -6.0750  -11.4840  -15.2770 F         1 7BU        -0.2290
     41 ZN         -2.5690   -8.4360  -18.5910 Zn        1 7BU        -2.0000
     42 H           2.7284   -8.6116  -18.0163 H         1 7BU         0.1161
     43 H          -1.8952   -6.1979  -23.3236 H         1 7BU         0.0768
     44 H          -7.4301  -10.0123  -20.0169 H         1 7BU         0.1046
     45 H          -3.1575  -10.9551  -13.9686 H         1 7BU         0.1089
     46 H           2.2808   -6.9034  -19.9893 H         1 7BU         0.1161
     47 H          -4.1685   -7.5303  -23.5986 H         1 7BU         0.1089
     48 H          -7.3175  -10.3568  -17.3966 H         1 7BU         0.1046
     49 H          -0.5407  -11.0009  -14.3540 H         1 7BU         0.0768
@<TRIPOS>BOND
     1    1    8 1  
     2   24    1 1  
     3    2    9 1  
     4   25    2 2  
     5    3   11 2  
     6   27    3 1  
     7    8    4 1  
     8    4   12 1  
     9    4   27 2  
    10    9    5 2  
    11    5   13 1  
    12    5   24 1  
    13    6   10 2  
    14    6   14 1  
    15    6   25 1  
    16   11    7 1  
    17    7   15 1  
    18    7   26 2  
    19    8   16 2  
    20    9   17 1  
    21   10   18 1  
    22   10   28 1  
    23   11   19 1  
    24   12   29 1  
    25   12   33 1  
    26   12   37 1  
    27   13   30 1  
    28   13   34 1  
    29   13   38 1  
    30   14   31 1  
    31   14   35 1  
    32   14   39 1  
    33   15   32 1  
    34   15   36 1  
    35   15   40 1  
    36   16   20 1  
    37   17   21 2  
    38   18   22 2  
    39   19   23 2  
    40   20   24 2  
    41   21   25 1  
    42   22   26 1  
    43   23   27 1  
    44   26   28 1  
    45    1   41 1  
    46   41    2 1  
    47   41    3 1  
    48   41   28 1  
    49   16   42 1  
    50   17   43 1  
    51   18   44 1  
    52   19   45 1  
    53   20   46 1  
    54   21   47 1  
    55   22   48 1  
    56   23   49 1  
@<TRIPOS>SUBSTRUCTURE
     1 7BU         1

