4ppc_ligand
  -I-interpret- 

 59 63  0  0  0  0  0  0  0  0999 V2000
    9.2410  -25.8620  -45.9980 C   0  0  0  0  0
    9.8090  -25.9570  -47.3590 N   0  3  0  0  0
   10.7600  -24.8750  -47.6520 C   0  0  0  0  0
   10.3170  -27.2770  -47.7900 C   0  0  0  0  0
   10.9070  -28.1230  -46.6530 C   0  0  0  0  0
   12.3850  -28.4540  -46.9000 C   0  0  0  0  0
   12.5190  -29.9470  -47.0930 C   0  0  0  0  0
   12.6800  -30.4390  -48.3860 C   0  0  0  0  0
   12.7740  -31.8100  -48.6010 C   0  0  0  0  0
   12.6990  -32.6820  -47.5180 C   0  0  0  0  0
   12.5360  -32.2030  -46.2220 C   0  0  0  0  0
   12.4400  -30.8330  -46.0100 C   0  0  0  0  0
   13.2120  -28.0140  -45.7720 N   0  0  0  0  0
   14.5670  -27.9060  -45.7710 C   0  0  0  0  0
   14.9470  -27.4970  -44.5300 C   0  0  0  0  0
   13.7790  -27.3710  -43.7630 C   0  0  0  0  0
   12.7490  -27.6830  -44.4920 N   0  0  0  0  0
   16.2450  -27.2220  -44.0390 N   0  0  0  0  0
   17.3400  -26.8930  -44.7720 C   0  0  0  0  0
   17.3190  -26.8220  -45.9880 O   0  0  0  0  0
   18.6000  -26.6140  -44.0570 C   0  0  0  0  0
   19.9290  -26.3750  -44.6430 C   0  0  0  0  0
   20.4640  -26.3370  -45.9420 C   0  0  0  0  0
   21.7990  -26.0600  -46.1200 C   0  0  0  0  0
   22.6470  -25.8290  -45.0110 C   0  0  0  0  0
   22.1250  -25.8760  -43.7120 C   0  0  0  0  0
   20.7640  -26.1380  -43.5180 C   0  0  0  0  0
   19.9560  -26.2410  -42.4180 N   0  0  0  0  0
   18.7450  -26.4970  -42.7520 N   0  0  0  0  0
   24.0960  -25.5410  -45.2180 C   0  0  0  0  0
   24.7720  -25.5500  -46.4070 C   0  0  0  0  0
   26.0580  -25.2310  -46.1600 N   0  0  0  0  0
   26.1970  -25.0150  -44.7860 N   0  0  0  0  0
   25.0310  -25.1920  -44.2210 C   0  0  0  0  0
    8.3941  -26.5426  -45.9108 H   0  0  0  0  0
   10.0034  -26.1332  -45.2677 H   0  0  0  0  0
    8.9080  -24.8403  -45.8151 H   0  0  0  0  0
    8.9835  -25.8311  -47.9448 H   0  0  0  0  0
   11.6974  -25.0655  -47.1294 H   0  0  0  0  0
   10.9429  -24.8346  -48.7258 H   0  0  0  0  0
   10.3424  -23.9254  -47.3173 H   0  0  0  0  0
   11.1182  -27.0960  -48.5066 H   0  0  0  0  0
    9.4714  -27.8304  -48.1985 H   0  0  0  0  0
   10.3503  -29.0584  -46.5965 H   0  0  0  0  0
   10.8328  -27.5532  -45.7268 H   0  0  0  0  0
   12.7297  -27.9297  -47.7913 H   0  0  0  0  0
   12.7323  -29.7500  -49.2290 H   0  0  0  0  0
   12.9055  -32.1992  -49.6106 H   0  0  0  0  0
   12.7691  -33.7563  -47.6882 H   0  0  0  0  0
   12.4841  -32.8952  -45.3816 H   0  0  0  0  0
   12.3031  -30.4469  -44.9999 H   0  0  0  0  0
   15.2294  -28.1101  -46.6122 H   0  0  0  0  0
   13.7412  -27.0601  -42.7190 H   0  0  0  0  0
   16.3718  -27.2765  -43.0284 H   0  0  0  0  0
   19.8240  -26.5261  -46.8038 H   0  0  0  0  0
   22.2096  -26.0178  -47.1288 H   0  0  0  0  0
   22.7770  -25.7090  -42.8546 H   0  0  0  0  0
   24.3450  -25.7758  -47.3841 H   0  0  0  0  0
   24.8173  -25.0873  -43.1573 H   0  0  0  0  0
  1  2  1  0  0  0
  2  3  1  0  0  0
  2  4  1  0  0  0
  4  5  1  0  0  0
  5  6  1  0  0  0
  6  7  1  0  0  0
  6 13  1  0  0  0
  7  8  4  0  0  0
  7 12  4  0  0  0
  8  9  4  0  0  0
  9 10  4  0  0  0
 10 11  4  0  0  0
 11 12  4  0  0  0
 13 14  4  0  0  0
 13 17  4  0  0  0
 14 15  4  0  0  0
 15 16  4  0  0  0
 15 18  1  0  0  0
 16 17  4  0  0  0
 18 19  1  0  0  0
 19 20  2  0  0  0
 19 21  1  0  0  0
 21 22  4  0  0  0
 21 29  4  0  0  0
 22 23  4  0  0  0
 22 27  4  0  0  0
 23 24  4  0  0  0
 24 25  4  0  0  0
 25 26  4  0  0  0
 25 30  1  0  0  0
 26 27  4  0  0  0
 27 28  4  0  0  0
 28 29  4  0  0  0
 30 31  4  0  0  0
 30 34  4  0  0  0
 31 32  4  0  0  0
 32 33  4  0  0  0
 33 34  4  0  0  0
  1 35  1  0  0  0
  1 36  1  0  0  0
  1 37  1  0  0  0
  2 38  1  0  0  0
  3 39  1  0  0  0
  3 40  1  0  0  0
  3 41  1  0  0  0
  4 42  1  0  0  0
  4 43  1  0  0  0
  5 44  1  0  0  0
  5 45  1  0  0  0
  6 46  1  0  0  0
  8 47  1  0  0  0
  9 48  1  0  0  0
 10 49  1  0  0  0
 11 50  1  0  0  0
 12 51  1  0  0  0
 14 52  1  0  0  0
 16 53  1  0  0  0
 18 54  1  0  0  0
 23 55  1  0  0  0
 24 56  1  0  0  0
 26 57  1  0  0  0
 31 58  1  0  0  0
 34 59  1  0  0  0
M  END
$$$$
