1yy4_ligand
  -I-interpret- 

 30 32  0  0  0  0  0  0  0  0999 V2000
   33.4230   36.2570   36.5760 C   0  0  0  0  0
   32.1680   36.8970   36.2850 C   0  0  0  0  0
   31.0180   36.6980   37.1690 C   0  0  0  0  0
   31.1960   35.8510   38.3850 C   0  0  0  0  0
   32.4550   35.2390   38.6280 C   0  0  0  0  0
   33.5550   35.4460   37.7440 C   0  0  0  0  0
   29.7320   37.3100   36.9460 C   0  0  0  0  0
   28.6550   37.0780   37.8610 C   0  0  0  0  0
   28.8040   36.2480   39.0450 C   0  0  0  0  0
   30.0970   35.6320   39.2830 C   0  0  0  0  0
   27.6250   36.0470   39.9980 C   0  0  0  0  0
   26.2660   36.1390   39.5170 C   0  0  0  0  0
   25.1600   35.9670   40.4020 C   0  0  0  0  0
   25.3940   35.7010   41.7850 C   0  0  0  0  0
   26.7260   35.6040   42.2980 C   0  0  0  0  0
   27.8340   35.7770   41.4080 C   0  0  0  0  0
   24.3080   35.5370   42.6310 O   0  0  0  0  0
   32.1100   37.8660   34.8330 Cl  0  0  0  0  0
   34.5470   36.4020   35.7720 O   0  0  0  0  0
   32.5821   34.6017   39.5031 H   0  0  0  0  0
   34.5139   34.9766   37.9639 H   0  0  0  0  0
   29.5788   37.9514   36.0781 H   0  0  0  0  0
   27.6883   37.5407   37.6623 H   0  0  0  0  0
   30.2355   34.9941   40.1559 H   0  0  0  0  0
   26.0826   36.3429   38.4621 H   0  0  0  0  0
   24.1403   36.0384   40.0236 H   0  0  0  0  0
   26.8955   35.4005   43.3553 H   0  0  0  0  0
   28.8501   35.7047   41.7957 H   0  0  0  0  0
   24.6211   35.3658   43.5222 H   0  0  0  0  0
   35.2725   35.8948   36.1436 H   0  0  0  0  0
  1  2  4  0  0  0
  1  6  4  0  0  0
  1 19  1  0  0  0
  2  3  4  0  0  0
  2 18  1  0  0  0
  3  4  4  0  0  0
  3  7  4  0  0  0
  4  5  4  0  0  0
  4 10  4  0  0  0
  5  6  4  0  0  0
  7  8  4  0  0  0
  8  9  4  0  0  0
  9 10  4  0  0  0
  9 11  1  0  0  0
 11 12  4  0  0  0
 11 16  4  0  0  0
 12 13  4  0  0  0
 13 14  4  0  0  0
 14 15  4  0  0  0
 14 17  1  0  0  0
 15 16  4  0  0  0
  5 20  1  0  0  0
  6 21  1  0  0  0
  7 22  1  0  0  0
  8 23  1  0  0  0
 10 24  1  0  0  0
 12 25  1  0  0  0
 13 26  1  0  0  0
 15 27  1  0  0  0
 16 28  1  0  0  0
 17 29  1  0  0  0
 19 30  1  0  0  0
M  END
$$$$
