5m5q_ligand
  -I-interpret- 

 70 76  0  0  0  0  0  0  0  0999 V2000
   29.7580  -29.4840   16.2300 C   0  0  0  0  0
   28.6870  -28.5180   19.8260 C   0  0  0  0  0
   27.6780  -27.6290   19.3790 C   0  0  0  0  0
   29.0340  -28.8660   15.2690 C   0  0  0  0  0
   31.4160  -33.0030   16.5190 C   0  0  0  0  0
   29.2250  -29.0050   13.7810 C   0  0  0  0  0
   29.0230  -30.2210   13.0610 C   0  0  0  0  0
   29.2530  -30.2170   11.6770 C   0  0  0  0  0
   29.6460  -29.0430   11.0080 C   0  0  0  0  0
   29.7960  -27.8500   11.7300 C   0  0  0  0  0
   29.6170  -27.8350   13.1140 C   0  0  0  0  0
   28.5340  -31.4850   13.7030 C   0  0  0  0  0
   27.4280  -31.4530   14.5900 C   0  0  0  0  0
   26.9720  -32.6250   15.2110 C   0  0  0  0  0
   27.5790  -33.8600   14.9220 C   0  0  0  0  0
   28.6540  -33.9070   14.0200 C   0  0  0  0  0
   29.1280  -32.7330   13.3980 C   0  0  0  0  0
   29.8530  -29.0530    9.4820 C   0  0  0  0  0
   29.8540  -34.5630   17.6550 C   0  0  0  0  0
   30.1420  -35.5640   18.8020 C   0  0  0  0  0
   32.1120  -36.4260   17.7110 C   0  0  0  0  0
   27.4480  -27.4350   18.0380 N   0  0  0  0  0
   29.1890  -29.0030   17.5370 C   0  0  0  0  0
   28.1960  -28.1090   17.1350 C   0  0  0  0  0
   28.1920  -28.0330   15.7910 N   0  0  0  0  0
   30.8590  -30.5040   16.0540 C   0  0  0  0  0
   30.5190  -31.8080   16.8330 C   0  0  0  0  0
   29.4930  -29.2080   18.8960 C   0  0  0  0  0
   32.4390  -32.7550   15.8750 O   0  0  0  0  0
   31.1160  -34.2780   16.9390 N   0  0  0  0  0
   32.0150  -35.3900   16.5560 C   0  0  0  0  0
   30.8230  -36.7280   18.2870 O   0  0  0  0  0
   31.6450  -36.0460   15.2460 C   0  0  0  0  0
   30.5720  -37.1790   13.7850 C   0  0  0  0  0
   31.5910  -36.4630   13.1540 C   0  0  0  0  0
   31.8090  -36.5630   11.7700 C   0  0  0  0  0
   30.9450  -37.4160   11.0490 C   0  0  0  0  0
   29.9100  -38.1330   11.6940 C   0  0  0  0  0
   29.7000  -38.0290   13.0880 C   0  0  0  0  0
   30.6700  -36.8470   15.0830 N   0  0  0  0  0
   32.2290  -35.7450   14.1110 N   0  0  0  0  0
   28.8413  -28.6696   20.8943 H   0  0  0  0  0
   27.0749  -27.0907   20.1102 H   0  0  0  0  0
   29.1251  -31.1392   11.1101 H   0  0  0  0  0
   30.0539  -26.9291   11.2071 H   0  0  0  0  0
   29.7816  -26.9155   13.6757 H   0  0  0  0  0
   26.9264  -30.5065   14.7915 H   0  0  0  0  0
   26.1450  -32.5784   15.9195 H   0  0  0  0  0
   27.2179  -34.7735   15.3944 H   0  0  0  0  0
   29.1283  -34.8628   13.7976 H   0  0  0  0  0
   29.9499  -32.7868   12.6841 H   0  0  0  0  0
   30.6307  -29.7728    9.2268 H   0  0  0  0  0
   28.9209  -29.3343    8.9920 H   0  0  0  0  0
   30.1535  -28.0589    9.1509 H   0  0  0  0  0
   29.4471  -33.6391   18.0660 H   0  0  0  0  0
   29.1280  -34.9928   16.9648 H   0  0  0  0  0
   29.1985  -35.8723   19.2524 H   0  0  0  0  0
   30.7739  -35.0811   19.5474 H   0  0  0  0  0
   32.7407  -36.0015   18.4937 H   0  0  0  0  0
   32.5244  -37.3489   17.3033 H   0  0  0  0  0
   31.7907  -30.0915   16.4411 H   0  0  0  0  0
   30.9595  -30.7391   14.9944 H   0  0  0  0  0
   30.6527  -31.5850   17.8915 H   0  0  0  0  0
   29.5068  -32.0911   16.5441 H   0  0  0  0  0
   30.3051  -29.8628   19.2120 H   0  0  0  0  0
   32.9999  -34.9543   16.3880 H   0  0  0  0  0
   32.6070  -36.0086   11.2761 H   0  0  0  0  0
   31.0784  -37.5243    9.9726 H   0  0  0  0  0
   29.2607  -38.7794   11.1035 H   0  0  0  0  0
   28.9054  -38.5782   13.5930 H   0  0  0  0  0
  1  4  4  0  0  0
  1 23  4  0  0  0
 26  1  1  0  0  0
  2  3  4  0  0  0
 28  2  4  0  0  0
 22  3  4  0  0  0
  4  6  1  0  0  0
  4 25  4  0  0  0
  5 27  1  0  0  0
  5 29  2  0  0  0
 30  5  1  0  0  0
  6  7  4  0  0  0
  6 11  4  0  0  0
  7  8  4  0  0  0
  7 12  1  0  0  0
  8  9  4  0  0  0
 10  9  4  0  0  0
  9 18  1  0  0  0
 11 10  4  0  0  0
 12 13  4  0  0  0
 12 17  4  0  0  0
 13 14  4  0  0  0
 14 15  4  0  0  0
 16 15  4  0  0  0
 17 16  4  0  0  0
 19 20  1  0  0  0
 30 19  1  0  0  0
 32 20  1  0  0  0
 31 21  1  0  0  0
 21 32  1  0  0  0
 24 22  4  0  0  0
 23 24  4  0  0  0
 23 28  4  0  0  0
 24 25  4  0  0  0
 27 26  1  0  0  0
 31 30  1  0  0  0
 33 31  1  0  0  0
 40 33  4  0  0  0
 33 41  4  0  0  0
 34 35  4  0  0  0
 34 39  4  0  0  0
 34 40  4  0  0  0
 35 36  4  0  0  0
 35 41  4  0  0  0
 36 37  4  0  0  0
 37 38  4  0  0  0
 38 39  4  0  0  0
  2 42  1  0  0  0
  3 43  1  0  0  0
  8 44  1  0  0  0
 10 45  1  0  0  0
 11 46  1  0  0  0
 13 47  1  0  0  0
 14 48  1  0  0  0
 15 49  1  0  0  0
 16 50  1  0  0  0
 17 51  1  0  0  0
 18 52  1  0  0  0
 18 53  1  0  0  0
 18 54  1  0  0  0
 19 55  1  0  0  0
 19 56  1  0  0  0
 20 57  1  0  0  0
 20 58  1  0  0  0
 21 59  1  0  0  0
 21 60  1  0  0  0
 26 61  1  0  0  0
 26 62  1  0  0  0
 27 63  1  0  0  0
 27 64  1  0  0  0
 28 65  1  0  0  0
 31 66  1  0  0  0
 36 67  1  0  0  0
 37 68  1  0  0  0
 38 69  1  0  0  0
 39 70  1  0  0  0
M  END
$$$$
