5ody_ligand
  -I-interpret- 

 78 83  0  0  0  0  0  0  0  0999 V2000
  -23.9810   10.4440   -0.5620 C   0  0  0  0  0
  -23.5940   10.5870   -3.0450 C   0  0  0  0  0
  -21.7300   10.4270   -1.6380 C   0  0  0  0  0
  -19.0010    7.0870   -1.5120 C   0  0  0  0  0
  -19.6150    6.0330   -0.6060 C   0  0  0  0  0
  -17.4610    7.1560   -1.3060 C   0  0  0  0  0
  -16.9170    8.3350   -2.2010 C   0  0  0  0  0
  -14.7380    8.7070   -1.0030 C   0  0  0  0  0
  -27.3140   12.2680    1.2620 C   0  0  0  0  0
  -28.0910   12.9000    3.4210 C   0  0  0  0  0
  -27.4170   11.7960    3.9610 C   0  0  0  0  0
  -26.7440   10.8880    3.0840 C   0  0  0  0  0
  -26.7030   11.0590    1.7440 C   0  0  0  0  0
  -25.8270   10.2680    0.8600 C   0  0  0  0  0
  -24.5110   10.9930   -1.8940 C   0  0  0  0  0
  -24.1500   11.1330   -4.3760 C   0  0  0  0  0
  -19.1480    9.3730   -2.0180 C   0  0  0  0  0
  -13.4140    8.5660   -1.4120 C   0  0  0  0  0
  -12.2200    8.7740   -0.6760 C   0  0  0  0  0
  -11.0110    8.9140   -1.3340 C   0  0  0  0  0
   -9.8380    9.0940   -0.6380 C   0  0  0  0  0
   -9.8190    9.1660    0.7640 C   0  0  0  0  0
  -11.0670    9.0250    1.4130 C   0  0  0  0  0
  -12.2240    8.8170    0.7010 C   0  0  0  0  0
  -17.6430    9.6320   -1.8830 C   0  0  0  0  0
  -22.5000   10.8080   -0.3930 C   0  0  0  0  0
  -27.4580   11.6370    5.3510 C   0  0  0  0  0
  -28.1200   12.5300    6.1870 C   0  0  0  0  0
  -28.7920   13.6320    5.6550 C   0  0  0  0  0
  -28.7780   13.8170    4.2710 C   0  0  0  0  0
   -8.6840    9.2400   -1.2680 F   0  0  0  0  0
   -8.7160    9.3410    1.4180 F   0  0  0  0  0
  -11.0570    9.0500    2.7260 F   0  0  0  0  0
  -26.8470   10.6080    5.9350 F   0  0  0  0  0
  -28.1340   12.3380    7.4980 F   0  0  0  0  0
  -15.5150    8.3620   -2.0990 N   0  0  0  0  0
  -13.4740    8.1410   -2.7300 N   0  0  0  0  0
  -14.6790    8.0210   -3.1050 N   0  0  0  0  0
  -27.2240   12.6870    0.1030 O   0  0  0  0  0
  -28.0910   13.1210    2.0600 O   0  0  0  0  0
  -24.6570   10.9260    0.5350 O   0  0  0  0  0
  -24.5450   12.4090   -1.7600 O   0  0  0  0  0
  -23.4070   10.6380   -5.4490 O   0  0  0  0  0
  -22.3030   10.9950   -2.7890 O   0  0  0  0  0
  -19.5660    8.3160   -1.2120 O   0  0  0  0  0
  -20.9840    5.9660   -0.8480 O   0  0  0  0  0
  -17.1840    7.4970    0.0330 O   0  0  0  0  0
  -17.2480   10.5970   -2.8610 O   0  0  0  0  0
  -21.9840   10.1520    0.7540 O   0  0  0  0  0
  -20.0160   10.8850   -1.5050 S   0  0  0  0  0
  -24.1278    9.3649   -0.6075 H   0  0  0  0  0
  -23.5653    9.5012   -3.1360 H   0  0  0  0  0
  -21.7855    9.3425   -1.7318 H   0  0  0  0  0
  -19.1972    6.8255   -2.5518 H   0  0  0  0  0
  -19.4395    6.2983    0.4366 H   0  0  0  0  0
  -19.1589    5.0641   -0.8091 H   0  0  0  0  0
  -17.0064    6.1983   -1.5595 H   0  0  0  0  0
  -17.1343    8.1796   -3.2578 H   0  0  0  0  0
  -15.0914    9.0238   -0.0218 H   0  0  0  0  0
  -26.2429   10.0212    3.5149 H   0  0  0  0  0
  -26.3709   10.0788   -0.0655 H   0  0  0  0  0
  -25.5589    9.3532    1.3885 H   0  0  0  0  0
  -25.5005   10.5941   -2.1171 H   0  0  0  0  0
  -24.0856   12.2211   -4.3696 H   0  0  0  0  0
  -25.1876   10.8173   -4.4851 H   0  0  0  0  0
  -19.3704    9.1089   -3.0519 H   0  0  0  0  0
  -10.9875    8.8811   -2.4232 H   0  0  0  0  0
  -13.1639    8.6833    1.2366 H   0  0  0  0  0
  -17.4100    9.9872   -0.8792 H   0  0  0  0  0
  -22.3955   11.8838   -0.2521 H   0  0  0  0  0
  -29.3159   14.3324    6.3055 H   0  0  0  0  0
  -29.2973   14.6708    3.8356 H   0  0  0  0  0
  -25.1252   12.6467   -1.0330 H   0  0  0  0  0
  -23.7629   10.9850   -6.2703 H   0  0  0  0  0
  -21.3765    5.3010   -0.2776 H   0  0  0  0  0
  -17.5018    6.8002    0.6118 H   0  0  0  0  0
  -17.6923   11.4296   -2.6851 H   0  0  0  0  0
  -22.4915   10.4130    1.5259 H   0  0  0  0  0
  1 15  1  0  0  0
 26  1  1  0  0  0
  1 41  1  0  0  0
  2 15  1  0  0  0
  2 16  1  0  0  0
 44  2  1  0  0  0
  3 26  1  0  0  0
  3 44  1  0  0  0
 50  3  1  0  0  0
  4  5  1  0  0  0
  4  6  1  0  0  0
 45  4  1  0  0  0
  5 46  1  0  0  0
  7  6  1  0  0  0
  6 47  1  0  0  0
 25  7  1  0  0  0
  7 36  1  0  0  0
  8 18  4  0  0  0
 36  8  4  0  0  0
 13  9  1  0  0  0
  9 39  2  0  0  0
  9 40  1  0  0  0
 11 10  4  0  0  0
 10 30  4  0  0  0
 40 10  1  0  0  0
 12 11  1  0  0  0
 11 27  4  0  0  0
 13 12  2  0  0  0
 14 13  1  0  0  0
 41 14  1  0  0  0
 15 42  1  0  0  0
 16 43  1  0  0  0
 17 25  1  0  0  0
 17 45  1  0  0  0
 17 50  1  0  0  0
 18 19  1  0  0  0
 18 37  4  0  0  0
 19 20  4  0  0  0
 19 24  4  0  0  0
 20 21  4  0  0  0
 21 22  4  0  0  0
 21 31  1  0  0  0
 22 23  4  0  0  0
 22 32  1  0  0  0
 23 24  4  0  0  0
 23 33  1  0  0  0
 25 48  1  0  0  0
 26 49  1  0  0  0
 27 28  4  0  0  0
 27 34  1  0  0  0
 28 29  4  0  0  0
 28 35  1  0  0  0
 29 30  4  0  0  0
 36 38  4  0  0  0
 37 38  4  0  0  0
  1 51  1  0  0  0
  2 52  1  0  0  0
  3 53  1  0  0  0
  4 54  1  0  0  0
  5 55  1  0  0  0
  5 56  1  0  0  0
  6 57  1  0  0  0
  7 58  1  0  0  0
  8 59  1  0  0  0
 12 60  1  0  0  0
 14 61  1  0  0  0
 14 62  1  0  0  0
 15 63  1  0  0  0
 16 64  1  0  0  0
 16 65  1  0  0  0
 17 66  1  0  0  0
 20 67  1  0  0  0
 24 68  1  0  0  0
 25 69  1  0  0  0
 26 70  1  0  0  0
 29 71  1  0  0  0
 30 72  1  0  0  0
 42 73  1  0  0  0
 43 74  1  0  0  0
 46 75  1  0  0  0
 47 76  1  0  0  0
 48 77  1  0  0  0
 49 78  1  0  0  0
M  END
$$$$
