1uk1_ligand
  -I-interpret- 

 54 57  0  0  0  0  0  0  0  0999 V2000
    7.6140   -7.7970   32.1870 C   0  0  0  0  0
    8.1890   -6.5390   32.2300 C   0  0  0  0  0
    7.6850   -5.5770   33.0970 C   0  0  0  0  0
    6.5890   -5.8690   33.8730 C   0  0  0  0  0
    6.0230   -7.0990   33.8040 C   0  0  0  0  0
    6.5240   -8.0790   32.9930 C   0  0  0  0  0
    8.2480   -4.3570   33.2710 N   0  0  0  0  0
    7.7040   -3.4420   34.0540 C   0  0  0  0  0
    6.6400   -3.7060   34.7200 N   0  0  0  0  0
    6.0480   -4.8680   34.7540 C   0  0  0  0  0
    5.1070   -5.0400   35.5180 O   0  0  0  0  0
    8.2020   -2.3610   34.1990 O   0  0  0  0  0
    9.5310   -4.0410   32.7140 C   0  0  0  0  0
    9.3860   -3.4660   31.3230 C   0  0  0  0  0
    8.9980   -2.0130   31.2620 C   0  0  0  0  0
    9.4010   -1.4750   29.8970 C   0  0  0  0  0
    9.0110   -0.0870   29.7140 N   0  3  0  0  0
    8.6410    0.7200   30.8850 C   0  0  0  0  0
    8.4270    2.1540   30.5010 C   0  0  0  0  0
    8.5790    2.6760   29.2750 C   0  0  0  0  0
    8.9560    1.7710   28.1380 C   0  0  0  0  0
    8.4970    0.3440   28.4150 C   0  0  0  0  0
    8.2340    4.0760   29.0770 C   0  0  0  0  0
    8.4500    4.9790   30.1090 C   0  0  0  0  0
    8.0450    6.2940   29.9790 C   0  0  0  0  0
    7.4740    6.7300   28.8000 C   0  0  0  0  0
    7.3110    5.8440   27.7390 C   0  0  0  0  0
    7.6690    4.5130   27.8910 C   0  0  0  0  0
    4.9480   -7.3330   34.5090 F   0  0  0  0  0
    8.0168   -8.5614   31.5225 H   0  0  0  0  0
    9.0355   -6.3032   31.5851 H   0  0  0  0  0
    6.0709   -9.0703   32.9810 H   0  0  0  0  0
    6.2252   -2.9498   35.2645 H   0  0  0  0  0
   10.1237   -4.9540   32.6568 H   0  0  0  0  0
   10.0181   -3.3023   33.3505 H   0  0  0  0  0
    8.5841   -4.0228   30.8382 H   0  0  0  0  0
   10.3643   -3.5470   30.8493 H   0  0  0  0  0
    9.5031   -1.4551   32.0505 H   0  0  0  0  0
    7.9232   -1.9040   31.4072 H   0  0  0  0  0
    8.8968   -2.0710   29.1363 H   0  0  0  0  0
   10.4864   -1.5346   29.8171 H   0  0  0  0  0
    9.9746    0.2325   29.6154 H   0  0  0  0  0
    9.4490    0.6695   31.6149 H   0  0  0  0  0
    7.7141    0.3270   31.3028 H   0  0  0  0  0
    8.1188    2.8363   31.2932 H   0  0  0  0  0
   10.0401    1.7781   28.0248 H   0  0  0  0  0
    8.4738    2.1272   27.2276 H   0  0  0  0  0
    7.4077    0.3069   28.4237 H   0  0  0  0  0
    8.8749   -0.3180   27.6358 H   0  0  0  0  0
    8.9407    4.6498   31.0250 H   0  0  0  0  0
    8.1766    6.9883   30.8089 H   0  0  0  0  0
    7.1514    7.7664   28.7003 H   0  0  0  0  0
    6.9031    6.1954   26.7913 H   0  0  0  0  0
    7.5052    3.8092   27.0749 H   0  0  0  0  0
  1  2  4  0  0  0
  1  6  4  0  0  0
  2  3  4  0  0  0
  3  4  4  0  0  0
  3  7  1  0  0  0
  4  5  4  0  0  0
  4 10  1  0  0  0
  5  6  4  0  0  0
  5 29  1  0  0  0
  7  8  1  0  0  0
  7 13  1  0  0  0
  8  9  1  0  0  0
  8 12  2  0  0  0
  9 10  1  0  0  0
 10 11  2  0  0  0
 13 14  1  0  0  0
 14 15  1  0  0  0
 15 16  1  0  0  0
 16 17  1  0  0  0
 17 18  1  0  0  0
 17 22  1  0  0  0
 18 19  1  0  0  0
 19 20  2  0  0  0
 20 21  1  0  0  0
 20 23  1  0  0  0
 21 22  1  0  0  0
 23 24  4  0  0  0
 23 28  4  0  0  0
 24 25  4  0  0  0
 25 26  4  0  0  0
 26 27  4  0  0  0
 27 28  4  0  0  0
  1 30  1  0  0  0
  2 31  1  0  0  0
  6 32  1  0  0  0
  9 33  1  0  0  0
 13 34  1  0  0  0
 13 35  1  0  0  0
 14 36  1  0  0  0
 14 37  1  0  0  0
 15 38  1  0  0  0
 15 39  1  0  0  0
 16 40  1  0  0  0
 16 41  1  0  0  0
 17 42  1  0  0  0
 18 43  1  0  0  0
 18 44  1  0  0  0
 19 45  1  0  0  0
 21 46  1  0  0  0
 21 47  1  0  0  0
 22 48  1  0  0  0
 22 49  1  0  0  0
 24 50  1  0  0  0
 25 51  1  0  0  0
 26 52  1  0  0  0
 27 53  1  0  0  0
 28 54  1  0  0  0
M  END
$$$$
