5tcj_ligand
  -I-interpret- 

 37 39  0  0  0  0  0  0  0  0999 V2000
   69.5520   -8.4850   24.4020 C   0  0  0  0  0
   71.3970  -10.9450   21.1750 C   0  0  0  0  0
   70.6980  -10.1260   22.1770 C   0  0  0  0  0
   70.1330   -9.8780   24.2240 C   0  0  0  0  0
   68.1180  -10.7570   22.6610 C   0  0  0  0  0
   67.6730  -10.3390   21.3630 C   0  0  0  0  0
   66.2870  -10.3430   21.0110 C   0  0  0  0  0
   69.6050  -10.7950   23.0790 C   0  0  0  0  0
   61.4110  -10.2880   22.0580 C   0  0  0  0  0
   60.9920  -11.0340   20.9340 C   0  0  0  0  0
   61.9550  -11.6790   20.1260 C   0  0  0  0  0
   63.3470  -11.5850   20.4430 C   0  0  0  0  0
   63.7940  -10.8120   21.5800 C   0  0  0  0  0
   62.7890  -10.1930   22.3720 C   0  0  0  0  0
   65.2820  -10.7570   21.9300 C   0  0  0  0  0
   65.7300  -11.1880   23.2090 C   0  0  0  0  0
   67.1030  -11.1880   23.5630 C   0  0  0  0  0
   71.4950   -9.9090   23.4670 N   0  3  0  0  0
   71.9360  -11.5990   20.3700 N   0  0  0  0  0
   70.2720   -7.3700   23.6850 O   0  0  0  0  0
   64.2290  -12.2030   19.6710 F   0  0  0  0  0
   69.6211   -8.2588   25.4660 H   0  0  0  0  0
   68.5460   -8.5178   23.9837 H   0  0  0  0  0
   70.4174   -9.3332   21.4836 H   0  0  0  0  0
   69.9887  -10.1690   25.2645 H   0  0  0  0  0
   68.4081  -10.0108   20.6282 H   0  0  0  0  0
   65.9923  -10.0204   20.0124 H   0  0  0  0  0
   69.5283  -11.8761   23.1952 H   0  0  0  0  0
   60.6737   -9.7853   22.6839 H   0  0  0  0  0
   59.9322  -11.1116   20.6915 H   0  0  0  0  0
   61.6354  -12.2519   19.2555 H   0  0  0  0  0
   63.0894   -9.6249   23.2524 H   0  0  0  0  0
   64.9958  -11.5286   23.9391 H   0  0  0  0  0
   67.3912  -11.5288   24.5574 H   0  0  0  0  0
   72.1693   -9.1486   23.5540 H   0  0  0  0  0
   72.2428  -10.5452   23.7435 H   0  0  0  0  0
   69.8275   -6.5377   23.8620 H   0  0  0  0  0
  4  1  1  0  0  0
  1 20  1  0  0  0
  3  2  1  0  0  0
  2 19  3  0  0  0
  8  3  1  0  0  0
  3 18  1  0  0  0
  8  4  1  0  0  0
  4 18  1  0  0  0
  6  5  4  0  0  0
  5  8  1  0  0  0
  5 17  4  0  0  0
  7  6  4  0  0  0
 15  7  4  0  0  0
  9 10  4  0  0  0
 14  9  4  0  0  0
 11 10  4  0  0  0
 12 11  4  0  0  0
 13 12  4  0  0  0
 12 21  1  0  0  0
 13 14  4  0  0  0
 13 15  1  0  0  0
 15 16  4  0  0  0
 16 17  4  0  0  0
  1 22  1  0  0  0
  1 23  1  0  0  0
  3 24  1  0  0  0
  4 25  1  0  0  0
  6 26  1  0  0  0
  7 27  1  0  0  0
  8 28  1  0  0  0
  9 29  1  0  0  0
 10 30  1  0  0  0
 11 31  1  0  0  0
 14 32  1  0  0  0
 16 33  1  0  0  0
 17 34  1  0  0  0
 18 35  1  0  0  0
 18 36  1  0  0  0
 20 37  1  0  0  0
M  END
$$$$
