1gwr_ligand
  -I-interpret- 

149149  0  0  0  0  0  0  0  0999 V2000
  -14.1310   17.5110   16.5890 N   0  3  0  0  0
  -12.7440   17.1500   16.1630 C   0  0  0  0  0
  -12.0460   16.2990   17.2280 C   0  0  0  0  0
  -11.3760   16.8690   18.0990 O   0  0  0  0  0
  -11.8740   18.3690   15.9080 C   0  0  0  0  0
  -12.2390   19.1990   14.7020 C   0  0  0  0  0
  -12.8190   20.2770   14.8450 O   0  0  0  0  0
  -11.8740   18.7040   13.5230 N   0  0  0  0  0
  -12.2060   14.9820   17.1530 N   0  0  0  0  0
  -11.6110   14.0830   18.1380 C   0  0  0  0  0
  -10.1000   14.2430   18.2370 C   0  0  0  0  0
   -9.5610   14.8050   19.1910 O   0  0  0  0  0
  -11.9380   12.6170   17.8600 C   0  0  0  0  0
   -9.3760   13.7480   17.2610 N   0  0  0  0  0
   -7.9310   13.7910   17.2020 C   0  0  0  0  0
   -7.3100   15.0750   17.7200 C   0  0  0  0  0
   -6.3730   15.0540   18.5210 O   0  0  0  0  0
   -7.5520   13.5370   15.7330 C   0  0  0  0  0
   -6.0720   13.1970   15.5330 C   0  0  0  0  0
   -5.6830   11.9720   16.3520 C   0  0  0  0  0
   -5.7700   13.0130   14.0530 C   0  0  0  0  0
   -7.7940   16.2330   17.2610 N   0  0  0  0  0
   -7.2930   17.5100   17.6980 C   0  0  0  0  0
   -7.4830   17.7380   19.1880 C   0  0  0  0  0
   -6.5210   18.1510   19.8350 O   0  0  0  0  0
   -7.9370   18.6940   16.9750 C   0  0  0  0  0
   -7.1400   19.3000   15.8160 C   0  0  0  0  0
   -8.0960   20.0590   14.9010 C   0  0  0  0  0
   -6.0120   20.1930   16.2980 C   0  0  0  0  0
   -8.6620   17.5020   19.7080 N   0  0  0  0  0
   -8.9230   17.7240   21.1330 C   0  0  0  0  0
   -7.9550   16.9700   22.0330 C   0  0  0  0  0
   -7.4770   17.5010   23.0370 O   0  0  0  0  0
  -10.3640   17.3750   21.4730 C   0  0  0  0  0
   -7.6050   15.7410   21.6560 N   0  0  0  0  0
   -6.6190   14.9210   22.3080 C   0  0  0  0  0
   -5.1950   15.3710   22.0310 C   0  0  0  0  0
   -4.3520   14.9950   22.8650 O   0  0  0  0  0
   -6.7560   13.4470   21.9190 C   0  0  0  0  0
   -7.9780   12.8260   22.5620 C   0  0  0  0  0
   -9.2240   12.9880   21.9660 C   0  0  0  0  0
   -7.9070   12.1080   23.7490 C   0  0  0  0  0
  -10.3620   12.4420   22.5130 C   0  0  0  0  0
   -9.0350   11.5620   24.3010 C   0  0  0  0  0
  -10.2480   11.7250   23.6910 C   0  0  0  0  0
  -11.3970   11.1780   24.2290 O   0  0  0  0  0
   -4.8540   16.1380   21.0010 N   0  0  0  0  0
   -3.4530   16.5520   20.8910 C   0  0  0  0  0
   -3.2470   17.7460   21.8300 C   0  0  0  0  0
   -2.1540   17.8360   22.4050 O   0  0  0  0  0
   -2.9840   16.8550   19.4950 C   0  0  0  0  0
   -3.1000   15.6620   18.5450 C   0  0  0  0  0
   -3.0890   16.1520   17.1010 C   0  0  0  0  0
   -1.9790   14.6740   18.8250 C   0  0  0  0  0
   -4.2660   18.5840   21.9890 N   0  0  0  0  0
   -4.1610   19.7200   22.8910 C   0  0  0  0  0
   -4.2570   19.4050   24.3840 C   0  0  0  0  0
   -3.7590   20.1870   25.1870 O   0  0  0  0  0
   -5.3310   20.7000   22.6670 C   0  0  0  0  0
   -5.2740   21.4500   21.3380 C   0  0  0  0  0
   -6.5760   22.1870   21.1100 C   0  0  0  0  0
   -4.0700   22.3740   21.3310 C   0  0  0  0  0
   -4.9320   18.3400   24.7800 N   0  0  0  0  0
   -5.0620   18.0320   26.1970 C   0  0  0  0  0
   -3.7240   17.5750   26.7660 C   0  0  0  0  0
   -3.7930   16.5200   27.4500 O   0  0  0  0  0
   -6.1500   16.9790   26.4240 C   0  0  0  0  0
   -7.5440   17.5530   26.2620 C   0  0  0  0  0
   -7.7100   18.7860   26.1580 O   0  0  0  0  0
   -8.4900   16.7360   26.2270 O   0  0  0  0  0
  -14.6697   16.6592   16.7461 H   0  0  0  0  0
  -14.0901   18.0529   17.4522 H   0  0  0  0  0
  -14.5761   18.0663   15.8583 H   0  0  0  0  0
  -12.8592   16.5917   15.2339 H   0  0  0  0  0
  -10.8661   17.9946   15.7291 H   0  0  0  0  0
  -11.9940   19.0184   16.7751 H   0  0  0  0  0
  -12.0719   19.2241   12.6682 H   0  0  0  0  0
  -11.3961   17.8042   13.4735 H   0  0  0  0  0
  -12.7573   14.5899   16.3896 H   0  0  0  0  0
  -12.0571   14.3705   19.0901 H   0  0  0  0  0
  -13.0186   12.4762   17.8840 H   0  0  0  0  0
  -11.5561   12.3409   16.8771 H   0  0  0  0  0
  -11.4718   11.9914   18.6212 H   0  0  0  0  0
   -9.8677   13.3003   16.4876 H   0  0  0  0  0
   -7.5301   13.0299   17.8714 H   0  0  0  0  0
   -7.7549   14.4538   15.1794 H   0  0  0  0  0
   -8.1337   12.6822   15.3880 H   0  0  0  0  0
   -5.4658   14.0281   15.8933 H   0  0  0  0  0
   -5.8585   12.1725   17.4089 H   0  0  0  0  0
   -6.2856   11.1199   16.0375 H   0  0  0  0  0
   -4.6276   11.7506   16.1932 H   0  0  0  0  0
   -6.3798   12.2008   13.6573 H   0  0  0  0  0
   -6.0000   13.9351   13.5192 H   0  0  0  0  0
   -4.7146   12.7718   13.9261 H   0  0  0  0  0
   -8.5478   16.2113   16.5742 H   0  0  0  0  0
   -6.2313   17.4658   17.4552 H   0  0  0  0  0
   -8.0376   19.4843   17.7189 H   0  0  0  0  0
   -8.8626   18.3162   16.5407 H   0  0  0  0  0
   -6.6669   18.4908   15.2597 H   0  0  0  0  0
   -8.8473   19.3716   14.5122 H   0  0  0  0  0
   -8.5853   20.8521   15.4664 H   0  0  0  0  0
   -7.5361   20.4937   14.0729 H   0  0  0  0  0
   -6.4248   21.0108   16.8887 H   0  0  0  0  0
   -5.3257   19.6099   16.9121 H   0  0  0  0  0
   -5.4780   20.5977   15.4383 H   0  0  0  0  0
   -9.4127   17.1572   19.1097 H   0  0  0  0  0
   -8.7619   18.7851   21.3235 H   0  0  0  0  0
  -11.0362   18.0026   20.8879 H   0  0  0  0  0
  -10.5476   16.3265   21.2385 H   0  0  0  0  0
  -10.5371   17.5468   22.5354 H   0  0  0  0  0
   -8.0740   15.3499   20.8391 H   0  0  0  0  0
   -6.8139   15.0370   23.3741 H   0  0  0  0  0
   -5.8707   12.9116   22.2621 H   0  0  0  0  0
   -6.8591   13.3798   20.8360 H   0  0  0  0  0
   -9.3008   13.5619   21.0425 H   0  0  0  0  0
   -6.9453   11.9781   24.2453 H   0  0  0  0  0
  -11.3306   12.5711   22.0299 H   0  0  0  0  0
   -8.9658   10.9956   25.2297 H   0  0  0  0  0
  -11.1788   10.7107   25.0387 H   0  0  0  0  0
   -5.5450   16.4290   20.3095 H   0  0  0  0  0
   -2.8335   15.7042   21.1836 H   0  0  0  0  0
   -1.9304   17.1280   19.5536 H   0  0  0  0  0
   -3.6150   17.6519   19.1014 H   0  0  0  0  0
   -4.0442   15.1424   18.7080 H   0  0  0  0  0
   -3.9309   16.8255   16.9408 H   0  0  0  0  0
   -2.1564   16.6812   16.9053 H   0  0  0  0  0
   -3.1719   15.2983   16.4283 H   0  0  0  0  0
   -1.0176   15.1650   18.6742 H   0  0  0  0  0
   -2.0527   14.3252   19.8551 H   0  0  0  0  0
   -2.0658   13.8259   18.1458 H   0  0  0  0  0
   -5.1317   18.4287   21.4725 H   0  0  0  0  0
   -3.1705   20.1101   22.6570 H   0  0  0  0  0
   -5.2814   21.4464   23.4598 H   0  0  0  0  0
   -6.2480   20.1107   22.6645 H   0  0  0  0  0
   -5.1533   20.7505   20.5108 H   0  0  0  0  0
   -7.3978   21.4713   21.0860 H   0  0  0  0  0
   -6.7358   22.8987   21.9200 H   0  0  0  0  0
   -6.5289   22.7200   20.1603 H   0  0  0  0  0
   -4.1574   23.0888   22.1493 H   0  0  0  0  0
   -3.1612   21.7854   21.4565 H   0  0  0  0  0
   -4.0298   22.9091   20.3822 H   0  0  0  0  0
   -5.3652   17.7291   24.0875 H   0  0  0  0  0
   -5.3615   18.9378   26.7242 H   0  0  0  0  0
   -3.3656   18.3655   27.4254 H   0  0  0  0  0
   -3.0658   17.3709   25.9215 H   0  0  0  0  0
   -2.9186   16.2927   27.7747 H   0  0  0  0  0
   -6.0532   16.6051   27.4433 H   0  0  0  0  0
   -6.0193   16.1906   25.6828 H   0  0  0  0  0
   -8.1457   15.8451   26.3242 H   0  0  0  0  0
  1  2  1  0  0  0
  2  3  1  0  0  0
  2  5  1  0  0  0
  3  4  2  0  0  0
  3  9  1  0  0  0
  5  6  1  0  0  0
  6  7  2  0  0  0
  6  8  1  0  0  0
  9 10  1  0  0  0
 10 11  1  0  0  0
 10 13  1  0  0  0
 11 12  2  0  0  0
 11 14  1  0  0  0
 14 15  1  0  0  0
 15 16  1  0  0  0
 15 18  1  0  0  0
 16 17  2  0  0  0
 16 22  1  0  0  0
 18 19  1  0  0  0
 19 20  1  0  0  0
 19 21  1  0  0  0
 22 23  1  0  0  0
 23 24  1  0  0  0
 23 26  1  0  0  0
 24 25  2  0  0  0
 24 30  1  0  0  0
 26 27  1  0  0  0
 27 28  1  0  0  0
 27 29  1  0  0  0
 30 31  1  0  0  0
 31 32  1  0  0  0
 31 34  1  0  0  0
 32 33  2  0  0  0
 32 35  1  0  0  0
 35 36  1  0  0  0
 36 37  1  0  0  0
 36 39  1  0  0  0
 37 38  2  0  0  0
 37 47  1  0  0  0
 39 40  1  0  0  0
 40 41  4  0  0  0
 40 42  4  0  0  0
 41 43  4  0  0  0
 42 44  4  0  0  0
 43 45  4  0  0  0
 44 45  4  0  0  0
 45 46  1  0  0  0
 47 48  1  0  0  0
 48 49  1  0  0  0
 48 51  1  0  0  0
 49 50  2  0  0  0
 49 55  1  0  0  0
 51 52  1  0  0  0
 52 53  1  0  0  0
 52 54  1  0  0  0
 55 56  1  0  0  0
 56 57  1  0  0  0
 56 59  1  0  0  0
 57 58  2  0  0  0
 57 63  1  0  0  0
 59 60  1  0  0  0
 60 61  1  0  0  0
 60 62  1  0  0  0
 63 64  1  0  0  0
 64 65  1  0  0  0
 64 67  1  0  0  0
 65 66  1  0  0  0
 67 68  1  0  0  0
 68 69  2  0  0  0
 68 70  1  0  0  0
  1 71  1  0  0  0
  1 72  1  0  0  0
  1 73  1  0  0  0
  2 74  1  0  0  0
  5 75  1  0  0  0
  5 76  1  0  0  0
  8 77  1  0  0  0
  8 78  1  0  0  0
  9 79  1  0  0  0
 10 80  1  0  0  0
 13 81  1  0  0  0
 13 82  1  0  0  0
 13 83  1  0  0  0
 14 84  1  0  0  0
 15 85  1  0  0  0
 18 86  1  0  0  0
 18 87  1  0  0  0
 19 88  1  0  0  0
 20 89  1  0  0  0
 20 90  1  0  0  0
 20 91  1  0  0  0
 21 92  1  0  0  0
 21 93  1  0  0  0
 21 94  1  0  0  0
 22 95  1  0  0  0
 23 96  1  0  0  0
 26 97  1  0  0  0
 26 98  1  0  0  0
 27 99  1  0  0  0
 28100  1  0  0  0
 28101  1  0  0  0
 28102  1  0  0  0
 29103  1  0  0  0
 29104  1  0  0  0
 29105  1  0  0  0
 30106  1  0  0  0
 31107  1  0  0  0
 34108  1  0  0  0
 34109  1  0  0  0
 34110  1  0  0  0
 35111  1  0  0  0
 36112  1  0  0  0
 39113  1  0  0  0
 39114  1  0  0  0
 41115  1  0  0  0
 42116  1  0  0  0
 43117  1  0  0  0
 44118  1  0  0  0
 46119  1  0  0  0
 47120  1  0  0  0
 48121  1  0  0  0
 51122  1  0  0  0
 51123  1  0  0  0
 52124  1  0  0  0
 53125  1  0  0  0
 53126  1  0  0  0
 53127  1  0  0  0
 54128  1  0  0  0
 54129  1  0  0  0
 54130  1  0  0  0
 55131  1  0  0  0
 56132  1  0  0  0
 59133  1  0  0  0
 59134  1  0  0  0
 60135  1  0  0  0
 61136  1  0  0  0
 61137  1  0  0  0
 61138  1  0  0  0
 62139  1  0  0  0
 62140  1  0  0  0
 62141  1  0  0  0
 63142  1  0  0  0
 64143  1  0  0  0
 65144  1  0  0  0
 65145  1  0  0  0
 66146  1  0  0  0
 67147  1  0  0  0
 67148  1  0  0  0
 70149  1  0  0  0
M  END
$$$$
