### 
### Created by X-TOOL on Mon Sep 10 21:12:49 2018
### 

@<TRIPOS>MOLECULE
1gwr_ligand
  148   148     1     0     0
SMALL
GAST_HUCK


@<TRIPOS>ATOM
      1 N         -14.1310   17.5110   16.5890 N.4       1 ASN         0.2396
      2 CA        -12.7440   17.1500   16.1630 C.3       1 ASN         0.0818
      3 C         -12.0460   16.2990   17.2280 C.2       1 ASN         0.2291
      4 O         -11.3760   16.8690   18.0990 O.2       1 ASN        -0.3905
      5 CB        -11.8740   18.3690   15.9080 C.3       1 ASN         0.0972
      6 CG        -12.2390   19.1990   14.7020 C.2       1 ASN         0.1813
      7 OD1       -12.8190   20.2770   14.8450 O.2       1 ASN        -0.3969
      8 ND2       -11.8740   18.7040   13.5230 N.am      1 ASN        -0.3006
      9 N         -12.2060   14.9820   17.1530 N.am      1 ALA        -0.2612
     10 CA        -11.6110   14.0830   18.1380 C.3       1 ALA         0.1283
     11 C         -10.1000   14.2430   18.2370 C.2       1 ALA         0.2036
     12 O          -9.5610   14.8050   19.1910 O.2       1 ALA        -0.3944
     13 CB        -11.9380   12.6170   17.8600 C.3       1 ALA        -0.0244
     14 N          -9.3760   13.7480   17.2610 N.am      1 LEU        -0.2637
     15 CA         -7.9310   13.7910   17.2020 C.3       1 LEU         0.1312
     16 C          -7.3100   15.0750   17.7200 C.2       1 LEU         0.2039
     17 O          -6.3730   15.0540   18.5210 O.2       1 LEU        -0.3944
     18 CB         -7.5520   13.5370   15.7330 C.3       1 LEU        -0.0101
     19 CG         -6.0720   13.1970   15.5330 C.3       1 LEU        -0.0425
     20 CD1        -5.6830   11.9720   16.3520 C.3       1 LEU        -0.0625
     21 CD2        -5.7700   13.0130   14.0530 C.3       1 LEU        -0.0625
     22 N          -7.7940   16.2330   17.2610 N.am      1 LEU        -0.2637
     23 CA         -7.2930   17.5100   17.6980 C.3       1 LEU         0.1312
     24 C          -7.4830   17.7380   19.1880 C.2       1 LEU         0.2039
     25 O          -6.5210   18.1510   19.8350 O.2       1 LEU        -0.3944
     26 CB         -7.9370   18.6940   16.9750 C.3       1 LEU        -0.0101
     27 CG         -7.1400   19.3000   15.8160 C.3       1 LEU        -0.0425
     28 CD1        -8.0960   20.0590   14.9010 C.3       1 LEU        -0.0625
     29 CD2        -6.0120   20.1930   16.2980 C.3       1 LEU        -0.0625
     30 N          -8.6620   17.5020   19.7080 N.am      1 ARG        -0.2640
     31 CA         -8.9230   17.7240   21.1330 C.3       1 ARG         0.1282
     32 C          -7.9550   16.9700   22.0330 C.2       1 ARG         0.2037
     33 O          -7.4770   17.5010   23.0370 O.2       1 ARG        -0.3944
     34 CB        -10.3640   17.3750   21.4730 C.3       1 ARG        -0.0244
     35 N          -7.6050   15.7410   21.6560 N.am      1 TYR        -0.2621
     36 CA         -6.6190   14.9210   22.3080 C.3       1 TYR         0.1390
     37 C          -5.1950   15.3710   22.0310 C.2       1 TYR         0.2057
     38 O          -4.3520   14.9950   22.8650 O.2       1 TYR        -0.3942
     39 CB         -6.7560   13.4470   21.9190 C.3       1 TYR         0.0163
     40 CG         -7.9780   12.8260   22.5620 C.ar      1 TYR        -0.0493
     41 CD1        -9.2240   12.9880   21.9660 C.ar      1 TYR        -0.0685
     42 CD2        -7.9070   12.1080   23.7490 C.ar      1 TYR        -0.0685
     43 CE1       -10.3620   12.4420   22.5130 C.ar      1 TYR        -0.0398
     44 CE2        -9.0350   11.5620   24.3010 C.ar      1 TYR        -0.0398
     45 CZ        -10.2480   11.7250   23.6910 C.ar      1 TYR         0.0805
     46 OH        -11.3970   11.1780   24.2290 O.3       1 TYR        -0.3376
     47 N          -4.8540   16.1380   21.0010 N.am      1 LEU        -0.2636
     48 CA         -3.4530   16.5520   20.8910 C.3       1 LEU         0.1312
     49 C          -3.2470   17.7460   21.8300 C.2       1 LEU         0.2039
     50 O          -2.1540   17.8360   22.4050 O.2       1 LEU        -0.3944
     51 CB         -2.9840   16.8550   19.4950 C.3       1 LEU        -0.0101
     52 CG         -3.1000   15.6620   18.5450 C.3       1 LEU        -0.0425
     53 CD1        -3.0890   16.1520   17.1010 C.3       1 LEU        -0.0625
     54 CD2        -1.9790   14.6740   18.8250 C.3       1 LEU        -0.0625
     55 N          -4.2660   18.5840   21.9890 N.am      1 LEU        -0.2637
     56 CA         -4.1610   19.7200   22.8910 C.3       1 LEU         0.1311
     57 C          -4.2570   19.4050   24.3840 C.2       1 LEU         0.2021
     58 O          -3.7590   20.1870   25.1870 O.2       1 LEU        -0.3945
     59 CB         -5.3310   20.7000   22.6670 C.3       1 LEU        -0.0101
     60 CG         -5.2740   21.4500   21.3380 C.3       1 LEU        -0.0425
     61 CD1        -6.5760   22.1870   21.1100 C.3       1 LEU        -0.0625
     62 CD2        -4.0700   22.3740   21.3310 C.3       1 LEU        -0.0625
     63 N          -4.9320   18.3400   24.7800 N.am      1 ASP        -0.2782
     64 CA         -5.0620   18.0320   26.1970 C.3       1 ASP         0.0764
     65 C          -3.7240   17.5750   26.7660 C.3       1 ASP         0.0687
     66 O          -3.7930   16.5200   27.4500 O.3       1 ASP        -0.3926
     67 CB         -6.1500   16.9790   26.4240 C.3       1 ASP         0.0254
     68 CG         -7.5440   17.5530   26.2620 C.2       1 ASP         0.0371
     69 OD1        -7.7100   18.7860   26.1580 O.co2     1 ASP        -0.5689
     70 OD2        -8.4900   16.7360   26.2270 O.co2     1 ASP        -0.5689
     71 H1        -14.5678   18.0697   15.8726 H         1 ASN         0.2017
     72 H2        -14.0925   18.0367   17.4482 H         1 ASN         0.2017
     73 H3        -14.6678   16.6701   16.7333 H         1 ASN         0.2017
     74 H4        -12.8159   16.5688   15.2319 H         1 ASN         0.1125
     75 H5        -10.8382   18.0224   15.7775 H         1 ASN         0.0585
     76 H6        -11.9347   19.0177   16.7943 H         1 ASN         0.0585
     77 H7        -12.0854   19.2045   12.6835 H         1 ASN         0.1814
     78 H8        -11.3881   17.8312   13.4759 H         1 ASN         0.1814
     79 H9        -12.7465   14.5976   16.4046 H         1 ALA         0.1884
     80 H10       -12.0413   14.3441   19.1161 H         1 ALA         0.0797
     81 H11       -11.4680   11.9846   18.6276 H         1 ALA         0.0277
     82 H12       -11.5531   12.3371   16.8683 H         1 ALA         0.0277
     83 H13       -13.0283   12.4736   17.8840 H         1 ALA         0.0277
     84 H14        -9.8581   13.3091   16.5027 H         1 LEU         0.1883
     85 H15        -7.5381   12.9687   17.8179 H         1 LEU         0.0800
     86 H16        -7.7825   14.4425   15.1525 H         1 LEU         0.0315
     87 H17        -8.1557   12.6974   15.3580 H         1 LEU         0.0315
     88 H18        -5.4744   14.0462   15.8959 H         1 LEU         0.0298
     89 H19        -4.6180   11.7475   16.1926 H         1 LEU         0.0232
     90 H20        -6.2905   11.1113   16.0355 H         1 LEU         0.0232
     91 H21        -5.8596   12.1730   17.4189 H         1 LEU         0.0232
     92 H22        -6.0660   13.9185   13.5031 H         1 LEU         0.0232
     93 H23        -6.3332   12.1500   13.6684 H         1 LEU         0.0232
     94 H24        -4.6926   12.8376   13.9176 H         1 LEU         0.0232
     95 H25        -8.5330   16.2117   16.5877 H         1 LEU         0.1883
     96 H26        -6.2144   17.5235   17.4826 H         1 LEU         0.0800
     97 H27        -8.1045   19.4884   17.7172 H         1 LEU         0.0315
     98 H28        -8.9043   18.3559   16.5751 H         1 LEU         0.0315
     99 H29        -6.6915   18.4764   15.2411 H         1 LEU         0.0298
    100 H30        -7.5321   20.4982   14.0648 H         1 LEU         0.0232
    101 H31        -8.5904   20.8598   15.4705 H         1 LEU         0.0232
    102 H32        -8.8547   19.3664   14.5078 H         1 LEU         0.0232
    103 H33        -5.3427   19.6166   16.9536 H         1 LEU         0.0232
    104 H34        -6.4305   21.0428   16.8572 H         1 LEU         0.0232
    105 H35        -5.4450   20.5669   15.4327 H         1 LEU         0.0232
    106 H36        -9.3980   17.1639   19.1214 H         1 ARG         0.1883
    107 H37        -8.7832   18.7973   21.3290 H         1 ARG         0.0797
    108 H38       -10.5400   17.5479   22.5450 H         1 ARG         0.0277
    109 H39       -10.5506   16.3170   21.2368 H         1 ARG         0.0277
    110 H40       -11.0435   18.0077   20.8832 H         1 ARG         0.0277
    111 H41        -8.0648   15.3575   20.8551 H         1 TYR         0.1885
    112 H42        -6.7924   15.0040   23.3911 H         1 TYR         0.0821
    113 H43        -5.8595   12.9028   22.2509 H         1 TYR         0.0453
    114 H44        -6.8474   13.3708   20.8255 H         1 TYR         0.0453
    115 H45        -9.3004   13.5587   21.0476 H         1 TYR         0.0530
    116 H46        -6.9505   11.9788   24.2425 H         1 TYR         0.0530
    117 H47       -11.3252   12.5704   22.0326 H         1 TYR         0.0525
    118 H48        -8.9662   10.9987   25.2246 H         1 TYR         0.0525
    119 H49       -12.1380   11.3920   23.6744 H         1 TYR         0.2458
    120 H50        -5.5315   16.4233   20.3231 H         1 LEU         0.1883
    121 H51        -2.8343   15.7192   21.2566 H         1 LEU         0.0800
    122 H52        -1.9292   17.1637   19.5404 H         1 LEU         0.0315
    123 H53        -3.5907   17.6804   19.0944 H         1 LEU         0.0315
    124 H54        -4.0590   15.1556   18.7292 H         1 LEU         0.0298
    125 H55        -3.1726   15.2913   16.4211 H         1 LEU         0.0232
    126 H56        -2.1482   16.6862   16.9022 H         1 LEU         0.0232
    127 H57        -3.9383   16.8318   16.9380 H         1 LEU         0.0232
    128 H58        -2.0289   14.3509   19.8753 H         1 LEU         0.0232
    129 H59        -1.0089   15.1568   18.6356 H         1 LEU         0.0232
    130 H60        -2.0881   13.7994   18.1668 H         1 LEU         0.0232
    131 H61        -5.1148   18.4318   21.4826 H         1 LEU         0.1883
    132 H62        -3.2018   20.2192   22.6891 H         1 LEU         0.0800
    133 H63        -5.3221   21.4397   23.4811 H         1 LEU         0.0315
    134 H64        -6.2705   20.1290   22.7007 H         1 LEU         0.0315
    135 H65        -5.1491   20.7191   20.5255 H         1 LEU         0.0298
    136 H66        -6.5297   22.7253   20.1518 H         1 LEU         0.0232
    137 H67        -6.7385   22.9057   21.9268 H         1 LEU         0.0232
    138 H68        -7.4062   21.4658   21.0856 H         1 LEU         0.0232
    139 H69        -3.1558   21.7863   21.5006 H         1 LEU         0.0232
    140 H70        -4.1778   23.1229   22.1295 H         1 LEU         0.0232
    141 H71        -4.0037   22.8825   20.3579 H         1 LEU         0.0232
    142 H72        -5.3567   17.7411   24.1011 H         1 ASP         0.1857
    143 H73        -5.3615   18.9506   26.7228 H         1 ASP         0.0597
    144 H74        -3.3279   18.3771   27.4060 H         1 ASP         0.0581
    145 H75        -3.0333   17.3996   25.9281 H         1 ASP         0.0581
    146 H76        -2.9278   16.2951   27.7713 H         1 ASP         0.2095
    147 H77        -6.0481   16.5781   27.4432 H         1 ASP         0.0454
    148 H78        -6.0144   16.1664   25.6951 H         1 ASP         0.0454
@<TRIPOS>BOND
     1    1    2 1  
     2    2    3 1  
     3    2    5 1  
     4    3    4 2  
     5    3    9 am 
     6    5    6 1  
     7    6    7 2  
     8    6    8 am 
     9    9   10 1  
    10   10   11 1  
    11   10   13 1  
    12   11   12 2  
    13   11   14 am 
    14   14   15 1  
    15   15   16 1  
    16   15   18 1  
    17   16   17 2  
    18   16   22 am 
    19   18   19 1  
    20   19   20 1  
    21   19   21 1  
    22   22   23 1  
    23   23   24 1  
    24   23   26 1  
    25   24   25 2  
    26   24   30 am 
    27   26   27 1  
    28   27   28 1  
    29   27   29 1  
    30   30   31 1  
    31   31   32 1  
    32   31   34 1  
    33   32   33 2  
    34   32   35 am 
    35   35   36 1  
    36   36   37 1  
    37   36   39 1  
    38   37   38 2  
    39   37   47 am 
    40   39   40 1  
    41   40   41 ar 
    42   40   42 ar 
    43   41   43 ar 
    44   42   44 ar 
    45   43   45 ar 
    46   44   45 ar 
    47   45   46 1  
    48   47   48 1  
    49   48   49 1  
    50   48   51 1  
    51   49   50 2  
    52   49   55 am 
    53   51   52 1  
    54   52   53 1  
    55   52   54 1  
    56   55   56 1  
    57   56   57 1  
    58   56   59 1  
    59   57   58 2  
    60   57   63 am 
    61   59   60 1  
    62   60   61 1  
    63   60   62 1  
    64   63   64 1  
    65   64   65 1  
    66   64   67 1  
    67   65   66 1  
    68   67   68 1  
    69   68   69 ar 
    70   68   70 ar 
    71    1   71 1  
    72    1   72 1  
    73    1   73 1  
    74    2   74 1  
    75    5   75 1  
    76    5   76 1  
    77    8   77 1  
    78    8   78 1  
    79    9   79 1  
    80   10   80 1  
    81   13   81 1  
    82   13   82 1  
    83   13   83 1  
    84   14   84 1  
    85   15   85 1  
    86   18   86 1  
    87   18   87 1  
    88   19   88 1  
    89   20   89 1  
    90   20   90 1  
    91   20   91 1  
    92   21   92 1  
    93   21   93 1  
    94   21   94 1  
    95   22   95 1  
    96   23   96 1  
    97   26   97 1  
    98   26   98 1  
    99   27   99 1  
   100   28  100 1  
   101   28  101 1  
   102   28  102 1  
   103   29  103 1  
   104   29  104 1  
   105   29  105 1  
   106   30  106 1  
   107   31  107 1  
   108   34  108 1  
   109   34  109 1  
   110   34  110 1  
   111   35  111 1  
   112   36  112 1  
   113   39  113 1  
   114   39  114 1  
   115   41  115 1  
   116   42  116 1  
   117   43  117 1  
   118   44  118 1  
   119   46  119 1  
   120   47  120 1  
   121   48  121 1  
   122   51  122 1  
   123   51  123 1  
   124   52  124 1  
   125   53  125 1  
   126   53  126 1  
   127   53  127 1  
   128   54  128 1  
   129   54  129 1  
   130   54  130 1  
   131   55  131 1  
   132   56  132 1  
   133   59  133 1  
   134   59  134 1  
   135   60  135 1  
   136   61  136 1  
   137   61  137 1  
   138   61  138 1  
   139   62  139 1  
   140   62  140 1  
   141   62  141 1  
   142   63  142 1  
   143   64  143 1  
   144   65  144 1  
   145   65  145 1  
   146   66  146 1  
   147   67  147 1  
   148   67  148 1  
@<TRIPOS>SUBSTRUCTURE
     1 ASN         1

