5efh_ligand
  -I-interpret- 

 40 39  0  0  0  0  0  0  0  0999 V2000
   77.9900  190.1850  130.6040 C   0  0  0  0  0
   78.4240  189.2870  131.7940 C   0  0  0  0  0
   79.8310  189.6790  132.3360 C   0  0  0  0  0
   81.2150  189.6810  134.2430 C   0  0  0  0  0
   81.8250  188.7200  135.2760 C   0  0  0  0  0
   82.9800  189.3530  136.0530 C   0  0  0  0  0
   83.7110  188.3520  136.9420 C   0  0  0  0  0
   84.6780  189.0510  137.8840 C   0  0  0  0  0
   85.4970  188.0730  138.7080 C   0  0  0  0  0
   86.4260  188.8200  139.6510 C   0  0  0  0  0
   87.1920  189.6870  138.9860 F   0  0  0  0  0
   87.2130  187.9240  140.2540 F   0  0  0  0  0
   85.7060  189.4810  140.5530 F   0  0  0  0  0
   80.0380  189.1180  133.6580 N   0  3  0  0  0
   76.6100  189.9220  130.2500 N   0  3  0  0  0
   84.6080  187.2690  139.4500 O   0  0  0  0  0
   86.3070  187.2670  137.8780 O   0  0  0  0  0
   78.6246  189.9672  129.7450 H   0  0  0  0  0
   78.0890  191.2310  130.8940 H   0  0  0  0  0
   78.4679  188.2553  131.4450 H   0  0  0  0  0
   77.7004  189.4140  132.5992 H   0  0  0  0  0
   79.8981  190.7652  132.3968 H   0  0  0  0  0
   80.5928  189.2885  131.6613 H   0  0  0  0  0
   81.9469  189.8611  133.4556 H   0  0  0  0  0
   80.9477  190.6115  134.7438 H   0  0  0  0  0
   82.2140  187.8536  134.7411 H   0  0  0  0  0
   81.0453  188.4537  135.9896 H   0  0  0  0  0
   82.5650  190.1298  136.6952 H   0  0  0  0  0
   83.6959  189.7427  135.3294 H   0  0  0  0  0
   84.2776  187.6724  136.3054 H   0  0  0  0  0
   82.9734  187.8151  137.5384 H   0  0  0  0  0
   84.0943  189.6633  138.5713 H   0  0  0  0  0
   85.3672  189.6418  137.2806 H   0  0  0  0  0
   80.1492  188.1069  133.5821 H   0  0  0  0  0
   79.2327  189.3331  134.2459 H   0  0  0  0  0
   76.3411  190.5191  129.4679 H   0  0  0  0  0
   76.5096  188.9430  129.9820 H   0  0  0  0  0
   76.0110  190.1194  131.0517 H   0  0  0  0  0
   84.0638  187.8280  140.0094 H   0  0  0  0  0
   86.9072  187.8256  137.3787 H   0  0  0  0  0
  2  1  1  0  0  0
  1 15  1  0  0  0
  3  2  1  0  0  0
 14  3  1  0  0  0
  4  5  1  0  0  0
  4 14  1  0  0  0
  5  6  1  0  0  0
  6  7  1  0  0  0
  7  8  1  0  0  0
  8  9  1  0  0  0
  9 10  1  0  0  0
  9 16  1  0  0  0
  9 17  1  0  0  0
 10 11  1  0  0  0
 10 12  1  0  0  0
 10 13  1  0  0  0
  1 18  1  0  0  0
  1 19  1  0  0  0
  2 20  1  0  0  0
  2 21  1  0  0  0
  3 22  1  0  0  0
  3 23  1  0  0  0
  4 24  1  0  0  0
  4 25  1  0  0  0
  5 26  1  0  0  0
  5 27  1  0  0  0
  6 28  1  0  0  0
  6 29  1  0  0  0
  7 30  1  0  0  0
  7 31  1  0  0  0
  8 32  1  0  0  0
  8 33  1  0  0  0
 14 34  1  0  0  0
 14 35  1  0  0  0
 15 36  1  0  0  0
 15 37  1  0  0  0
 15 38  1  0  0  0
 16 39  1  0  0  0
 17 40  1  0  0  0
M  END
$$$$
