3gcv_ligand
  -I-interpret- 

 68 72  0  0  0  0  0  0  0  0999 V2000
   -3.1550    3.6610  -19.6340 C   0  0  0  0  0
   -3.0540    2.3410  -19.1490 C   0  0  0  0  0
   -2.8640    2.1630  -17.7690 C   0  0  0  0  0
   -2.7870    3.2450  -16.9540 N   0  0  0  0  0
   -3.0570    4.6740  -18.7730 N   0  0  0  0  0
    1.9870   -7.0980   -8.6200 C   0  0  0  0  0
    1.7350   -6.3130   -9.9370 C   0  0  0  0  0
    2.2360   -5.0280  -10.0650 C   0  0  0  0  0
    1.0100   -6.8800  -10.9800 C   0  0  0  0  0
    0.8090   -6.1700  -12.1560 C   0  0  0  0  0
    1.3110   -4.8720  -12.2810 C   0  0  0  0  0
    2.0210   -4.3030  -11.2160 C   0  0  0  0  0
    2.5300   -3.0600  -11.2790 N   0  0  0  0  0
    3.6680   -2.7760  -10.8570 N   0  0  0  0  0
    3.8800   -1.4860  -11.0640 C   0  0  0  0  0
    5.1950   -0.7890  -10.6360 C   0  0  0  0  0
    4.8790    0.1840   -9.4930 C   0  0  0  0  0
    6.2070   -1.8500  -10.1340 C   0  0  0  0  0
    5.7930   -0.0170  -11.7880 C   0  0  0  0  0
    2.7850   -0.9440  -11.6420 C   0  0  0  0  0
    1.9370   -1.9880  -11.8240 C   0  0  0  0  0
    0.6620   -1.9220  -12.2870 N   0  0  0  0  0
    0.0860   -0.9810  -13.0820 C   0  0  0  0  0
    0.7290   -0.1760  -13.7590 O   0  0  0  0  0
   -1.2490   -1.0650  -13.1590 N   0  0  0  0  0
   -2.1460   -0.3550  -13.9060 C   0  0  0  0  0
   -1.9640   -0.0590  -15.2630 C   0  0  0  0  0
   -3.3230    0.0750  -13.2660 C   0  0  0  0  0
   -4.3030    0.8010  -13.9430 C   0  0  0  0  0
   -4.1090    1.0830  -15.2990 C   0  0  0  0  0
   -2.9400    0.6620  -15.9540 C   0  0  0  0  0
   -2.7600    0.9290  -17.2530 N   0  0  0  0  0
   -3.1490    1.2520  -20.0490 C   0  0  0  0  0
   -3.3280    1.4750  -21.4290 C   0  0  0  0  0
   -3.4310    0.4360  -22.3090 N   0  0  0  0  0
   -3.4100    2.8090  -21.8960 C   0  0  0  0  0
   -3.3200    3.9060  -21.0020 C   0  0  0  0  0
   -2.8830    4.4730  -17.4590 C   0  0  0  0  0
    3.0601   -7.2079   -8.4637 H   0  0  0  0  0
    1.5508   -6.5517   -7.7837 H   0  0  0  0  0
    1.5263   -8.0832   -8.6919 H   0  0  0  0  0
    2.8056   -4.5866   -9.2472 H   0  0  0  0  0
    0.5988   -7.8839  -10.8738 H   0  0  0  0  0
    0.2602   -6.6246  -12.9808 H   0  0  0  0  0
    1.1515   -4.3070  -13.1994 H   0  0  0  0  0
    4.1587    0.9259   -9.8378 H   0  0  0  0  0
    4.4592   -0.3688   -8.6526 H   0  0  0  0  0
    5.7954    0.6839   -9.1793 H   0  0  0  0  0
    5.7830   -2.3796   -9.2808 H   0  0  0  0  0
    6.4164   -2.5584  -10.9355 H   0  0  0  0  0
    7.1309   -1.3556   -9.8338 H   0  0  0  0  0
    6.0084   -0.7008  -12.6091 H   0  0  0  0  0
    5.0851    0.7418  -12.1216 H   0  0  0  0  0
    6.7156    0.4633  -11.4619 H   0  0  0  0  0
    2.6195    0.1010  -11.9041 H   0  0  0  0  0
    0.0505   -2.6855  -11.9978 H   0  0  0  0  0
   -1.6651   -1.7780  -12.5599 H   0  0  0  0  0
   -1.0626   -0.3907  -15.7784 H   0  0  0  0  0
   -3.4729   -0.1655  -12.2135 H   0  0  0  0  0
   -5.2005    1.1411  -13.4264 H   0  0  0  0  0
   -4.8705    1.6335  -15.8515 H   0  0  0  0  0
   -2.5329    0.1576  -17.8806 H   0  0  0  0  0
   -3.0831    0.2318  -19.6710 H   0  0  0  0  0
   -3.3787   -0.5252  -21.9716 H   0  0  0  0  0
   -3.5603    0.6210  -23.3037 H   0  0  0  0  0
   -3.5447    2.9961  -22.9613 H   0  0  0  0  0
   -3.3786    4.9282  -21.3759 H   0  0  0  0  0
   -2.8189    5.3319  -16.7910 H   0  0  0  0  0
  2  1  4  0  0  0
  1  5  4  0  0  0
  1 37  4  0  0  0
  3  2  4  0  0  0
  2 33  4  0  0  0
  3  4  4  0  0  0
 32  3  1  0  0  0
  4 38  4  0  0  0
 38  5  4  0  0  0
  7  6  1  0  0  0
  8  7  4  0  0  0
  7  9  4  0  0  0
 12  8  4  0  0  0
 10  9  4  0  0  0
 11 10  4  0  0  0
 12 11  4  0  0  0
 13 12  1  0  0  0
 13 14  4  0  0  0
 21 13  4  0  0  0
 15 14  4  0  0  0
 15 16  1  0  0  0
 20 15  4  0  0  0
 16 17  1  0  0  0
 16 18  1  0  0  0
 16 19  1  0  0  0
 21 20  4  0  0  0
 22 21  1  0  0  0
 23 22  1  0  0  0
 23 24  2  0  0  0
 25 23  1  0  0  0
 26 25  1  0  0  0
 27 26  4  0  0  0
 26 28  4  0  0  0
 31 27  4  0  0  0
 29 28  4  0  0  0
 30 29  4  0  0  0
 31 30  4  0  0  0
 31 32  1  0  0  0
 33 34  4  0  0  0
 34 35  1  0  0  0
 34 36  4  0  0  0
 36 37  4  0  0  0
  6 39  1  0  0  0
  6 40  1  0  0  0
  6 41  1  0  0  0
  8 42  1  0  0  0
  9 43  1  0  0  0
 10 44  1  0  0  0
 11 45  1  0  0  0
 17 46  1  0  0  0
 17 47  1  0  0  0
 17 48  1  0  0  0
 18 49  1  0  0  0
 18 50  1  0  0  0
 18 51  1  0  0  0
 19 52  1  0  0  0
 19 53  1  0  0  0
 19 54  1  0  0  0
 20 55  1  0  0  0
 22 56  1  0  0  0
 25 57  1  0  0  0
 27 58  1  0  0  0
 28 59  1  0  0  0
 29 60  1  0  0  0
 30 61  1  0  0  0
 32 62  1  0  0  0
 33 63  1  0  0  0
 35 64  1  0  0  0
 35 65  1  0  0  0
 36 66  1  0  0  0
 37 67  1  0  0  0
 38 68  1  0  0  0
M  END
$$$$
