5egs_ligand
  -I-interpret- 

 40 41  0  0  0  0  0  0  0  0999 V2000
    8.7410  -14.5660    3.4000 C   0  0  0  0  0
   10.8910  -17.9960    9.2580 C   0  0  0  0  0
    7.7160  -13.6230    3.2820 C   0  0  0  0  0
    6.5650  -13.7680    4.0220 C   0  0  0  0  0
    7.3060  -16.9910    5.9450 C   0  0  0  0  0
    7.2770  -16.4640    7.3710 C   0  0  0  0  0
    8.5230  -15.5740    7.5280 C   0  0  0  0  0
    9.8060  -16.2120    8.0070 C   0  0  0  0  0
    8.5780  -18.3010    8.4680 C   0  0  0  0  0
    7.2430  -17.6210    8.4080 C   0  0  0  0  0
    8.6310  -15.6550    4.2380 C   0  0  0  0  0
    6.4610  -14.8630    4.8830 C   0  0  0  0  0
    7.4640  -15.8120    4.9740 C   0  0  0  0  0
    9.5910  -17.3310    8.9420 N   0  3  0  0  0
   11.5010  -18.6970    8.0670 C   0  0  0  0  0
   12.7370  -19.3770    8.4810 N   0  3  0  0  0
    9.6510  -14.4369    2.8141 H   0  0  0  0  0
   10.7016  -18.7477   10.0243 H   0  0  0  0  0
   11.5887  -17.2237    9.5817 H   0  0  0  0  0
    7.8281  -12.7754    2.6059 H   0  0  0  0  0
    5.7534  -13.0453    3.9383 H   0  0  0  0  0
    6.3766  -17.5189    5.7312 H   0  0  0  0  0
    8.1440  -17.6778    5.8258 H   0  0  0  0  0
    6.3711  -15.8881    7.5603 H   0  0  0  0  0
    8.2604  -14.8478    8.2972 H   0  0  0  0  0
    8.7423  -15.2097    6.5244 H   0  0  0  0  0
   10.3753  -15.4474    8.5356 H   0  0  0  0  0
   10.3213  -16.6094    7.1326 H   0  0  0  0  0
    8.8511  -18.6635    7.4770 H   0  0  0  0  0
    8.5295  -19.1470    9.1536 H   0  0  0  0  0
    6.4860  -18.3461    8.1092 H   0  0  0  0  0
    7.0056  -17.2130    9.3905 H   0  0  0  0  0
    9.4429  -16.3775    4.3211 H   0  0  0  0  0
    5.5679  -14.9726    5.4982 H   0  0  0  0  0
    9.2075  -16.9366    9.8009 H   0  0  0  0  0
   11.7300  -17.9655    7.2921 H   0  0  0  0  0
   10.7957  -19.4302    7.6756 H   0  0  0  0  0
   13.1489  -19.8503    7.6769 H   0  0  0  0  0
   13.3958  -18.6895    8.8466 H   0  0  0  0  0
   12.5207  -20.0613    9.2058 H   0  0  0  0  0
  1  3  4  0  0  0
 11  1  4  0  0  0
 14  2  1  0  0  0
  2 15  1  0  0  0
  3  4  4  0  0  0
  4 12  4  0  0  0
  5  6  1  0  0  0
 13  5  1  0  0  0
  6  7  1  0  0  0
  6 10  1  0  0  0
  7  8  1  0  0  0
  8 14  1  0  0  0
 10  9  1  0  0  0
  9 14  1  0  0  0
 11 13  4  0  0  0
 12 13  4  0  0  0
 15 16  1  0  0  0
  1 17  1  0  0  0
  2 18  1  0  0  0
  2 19  1  0  0  0
  3 20  1  0  0  0
  4 21  1  0  0  0
  5 22  1  0  0  0
  5 23  1  0  0  0
  6 24  1  0  0  0
  7 25  1  0  0  0
  7 26  1  0  0  0
  8 27  1  0  0  0
  8 28  1  0  0  0
  9 29  1  0  0  0
  9 30  1  0  0  0
 10 31  1  0  0  0
 10 32  1  0  0  0
 11 33  1  0  0  0
 12 34  1  0  0  0
 14 35  1  0  0  0
 15 36  1  0  0  0
 15 37  1  0  0  0
 16 38  1  0  0  0
 16 39  1  0  0  0
 16 40  1  0  0  0
M  END
$$$$
