2ydv_ligand
  -I-interpret- 

 38 40  0  0  0  0  0  0  0  0999 V2000
   31.7450   11.0290  -14.0960 C   0  0  0  0  0
   31.2020   10.0370  -13.6370 O   0  0  0  0  0
   32.1080   12.0770  -13.3530 N   0  0  0  0  0
   31.6200   12.2940  -12.0020 C   0  0  0  0  0
   32.4570   13.3050  -11.2390 C   0  0  0  0  0
   32.0610   11.1150  -15.5640 C   0  0  0  0  0
   33.1210   10.2000  -15.8720 O   0  0  0  0  0
   30.8790   10.7170  -16.4470 C   0  0  0  0  0
   30.1380   11.8500  -16.9170 O   0  0  0  0  0
   31.5250    9.9700  -17.5960 C   0  0  0  0  0
   31.8890   10.8770  -18.6460 O   0  0  0  0  0
   32.7870    9.3710  -16.9910 C   0  0  0  0  0
   32.4700    7.9670  -16.5920 N   0  0  0  0  0
   32.0340    7.5420  -15.3840 C   0  0  0  0  0
   31.8240    6.1980  -15.3840 N   0  0  0  0  0
   32.1120    5.7400  -16.6100 C   0  0  0  0  0
   32.1150    4.4230  -17.2890 C   0  0  0  0  0
   31.7530    3.2890  -16.6420 N   0  0  0  0  0
   32.5010    4.3890  -18.5880 N   0  0  0  0  0
   32.8730    5.4990  -19.2510 C   0  0  0  0  0
   32.9020    6.7230  -18.6910 N   0  0  0  0  0
   32.5370    6.9070  -17.4030 C   0  0  0  0  0
   32.7569   12.7556  -13.7516 H   0  0  0  0  0
   31.6699   11.3445  -11.4691 H   0  0  0  0  0
   30.6030   12.6805  -12.0690 H   0  0  0  0  0
   33.4847   12.9479  -11.1728 H   0  0  0  0  0
   32.4362   14.2609  -11.7624 H   0  0  0  0  0
   32.0489   13.4296  -10.2360 H   0  0  0  0  0
   32.3263   12.1533  -15.7632 H   0  0  0  0  0
   30.1479   10.1195  -15.9025 H   0  0  0  0  0
   29.7406   12.3033  -16.1699 H   0  0  0  0  0
   30.8567    9.2248  -18.0275 H   0  0  0  0  0
   32.2960   10.3867  -19.3640 H   0  0  0  0  0
   33.6353    9.3370  -17.6746 H   0  0  0  0  0
   31.8722    8.1913  -14.5236 H   0  0  0  0  0
   31.4692    3.3288  -15.6631 H   0  0  0  0  0
   31.7643    2.3955  -17.1338 H   0  0  0  0  0
   33.1663    5.4023  -20.2963 H   0  0  0  0  0
  1  2  2  0  0  0
  1  3  1  0  0  0
  1  6  1  0  0  0
  3  4  1  0  0  0
  4  5  1  0  0  0
  6  7  1  0  0  0
  6  8  1  0  0  0
  7 12  1  0  0  0
  8  9  1  0  0  0
  8 10  1  0  0  0
 10 11  1  0  0  0
 10 12  1  0  0  0
 12 13  1  0  0  0
 13 14  4  0  0  0
 13 22  4  0  0  0
 14 15  4  0  0  0
 15 16  4  0  0  0
 16 17  4  0  0  0
 16 22  4  0  0  0
 17 18  1  0  0  0
 17 19  4  0  0  0
 19 20  4  0  0  0
 20 21  4  0  0  0
 21 22  4  0  0  0
  3 23  1  0  0  0
  4 24  1  0  0  0
  4 25  1  0  0  0
  5 26  1  0  0  0
  5 27  1  0  0  0
  5 28  1  0  0  0
  6 29  1  0  0  0
  8 30  1  0  0  0
  9 31  1  0  0  0
 10 32  1  0  0  0
 11 33  1  0  0  0
 12 34  1  0  0  0
 14 35  1  0  0  0
 18 36  1  0  0  0
 18 37  1  0  0  0
 20 38  1  0  0  0
M  END
$$$$
