5uln_ligand
  -I-interpret- 

 33 34  0  0  0  0  0  0  0  0999 V2000
    1.7260    8.9670   82.3180 C   0  0  0  0  0
    0.9020    8.3100   84.4460 C   0  0  0  0  0
   -0.3360    3.6880   84.6670 C   0  0  0  0  0
   -2.5020    4.7220   84.8070 C   0  0  0  0  0
    2.7770    9.6380   82.9240 C   0  0  0  0  0
    1.9470    9.0150   85.0380 C   0  0  0  0  0
   -0.8370    2.6010   85.3810 C   0  0  0  0  0
   -2.9980    3.6500   85.4910 C   0  0  0  0  0
    0.7720    8.2900   83.0630 C   0  0  0  0  0
   -1.1980    4.7310   84.3720 C   0  0  0  0  0
    2.9080    9.6780   84.2980 C   0  0  0  0  0
   -2.1740    2.5690   85.7900 C   0  0  0  0  0
   -1.1390    6.5910   82.7740 C   0  0  0  0  0
   -2.2430   -0.1120   86.0610 N   0  0  0  0  0
   -0.3000    7.6480   82.3620 N   0  0  0  0  0
   -0.5800    5.7740   83.6570 N   0  0  0  0  0
   -2.2230    1.3840   88.0710 O   0  0  0  0  0
   -4.2560    1.3210   86.6260 O   0  0  0  0  0
    3.9580   10.3640   84.9070 F   0  0  0  0  0
   -2.6500    6.3740   82.1360 S   0  0  0  0  0
   -2.7980    1.2330   86.7480 S   0  0  0  0  0
    1.6476    8.9716   81.2308 H   0  0  0  0  0
    0.1856    7.7735   85.0682 H   0  0  0  0  0
    0.7063    3.7165   84.3493 H   0  0  0  0  0
   -3.1453    5.5782   84.6040 H   0  0  0  0  0
    3.5155   10.1447   82.3027 H   0  0  0  0  0
    2.0094    9.0451   86.1258 H   0  0  0  0  0
   -0.1793    1.7663   85.6234 H   0  0  0  0  0
   -4.0421    3.6405   85.8038 H   0  0  0  0  0
   -1.5847   -0.7073   86.5637 H   0  0  0  0  0
   -2.5495   -0.3694   85.1228 H   0  0  0  0  0
   -0.4841    8.0087   81.4258 H   0  0  0  0  0
    0.4132    5.9184   83.8390 H   0  0  0  0  0
  1  5  4  0  0  0
  9  1  4  0  0  0
  2  6  4  0  0  0
  9  2  4  0  0  0
  3  7  4  0  0  0
 10  3  4  0  0  0
  4  8  4  0  0  0
 10  4  4  0  0  0
  5 11  4  0  0  0
  6 11  4  0  0  0
  7 12  4  0  0  0
  8 12  4  0  0  0
 15  9  1  0  0  0
 16 10  1  0  0  0
 11 19  1  0  0  0
 12 21  1  0  0  0
 13 15  1  0  0  0
 13 16  1  0  0  0
 13 20  2  0  0  0
 21 14  1  0  0  0
 21 17  2  0  0  0
 21 18  2  0  0  0
  1 22  1  0  0  0
  2 23  1  0  0  0
  3 24  1  0  0  0
  4 25  1  0  0  0
  5 26  1  0  0  0
  6 27  1  0  0  0
  7 28  1  0  0  0
  8 29  1  0  0  0
 14 30  1  0  0  0
 14 31  1  0  0  0
 15 32  1  0  0  0
 16 33  1  0  0  0
M  END
$$$$
