6dnp_ligand
  -I-interpret- 

 27 27  0  0  0  0  0  0  0  0999 V2000
   35.9920   80.1900   63.9390 C   0  0  0  0  0
   38.1610   81.0890   64.6700 C   0  0  0  0  0
   31.1120   77.1230   61.6640 C   0  0  0  0  0
   32.4160   77.1250   62.4270 C   0  0  0  0  0
   32.7520   76.0650   63.2520 C   0  0  0  0  0
   33.9540   76.0780   63.9410 C   0  0  0  0  0
   34.8130   77.1620   63.8120 C   0  0  0  0  0
   34.4780   78.2370   62.9950 C   0  0  0  0  0
   35.4100   79.4190   62.7990 C   0  0  0  0  0
   36.9690   81.1110   63.7570 C   0  0  0  0  0
   33.2740   78.2110   62.3030 C   0  0  0  0  0
   35.9730   77.1670   64.4820 F   0  0  0  0  0
   32.9480   79.2390   61.5170 F   0  0  0  0  0
   35.7190   79.7440   61.6320 O   0  0  0  0  0
   37.0900   81.8540   62.5760 O   0  0  0  0  0
   39.3120   81.2360   64.1760 O   0  0  0  0  0
   37.9890   80.9340   65.9260 O   0  0  0  0  0
   36.4716   79.4241   64.5485 H   0  0  0  0  0
   35.1510   80.7774   64.3075 H   0  0  0  0  0
   31.0827   76.2595   60.9994 H   0  0  0  0  0
   30.2810   77.0701   62.3674 H   0  0  0  0  0
   31.0348   78.0379   61.0766 H   0  0  0  0  0
   32.0711   75.2206   63.3594 H   0  0  0  0  0
   34.2249   75.2396   64.5827 H   0  0  0  0  0
   36.2744   81.8262   64.1976 H   0  0  0  0  0
   36.2722   81.7947   62.0768 H   0  0  0  0  0
   37.0516   80.8388   66.1101 H   0  0  0  0  0
  9  1  1  0  0  0
  1 10  1  0  0  0
 10  2  1  0  0  0
  2 16  2  0  0  0
  2 17  1  0  0  0
  4  3  1  0  0  0
  5  4  4  0  0  0
  4 11  4  0  0  0
  6  5  4  0  0  0
  7  6  4  0  0  0
  8  7  4  0  0  0
  7 12  1  0  0  0
  8  9  1  0  0  0
  8 11  4  0  0  0
  9 14  2  0  0  0
 10 15  1  0  0  0
 11 13  1  0  0  0
  1 18  1  0  0  0
  1 19  1  0  0  0
  3 20  1  0  0  0
  3 21  1  0  0  0
  3 22  1  0  0  0
  5 23  1  0  0  0
  6 24  1  0  0  0
 10 25  1  0  0  0
 15 26  1  0  0  0
 17 27  1  0  0  0
M  END
$$$$
