5laq_ligand
  -I-interpret- 

 82 87  0  0  0  0  0  0  0  0999 V2000
    4.8520  -41.8290    3.7060 C   0  0  0  0  0
    4.1260  -41.8580    4.9080 C   0  0  0  0  0
    4.5150  -42.1820    7.2770 C   0  0  0  0  0
    3.9450  -43.3310    8.0740 C   0  0  0  0  0
    2.4900  -43.6410    7.8000 C   0  0  0  0  0
    1.8520  -44.5410    8.8280 C   0  0  0  0  0
   -0.1500  -45.9070    8.9960 C   0  0  0  0  0
   -4.6260  -49.5860   11.5620 N   0  0  0  0  0
   -3.6460  -50.0180   12.2860 N   0  0  0  0  0
   -2.4830  -49.4200   11.9190 N   0  0  0  0  0
    0.3960  -39.9990    5.1220 N   0  0  0  0  0
    0.2700  -46.6110   10.1160 C   0  0  0  0  0
   -1.8810  -47.6850   10.2500 C   0  0  0  0  0
   -1.8700  -41.4350    6.1520 C   0  0  0  0  0
   -1.1740  -38.7420    1.2280 C   0  0  0  0  0
   -2.3790  -37.8070    4.7310 O   0  0  0  0  0
   -1.2350  -38.2520    4.6020 C   0  0  0  0  0
   -0.8170  -39.3720    5.2860 N   0  0  0  0  0
   -1.6690  -39.9370    6.3490 C   0  0  0  0  0
   -1.1060  -39.5030    7.6960 C   0  0  0  0  0
   -1.9980  -39.7960    8.9000 C   0  0  0  0  0
   -1.7950  -41.1700    9.5220 C   0  0  0  0  0
   -1.6740  -42.3040    8.5400 C   0  0  0  0  0
   -2.5580  -42.1600    7.3090 C   0  0  0  0  0
   -0.2120  -37.6600    3.6770 C   0  0  0  0  0
    0.6150  -38.8020    3.0210 C   0  0  0  0  0
   -0.2780  -39.6010    2.0420 C   0  0  0  0  0
   -1.3110  -37.4450    1.4250 C   0  0  0  0  0
   -0.7840  -36.7130    2.6160 C   0  0  0  0  0
    1.1250  -39.7330    4.0980 C   0  0  0  0  0
    2.4320  -40.4260    3.9490 C   0  0  0  0  0
    3.1580  -40.4080    2.7670 C   0  0  0  0  0
    4.3490  -41.1100    2.6430 C   0  0  0  0  0
    6.0170  -42.5500    3.7140 O   0  0  0  0  0
    6.9620  -42.3600    2.6650 C   0  0  0  0  0
    2.9130  -41.1970    5.0060 C   0  0  0  0  0
    4.6590  -42.6180    5.9130 O   0  0  0  0  0
    0.5970  -44.9930    8.2990 O   0  0  0  0  0
   -1.4220  -46.1130    8.4980 C   0  0  0  0  0
   -2.2910  -46.9740    9.1310 C   0  0  0  0  0
   -0.5960  -47.4900   10.7380 C   0  0  0  0  0
   -2.7980  -48.5930   10.9300 C   0  0  0  0  0
   -4.1130  -48.6820   10.7140 N   0  0  0  0  0
    5.4822  -41.8846    7.6823 H   0  0  0  0  0
    3.8502  -41.3198    7.3295 H   0  0  0  0  0
    4.0138  -43.0493    9.1247 H   0  0  0  0  0
    4.5132  -44.2187    7.7960 H   0  0  0  0  0
    2.4442  -44.1597    6.8424 H   0  0  0  0  0
    1.9486  -42.6951    7.8171 H   0  0  0  0  0
    1.6956  -43.9983    9.7603 H   0  0  0  0  0
    2.5005  -45.3909    9.0406 H   0  0  0  0  0
    1.2791  -46.4710   10.5035 H   0  0  0  0  0
   -0.8766  -41.8731    6.0560 H   0  0  0  0  0
   -2.5167  -41.5513    5.2823 H   0  0  0  0  0
   -1.7481  -39.2068    0.4265 H   0  0  0  0  0
   -2.6851  -39.5448    6.3062 H   0  0  0  0  0
   -0.9877  -38.4204    7.6510 H   0  0  0  0  0
   -0.1846  -40.0658    7.8455 H   0  0  0  0  0
   -3.0290  -39.7559    8.5484 H   0  0  0  0  0
   -1.7492  -39.0611    9.6656 H   0  0  0  0  0
   -2.6774  -41.3732   10.1287 H   0  0  0  0  0
   -0.8548  -41.1296   10.0720 H   0  0  0  0  0
   -1.9868  -43.2115    9.0564 H   0  0  0  0  0
   -0.6406  -42.3209    8.1938 H   0  0  0  0  0
   -2.8106  -43.1632    6.9656 H   0  0  0  0  0
   -3.4289  -41.5706    7.5959 H   0  0  0  0  0
    0.4325  -37.0303    4.2903 H   0  0  0  0  0
    1.4540  -38.3696    2.4759 H   0  0  0  0  0
    0.3807  -40.1329    1.3555 H   0  0  0  0  0
   -0.9078  -40.2627    2.6367 H   0  0  0  0  0
   -1.8441  -36.8690    0.6686 H   0  0  0  0  0
    0.0194  -36.0571    2.2807 H   0  0  0  0  0
   -1.6096  -36.1615    3.0657 H   0  0  0  0  0
    2.7862  -39.8318    1.9198 H   0  0  0  0  0
    4.8909  -41.0926    1.6974 H   0  0  0  0  0
    6.4974  -42.6063    1.7102 H   0  0  0  0  0
    7.2872  -41.3197    2.6547 H   0  0  0  0  0
    7.8218  -43.0092    2.8303 H   0  0  0  0  0
    2.3270  -41.2807    5.9213 H   0  0  0  0  0
   -1.7407  -45.5897    7.5965 H   0  0  0  0  0
   -3.3052  -47.0974    8.7513 H   0  0  0  0  0
   -0.2665  -48.0364   11.6217 H   0  0  0  0  0
  2  1  4  0  0  0
  1 33  4  0  0  0
  1 34  1  0  0  0
 36  2  4  0  0  0
  2 37  1  0  0  0
  3  4  1  0  0  0
 37  3  1  0  0  0
  4  5  1  0  0  0
  5  6  1  0  0  0
  6 38  1  0  0  0
  7 12  4  0  0  0
 38  7  1  0  0  0
  7 39  4  0  0  0
  9  8  4  0  0  0
  8 43  4  0  0  0
 10  9  4  0  0  0
 42 10  4  0  0  0
 11 18  1  0  0  0
 30 11  2  0  0  0
 12 41  4  0  0  0
 13 40  4  0  0  0
 41 13  4  0  0  0
 13 42  1  0  0  0
 19 14  1  0  0  0
 14 24  1  0  0  0
 27 15  1  0  0  0
 15 28  2  0  0  0
 17 16  2  0  0  0
 18 17  1  0  0  0
 25 17  1  0  0  0
 18 19  1  0  0  0
 19 20  1  0  0  0
 20 21  1  0  0  0
 21 22  1  0  0  0
 22 23  1  0  0  0
 24 23  1  0  0  0
 26 25  1  0  0  0
 25 29  1  0  0  0
 26 27  1  0  0  0
 30 26  1  0  0  0
 29 28  1  0  0  0
 31 30  1  0  0  0
 31 32  4  0  0  0
 31 36  4  0  0  0
 32 33  4  0  0  0
 34 35  1  0  0  0
 39 40  4  0  0  0
 42 43  4  0  0  0
  3 44  1  0  0  0
  3 45  1  0  0  0
  4 46  1  0  0  0
  4 47  1  0  0  0
  5 48  1  0  0  0
  5 49  1  0  0  0
  6 50  1  0  0  0
  6 51  1  0  0  0
 12 52  1  0  0  0
 14 53  1  0  0  0
 14 54  1  0  0  0
 15 55  1  0  0  0
 19 56  1  0  0  0
 20 57  1  0  0  0
 20 58  1  0  0  0
 21 59  1  0  0  0
 21 60  1  0  0  0
 22 61  1  0  0  0
 22 62  1  0  0  0
 23 63  1  0  0  0
 23 64  1  0  0  0
 24 65  1  0  0  0
 24 66  1  0  0  0
 25 67  1  0  0  0
 26 68  1  0  0  0
 27 69  1  0  0  0
 27 70  1  0  0  0
 28 71  1  0  0  0
 29 72  1  0  0  0
 29 73  1  0  0  0
 32 74  1  0  0  0
 33 75  1  0  0  0
 35 76  1  0  0  0
 35 77  1  0  0  0
 35 78  1  0  0  0
 36 79  1  0  0  0
 39 80  1  0  0  0
 40 81  1  0  0  0
 41 82  1  0  0  0
M  END
$$$$
