4xir_ligand
  -I-interpret- 

 56 59  0  0  0  0  0  0  0  0999 V2000
   -2.4120  -11.5430  -24.0540 N   0  0  0  0  0
    4.2440   -8.6760  -23.1650 C   0  0  0  0  0
    4.8030   -9.9760  -23.5230 C   0  0  0  0  0
    6.1460  -10.2340  -23.5500 C   0  0  0  0  0
    6.2850  -11.5990  -24.0070 C   0  0  0  0  0
    5.0130  -12.0890  -24.2590 C   0  0  0  0  0
    1.9270  -12.1320  -23.6670 C   0  0  0  0  0
    0.6860   -9.9920  -25.0000 C   0  0  0  0  0
   -1.5390  -11.0990  -24.9480 C   0  0  0  0  0
    5.8310  -14.1220  -25.5440 C   0  0  0  0  0
    5.9800  -13.5170  -26.9450 C   0  0  0  0  0
    5.5320  -15.6110  -25.6750 C   0  0  0  0  0
    7.2980   -9.3090  -23.2580 C   0  0  0  0  0
    8.5800  -12.1290  -24.1750 O   0  0  0  0  0
    7.4140  -12.5030  -24.2870 C   0  0  0  0  0
    7.1250  -13.9200  -24.7350 C   0  0  0  0  0
    4.6740  -13.4420  -24.8050 C   0  0  0  0  0
    4.1140  -11.0940  -23.9580 N   0  0  0  0  0
    2.6850  -11.0600  -24.1130 C   0  0  0  0  0
    2.0590   -9.9930  -24.7770 C   0  0  0  0  0
   -0.0770  -11.1060  -24.5970 C   0  0  0  0  0
   -1.9020  -10.6660  -26.0370 O   0  0  0  0  0
    0.5720  -12.1640  -23.9380 C   0  0  0  0  0
   -0.2490  -13.6240  -23.5110 Cl  0  0  0  0  0
    2.8220   -8.9630  -25.3080 O   0  0  0  0  0
    3.4700   -8.0820  -24.3390 C   0  0  0  0  0
    2.6630   -6.8430  -24.0790 C   0  0  0  0  0
    3.4700   -5.5820  -24.2060 C   0  0  0  0  0
    3.9390   -5.3000  -25.6350 C   0  0  0  0  0
   -3.4098  -11.5292  -24.2651 H   0  0  0  0  0
   -2.0857  -11.8983  -23.1553 H   0  0  0  0  0
    5.0589   -8.0016  -22.9019 H   0  0  0  0  0
    3.5644   -8.8038  -22.3225 H   0  0  0  0  0
    2.3954  -12.9420  -23.1078 H   0  0  0  0  0
    0.2060   -9.1396  -25.4808 H   0  0  0  0  0
    6.7983  -14.0120  -27.4680 H   0  0  0  0  0
    5.0532  -13.6587  -27.5010 H   0  0  0  0  0
    6.1940  -12.4517  -26.8585 H   0  0  0  0  0
    4.6065  -15.7466  -26.2347 H   0  0  0  0  0
    6.3516  -16.0999  -26.2017 H   0  0  0  0  0
    5.4248  -16.0475  -24.6820 H   0  0  0  0  0
    7.2723   -8.4686  -23.9517 H   0  0  0  0  0
    7.2162   -8.9404  -22.2355 H   0  0  0  0  0
    8.2364   -9.8508  -23.3763 H   0  0  0  0  0
    7.9452  -14.2059  -25.3935 H   0  0  0  0  0
    7.0130  -14.5113  -23.8262 H   0  0  0  0  0
    3.8652  -13.3080  -25.5233 H   0  0  0  0  0
    4.4130  -14.0768  -23.9582 H   0  0  0  0  0
    4.3688   -7.7657  -24.8683 H   0  0  0  0  0
    2.2895   -6.8976  -23.0565 H   0  0  0  0  0
    1.8652   -6.8037  -24.8206 H   0  0  0  0  0
    4.3589   -5.6976  -23.5859 H   0  0  0  0  0
    2.8324   -4.7524  -23.9003 H   0  0  0  0  0
    4.5630   -6.1242  -25.9805 H   0  0  0  0  0
    3.0717   -5.2008  -26.2878 H   0  0  0  0  0
    4.5152   -4.3749  -25.6510 H   0  0  0  0  0
  9  1  1  0  0  0
  3  2  1  0  0  0
  2 26  1  0  0  0
  3  4  4  0  0  0
 18  3  4  0  0  0
  5  4  4  0  0  0
  4 13  1  0  0  0
  6  5  4  0  0  0
  5 15  1  0  0  0
  6 17  1  0  0  0
 18  6  4  0  0  0
 19  7  4  0  0  0
  7 23  4  0  0  0
 20  8  4  0  0  0
  8 21  4  0  0  0
 21  9  1  0  0  0
  9 22  2  0  0  0
 10 11  1  0  0  0
 10 12  1  0  0  0
 10 16  1  0  0  0
 17 10  1  0  0  0
 15 14  2  0  0  0
 15 16  1  0  0  0
 19 18  1  0  0  0
 19 20  4  0  0  0
 20 25  1  0  0  0
 21 23  4  0  0  0
 23 24  1  0  0  0
 25 26  1  0  0  0
 26 27  1  0  0  0
 27 28  1  0  0  0
 28 29  1  0  0  0
  1 30  1  0  0  0
  1 31  1  0  0  0
  2 32  1  0  0  0
  2 33  1  0  0  0
  7 34  1  0  0  0
  8 35  1  0  0  0
 11 36  1  0  0  0
 11 37  1  0  0  0
 11 38  1  0  0  0
 12 39  1  0  0  0
 12 40  1  0  0  0
 12 41  1  0  0  0
 13 42  1  0  0  0
 13 43  1  0  0  0
 13 44  1  0  0  0
 16 45  1  0  0  0
 16 46  1  0  0  0
 17 47  1  0  0  0
 17 48  1  0  0  0
 26 49  1  0  0  0
 27 50  1  0  0  0
 27 51  1  0  0  0
 28 52  1  0  0  0
 28 53  1  0  0  0
 29 54  1  0  0  0
 29 55  1  0  0  0
 29 56  1  0  0  0
M  END
$$$$
