6eeb_ligand
  -I-interpret- 

 48 53  0  0  0  0  0  0  0  0999 V2000
    3.7130   62.8090  109.8080 C   0  0  0  0  0
    2.5000   62.5850  110.4930 C   0  0  0  0  0
    2.4820   61.6980  111.6070 C   0  0  0  0  0
    1.9350   60.4090  113.4070 C   0  0  0  0  0
    3.3370   60.2410  113.1400 C   0  0  0  0  0
    4.2570   59.3000  114.0330 C   0  0  0  0  0
    3.7450   59.3510  115.4820 C   0  0  0  0  0
    2.1140   58.8850  115.5750 C   0  0  0  0  0
    1.6420   58.9700  116.8980 C   0  0  0  0  0
    2.6570   59.5630  117.8120 C   0  0  0  0  0
    3.9390   58.6120  117.6360 C   0  0  0  0  0
    2.2670   59.7750  119.2280 C   0  0  0  0  0
    2.9110   61.0120  119.6400 C   0  0  0  0  0
    3.7410   61.5380  118.3430 C   0  0  0  0  0
    3.9960   60.7560  116.1790 C   0  0  0  0  0
    1.1810   59.6760  114.5740 C   0  0  0  0  0
    0.1920   58.6510  113.9350 C   0  0  0  0  0
    0.3420   60.7520  115.3360 C   0  0  0  0  0
    3.6780   61.0630  112.0060 C   0  0  0  0  0
    4.8980   61.2950  111.3120 C   0  0  0  0  0
    4.9070   62.1710  110.2110 C   0  0  0  0  0
    1.4380   61.2750  112.4780 N   0  0  0  0  0
    4.3810   58.4960  116.3170 N   0  0  0  0  0
    3.1750   60.9050  117.2880 N   0  3  0  0  0
    4.4740   58.0610  118.5500 O   0  0  0  0  0
    3.8030   63.9070  108.4050 Cl  0  0  0  0  0
    6.4060   62.5090  109.2950 Cl  0  0  0  0  0
    1.5862   63.0856  110.1729 H   0  0  0  0  0
    5.2911   59.6422  113.9913 H   0  0  0  0  0
    4.2164   58.2768  113.6596 H   0  0  0  0  0
    2.0711   57.8423  115.2603 H   0  0  0  0  0
    1.4159   57.9620  117.2459 H   0  0  0  0  0
    0.7595   59.6097  116.9058 H   0  0  0  0  0
    1.6280   59.1341  119.8355 H   0  0  0  0  0
    2.8502   61.4894  120.6180 H   0  0  0  0  0
    4.8049   61.3159  118.4255 H   0  0  0  0  0
    3.6886   62.6219  118.2408 H   0  0  0  0  0
    3.7728   61.5491  115.4653 H   0  0  0  0  0
    5.0363   60.8101  116.5000 H   0  0  0  0  0
    0.7573   57.8860  113.4026 H   0  0  0  0  0
   -0.4031   58.1844  114.7200 H   0  0  0  0  0
   -0.4662   59.1694  113.2378 H   0  0  0  0  0
   -0.2792   60.2624  116.0860 H   0  0  0  0  0
    1.0150   61.4571  115.8238 H   0  0  0  0  0
   -0.2929   61.2843  114.6278 H   0  0  0  0  0
    5.8155   60.7997  111.6297 H   0  0  0  0  0
    5.1023   57.8406  116.0161 H   0  0  0  0  0
    2.4195   61.4864  116.9253 H   0  0  0  0  0
  2  1  4  0  0  0
  1 21  4  0  0  0
  1 26  1  0  0  0
  3  2  4  0  0  0
  3 19  4  0  0  0
 22  3  4  0  0  0
  4  5  4  0  0  0
  4 16  1  0  0  0
  4 22  4  0  0  0
  5  6  1  0  0  0
  5 19  4  0  0  0
  6  7  1  0  0  0
  7  8  1  0  0  0
  7 15  1  0  0  0
  7 23  1  0  0  0
  8  9  1  0  0  0
  8 16  1  0  0  0
  9 10  1  0  0  0
 10 11  1  0  0  0
 10 12  1  0  0  0
 10 24  1  0  0  0
 11 23  1  0  0  0
 11 25  2  0  0  0
 12 13  2  0  0  0
 13 14  1  0  0  0
 14 24  1  0  0  0
 15 24  1  0  0  0
 16 17  1  0  0  0
 16 18  1  0  0  0
 19 20  4  0  0  0
 20 21  4  0  0  0
 21 27  1  0  0  0
  2 28  1  0  0  0
  6 29  1  0  0  0
  6 30  1  0  0  0
  8 31  1  0  0  0
  9 32  1  0  0  0
  9 33  1  0  0  0
 12 34  1  0  0  0
 13 35  1  0  0  0
 14 36  1  0  0  0
 14 37  1  0  0  0
 15 38  1  0  0  0
 15 39  1  0  0  0
 17 40  1  0  0  0
 17 41  1  0  0  0
 17 42  1  0  0  0
 18 43  1  0  0  0
 18 44  1  0  0  0
 18 45  1  0  0  0
 20 46  1  0  0  0
 23 47  1  0  0  0
 24 48  1  0  0  0
M  END
$$$$
