2irz_ligand
  -I-interpret- 

 70 73  0  0  0  0  0  0  0  0999 V2000
   32.2250   44.6480    6.2300 C   0  0  0  0  0
   32.4960   45.6210    5.1500 C   0  0  0  0  0
   32.3750   47.0640    5.2950 C   0  0  0  0  0
   32.0100   47.5830    6.5810 C   0  0  0  0  0
   31.7670   46.6240    7.6340 C   0  0  0  0  0
   31.8460   45.1800    7.5050 C   0  0  0  0  0
   32.9070   45.2060    3.7920 C   0  0  0  0  0
   31.8570   44.4580    3.1170 N   0  0  0  0  0
   31.1640   44.9150    2.0360 C   0  0  0  0  0
   30.1390   43.9950    1.5190 C   0  0  0  0  0
   30.3300   42.5780    1.5080 C   0  0  0  0  0
   29.3090   41.6960    1.0440 C   0  0  0  0  0
   28.0700   42.2110    0.5890 C   0  0  0  0  0
   27.8380   43.6310    0.5820 C   0  0  0  0  0
   28.8950   44.5180    1.0300 C   0  0  0  0  0
   26.5780   44.0580    0.2130 N   0  0  0  0  0
   25.7940   45.1940    1.0460 S   0  0  0  0  0
   26.1490   46.8010    0.3190 C   0  0  0  0  0
   25.9560   43.5940   -1.0430 C   0  0  0  0  0
   31.3600   46.0200    1.5280 O   0  0  0  0  0
   26.3340   45.2180    2.3670 O   0  0  0  0  0
   24.4010   44.8890    0.8770 O   0  0  0  0  0
   34.1930   44.3400    3.8480 C   0  0  0  0  0
   31.4540   47.1260    8.8350 F   0  0  0  0  0
   31.4460   37.7650    2.7430 C   0  0  0  0  0
   31.4040   38.5060    4.0150 N   0  3  0  0  0
   30.9600   36.3270    2.9700 C   0  0  0  0  0
   32.8420   37.7650    2.1020 C   0  0  0  0  0
   34.4060   41.6550    0.8990 C   0  0  0  0  0
   33.6140   40.8970   -0.0570 C   0  0  0  0  0
   33.1030   39.6010    0.3350 C   0  0  0  0  0
   33.4030   39.1090    1.6870 C   0  0  0  0  0
   34.2080   39.8700    2.6390 C   0  0  0  0  0
   34.7130   41.1720    2.2390 C   0  0  0  0  0
   29.6650   38.1620    0.8410 N   0  0  0  0  0
   29.1190   39.2390    0.4160 N   0  0  0  0  0
   29.5970   40.2920    1.1370 C   0  0  0  0  0
   30.4020   39.7890    2.0290 O   0  0  0  0  0
   30.4790   38.4870    1.8630 C   0  0  0  0  0
   32.3098   43.5741    6.0635 H   0  0  0  0  0
   32.5563   47.7302    4.4516 H   0  0  0  0  0
   31.9198   48.6550    6.7566 H   0  0  0  0  0
   31.6250   44.5246    8.3475 H   0  0  0  0  0
   33.1035   46.1171    3.2269 H   0  0  0  0  0
   31.6247   43.5320    3.4760 H   0  0  0  0  0
   31.2742   42.1634    1.8611 H   0  0  0  0  0
   27.2915   41.5306    0.2438 H   0  0  0  0  0
   28.7423   45.5967    0.9948 H   0  0  0  0  0
   25.6793   47.5811    0.9181 H   0  0  0  0  0
   27.2274   46.9580    0.2966 H   0  0  0  0  0
   25.7546   46.8340   -0.6966 H   0  0  0  0  0
   24.9742   43.1727   -0.8268 H   0  0  0  0  0
   25.8488   44.4362   -1.7266 H   0  0  0  0  0
   26.5873   42.8318   -1.4996 H   0  0  0  0  0
   33.9869   43.4208    4.3963 H   0  0  0  0  0
   34.5099   44.0964    2.8339 H   0  0  0  0  0
   34.9825   44.8965    4.3530 H   0  0  0  0  0
   31.7274   39.4611    3.8615 H   0  0  0  0  0
   30.4465   38.5222    4.3662 H   0  0  0  0  0
   32.0091   38.0460    4.6952 H   0  0  0  0  0
   31.6069   35.8368    3.6975 H   0  0  0  0  0
   29.9370   36.3456    3.3459 H   0  0  0  0  0
   30.9921   35.7809    2.0272 H   0  0  0  0  0
   32.7501   37.1830    1.1849 H   0  0  0  0  0
   33.5206   37.3796    2.8629 H   0  0  0  0  0
   34.7880   42.6307    0.5987 H   0  0  0  0  0
   33.4093   41.2975   -1.0499 H   0  0  0  0  0
   32.5092   39.0034   -0.3567 H   0  0  0  0  0
   34.4253   39.4692    3.6291 H   0  0  0  0  0
   35.3081   41.7740    2.9257 H   0  0  0  0  0
  2  1  4  0  0  0
  1  6  4  0  0  0
  2  3  4  0  0  0
  7  2  1  0  0  0
  3  4  4  0  0  0
  4  5  4  0  0  0
  6  5  4  0  0  0
  5 24  1  0  0  0
  8  7  1  0  0  0
  7 23  1  0  0  0
  9  8  1  0  0  0
 10  9  1  0  0  0
  9 20  2  0  0  0
 11 10  4  0  0  0
 10 15  4  0  0  0
 12 11  4  0  0  0
 12 13  4  0  0  0
 37 12  1  0  0  0
 13 14  4  0  0  0
 14 15  4  0  0  0
 14 16  1  0  0  0
 16 17  1  0  0  0
 16 19  1  0  0  0
 17 18  1  0  0  0
 17 21  2  0  0  0
 17 22  2  0  0  0
 25 26  1  0  0  0
 25 27  1  0  0  0
 25 28  1  0  0  0
 39 25  1  0  0  0
 28 32  1  0  0  0
 30 29  4  0  0  0
 34 29  4  0  0  0
 31 30  4  0  0  0
 32 31  4  0  0  0
 32 33  4  0  0  0
 33 34  4  0  0  0
 36 35  4  0  0  0
 35 39  4  0  0  0
 36 37  4  0  0  0
 37 38  4  0  0  0
 38 39  4  0  0  0
  1 40  1  0  0  0
  3 41  1  0  0  0
  4 42  1  0  0  0
  6 43  1  0  0  0
  7 44  1  0  0  0
  8 45  1  0  0  0
 11 46  1  0  0  0
 13 47  1  0  0  0
 15 48  1  0  0  0
 18 49  1  0  0  0
 18 50  1  0  0  0
 18 51  1  0  0  0
 19 52  1  0  0  0
 19 53  1  0  0  0
 19 54  1  0  0  0
 23 55  1  0  0  0
 23 56  1  0  0  0
 23 57  1  0  0  0
 26 58  1  0  0  0
 26 59  1  0  0  0
 26 60  1  0  0  0
 27 61  1  0  0  0
 27 62  1  0  0  0
 27 63  1  0  0  0
 28 64  1  0  0  0
 28 65  1  0  0  0
 29 66  1  0  0  0
 30 67  1  0  0  0
 31 68  1  0  0  0
 33 69  1  0  0  0
 34 70  1  0  0  0
M  END
$$$$
