5a5r_ligand
  -I-interpret- 

 51 54  0  0  0  0  0  0  0  0999 V2000
  -29.2160   50.9000    6.5020 C   0  0  0  0  0
  -29.4990   49.7480    7.2950 O   0  0  0  0  0
  -28.6140   49.4210    8.2970 C   0  0  0  0  0
  -27.5160   50.1930    8.6400 C   0  0  0  0  0
  -26.6720   49.8490    9.6190 N   0  0  0  0  0
  -26.9160   48.7140   10.2840 C   0  0  0  0  0
  -27.9730   47.8540   10.0060 C   0  0  0  0  0
  -28.8460   48.2460    8.9950 C   0  0  0  0  0
  -28.1900   46.6140   10.8060 C   0  0  0  0  0
  -29.4040   46.3940   11.4320 C   0  0  0  0  0
  -29.6980   45.3370   12.2010 N   0  0  0  0  0
  -28.7650   44.3910   12.4250 C   0  0  0  0  0
  -29.1190   43.3460   13.2030 N   0  0  0  0  0
  -30.3830   43.2540   13.9310 C   0  0  0  0  0
  -31.3300   42.3090   13.2110 C   0  0  0  0  0
  -32.5760   42.0340   14.0240 C   0  0  0  0  0
  -32.2060   41.4940   15.3370 N   0  3  0  0  0
  -31.4090   42.4650   16.0970 C   0  0  0  0  0
  -30.1290   42.7810   15.3510 C   0  0  0  0  0
  -27.4850   44.5510   11.8190 C   0  0  0  0  0
  -26.5190   43.5860   12.0370 N   0  0  0  0  0
  -25.2650   43.6100   11.5310 C   0  0  0  0  0
  -24.4960   42.6880   11.8010 O   0  0  0  0  0
  -24.9280   44.7490   10.6880 C   0  0  0  0  0
  -23.5500   44.8290   10.0930 C   0  0  0  0  0
  -25.8590   45.7110   10.4560 C   0  0  0  0  0
  -27.1850   45.6560   11.0210 C   0  0  0  0  0
  -29.1752   51.7802    7.1437 H   0  0  0  0  0
  -28.2564   50.7685    6.0020 H   0  0  0  0  0
  -30.0009   51.0282    5.7567 H   0  0  0  0  0
  -27.3328   51.1165    8.0908 H   0  0  0  0  0
  -26.2418   48.4456   11.0974 H   0  0  0  0  0
  -29.7115   47.6294    8.7524 H   0  0  0  0  0
  -30.1845   47.1411   11.2879 H   0  0  0  0  0
  -28.4619   42.5706   13.2882 H   0  0  0  0  0
  -30.8460   44.2399   13.9725 H   0  0  0  0  0
  -30.8121   41.3639   13.0478 H   0  0  0  0  0
  -31.6296   42.7743   12.2719 H   0  0  0  0  0
  -33.1956   41.3077   13.4980 H   0  0  0  0  0
  -33.1290   42.9634   14.1602 H   0  0  0  0  0
  -31.6506   40.6495   15.1998 H   0  0  0  0  0
  -33.0578   41.2885   15.8591 H   0  0  0  0  0
  -31.1617   42.0423   17.0708 H   0  0  0  0  0
  -31.9856   43.3812   16.2242 H   0  0  0  0  0
  -29.6183   43.5821   15.8853 H   0  0  0  0  0
  -29.5364   41.8676   15.2995 H   0  0  0  0  0
  -26.7723   42.7929   12.6263 H   0  0  0  0  0
  -23.6255   44.8452    9.0057 H   0  0  0  0  0
  -23.0589   45.7389   10.4380 H   0  0  0  0  0
  -22.9698   43.9607   10.4053 H   0  0  0  0  0
  -25.5941   46.5553    9.8196 H   0  0  0  0  0
  1  2  1  0  0  0
  2  3  1  0  0  0
  3  4  4  0  0  0
  3  8  4  0  0  0
  4  5  4  0  0  0
  5  6  4  0  0  0
  6  7  4  0  0  0
  7  8  4  0  0  0
  7  9  1  0  0  0
  9 10  4  0  0  0
  9 27  4  0  0  0
 10 11  4  0  0  0
 11 12  4  0  0  0
 12 13  1  0  0  0
 12 20  4  0  0  0
 13 14  1  0  0  0
 14 15  1  0  0  0
 14 19  1  0  0  0
 15 16  1  0  0  0
 16 17  1  0  0  0
 17 18  1  0  0  0
 18 19  1  0  0  0
 20 21  1  0  0  0
 20 27  4  0  0  0
 21 22  1  0  0  0
 22 23  2  0  0  0
 22 24  1  0  0  0
 24 25  1  0  0  0
 24 26  2  0  0  0
 26 27  1  0  0  0
  1 28  1  0  0  0
  1 29  1  0  0  0
  1 30  1  0  0  0
  4 31  1  0  0  0
  6 32  1  0  0  0
  8 33  1  0  0  0
 10 34  1  0  0  0
 13 35  1  0  0  0
 14 36  1  0  0  0
 15 37  1  0  0  0
 15 38  1  0  0  0
 16 39  1  0  0  0
 16 40  1  0  0  0
 17 41  1  0  0  0
 17 42  1  0  0  0
 18 43  1  0  0  0
 18 44  1  0  0  0
 19 45  1  0  0  0
 19 46  1  0  0  0
 21 47  1  0  0  0
 25 48  1  0  0  0
 25 49  1  0  0  0
 25 50  1  0  0  0
 26 51  1  0  0  0
M  END
$$$$
