4i74_ligand
  -I-interpret- 

 36 38  0  0  0  0  0  0  0  0999 V2000
  -28.4290  -19.6740  -23.7730 O   0  0  0  0  0
  -27.2810  -19.2370  -23.5340 C   0  0  0  0  0
  -26.6050  -18.4800  -24.4410 N   0  0  0  0  0
  -25.3670  -17.9900  -24.2340 C   0  0  0  0  0
  -24.7040  -18.2200  -23.0990 N   0  0  0  0  0
  -25.2730  -18.9550  -22.1280 C   0  0  0  0  0
  -26.6020  -19.5350  -22.2600 C   0  0  0  0  0
  -24.6920  -19.3350  -20.8020 C   0  0  0  0  0
  -25.5670  -20.1310  -20.0360 C   0  0  0  0  0
  -27.0450  -20.4310  -20.8940 S   0  0  0  0  0
  -23.2960  -18.9060  -20.3850 C   0  0  0  0  0
  -23.1030  -17.5250  -19.8790 N   0  3  0  0  0
  -23.0940  -17.4350  -18.4050 C   0  0  0  0  0
  -24.2460  -18.2070  -17.7240 C   0  0  0  0  0
  -23.9150  -19.5720  -17.3300 O   0  0  0  0  0
  -23.1810  -15.9060  -18.1960 C   0  0  0  0  0
  -21.9060  -15.3940  -17.7400 O   0  0  0  0  0
  -23.6640  -15.2930  -19.4960 C   0  0  0  0  0
  -22.6460  -14.5290  -20.1460 O   0  0  0  0  0
  -24.0090  -16.4730  -20.3830 C   0  0  0  0  0
  -27.0620  -18.2716  -25.3287 H   0  0  0  0  0
  -24.8954  -17.3909  -25.0130 H   0  0  0  0  0
  -25.3449  -20.5080  -19.0377 H   0  0  0  0  0
  -22.6964  -18.9636  -21.2934 H   0  0  0  0  0
  -23.0356  -19.5553  -19.5491 H   0  0  0  0  0
  -22.1830  -17.3281  -20.2730 H   0  0  0  0  0
  -22.2197  -17.8987  -17.9483 H   0  0  0  0  0
  -25.0563  -18.2737  -18.4500 H   0  0  0  0  0
  -24.4958  -17.6650  -16.8119 H   0  0  0  0  0
  -24.6801  -19.9791  -16.9170 H   0  0  0  0  0
  -23.8935  -15.6396  -17.4154 H   0  0  0  0  0
  -21.9705  -14.4446  -17.6133 H   0  0  0  0  0
  -24.4994  -14.6190  -19.3062 H   0  0  0  0  0
  -22.9949  -14.1613  -20.9613 H   0  0  0  0  0
  -25.0610  -16.7537  -20.3314 H   0  0  0  0  0
  -23.8737  -16.2644  -21.4443 H   0  0  0  0  0
  1  2  2  0  0  0
  2  3  1  0  0  0
  2  7  1  0  0  0
  3  4  1  0  0  0
  4  5  2  0  0  0
  5  6  1  0  0  0
  6  7  4  0  0  0
  6  8  4  0  0  0
  7 10  4  0  0  0
  8  9  4  0  0  0
  8 11  1  0  0  0
  9 10  4  0  0  0
 11 12  1  0  0  0
 12 13  1  0  0  0
 12 20  1  0  0  0
 13 14  1  0  0  0
 13 16  1  0  0  0
 14 15  1  0  0  0
 16 17  1  0  0  0
 16 18  1  0  0  0
 18 19  1  0  0  0
 18 20  1  0  0  0
  3 21  1  0  0  0
  4 22  1  0  0  0
  9 23  1  0  0  0
 11 24  1  0  0  0
 11 25  1  0  0  0
 12 26  1  0  0  0
 13 27  1  0  0  0
 14 28  1  0  0  0
 14 29  1  0  0  0
 15 30  1  0  0  0
 16 31  1  0  0  0
 17 32  1  0  0  0
 18 33  1  0  0  0
 19 34  1  0  0  0
 20 35  1  0  0  0
 20 36  1  0  0  0
M  END
$$$$
