5wa1_ligand
  -I-interpret- 

207208  0  0  0  0  0  0  0  0999 V2000
  -22.1640   15.0250   -0.2140 N   0  3  0  0  0
  -22.2810   14.8490    1.2240 C   0  0  0  0  0
  -23.6270   15.3110    1.6980 C   0  0  0  0  0
  -24.4650   14.4950    2.0230 O   0  0  0  0  0
  -21.1990   15.6180    1.9670 C   0  0  0  0  0
  -19.7980   15.0810    1.7260 C   0  0  0  0  0
  -18.7150   15.8960    2.4130 C   0  0  0  0  0
  -19.0320   16.9840    2.9190 O   0  0  0  0  0
  -17.5530   15.4550    2.4390 O   0  0  0  0  0
  -23.8140   16.6210    1.7760 N   0  0  0  0  0
  -25.0830   17.1760    2.2020 C   0  0  0  0  0
  -26.1870   16.6200    1.3420 C   0  0  0  0  0
  -27.2100   16.2200    1.8560 O   0  0  0  0  0
  -25.0880   18.6880    2.1320 C   0  0  0  0  0
  -26.3640   19.2810    2.6710 C   0  0  0  0  0
  -27.2660   18.5030    3.0030 O   0  0  0  0  0
  -26.4650   20.5150    2.7720 O   0  0  0  0  0
  -25.9890   16.5240    0.0370 N   0  0  0  0  0
  -27.1130   15.9380   -0.6840 C   0  0  0  0  0
  -27.2130   14.4340   -0.4750 C   0  0  0  0  0
  -28.3130   13.8730   -0.5670 O   0  0  0  0  0
  -27.0090   16.2500   -2.1770 C   0  0  0  0  0
  -28.2520   15.8310   -2.9360 C   0  0  0  0  0
  -28.3200   14.6620   -3.3710 O   0  0  0  0  0
  -29.1690   16.6690   -3.0830 O   0  0  0  0  0
  -26.0890   13.7640   -0.2110 N   0  0  0  0  0
  -26.1410   12.3440    0.1160 C   0  0  0  0  0
  -26.9610   12.1000    1.3750 C   0  0  0  0  0
  -27.6570   11.0840    1.4760 O   0  0  0  0  0
  -24.7260   11.7960    0.2830 C   0  0  0  0  0
  -23.8280   12.1550   -0.8830 C   0  0  0  0  0
  -24.3390   12.2280   -2.0220 O   0  0  0  0  0
  -22.6210   12.3750   -0.6620 O   0  0  0  0  0
  -26.8970   13.0220    2.3370 N   0  0  0  0  0
  -27.7280   12.9170    3.5330 C   0  0  0  0  0
  -29.1900   13.1610    3.1860 C   0  0  0  0  0
  -30.0900   12.5180    3.7420 O   0  0  0  0  0
  -27.2260   13.8940    4.6160 C   0  0  0  0  0
  -25.8100   13.5130    5.0660 C   0  0  0  0  0
  -28.1660   13.9170    5.8040 C   0  0  0  0  0
  -25.2420   14.4090    6.1560 C   0  0  0  0  0
  -29.4550   14.0760    2.2500 N   0  0  0  0  0
  -30.8360   14.3730    1.8810 C   0  0  0  0  0
  -31.4950   13.1890    1.1840 C   0  0  0  0  0
  -32.6790   12.9100    1.4090 O   0  0  0  0  0
  -30.8850   15.6250    1.0020 C   0  0  0  0  0
  -30.4820   16.8980    1.7390 C   0  0  0  0  0
  -30.5180   18.1150    0.8330 C   0  0  0  0  0
  -30.1390   19.3720    1.5890 C   0  0  0  0  0
  -30.1540   20.5570    0.6870 N   0  3  0  0  0
  -30.7430   12.4670    0.3470 N   0  0  0  0  0
  -31.3080   11.3080   -0.3350 C   0  0  0  0  0
  -31.5460   10.1600    0.6360 C   0  0  0  0  0
  -32.5280    9.4180    0.5060 O   0  0  0  0  0
  -30.3900   10.8660   -1.4760 C   0  0  0  0  0
  -30.0990   11.9580   -2.4990 C   0  0  0  0  0
  -31.3490   12.4710   -3.1910 C   0  0  0  0  0
  -32.3720   11.7840   -3.2440 O   0  0  0  0  0
  -31.2710   13.6830   -3.7260 N   0  0  0  0  0
  -30.6570    9.9970    1.6150 N   0  0  0  0  0
  -30.8690    8.9950    2.6490 C   0  0  0  0  0
  -32.0650    9.3450    3.5280 C   0  0  0  0  0
  -32.7850    8.4490    3.9860 O   0  0  0  0  0
  -29.5850    8.8540    3.4770 C   0  0  0  0  0
  -29.4670    7.7890    4.5600 C   0  0  0  0  0
  -29.9060    6.4350    4.0480 C   0  0  0  0  0
  -28.0190    7.7380    5.0540 C   0  0  0  0  0
  -32.3100   10.6380    3.7550 N   0  0  0  0  0
  -33.4480   11.0440    4.5710 C   0  0  0  0  0
  -34.7720   10.7670    3.8700 C   0  0  0  0  0
  -35.7570   10.3990    4.5190 O   0  0  0  0  0
  -33.3350   12.5260    4.9300 C   0  0  0  0  0
  -34.8170   10.9340    2.5470 N   0  0  0  0  0
  -36.0270   10.7400    1.7530 C   0  0  0  0  0
  -36.3250    9.2700    1.4660 C   0  0  0  0  0
  -37.1440    8.9760    0.5870 O   0  0  0  0  0
  -35.9150   11.5150    0.4350 C   0  0  0  0  0
  -35.6920    8.3490    2.1920 N   0  0  0  0  0
  -35.7910    6.9190    1.9280 C   0  0  0  0  0
  -37.0120    6.2760    2.5830 C   0  0  0  0  0
  -37.6920    5.4600    1.9500 O   0  0  0  0  0
  -34.5020    6.2400    2.3970 C   0  0  0  0  0
  -34.4930    4.7410    2.4510 C   0  0  0  0  0
  -34.7090    3.8740    1.4190 C   0  0  0  0  0
  -34.1790    3.9330    3.5950 C   0  0  0  0  0
  -34.5780    2.5750    1.8560 N   0  0  0  0  0
  -34.2530    2.5860    3.1900 C   0  0  0  0  0
  -33.8580    4.2220    4.9270 C   0  0  0  0  0
  -34.0100    1.5300    4.0670 C   0  0  0  0  0
  -33.6230    3.1720    5.7960 C   0  0  0  0  0
  -33.7000    1.8430    5.3620 C   0  0  0  0  0
  -37.3190    6.6300    3.8340 N   0  0  0  0  0
  -38.4480    6.0290    4.5490 C   0  0  0  0  0
  -39.7500    6.5620    3.9560 C   0  0  0  0  0
  -40.4200    7.4400    4.5070 O   0  0  0  0  0
  -38.3590    6.3080    6.0470 C   0  0  0  0  0
  -38.0630    7.6920    6.2680 O   0  0  0  0  0
  -37.2790    5.4460    6.6860 C   0  0  0  0  0
  -40.1160    6.0060    2.8040 N   0  0  0  0  0
  -41.3410    6.3890    2.1110 C   0  0  0  0  0
  -42.1610    5.1560    1.7370 C   0  0  0  0  0
  -42.1120    4.1330    2.4240 O   0  0  0  0  0
  -41.0410    7.2090    0.8370 C   0  0  0  0  0
  -40.0640    6.5290    0.0400 O   0  0  0  0  0
  -40.5230    8.5940    1.1990 C   0  0  0  0  0
  -42.8840    5.1590    0.7410 O   0  0  0  0  0
  -22.9020   14.4981   -0.6810 H   0  0  0  0  0
  -22.2546   16.0149   -0.4427 H   0  0  0  0  0
  -21.2536   14.6851   -0.5240 H   0  0  0  0  0
  -22.1609   13.7862    1.4343 H   0  0  0  0  0
  -21.4058   15.5260    3.0332 H   0  0  0  0  0
  -21.2219   16.6462    1.6060 H   0  0  0  0  0
  -19.6099   15.1215    0.6531 H   0  0  0  0  0
  -19.7580   14.0707    2.1332 H   0  0  0  0  0
  -17.5247   14.6046    1.9944 H   0  0  0  0  0
  -23.0497   17.2506    1.5314 H   0  0  0  0  0
  -25.2421   16.8942    3.2429 H   0  0  0  0  0
  -24.9957   18.9785    1.0855 H   0  0  0  0  0
  -24.2609   19.0574    2.7382 H   0  0  0  0  0
  -25.6561   20.9277    2.4605 H   0  0  0  0  0
  -25.1310   16.8310   -0.4213 H   0  0  0  0  0
  -28.0202   16.3868   -0.2794 H   0  0  0  0  0
  -26.1615   15.6965   -2.5814 H   0  0  0  0  0
  -26.8883   17.3273   -2.2912 H   0  0  0  0  0
  -28.9112   17.4987   -2.6747 H   0  0  0  0  0
  -25.1910   14.2469   -0.2381 H   0  0  0  0  0
  -26.6298   11.8198   -0.7052 H   0  0  0  0  0
  -24.7890   10.7093    0.3387 H   0  0  0  0  0
  -24.2988   12.2332    1.1855 H   0  0  0  0  0
  -25.2748   12.0212   -1.9655 H   0  0  0  0  0
  -26.2588   13.8112    2.2357 H   0  0  0  0  0
  -27.6512   11.9070    3.9355 H   0  0  0  0  0
  -27.1998   14.8939    4.1828 H   0  0  0  0  0
  -25.1588   13.6098    4.1973 H   0  0  0  0  0
  -25.8620   12.5033    5.4734 H   0  0  0  0  0
  -29.1556   14.2355    5.4765 H   0  0  0  0  0
  -28.2287   12.9180    6.2354 H   0  0  0  0  0
  -27.7875   14.6140    6.5517 H   0  0  0  0  0
  -25.1986   15.4363    5.7942 H   0  0  0  0  0
  -25.8830   14.3593    7.0362 H   0  0  0  0  0
  -24.2388   14.0713    6.4161 H   0  0  0  0  0
  -28.6893   14.5694    1.7910 H   0  0  0  0  0
  -31.4002   14.5634    2.7940 H   0  0  0  0  0
  -31.9144   15.7512    0.6667 H   0  0  0  0  0
  -30.1785   15.4807    0.1846 H   0  0  0  0  0
  -29.4618   16.7733    2.1019 H   0  0  0  0  0
  -31.1883   17.0584    2.5535 H   0  0  0  0  0
  -31.5310   18.2325    0.4482 H   0  0  0  0  0
  -29.8035   17.9672    0.0232 H   0  0  0  0  0
  -29.1336   19.2499    1.9919 H   0  0  0  0  0
  -30.8608   19.5312    2.3901 H   0  0  0  0  0
  -29.8962   21.3895    1.2170 H   0  0  0  0  0
  -29.4861   20.4145   -0.0707 H   0  0  0  0  0
  -31.0899   20.6757    0.2991 H   0  0  0  0  0
  -29.7703   12.7277    0.1847 H   0  0  0  0  0
  -32.2728   11.5964   -0.7523 H   0  0  0  0  0
  -30.8966   10.0573   -2.0027 H   0  0  0  0  0
  -29.4374   10.5789   -1.0308 H   0  0  0  0  0
  -29.4477   11.5326   -3.2625 H   0  0  0  0  0
  -29.6447   12.7959   -1.9701 H   0  0  0  0  0
  -32.0783   14.0819   -4.2052 H   0  0  0  0  0
  -30.4038   14.2157   -3.6580 H   0  0  0  0  0
  -29.8203   10.5798    1.6400 H   0  0  0  0  0
  -31.0985    8.0385    2.1794 H   0  0  0  0  0
  -29.5155    9.7956    4.0217 H   0  0  0  0  0
  -28.8267    8.5742    2.7457 H   0  0  0  0  0
  -30.1259    8.0504    5.3880 H   0  0  0  0  0
  -30.9458    6.4895    3.7257 H   0  0  0  0  0
  -29.2779    6.1454    3.2056 H   0  0  0  0  0
  -29.8095    5.6978    4.8451 H   0  0  0  0  0
  -27.3608    7.4904    4.2212 H   0  0  0  0  0
  -27.7411    8.7099    5.4618 H   0  0  0  0  0
  -27.9276    6.9775    5.8295 H   0  0  0  0  0
  -31.6961   11.3472    3.3543 H   0  0  0  0  0
  -33.4310   10.4511    5.4855 H   0  0  0  0  0
  -32.4148   12.6938    5.4896 H   0  0  0  0  0
  -33.3194   13.1198    4.0160 H   0  0  0  0  0
  -34.1905   12.8172    5.5394 H   0  0  0  0  0
  -33.9618   11.2116    2.0653 H   0  0  0  0  0
  -36.8583   11.1215    2.3459 H   0  0  0  0  0
  -35.7904   12.5766    0.6487 H   0  0  0  0  0
  -35.0537   11.1525   -0.1261 H   0  0  0  0  0
  -36.8215   11.3650   -0.1514 H   0  0  0  0  0
  -35.1101    8.6598    2.9700 H   0  0  0  0  0
  -35.9208    6.7825    0.8544 H   0  0  0  0  0
  -34.3505    6.5727    3.4239 H   0  0  0  0  0
  -33.7420    6.5130    1.6649 H   0  0  0  0  0
  -34.9502    4.1675    0.3973 H   0  0  0  0  0
  -33.7946    5.2540    5.2721 H   0  0  0  0  0
  -34.0650    0.4938    3.7333 H   0  0  0  0  0
  -33.3737    3.3826    6.8360 H   0  0  0  0  0
  -33.5084    1.0390    6.0727 H   0  0  0  0  0
  -36.7530    7.3368    4.3035 H   0  0  0  0  0
  -38.4204    4.9461    4.4282 H   0  0  0  0  0
  -39.3188    6.0650    6.5029 H   0  0  0  0  0
  -38.0086    7.8597    7.2117 H   0  0  0  0  0
  -37.5190    4.3936    6.5346 H   0  0  0  0  0
  -36.3169    5.6705    6.2254 H   0  0  0  0  0
  -37.2305    5.6590    7.7539 H   0  0  0  0  0
  -39.5202    5.2881    2.3917 H   0  0  0  0  0
  -41.9150    7.0113    2.7976 H   0  0  0  0  0
  -41.5139    4.2727    3.1618 H   0  0  0  0  0
  -41.9664    7.3161    0.2711 H   0  0  0  0  0
  -39.8824    7.0438   -0.7497 H   0  0  0  0  0
  -41.2748    9.1192    1.7881 H   0  0  0  0  0
  -39.6063    8.4971    1.7807 H   0  0  0  0  0
  -40.3183    9.1539    0.2865 H   0  0  0  0  0
  1  2  1  0  0  0
  2  3  1  0  0  0
  2  5  1  0  0  0
  3  4  2  0  0  0
  3 10  1  0  0  0
  5  6  1  0  0  0
  6  7  1  0  0  0
  7  8  2  0  0  0
  7  9  1  0  0  0
 10 11  1  0  0  0
 11 12  1  0  0  0
 11 14  1  0  0  0
 12 13  2  0  0  0
 12 18  1  0  0  0
 14 15  1  0  0  0
 15 16  2  0  0  0
 15 17  1  0  0  0
 18 19  1  0  0  0
 19 20  1  0  0  0
 19 22  1  0  0  0
 20 21  2  0  0  0
 20 26  1  0  0  0
 22 23  1  0  0  0
 23 24  2  0  0  0
 23 25  1  0  0  0
 26 27  1  0  0  0
 27 28  1  0  0  0
 27 30  1  0  0  0
 28 29  2  0  0  0
 28 34  1  0  0  0
 30 31  1  0  0  0
 31 32  1  0  0  0
 31 33  2  0  0  0
 34 35  1  0  0  0
 35 36  1  0  0  0
 35 38  1  0  0  0
 36 37  2  0  0  0
 36 42  1  0  0  0
 38 39  1  0  0  0
 38 40  1  0  0  0
 39 41  1  0  0  0
 42 43  1  0  0  0
 43 44  1  0  0  0
 43 46  1  0  0  0
 44 45  2  0  0  0
 44 51  1  0  0  0
 46 47  1  0  0  0
 47 48  1  0  0  0
 48 49  1  0  0  0
 49 50  1  0  0  0
 51 52  1  0  0  0
 52 53  1  0  0  0
 52 55  1  0  0  0
 53 54  2  0  0  0
 53 60  1  0  0  0
 55 56  1  0  0  0
 56 57  1  0  0  0
 57 58  2  0  0  0
 57 59  1  0  0  0
 60 61  1  0  0  0
 61 62  1  0  0  0
 61 64  1  0  0  0
 62 63  2  0  0  0
 62 68  1  0  0  0
 64 65  1  0  0  0
 65 66  1  0  0  0
 65 67  1  0  0  0
 68 69  1  0  0  0
 69 70  1  0  0  0
 69 72  1  0  0  0
 70 71  2  0  0  0
 70 73  1  0  0  0
 73 74  1  0  0  0
 74 75  1  0  0  0
 74 77  1  0  0  0
 75 76  2  0  0  0
 75 78  1  0  0  0
 78 79  1  0  0  0
 79 80  1  0  0  0
 79 82  1  0  0  0
 80 81  2  0  0  0
 80 92  1  0  0  0
 82 83  1  0  0  0
 83 84  4  0  0  0
 83 85  4  0  0  0
 84 86  4  0  0  0
 85 87  4  0  0  0
 85 88  4  0  0  0
 86 87  4  0  0  0
 87 89  4  0  0  0
 88 90  4  0  0  0
 89 91  4  0  0  0
 90 91  4  0  0  0
 92 93  1  0  0  0
 93 94  1  0  0  0
 93 96  1  0  0  0
 94 95  2  0  0  0
 94 99  1  0  0  0
 96 97  1  0  0  0
 96 98  1  0  0  0
 99100  1  0  0  0
100101  1  0  0  0
100103  1  0  0  0
101102  1  0  0  0
101106  2  0  0  0
103104  1  0  0  0
103105  1  0  0  0
  1107  1  0  0  0
  1108  1  0  0  0
  1109  1  0  0  0
  2110  1  0  0  0
  5111  1  0  0  0
  5112  1  0  0  0
  6113  1  0  0  0
  6114  1  0  0  0
  9115  1  0  0  0
 10116  1  0  0  0
 11117  1  0  0  0
 14118  1  0  0  0
 14119  1  0  0  0
 17120  1  0  0  0
 18121  1  0  0  0
 19122  1  0  0  0
 22123  1  0  0  0
 22124  1  0  0  0
 25125  1  0  0  0
 26126  1  0  0  0
 27127  1  0  0  0
 30128  1  0  0  0
 30129  1  0  0  0
 32130  1  0  0  0
 34131  1  0  0  0
 35132  1  0  0  0
 38133  1  0  0  0
 39134  1  0  0  0
 39135  1  0  0  0
 40136  1  0  0  0
 40137  1  0  0  0
 40138  1  0  0  0
 41139  1  0  0  0
 41140  1  0  0  0
 41141  1  0  0  0
 42142  1  0  0  0
 43143  1  0  0  0
 46144  1  0  0  0
 46145  1  0  0  0
 47146  1  0  0  0
 47147  1  0  0  0
 48148  1  0  0  0
 48149  1  0  0  0
 49150  1  0  0  0
 49151  1  0  0  0
 50152  1  0  0  0
 50153  1  0  0  0
 50154  1  0  0  0
 51155  1  0  0  0
 52156  1  0  0  0
 55157  1  0  0  0
 55158  1  0  0  0
 56159  1  0  0  0
 56160  1  0  0  0
 59161  1  0  0  0
 59162  1  0  0  0
 60163  1  0  0  0
 61164  1  0  0  0
 64165  1  0  0  0
 64166  1  0  0  0
 65167  1  0  0  0
 66168  1  0  0  0
 66169  1  0  0  0
 66170  1  0  0  0
 67171  1  0  0  0
 67172  1  0  0  0
 67173  1  0  0  0
 68174  1  0  0  0
 69175  1  0  0  0
 72176  1  0  0  0
 72177  1  0  0  0
 72178  1  0  0  0
 73179  1  0  0  0
 74180  1  0  0  0
 77181  1  0  0  0
 77182  1  0  0  0
 77183  1  0  0  0
 78184  1  0  0  0
 79185  1  0  0  0
 82186  1  0  0  0
 82187  1  0  0  0
 84188  1  0  0  0
 88189  1  0  0  0
 89190  1  0  0  0
 90191  1  0  0  0
 91192  1  0  0  0
 92193  1  0  0  0
 93194  1  0  0  0
 96195  1  0  0  0
 97196  1  0  0  0
 98197  1  0  0  0
 98198  1  0  0  0
 98199  1  0  0  0
 99200  1  0  0  0
100201  1  0  0  0
102202  1  0  0  0
103203  1  0  0  0
104204  1  0  0  0
105205  1  0  0  0
105206  1  0  0  0
105207  1  0  0  0
M  END
$$$$
