### 
### Created by X-TOOL on Wed Jan  1 15:39:37 2020
### 

@<TRIPOS>MOLECULE
5wa1_ligand
  203   204     1     0     0
SMALL
GAST_HUCK


@<TRIPOS>ATOM
      1 N         -22.1640   15.0250   -0.2140 N.4       1 GLU         0.2380
      2 CA        -22.2810   14.8490    1.2240 C.3       1 GLU         0.0665
      3 C         -23.6270   15.3110    1.6980 C.2       1 GLU         0.2269
      4 O         -24.4650   14.4950    2.0230 O.2       1 GLU        -0.3907
      5 CB        -21.1990   15.6180    1.9670 C.3       1 GLU         0.0194
      6 CG        -19.7980   15.0810    1.7260 C.3       1 GLU         0.0075
      7 CD        -18.7150   15.8960    2.4130 C.2       1 GLU         0.0351
      8 OE1       -19.0320   16.9840    2.9190 O.co2     1 GLU        -0.5690
      9 OE2       -17.5530   15.4550    2.4390 O.co2     1 GLU        -0.5690
     10 N         -23.8140   16.6210    1.7760 N.am      1 ASP        -0.2595
     11 CA        -25.0830   17.1760    2.2020 C.3       1 ASP         0.1424
     12 C         -26.1870   16.6200    1.3420 C.2       1 ASP         0.2057
     13 O         -27.2100   16.2200    1.8560 O.2       1 ASP        -0.3943
     14 CB        -25.0880   18.6880    2.1320 C.3       1 ASP         0.0406
     15 CG        -26.3640   19.2810    2.6710 C.2       1 ASP         0.0393
     16 OD1       -27.2660   18.5030    3.0030 O.co2     1 ASP        -0.5688
     17 OD2       -26.4650   20.5150    2.7720 O.co2     1 ASP        -0.5688
     18 N         -25.9890   16.5240    0.0370 N.am      1 ASP        -0.2621
     19 CA        -27.1130   15.9380   -0.6840 C.3       1 ASP         0.1423
     20 C         -27.2130   14.4340   -0.4750 C.2       1 ASP         0.2057
     21 O         -28.3130   13.8730   -0.5670 O.2       1 ASP        -0.3943
     22 CB        -27.0090   16.2500   -2.1770 C.3       1 ASP         0.0406
     23 CG        -28.2520   15.8310   -2.9360 C.2       1 ASP         0.0393
     24 OD1       -28.3200   14.6620   -3.3710 O.co2     1 ASP        -0.5688
     25 OD2       -29.1690   16.6690   -3.0830 O.co2     1 ASP        -0.5688
     26 N         -26.0890   13.7640   -0.2110 N.am      1 ASP        -0.2621
     27 CA        -26.1410   12.3440    0.1160 C.3       1 ASP         0.1423
     28 C         -26.9610   12.1000    1.3750 C.2       1 ASP         0.2056
     29 O         -27.6570   11.0840    1.4760 O.2       1 ASP        -0.3943
     30 CB        -24.7260   11.7960    0.2830 C.3       1 ASP         0.0406
     31 CG        -23.8280   12.1550   -0.8830 C.2       1 ASP         0.0393
     32 OD1       -24.3390   12.2280   -2.0220 O.co2     1 ASP        -0.5688
     33 OD2       -22.6210   12.3750   -0.6620 O.co2     1 ASP        -0.5688
     34 N         -26.8970   13.0220    2.3370 N.am      1 ILE        -0.2634
     35 CA        -27.7280   12.9170    3.5330 C.3       1 ILE         0.1335
     36 C         -29.1900   13.1610    3.1860 C.2       1 ILE         0.2042
     37 O         -30.0900   12.5180    3.7420 O.2       1 ILE        -0.3944
     38 CB        -27.2260   13.8940    4.6160 C.3       1 ILE        -0.0037
     39 CG1       -25.8100   13.5130    5.0660 C.3       1 ILE        -0.0491
     40 CG2       -28.1660   13.9170    5.8040 C.3       1 ILE        -0.0582
     41 CD1       -25.2420   14.4090    6.1560 C.3       1 ILE        -0.0648
     42 N         -29.4550   14.0760    2.2500 N.am      1 LYS        -0.2637
     43 CA        -30.8360   14.3730    1.8810 C.3       1 LYS         0.1310
     44 C         -31.4950   13.1890    1.1840 C.2       1 LYS         0.2039
     45 O         -32.6790   12.9100    1.4090 O.2       1 LYS        -0.3944
     46 CB        -30.8850   15.6250    1.0020 C.3       1 LYS        -0.0122
     47 CG        -30.4820   16.8980    1.7390 C.3       1 LYS        -0.0440
     48 CD        -30.5180   18.1150    0.8330 C.3       1 LYS        -0.0124
     49 CE        -30.1390   19.3720    1.5890 C.3       1 LYS        -0.0354
     50 NZ        -30.1540   20.5570    0.6870 N.4       1 LYS         0.2185
     51 N         -30.7430   12.4670    0.3470 N.am      1 GLN        -0.2636
     52 CA        -31.3080   11.3080   -0.3350 C.3       1 GLN         0.1330
     53 C         -31.5460   10.1600    0.6360 C.2       1 GLN         0.2040
     54 O         -32.5280    9.4180    0.5060 O.2       1 GLN        -0.3944
     55 CB        -30.3900   10.8660   -1.4760 C.3       1 GLN         0.0045
     56 CG        -30.0990   11.9580   -2.4990 C.3       1 GLN         0.0412
     57 CD        -31.3490   12.4710   -3.1910 C.2       1 GLN         0.1737
     58 OE1       -32.3720   11.7840   -3.2440 O.2       1 GLN        -0.3973
     59 NE2       -31.2710   13.6830   -3.7260 N.am      1 GLN        -0.3009
     60 N         -30.6570    9.9970    1.6150 N.am      1 LEU        -0.2637
     61 CA        -30.8690    8.9950    2.6490 C.3       1 LEU         0.1312
     62 C         -32.0650    9.3450    3.5280 C.2       1 LEU         0.2039
     63 O         -32.7850    8.4490    3.9860 O.2       1 LEU        -0.3944
     64 CB        -29.5850    8.8540    3.4770 C.3       1 LEU        -0.0101
     65 CG        -29.4670    7.7890    4.5600 C.3       1 LEU        -0.0425
     66 CD1       -29.9060    6.4350    4.0480 C.3       1 LEU        -0.0625
     67 CD2       -28.0190    7.7380    5.0540 C.3       1 LEU        -0.0625
     68 N         -32.3100   10.6380    3.7550 N.am      1 ALA        -0.2640
     69 CA        -33.4480   11.0440    4.5710 C.3       1 ALA         0.1282
     70 C         -34.7720   10.7670    3.8700 C.2       1 ALA         0.2036
     71 O         -35.7570   10.3990    4.5190 O.2       1 ALA        -0.3944
     72 CB        -33.3350   12.5260    4.9300 C.3       1 ALA        -0.0244
     73 N         -34.8170   10.9340    2.5470 N.am      1 ALA        -0.2640
     74 CA        -36.0270   10.7400    1.7530 C.3       1 ALA         0.1282
     75 C         -36.3250    9.2700    1.4660 C.2       1 ALA         0.2037
     76 O         -37.1440    8.9760    0.5870 O.2       1 ALA        -0.3944
     77 CB        -35.9150   11.5150    0.4350 C.3       1 ALA        -0.0244
     78 N         -35.6920    8.3490    2.1920 N.am      1 TRP        -0.2627
     79 CA        -35.7910    6.9190    1.9280 C.3       1 TRP         0.1352
     80 C         -37.0120    6.2760    2.5830 C.2       1 TRP         0.2052
     81 O         -37.6920    5.4600    1.9500 O.2       1 TRP        -0.3942
     82 CB        -34.5020    6.2400    2.3970 C.3       1 TRP         0.0042
     83 CG        -34.4930    4.7410    2.4510 C.2       1 TRP        -0.0418
     84 CD1       -34.7090    3.8740    1.4190 C.2       1 TRP         0.0167
     85 CD2       -34.1790    3.9330    3.5950 C.ar      1 TRP        -0.0214
     86 NE1       -34.5780    2.5750    1.8560 N.pl3     1 TRP        -0.2890
     87 CE2       -34.2530    2.5860    3.1900 C.ar      1 TRP         0.0603
     88 CE3       -33.8580    4.2220    4.9270 C.ar      1 TRP        -0.0747
     89 CZ2       -34.0100    1.5300    4.0670 C.ar      1 TRP        -0.0443
     90 CZ3       -33.6230    3.1720    5.7960 C.ar      1 TRP        -0.0792
     91 CH2       -33.7000    1.8430    5.3620 C.ar      1 TRP        -0.0768
     92 N         -37.3190    6.6300    3.8340 N.am      1 THR        -0.2612
     93 CA        -38.4480    6.0290    4.5490 C.3       1 THR         0.1564
     94 C         -39.7500    6.5620    3.9560 C.2       1 THR         0.2060
     95 O         -40.4200    7.4400    4.5070 O.2       1 THR        -0.3943
     96 CB        -38.3590    6.3080    6.0470 C.3       1 THR         0.0924
     97 OG1       -38.0630    7.6920    6.2680 O.3       1 THR        -0.3874
     98 CG2       -37.2790    5.4460    6.6860 C.3       1 THR        -0.0346
     99 N         -40.1160    6.0060    2.8040 N.am      1 THR        -0.2669
    100 CA        -41.3410    6.3890    2.1110 C.3       1 THR         0.1198
    101 C         -42.1610    5.1560    1.7370 C.2       1 THR         0.0626
    102 O         -42.1120    4.1330    2.4240 O.co2     1 THR        -0.5665
    103 CB        -41.0410    7.2090    0.8370 C.3       1 THR         0.0869
    104 OG1       -40.0640    6.5290    0.0400 O.3       1 THR        -0.3880
    105 CG2       -40.5230    8.5940    1.1990 C.3       1 THR        -0.0352
    106 OXT       -42.8840    5.1590    0.7410 O.co2     1 THR        -0.5665
    107 H1        -21.2558   14.7108   -0.5181 H         1 GLU         0.2015
    108 H2        -22.2764   16.0001   -0.4434 H         1 GLU         0.2015
    109 H3        -22.8786   14.4861   -0.6777 H         1 GLU         0.2015
    110 H4        -22.1717   13.7787    1.4530 H         1 GLU         0.1099
    111 H5        -21.4116   15.5641    3.0449 H         1 GLU         0.0363
    112 H6        -21.2305   16.6675    1.6391 H         1 GLU         0.0363
    113 H7        -19.6040   15.0852    0.6433 H         1 GLU         0.0434
    114 H8        -19.7501   14.0488    2.1031 H         1 GLU         0.0434
    115 H9        -23.0647   17.2383    1.5362 H         1 ASP         0.1886
    116 H10       -25.2609   16.8770    3.2455 H         1 ASP         0.0819
    117 H11       -24.9717   18.9939    1.0818 H         1 ASP         0.0478
    118 H12       -24.2426   19.0723    2.7216 H         1 ASP         0.0478
    119 H13       -25.1479   16.8250   -0.4123 H         1 ASP         0.1884
    120 H14       -28.0360   16.3957   -0.2986 H         1 ASP         0.0819
    121 H15       -26.1428   15.7137   -2.5918 H         1 ASP         0.0478
    122 H16       -26.8647   17.3331   -2.3036 H         1 ASP         0.0478
    123 H17       -25.2086   14.2374   -0.2376 H         1 ASP         0.1884
    124 H18       -26.6242   11.8137   -0.7179 H         1 ASP         0.0819
    125 H19       -24.7785   10.7003    0.3645 H         1 ASP         0.0478
    126 H20       -24.2922   12.2118    1.2044 H         1 ASP         0.0478
    127 H21       -26.2713   13.7957    2.2377 H         1 ILE         0.1883
    128 H22       -27.6382   11.8944    3.9282 H         1 ILE         0.0803
    129 H23       -27.1930   14.9040    4.1815 H         1 ILE         0.0345
    130 H24       -25.1437   13.5672    4.1924 H         1 ILE         0.0267
    131 H25       -25.8342   12.4808    5.4453 H         1 ILE         0.0267
    132 H26       -29.1764   14.1914    5.4668 H         1 ILE         0.0235
    133 H27       -27.8113   14.6555    6.5380 H         1 ILE         0.0235
    134 H28       -28.1928   12.9208    6.2697 H         1 ILE         0.0235
    135 H29       -24.2295   14.0692    6.4193 H         1 ILE         0.0230
    136 H30       -25.8880   14.3597    7.0449 H         1 ILE         0.0230
    137 H31       -25.1976   15.4461    5.7921 H         1 ILE         0.0230
    138 H32       -28.7044   14.5598    1.8000 H         1 LYS         0.1883
    139 H33       -31.3994   14.5786    2.8031 H         1 LYS         0.0800
    140 H34       -31.9121   15.7488    0.6282 H         1 LYS         0.0312
    141 H35       -30.2005   15.4821    0.1529 H         1 LYS         0.0312
    142 H36       -29.4604   16.7749    2.1279 H         1 LYS         0.0269
    143 H37       -31.1765   17.0583    2.5768 H         1 LYS         0.0269
    144 H38       -31.5345   18.2319    0.4293 H         1 LYS         0.0317
    145 H39       -29.8093   17.9670    0.0049 H         1 LYS         0.0317
    146 H40       -29.1291   19.2503    2.0076 H         1 LYS         0.0813
    147 H41       -30.8578   19.5318    2.4062 H         1 LYS         0.0813
    148 H42       -29.8994   21.3804    1.2098 H         1 LYS         0.1994
    149 H43       -31.0784   20.6754    0.3030 H         1 LYS         0.1994
    150 H44       -29.4943   20.4174   -0.0622 H         1 LYS         0.1994
    151 H45       -29.7894   12.7225    0.1879 H         1 GLN         0.1883
    152 H46       -32.2776   11.6004   -0.7643 H         1 GLN         0.0801
    153 H47       -30.8676   10.0231   -1.9969 H         1 GLN         0.0337
    154 H48       -29.4346   10.5353   -1.0425 H         1 GLN         0.0337
    155 H49       -29.4181   11.5517   -3.2614 H         1 GLN         0.0504
    156 H50       -29.6128   12.7999   -1.9844 H         1 GLN         0.0504
    157 H51       -32.0627   14.0743   -4.1952 H         1 GLN         0.1814
    158 H52       -30.4206   14.2049   -3.6600 H         1 GLN         0.1814
    159 H53       -29.8367   10.5684    1.6395 H         1 LEU         0.1883
    160 H54       -31.0767    8.0308    2.1621 H         1 LEU         0.0800
    161 H55       -29.4228    9.8231    3.9714 H         1 LEU         0.0315
    162 H56       -28.7702    8.6660    2.7624 H         1 LEU         0.0315
    163 H57       -30.1183    8.0686    5.4012 H         1 LEU         0.0298
    164 H58       -29.8091    5.6901    4.8516 H         1 LEU         0.0232
    165 H59       -29.2728    6.1415    3.1978 H         1 LEU         0.0232
    166 H60       -30.9553    6.4887    3.7224 H         1 LEU         0.0232
    167 H61       -27.7216    8.7314    5.4210 H         1 LEU         0.0232
    168 H62       -27.3592    7.4405    4.2256 H         1 LEU         0.0232
    169 H63       -27.9357    7.0055    5.8704 H         1 LEU         0.0232
    170 H64       -31.7081   11.3333    3.3622 H         1 ALA         0.1883
    171 H65       -33.4267   10.4592    5.5024 H         1 ALA         0.0797
    172 H66       -34.1979   12.8211    5.5451 H         1 ALA         0.0277
    173 H67       -33.3192   13.1264    4.0084 H         1 ALA         0.0277
    174 H68       -32.4067   12.6967    5.4948 H         1 ALA         0.0277
    175 H69       -33.9786   11.2061    2.0747 H         1 ALA         0.1883
    176 H70       -36.8730   11.1485    2.3252 H         1 ALA         0.0797
    177 H71       -36.8294   11.3644   -0.1577 H         1 ALA         0.0277
    178 H72       -35.0461   11.1500   -0.1323 H         1 ALA         0.0277
    179 H73       -35.7893   12.5866    0.6492 H         1 ALA         0.0277
    180 H74       -35.1216    8.6537    2.9547 H         1 TRP         0.1884
    181 H75       -35.8830    6.7788    0.8409 H         1 TRP         0.0815
    182 H76       -34.2848    6.6082    3.4105 H         1 TRP         0.0397
    183 H77       -33.6978    6.5506    1.7138 H         1 TRP         0.0397
    184 H78       -34.9499    4.1672    0.3983 H         1 TRP         0.0795
    185 H79       -34.7033    1.7325    1.2768 H         1 TRP         0.2216
    186 H80       -33.7949    5.2483    5.2702 H         1 TRP         0.0540
    187 H81       -34.0647    0.4995    3.7352 H         1 TRP         0.0541
    188 H82       -33.3751    3.3814    6.8303 H         1 TRP         0.0510
    189 H83       -33.5095    1.0435    6.0688 H         1 TRP         0.0530
    190 H84       -36.7641    7.3229    4.2943 H         1 THR         0.1884
    191 H85       -38.4172    4.9393    4.4018 H         1 THR         0.0826
    192 H86       -39.3271    6.0694    6.5115 H         1 THR         0.0639
    193 H87       -38.0092    7.8580    7.2018 H         1 THR         0.2101
    194 H88       -37.2291    5.6600    7.7638 H         1 THR         0.0257
    195 H89       -36.3075    5.6716    6.2220 H         1 THR         0.0257
    196 H90       -37.5201    4.3836    6.5340 H         1 THR         0.0257
    197 H91       -39.5318    5.3021    2.3998 H         1 THR         0.1876
    198 H92       -41.9382    7.0128    2.7924 H         1 THR         0.0752
    199 H93       -41.9689    7.3155    0.2560 H         1 THR         0.0632
    200 H94       -39.2644    6.4246    0.5422 H         1 THR         0.2100
    201 H95       -40.3161    9.1601    0.2788 H         1 THR         0.0256
    202 H96       -39.5978    8.4976    1.7860 H         1 THR         0.0256
    203 H97       -41.2809    9.1251    1.7936 H         1 THR         0.0256
@<TRIPOS>BOND
     1    1    2 1  
     2    2    3 1  
     3    2    5 1  
     4    3    4 2  
     5    3   10 am 
     6    5    6 1  
     7    6    7 1  
     8    7    8 ar 
     9    7    9 ar 
    10   10   11 1  
    11   11   12 1  
    12   11   14 1  
    13   12   13 2  
    14   12   18 am 
    15   14   15 1  
    16   15   16 ar 
    17   15   17 ar 
    18   18   19 1  
    19   19   20 1  
    20   19   22 1  
    21   20   21 2  
    22   20   26 am 
    23   22   23 1  
    24   23   24 ar 
    25   23   25 ar 
    26   26   27 1  
    27   27   28 1  
    28   27   30 1  
    29   28   29 2  
    30   28   34 am 
    31   30   31 1  
    32   31   32 ar 
    33   31   33 ar 
    34   34   35 1  
    35   35   36 1  
    36   35   38 1  
    37   36   37 2  
    38   36   42 am 
    39   38   39 1  
    40   38   40 1  
    41   39   41 1  
    42   42   43 1  
    43   43   44 1  
    44   43   46 1  
    45   44   45 2  
    46   44   51 am 
    47   46   47 1  
    48   47   48 1  
    49   48   49 1  
    50   49   50 1  
    51   51   52 1  
    52   52   53 1  
    53   52   55 1  
    54   53   54 2  
    55   53   60 am 
    56   55   56 1  
    57   56   57 1  
    58   57   58 2  
    59   57   59 am 
    60   60   61 1  
    61   61   62 1  
    62   61   64 1  
    63   62   63 2  
    64   62   68 am 
    65   64   65 1  
    66   65   66 1  
    67   65   67 1  
    68   68   69 1  
    69   69   70 1  
    70   69   72 1  
    71   70   71 2  
    72   70   73 am 
    73   73   74 1  
    74   74   75 1  
    75   74   77 1  
    76   75   76 2  
    77   75   78 am 
    78   78   79 1  
    79   79   80 1  
    80   79   82 1  
    81   80   81 2  
    82   80   92 am 
    83   82   83 1  
    84   83   84 2  
    85   83   85 1  
    86   84   86 1  
    87   85   87 ar 
    88   85   88 ar 
    89   86   87 1  
    90   87   89 ar 
    91   88   90 ar 
    92   89   91 ar 
    93   90   91 ar 
    94   92   93 1  
    95   93   94 1  
    96   93   96 1  
    97   94   95 2  
    98   94   99 am 
    99   96   97 1  
   100   96   98 1  
   101   99  100 1  
   102  100  101 1  
   103  100  103 1  
   104  101  102 ar 
   105  101  106 ar 
   106  103  104 1  
   107  103  105 1  
   108    1  107 1  
   109    1  108 1  
   110    1  109 1  
   111    2  110 1  
   112    5  111 1  
   113    5  112 1  
   114    6  113 1  
   115    6  114 1  
   116   10  115 1  
   117   11  116 1  
   118   14  117 1  
   119   14  118 1  
   120   18  119 1  
   121   19  120 1  
   122   22  121 1  
   123   22  122 1  
   124   26  123 1  
   125   27  124 1  
   126   30  125 1  
   127   30  126 1  
   128   34  127 1  
   129   35  128 1  
   130   38  129 1  
   131   39  130 1  
   132   39  131 1  
   133   40  132 1  
   134   40  133 1  
   135   40  134 1  
   136   41  135 1  
   137   41  136 1  
   138   41  137 1  
   139   42  138 1  
   140   43  139 1  
   141   46  140 1  
   142   46  141 1  
   143   47  142 1  
   144   47  143 1  
   145   48  144 1  
   146   48  145 1  
   147   49  146 1  
   148   49  147 1  
   149   50  148 1  
   150   50  149 1  
   151   50  150 1  
   152   51  151 1  
   153   52  152 1  
   154   55  153 1  
   155   55  154 1  
   156   56  155 1  
   157   56  156 1  
   158   59  157 1  
   159   59  158 1  
   160   60  159 1  
   161   61  160 1  
   162   64  161 1  
   163   64  162 1  
   164   65  163 1  
   165   66  164 1  
   166   66  165 1  
   167   66  166 1  
   168   67  167 1  
   169   67  168 1  
   170   67  169 1  
   171   68  170 1  
   172   69  171 1  
   173   72  172 1  
   174   72  173 1  
   175   72  174 1  
   176   73  175 1  
   177   74  176 1  
   178   77  177 1  
   179   77  178 1  
   180   77  179 1  
   181   78  180 1  
   182   79  181 1  
   183   82  182 1  
   184   82  183 1  
   185   84  184 1  
   186   86  185 1  
   187   88  186 1  
   188   89  187 1  
   189   90  188 1  
   190   91  189 1  
   191   92  190 1  
   192   93  191 1  
   193   96  192 1  
   194   97  193 1  
   195   98  194 1  
   196   98  195 1  
   197   98  196 1  
   198   99  197 1  
   199  100  198 1  
   200  103  199 1  
   201  104  200 1  
   202  105  201 1  
   203  105  202 1  
   204  105  203 1  
@<TRIPOS>SUBSTRUCTURE
     1 GLU         1

