1nfx_ligand
  -I-interpret- 

 54 58  0  0  0  0  0  0  0  0999 V2000
    3.0240    1.4970   19.6010 O   0  0  0  0  0
    3.6290    1.2890   18.3300 C   0  0  0  0  0
    4.6490    2.4260   18.0790 C   0  0  0  0  0
    5.8630    2.3630   18.9590 N   0  0  0  0  0
    6.9980    1.6170   18.5910 C   0  0  0  0  0
    7.9620    1.7650   19.6380 C   0  0  0  0  0
    9.1910    1.1150   19.5130 C   0  0  0  0  0
    9.4950    0.3450   18.4150 N   0  0  0  0  0
    8.5770    0.2060   17.4160 C   0  0  0  0  0
    7.3110    0.8300   17.4710 C   0  0  0  0  0
    7.3740    2.6180   20.6430 C   0  0  0  0  0
    6.0850    2.9620   20.1790 C   0  0  0  0  0
    5.0250    3.8540   20.8600 C   0  0  0  0  0
    5.4810    5.0590   21.6000 N   0  0  0  0  0
    5.0590    5.2490   22.9140 C   0  0  0  0  0
    4.3260    4.4710   23.5090 O   0  0  0  0  0
    5.5690    6.5220   23.6350 C   0  0  0  0  0
    6.0490    7.6170   22.7620 N   0  0  0  0  0
    7.0310    7.0800   21.7900 C   0  0  0  0  0
    6.3750    6.0220   20.8810 C   0  0  0  0  0
    6.6240    9.0390   23.6600 S   0  0  0  0  0
    5.6180    9.2810   24.6610 O   0  0  0  0  0
    6.8390   10.0160   22.6250 O   0  0  0  0  0
    8.1260    8.6830   24.4200 C   0  0  0  0  0
    8.1590    8.0810   25.6900 C   0  0  0  0  0
    9.5230    7.8410   26.1410 C   0  0  0  0  0
   10.4700    8.2970   25.1410 C   0  0  0  0  0
    9.6780    8.9630   23.7900 S   0  0  0  0  0
   11.8340    8.1450   25.3740 C   0  0  0  0  0
   12.2780    7.5450   26.5740 C   0  0  0  0  0
   13.9650    7.3450   26.8310 Cl  0  0  0  0  0
   11.3680    7.1010   27.5620 C   0  0  0  0  0
    9.9810    7.2570   27.3230 C   0  0  0  0  0
    2.3881    0.7978   19.7697 H   0  0  0  0  0
    2.8673    1.2939   17.5503 H   0  0  0  0  0
    4.1359    0.3242   18.3128 H   0  0  0  0  0
    4.1429    3.3673   18.2935 H   0  0  0  0  0
    4.9916    2.3311   17.0486 H   0  0  0  0  0
    9.9298    1.2207   20.3074 H   0  0  0  0  0
    8.8278   -0.4051   16.5490 H   0  0  0  0  0
    6.5923    0.7033   16.6613 H   0  0  0  0  0
    7.8351    2.9351   21.5784 H   0  0  0  0  0
    4.5581    3.2178   21.6120 H   0  0  0  0  0
    4.4089    4.2360   20.0460 H   0  0  0  0  0
    6.4253    6.2113   24.2336 H   0  0  0  0  0
    4.7181    6.9220   24.1864 H   0  0  0  0  0
    7.8506    6.6147   22.3376 H   0  0  0  0  0
    7.3974    7.8986   21.1705 H   0  0  0  0  0
    5.7560    6.5575   20.1612 H   0  0  0  0  0
    7.1807    5.4391   20.4348 H   0  0  0  0  0
    7.2708    7.8247   26.2676 H   0  0  0  0  0
   12.5569    8.4875   24.6336 H   0  0  0  0  0
   11.7265    6.6488   28.4867 H   0  0  0  0  0
    9.2635    6.9174   28.0700 H   0  0  0  0  0
  1  2  1  0  0  0
  2  3  1  0  0  0
  3  4  1  0  0  0
  4  5  4  0  0  0
  4 12  4  0  0  0
  5  6  4  0  0  0
  5 10  4  0  0  0
  6  7  4  0  0  0
  6 11  4  0  0  0
  7  8  4  0  0  0
  8  9  4  0  0  0
  9 10  4  0  0  0
 11 12  4  0  0  0
 12 13  1  0  0  0
 13 14  1  0  0  0
 14 15  1  0  0  0
 14 20  1  0  0  0
 15 16  2  0  0  0
 15 17  1  0  0  0
 17 18  1  0  0  0
 18 19  1  0  0  0
 18 21  1  0  0  0
 19 20  1  0  0  0
 21 22  2  0  0  0
 21 23  2  0  0  0
 21 24  1  0  0  0
 24 25  4  0  0  0
 24 28  4  0  0  0
 25 26  4  0  0  0
 26 27  4  0  0  0
 26 33  4  0  0  0
 27 28  4  0  0  0
 27 29  4  0  0  0
 29 30  4  0  0  0
 30 31  1  0  0  0
 30 32  4  0  0  0
 32 33  4  0  0  0
  1 34  1  0  0  0
  2 35  1  0  0  0
  2 36  1  0  0  0
  3 37  1  0  0  0
  3 38  1  0  0  0
  7 39  1  0  0  0
  9 40  1  0  0  0
 10 41  1  0  0  0
 11 42  1  0  0  0
 13 43  1  0  0  0
 13 44  1  0  0  0
 17 45  1  0  0  0
 17 46  1  0  0  0
 19 47  1  0  0  0
 19 48  1  0  0  0
 20 49  1  0  0  0
 20 50  1  0  0  0
 25 51  1  0  0  0
 29 52  1  0  0  0
 32 53  1  0  0  0
 33 54  1  0  0  0
M  END
$$$$
