2vsl_ligand
  -I-interpret- 

 73 74  0  0  0  0  0  0  0  0999 V2000
    7.7810   20.2410   27.4610 N   0  3  0  0  0
    6.3860   20.1890   27.9010 C   0  0  0  0  0
    7.9670   18.8040   27.3140 C   0  0  0  0  0
    8.8310   18.5030   26.0910 C   0  0  0  0  0
    8.6280   18.2500   28.5610 C   0  0  0  0  0
    9.4150   18.9310   29.2220 O   0  0  0  0  0
    8.3010   17.0080   28.8840 N   0  0  0  0  0
    8.8680   16.3620   30.0520 C   0  0  0  0  0
    9.8090   15.2630   29.5790 C   0  0  0  0  0
    9.5290   14.5620   28.6020 O   0  0  0  0  0
    7.7520   15.7630   30.9160 C   0  0  0  0  0
    8.2160   15.2460   32.2640 C   0  0  0  0  0
    7.0560   14.7010   33.0830 C   0  0  0  0  0
    7.5440   14.2250   34.4460 C   0  0  0  0  0
    8.6000   13.1900   34.2970 N   0  3  0  0  0
   10.9510   15.1140   30.2480 N   0  0  0  0  0
   11.9090   14.0760   29.8630 C   0  0  0  0  0
   11.4990   12.7350   30.4680 C   0  0  0  0  0
   10.7260   12.6990   31.4230 O   0  0  0  0  0
   13.2070   14.5810   30.4680 C   0  0  0  0  0
   12.7250   15.2040   31.7490 C   0  0  0  0  0
   11.5190   15.9950   31.2840 C   0  0  0  0  0
   12.0130   11.6430   29.9110 N   0  0  0  0  0
   11.7320   10.3100   30.4430 C   0  0  0  0  0
   12.9260    9.4270   30.1160 C   0  0  0  0  0
   13.6900    9.8540   29.2190 O   0  0  0  0  0
   10.4520    9.7220   29.8300 C   0  0  0  0  0
   10.5960    9.3120   28.3960 C   0  0  0  0  0
   11.1900    8.1020   28.0600 C   0  0  0  0  0
   10.1530   10.1460   27.3750 C   0  0  0  0  0
   11.3410    7.7310   26.7260 C   0  0  0  0  0
   10.3000    9.7820   26.0400 C   0  0  0  0  0
   10.8930    8.5770   25.7140 C   0  0  0  0  0
   13.1456    8.2744   30.7423 O   0  0  0  0  0
    8.4324   20.7179   28.0844 H   0  0  0  0  0
    7.9715   20.8067   26.6339 H   0  0  0  0  0
    5.7802   19.7151   27.1287 H   0  0  0  0  0
    6.3184   19.6115   28.8229 H   0  0  0  0  0
    6.0242   21.2019   28.0779 H   0  0  0  0  0
    6.9941   18.3318   27.1775 H   0  0  0  0  0
    9.8097   18.9663   26.2162 H   0  0  0  0  0
    8.9488   17.4243   25.9875 H   0  0  0  0  0
    8.3490   18.9043   25.1995 H   0  0  0  0  0
    7.6385   16.4967   28.3009 H   0  0  0  0  0
    9.4134   17.0888   30.6540 H   0  0  0  0  0
    7.3444   14.9127   30.3693 H   0  0  0  0  0
    7.0327   16.5591   31.1081 H   0  0  0  0  0
    8.6676   16.0721   32.8132 H   0  0  0  0  0
    8.9292   14.4388   32.0968 H   0  0  0  0  0
    6.6113   13.8595   32.5518 H   0  0  0  0  0
    6.3203   15.4924   33.2263 H   0  0  0  0  0
    6.7032   13.7934   34.9891 H   0  0  0  0  0
    7.9593   15.0752   34.9870 H   0  0  0  0  0
    8.9104   12.8873   35.2203 H   0  0  0  0  0
    8.2228   12.3923   33.7854 H   0  0  0  0  0
    9.3891   13.5825   33.7835 H   0  0  0  0  0
   11.9781   13.9098   28.7880 H   0  0  0  0  0
   13.7455   15.2754   29.8231 H   0  0  0  0  0
   13.9496   13.7975   30.6187 H   0  0  0  0  0
   12.4883   14.4722   32.5213 H   0  0  0  0  0
   13.4799   15.8184   32.2397 H   0  0  0  0  0
   10.8179   16.2226   32.0870 H   0  0  0  0  0
   11.7727   16.9879   30.9127 H   0  0  0  0  0
   12.6169   11.7368   29.0943 H   0  0  0  0  0
   11.5733   10.3673   31.5199 H   0  0  0  0  0
    9.6883   10.4987   29.8692 H   0  0  0  0  0
   10.2028    8.8263   30.3990 H   0  0  0  0  0
   11.5414    7.4362   28.8483 H   0  0  0  0  0
    9.6841   11.0980   27.6240 H   0  0  0  0  0
   11.8093    6.7795   26.4741 H   0  0  0  0  0
    9.9475   10.4471   25.2516 H   0  0  0  0  0
   11.0097    8.2897   24.6690 H   0  0  0  0  0
   12.4527    8.1264   31.3900 H   0  0  0  0  0
  1  2  1  0  0  0
  3  1  1  0  0  0
  3  4  1  0  0  0
  5  3  1  0  0  0
  5  6  2  0  0  0
  7  8  1  0  0  0
  8 11  1  0  0  0
  8  9  1  0  0  0
  9 10  2  0  0  0
 11 12  1  0  0  0
 12 13  1  0  0  0
 13 14  1  0  0  0
 14 15  1  0  0  0
 17 18  1  0  0  0
 17 20  1  0  0  0
 16 17  1  0  0  0
 16 22  1  0  0  0
 22 21  1  0  0  0
 21 20  1  0  0  0
 18 19  2  0  0  0
  9 16  1  0  0  0
 23 24  1  0  0  0
 24 27  1  0  0  0
 24 25  1  0  0  0
 25 26  2  0  0  0
 27 28  1  0  0  0
 28 29  4  0  0  0
 28 30  4  0  0  0
 30 32  4  0  0  0
 32 33  4  0  0  0
 31 33  4  0  0  0
 29 31  4  0  0  0
 18 23  1  0  0  0
  5  7  1  0  0  0
 25 34  1  0  0  0
  1 35  1  0  0  0
  1 36  1  0  0  0
  2 37  1  0  0  0
  2 38  1  0  0  0
  2 39  1  0  0  0
  3 40  1  0  0  0
  4 41  1  0  0  0
  4 42  1  0  0  0
  4 43  1  0  0  0
  7 44  1  0  0  0
  8 45  1  0  0  0
 11 46  1  0  0  0
 11 47  1  0  0  0
 12 48  1  0  0  0
 12 49  1  0  0  0
 13 50  1  0  0  0
 13 51  1  0  0  0
 14 52  1  0  0  0
 14 53  1  0  0  0
 15 54  1  0  0  0
 15 55  1  0  0  0
 15 56  1  0  0  0
 17 57  1  0  0  0
 20 58  1  0  0  0
 20 59  1  0  0  0
 21 60  1  0  0  0
 21 61  1  0  0  0
 22 62  1  0  0  0
 22 63  1  0  0  0
 23 64  1  0  0  0
 24 65  1  0  0  0
 27 66  1  0  0  0
 27 67  1  0  0  0
 29 68  1  0  0  0
 30 69  1  0  0  0
 31 70  1  0  0  0
 32 71  1  0  0  0
 33 72  1  0  0  0
 34 73  1  0  0  0
M  END
$$$$
