4pte_ligand
  -I-interpret- 

 37 40  0  0  0  0  0  0  0  0999 V2000
   -5.0540   -0.8530  -33.1150 C   0  0  0  0  0
   -4.2550   -0.2890  -34.1070 C   0  0  0  0  0
   -4.1110   -0.9070  -35.3500 C   0  0  0  0  0
   -4.7790   -2.1050  -35.5770 C   0  0  0  0  0
   -5.5930   -2.6710  -34.5930 C   0  0  0  0  0
   -5.7310   -2.0450  -33.3560 C   0  0  0  0  0
   -6.5350   -2.6270  -32.3740 C   0  0  0  0  0
   -7.1950   -3.8210  -32.6650 C   0  0  0  0  0
   -7.0490   -4.4140  -33.8700 N   0  0  0  0  0
   -6.2700   -3.8670  -34.8310 C   0  0  0  0  0
   -3.2750   -0.2820  -36.4170 C   0  0  0  0  0
   -2.9310   -1.0000  -37.5610 C   0  0  0  0  0
   -2.1620   -0.3910  -38.5520 C   0  0  0  0  0
   -1.7770    0.9000  -38.4160 N   0  0  0  0  0
   -2.1090    1.6330  -37.3160 C   0  0  0  0  0
   -2.8750    1.0490  -36.3150 C   0  0  0  0  0
   -1.7030    2.9210  -37.2160 N   0  0  0  0  0
   -1.7830    3.8100  -36.2020 C   0  0  0  0  0
   -2.2220    3.5140  -35.1010 O   0  0  0  0  0
   -1.2760    5.2130  -36.4330 C   0  0  0  0  0
   -2.0090    6.3440  -35.7090 C   0  0  0  0  0
   -0.6170    5.9060  -35.2350 C   0  0  0  0  0
   -5.1492   -0.3596  -32.1477 H   0  0  0  0  0
   -3.7349    0.6483  -33.9096 H   0  0  0  0  0
   -4.6659   -2.6097  -36.5365 H   0  0  0  0  0
   -6.6450   -2.1565  -31.3969 H   0  0  0  0  0
   -7.8354   -4.2804  -31.9120 H   0  0  0  0  0
   -6.1708   -4.3634  -35.7963 H   0  0  0  0  0
   -3.2613   -2.0319  -37.6803 H   0  0  0  0  0
   -1.8703   -0.9552  -39.4378 H   0  0  0  0  0
   -3.1652    1.6360  -35.4436 H   0  0  0  0  0
   -1.2565    3.2854  -38.0576 H   0  0  0  0  0
   -0.9929    5.0204  -37.4678 H   0  0  0  0  0
   -2.9933    6.5391  -35.2834 H   0  0  0  0  0
   -2.5358    7.2659  -35.9555 H   0  0  0  0  0
    0.3399    6.3591  -34.9758 H   0  0  0  0  0
   -0.1164    5.6345  -34.3056 H   0  0  0  0  0
  1  2  4  0  0  0
  1  6  4  0  0  0
  2  3  4  0  0  0
  3  4  4  0  0  0
  3 11  1  0  0  0
  4  5  4  0  0  0
  5  6  4  0  0  0
  5 10  4  0  0  0
  6  7  4  0  0  0
  7  8  4  0  0  0
  8  9  4  0  0  0
  9 10  4  0  0  0
 11 12  4  0  0  0
 11 16  4  0  0  0
 12 13  4  0  0  0
 13 14  4  0  0  0
 14 15  4  0  0  0
 15 16  4  0  0  0
 15 17  1  0  0  0
 17 18  1  0  0  0
 18 19  2  0  0  0
 18 20  1  0  0  0
 20 21  1  0  0  0
 20 22  1  0  0  0
 21 22  1  0  0  0
  1 23  1  0  0  0
  2 24  1  0  0  0
  4 25  1  0  0  0
  7 26  1  0  0  0
  8 27  1  0  0  0
 10 28  1  0  0  0
 12 29  1  0  0  0
 13 30  1  0  0  0
 16 31  1  0  0  0
 17 32  1  0  0  0
 20 33  1  0  0  0
 21 34  1  0  0  0
 21 35  1  0  0  0
 22 36  1  0  0  0
 22 37  1  0  0  0
M  END
$$$$
