4ay5_ligand
  -I-interpret- 

 39 40  0  0  0  0  0  0  0  0999 V2000
  137.3800  -22.6440   29.7990 N   0  0  0  0  0
  138.1520  -22.5080   28.6070 C   0  0  0  0  0
  137.9130  -21.4560   27.8250 N   0  0  0  0  0
  136.9720  -20.5550   28.1270 C   0  0  0  0  0
  136.2050  -20.6700   29.2730 C   0  0  0  0  0
  136.4230  -21.7490   30.1080 C   0  0  0  0  0
  139.0610  -23.3250   28.2540 O   0  0  0  0  0
  136.7940  -19.5910   27.3630 O   0  0  0  0  0
  137.5560  -23.8310   30.6600 C   0  0  0  0  0
  137.9690  -23.7090   32.1170 C   0  0  0  0  0
  139.3450  -23.3690   32.2860 O   0  0  0  0  0
  137.7130  -25.1490   32.5180 C   0  0  0  0  0
  136.3160  -25.3480   31.9250 C   0  0  0  0  0
  136.3160  -24.5770   30.7280 O   0  0  0  0  0
  138.7020  -26.0360   31.8910 O   0  0  0  0  0
  135.1710  -24.8570   32.7960 C   0  0  0  0  0
  134.3210  -25.9620   33.1280 O   0  0  0  0  0
  133.4040  -25.8010   34.4260 P   0  0  0  0  0
  132.6430  -24.4370   34.4220 O   0  0  0  0  0
  132.7100  -27.1280   34.6170 O   0  0  0  0  0
  134.5940  -25.6460   35.5230 O   0  0  0  0  0
  134.3230  -25.0810   37.0130 P   0  0  0  0  0
  134.8340  -23.6610   37.0090 O   0  0  0  0  0
  135.3100  -26.0000   37.6550 O   0  0  0  0  0
  132.8210  -25.3330   37.2800 O   0  0  0  0  0
  138.4620  -21.3347   26.9739 H   0  0  0  0  0
  135.4454  -19.9256   29.5118 H   0  0  0  0  0
  135.8245  -21.8747   31.0103 H   0  0  0  0  0
  138.4079  -24.2781   30.1477 H   0  0  0  0  0
  137.4552  -22.9318   32.6827 H   0  0  0  0  0
  139.5453  -23.3066   33.2228 H   0  0  0  0  0
  137.7829  -25.3623   33.5846 H   0  0  0  0  0
  136.1446  -26.4167   31.7964 H   0  0  0  0  0
  138.5283  -26.9431   32.1531 H   0  0  0  0  0
  134.5971  -24.1050   32.2545 H   0  0  0  0  0
  135.5704  -24.4165   33.7095 H   0  0  0  0  0
  133.2697  -23.7226   34.2862 H   0  0  0  0  0
  134.1847  -23.0896   36.5925 H   0  0  0  0  0
  132.2995  -24.6767   36.8121 H   0  0  0  0  0
  1  2  1  0  0  0
  1  6  1  0  0  0
  1  9  1  0  0  0
  2  3  1  0  0  0
  2  7  2  0  0  0
  3  4  1  0  0  0
  4  5  1  0  0  0
  4  8  2  0  0  0
  5  6  2  0  0  0
  9 10  1  0  0  0
  9 14  1  0  0  0
 10 11  1  0  0  0
 10 12  1  0  0  0
 12 13  1  0  0  0
 12 15  1  0  0  0
 13 14  1  0  0  0
 13 16  1  0  0  0
 16 17  1  0  0  0
 17 18  1  0  0  0
 18 19  1  0  0  0
 18 20  2  0  0  0
 18 21  1  0  0  0
 21 22  1  0  0  0
 22 23  1  0  0  0
 22 24  2  0  0  0
 22 25  1  0  0  0
  3 26  1  0  0  0
  5 27  1  0  0  0
  6 28  1  0  0  0
  9 29  1  0  0  0
 10 30  1  0  0  0
 11 31  1  0  0  0
 12 32  1  0  0  0
 13 33  1  0  0  0
 15 34  1  0  0  0
 16 35  1  0  0  0
 16 36  1  0  0  0
 19 37  1  0  0  0
 23 38  1  0  0  0
 25 39  1  0  0  0
M  END
$$$$
