### 
### Created by X-TOOL on Mon Sep 10 21:13:09 2018
### 

@<TRIPOS>MOLECULE
4ay5_ligand
   36    37     1     0     0
SMALL
GAST_HUCK


@<TRIPOS>ATOM
      1 N1        137.3800  -22.6440   29.7990 N.am      1 UDP        -0.1592
      2 C2        138.1520  -22.5080   28.6070 C.2       1 UDP         0.3328
      3 N3        137.9130  -21.4560   27.8250 N.am      1 UDP        -0.1865
      4 C4        136.9720  -20.5550   28.1270 C.2       1 UDP         0.1822
      5 C5        136.2050  -20.6700   29.2730 C.2       1 UDP         0.0062
      6 C6        136.4230  -21.7490   30.1080 C.2       1 UDP         0.0591
      7 O2        139.0610  -23.3250   28.2540 O.2       1 UDP        -0.3815
      8 O4        136.7940  -19.5910   27.3630 O.2       1 UDP        -0.4124
      9 C1'       137.5560  -23.8310   30.6600 C.3       1 UDP         0.2059
     10 C2'       137.9690  -23.7090   32.1170 C.3       1 UDP         0.1387
     11 O2'       139.3450  -23.3690   32.2860 O.3       1 UDP        -0.3836
     12 C3'       137.7130  -25.1490   32.5180 C.3       1 UDP         0.1149
     13 C4'       136.3160  -25.3480   31.9250 C.3       1 UDP         0.1189
     14 O4'       136.3160  -24.5770   30.7280 O.3       1 UDP        -0.3363
     15 O3'       138.7020  -26.0360   31.8910 O.3       1 UDP        -0.3864
     16 C5'       135.1710  -24.8570   32.7960 C.3       1 UDP         0.1132
     17 O5'       134.3210  -25.9620   33.1280 O.3       1 UDP        -0.2436
     18 PA        133.4040  -25.8010   34.4260 P.3       1 UDP         0.3276
     19 O1A       132.6430  -24.4370   34.4220 O.co2     1 UDP        -0.5556
     20 O2A       132.7100  -27.1280   34.6170 O.co2     1 UDP        -0.5556
     21 O3A       134.5940  -25.6460   35.5230 O.3       1 UDP        -0.1548
     22 PB        134.3230  -25.0810   37.0130 P.3       1 UDP         0.2069
     23 O1B       134.8340  -23.6610   37.0090 O.co2     1 UDP        -0.5891
     24 O2B       135.3100  -26.0000   37.6550 O.co2     1 UDP        -0.5891
     25 O3B       132.8210  -25.3330   37.2800 O.co2     1 UDP        -0.5891
     26 H         138.4620  -21.3347   26.9739 H         1 UDP         0.2259
     27 H         135.4454  -19.9256   29.5118 H         1 UDP         0.0258
     28 H         135.8245  -21.8747   31.0103 H         1 UDP         0.1178
     29 H         138.4079  -24.2781   30.1477 H         1 UDP         0.0997
     30 H         137.4552  -22.9318   32.6827 H         1 UDP         0.0676
     31 H         139.5453  -23.3066   33.2228 H         1 UDP         0.2101
     32 H         137.7829  -25.3623   33.5846 H         1 UDP         0.0648
     33 H         136.1446  -26.4167   31.7964 H         1 UDP         0.0651
     34 H         139.5633  -25.8836   32.2868 H         1 UDP         0.2100
     35 H         134.5971  -24.1050   32.2545 H         1 UDP         0.0648
     36 H         135.5704  -24.4165   33.7095 H         1 UDP         0.0648
@<TRIPOS>BOND
     1    1    2 am 
     2    1    6 1  
     3    1    9 1  
     4    2    3 am 
     5    2    7 2  
     6    3    4 am 
     7    4    5 1  
     8    4    8 2  
     9    5    6 2  
    10    9   10 1  
    11    9   14 1  
    12   10   11 1  
    13   10   12 1  
    14   12   13 1  
    15   12   15 1  
    16   13   14 1  
    17   13   16 1  
    18   16   17 1  
    19   17   18 1  
    20   18   19 ar 
    21   18   20 ar 
    22   18   21 1  
    23   21   22 1  
    24   22   23 ar 
    25   22   24 ar 
    26   22   25 ar 
    27    3   26 1  
    28    5   27 1  
    29    6   28 1  
    30    9   29 1  
    31   10   30 1  
    32   11   31 1  
    33   12   32 1  
    34   13   33 1  
    35   15   34 1  
    36   16   35 1  
    37   16   36 1  
@<TRIPOS>SUBSTRUCTURE
     1 UDP         1

