5jq8_ligand
  -I-interpret- 

 60 63  0  0  0  0  0  0  0  0999 V2000
   -0.6310   -9.5640  -22.1670 O   0  0  0  0  0
   -0.6600   -8.9500  -23.5110 C   0  0  0  0  0
   -1.6080   -7.7540  -23.4660 C   0  0  0  0  0
   -2.9860   -8.2180  -23.2050 N   0  3  0  0  0
   -3.5510   -9.1970  -24.1320 C   0  0  0  0  0
   -2.5660  -10.3800  -24.3320 C   0  0  0  0  0
   -1.1130   -9.9560  -24.5960 C   0  0  0  0  0
   -1.0530   -9.4500  -26.0550 C   0  0  0  0  0
    0.2790   -9.2180  -26.6270 N   0  0  0  0  0
    0.6520   -8.0420  -27.2140 C   0  0  0  0  0
    1.8890   -7.8890  -27.8620 C   0  0  0  0  0
    2.3070   -6.6650  -28.4750 C   0  0  0  0  0
    1.4580   -5.6280  -28.4360 N   0  0  0  0  0
    1.6160   -4.3140  -28.9520 N   0  0  0  0  0
    0.4660   -3.6340  -28.6010 C   0  0  0  0  0
   -0.3200   -4.6080  -27.9450 C   0  0  0  0  0
   -1.6130   -4.6540  -27.1890 C   0  0  0  0  0
   -1.6650   -3.7970  -25.9140 C   0  0  0  0  0
   -2.9320   -4.9900  -27.8830 C   0  0  0  0  0
    0.3080   -5.8090  -27.8080 C   0  0  0  0  0
   -0.1650   -6.9570  -27.1930 N   0  0  0  0  0
    3.5140   -6.5650  -29.0870 N   0  0  0  0  0
    4.5870   -7.5200  -28.6980 C   0  0  0  0  0
    4.7020   -8.6660  -29.7080 C   0  0  0  0  0
    4.4260   -9.9850  -29.3480 C   0  0  0  0  0
    4.5190  -11.0330  -30.2940 C   0  0  0  0  0
    4.8850  -10.7490  -31.6320 C   0  0  0  0  0
    5.1460   -9.4210  -31.9780 C   0  0  0  0  0
    5.0520   -8.4030  -31.0240 C   0  0  0  0  0
   -0.3462   -8.9106  -21.5240 H   0  0  0  0  0
    0.3476   -8.6319  -23.7789 H   0  0  0  0  0
   -1.5779   -7.2338  -24.4234 H   0  0  0  0  0
   -1.2981   -7.0780  -22.6691 H   0  0  0  0  0
   -3.5759   -7.3897  -23.2850 H   0  0  0  0  0
   -2.9533   -8.6835  -22.2980 H   0  0  0  0  0
   -3.7289   -8.7154  -25.0935 H   0  0  0  0  0
   -4.4860   -9.5779  -23.7212 H   0  0  0  0  0
   -2.9029  -10.9329  -25.2089 H   0  0  0  0  0
   -2.5682  -10.9586  -23.4083 H   0  0  0  0  0
   -0.3972  -10.7738  -24.5131 H   0  0  0  0  0
   -1.5489   -8.4793  -26.0535 H   0  0  0  0  0
   -1.5038  -10.2360  -26.6609 H   0  0  0  0  0
    0.9618   -9.9745  -26.5839 H   0  0  0  0  0
    2.5636   -8.7444  -27.8998 H   0  0  0  0  0
    0.2214   -2.5882  -28.7870 H   0  0  0  0  0
   -1.5177   -5.6785  -26.8294 H   0  0  0  0  0
   -0.8915   -4.1302  -25.2220 H   0  0  0  0  0
   -1.4967   -2.7517  -26.1732 H   0  0  0  0  0
   -2.6435   -3.9035  -25.4458 H   0  0  0  0  0
   -3.1267   -4.2563  -28.6652 H   0  0  0  0  0
   -2.8659   -5.9845  -28.3242 H   0  0  0  0  0
   -3.7411   -4.9681  -27.1529 H   0  0  0  0  0
    3.6819   -5.8521  -29.7969 H   0  0  0  0  0
    4.3421   -7.9396  -27.7223 H   0  0  0  0  0
    5.5359   -6.9844  -28.6702 H   0  0  0  0  0
    4.1343  -10.2118  -28.3225 H   0  0  0  0  0
    4.3088  -12.0592  -29.9927 H   0  0  0  0  0
    4.9611  -11.5454  -32.3723 H   0  0  0  0  0
    5.4259   -9.1757  -33.0025 H   0  0  0  0  0
    5.2593   -7.3754  -31.3226 H   0  0  0  0  0
  1  2  1  0  0  0
  2  3  1  0  0  0
  2  7  1  0  0  0
  3  4  1  0  0  0
  4  5  1  0  0  0
  5  6  1  0  0  0
  6  7  1  0  0  0
  7  8  1  0  0  0
  8  9  1  0  0  0
  9 10  1  0  0  0
 10 11  4  0  0  0
 10 21  4  0  0  0
 11 12  4  0  0  0
 12 13  4  0  0  0
 12 22  1  0  0  0
 13 14  4  0  0  0
 13 20  4  0  0  0
 14 15  4  0  0  0
 15 16  4  0  0  0
 16 17  1  0  0  0
 16 20  4  0  0  0
 17 18  1  0  0  0
 17 19  1  0  0  0
 20 21  4  0  0  0
 22 23  1  0  0  0
 23 24  1  0  0  0
 24 25  4  0  0  0
 24 29  4  0  0  0
 25 26  4  0  0  0
 26 27  4  0  0  0
 27 28  4  0  0  0
 28 29  4  0  0  0
  1 30  1  0  0  0
  2 31  1  0  0  0
  3 32  1  0  0  0
  3 33  1  0  0  0
  4 34  1  0  0  0
  4 35  1  0  0  0
  5 36  1  0  0  0
  5 37  1  0  0  0
  6 38  1  0  0  0
  6 39  1  0  0  0
  7 40  1  0  0  0
  8 41  1  0  0  0
  8 42  1  0  0  0
  9 43  1  0  0  0
 11 44  1  0  0  0
 15 45  1  0  0  0
 17 46  1  0  0  0
 18 47  1  0  0  0
 18 48  1  0  0  0
 18 49  1  0  0  0
 19 50  1  0  0  0
 19 51  1  0  0  0
 19 52  1  0  0  0
 22 53  1  0  0  0
 23 54  1  0  0  0
 23 55  1  0  0  0
 25 56  1  0  0  0
 26 57  1  0  0  0
 27 58  1  0  0  0
 28 59  1  0  0  0
 29 60  1  0  0  0
M  END
$$$$
