4o43_ligand
  -I-interpret- 

 34 35  0  0  0  0  0  0  0  0999 V2000
   14.8800  456.2130   23.6550 C   0  0  0  0  0
   14.6500  455.4740   24.9740 C   0  0  0  0  0
   15.3640  456.1640   26.1510 C   0  0  0  0  0
   16.8830  456.0670   25.9630 C   0  0  0  0  0
   14.8910  457.5740   26.4050 N   0  0  0  0  0
   15.2310  458.7580   25.8390 C   0  0  0  0  0
   16.0620  458.7970   24.9370 O   0  0  0  0  0
   13.9730  457.7260   27.3630 C   0  0  0  0  0
   13.3030  456.4560   28.3050 S   0  0  0  0  0
   13.5800  459.2690   27.5120 S   0  0  0  0  0
   14.5770  459.8320   26.3470 C   0  0  0  0  0
   14.5700  461.1630   26.1140 C   0  0  0  0  0
   15.3180  461.9020   25.1810 C   0  0  0  0  0
   15.0640  463.2700   25.1700 C   0  0  0  0  0
   15.7260  464.1250   24.2970 C   0  0  0  0  0
   16.6640  463.6160   23.4080 C   0  0  0  0  0
   17.3160  464.4470   22.5520 O   0  0  0  0  0
   16.9310  462.2540   23.4000 C   0  0  0  0  0
   16.2570  461.4140   24.2780 C   0  0  0  0  0
   14.4971  457.2301   23.7383 H   0  0  0  0  0
   15.9477  456.2420   23.4376 H   0  0  0  0  0
   14.3585  455.6917   22.8522 H   0  0  0  0  0
   15.0510  454.4653   24.8750 H   0  0  0  0  0
   13.5797  455.4676   25.1800 H   0  0  0  0  0
   15.0939  455.6281   27.0609 H   0  0  0  0  0
   17.1819  456.6762   25.1100 H   0  0  0  0  0
   17.3828  456.4280   26.8618 H   0  0  0  0  0
   17.1601  455.0281   25.7840 H   0  0  0  0  0
   13.8897  461.7446   26.7361 H   0  0  0  0  0
   14.3288  463.6806   25.8621 H   0  0  0  0  0
   15.5095  465.1932   24.3099 H   0  0  0  0  0
   17.9237  463.9360   22.0124 H   0  0  0  0  0
   17.6667  461.8448   22.7076 H   0  0  0  0  0
   16.4695  460.3451   24.2587 H   0  0  0  0  0
  1  2  1  0  0  0
  2  3  1  0  0  0
  3  4  1  0  0  0
  3  5  1  0  0  0
  5  6  1  0  0  0
  5  8  1  0  0  0
  6  7  2  0  0  0
  6 11  1  0  0  0
  8  9  2  0  0  0
  8 10  1  0  0  0
 10 11  1  0  0  0
 11 12  2  0  0  0
 12 13  1  0  0  0
 13 14  4  0  0  0
 13 19  4  0  0  0
 14 15  4  0  0  0
 15 16  4  0  0  0
 16 17  1  0  0  0
 16 18  4  0  0  0
 18 19  4  0  0  0
  1 20  1  0  0  0
  1 21  1  0  0  0
  1 22  1  0  0  0
  2 23  1  0  0  0
  2 24  1  0  0  0
  3 25  1  0  0  0
  4 26  1  0  0  0
  4 27  1  0  0  0
  4 28  1  0  0  0
 12 29  1  0  0  0
 14 30  1  0  0  0
 15 31  1  0  0  0
 17 32  1  0  0  0
 18 33  1  0  0  0
 19 34  1  0  0  0
M  END
$$$$
