### 
### Created by X-TOOL on Mon Sep 10 21:13:02 2018
### 

@<TRIPOS>MOLECULE
3mxs_ligand
   52    53     1     0     0
SMALL
GAST_HUCK


@<TRIPOS>ATOM
      1 C          31.5280   65.0120    4.1970 C.2       1 CZ9         0.1749
      2 N          30.8850   67.3070    4.4090 N.am      1 CZ9        -0.2454
      3 O          30.5260   64.8240    3.5160 O.2       1 CZ9        -0.3970
      4 CA         32.0540   66.4090    4.3980 C.3       1 CZ9         0.1373
      5 CB         33.0400   66.7370    3.2790 C.3       1 CZ9         0.0161
      6 CG         33.4740   68.1760    3.4500 C.ar      1 CZ9        -0.0493
      7 OH         34.5980   72.1340    3.9600 O.3       1 CZ9        -0.3376
      8 CZ         34.2320   70.8320    3.8020 C.ar      1 CZ9         0.0805
      9 CAA        26.4550   73.3100    4.7440 C.3       1 CZ9        -0.0445
     10 OAC        31.7970   68.4670    6.0990 O.2       1 CZ9        -0.3909
     11 OAD        27.1370   70.4750    3.0160 O.2       1 CZ9        -0.3578
     12 OAE        28.9900   68.5160    3.1430 O.2       1 CZ9        -0.3475
     13 OAG        31.3520   62.0290    7.1900 O.3       1 CZ9        -0.8710
     14 OAH        33.7490   62.2190    6.2180 O.3       1 CZ9        -0.8710
     15 CAM        26.4250   71.8730    5.2240 C.3       1 CZ9         0.0321
     16 CAN        31.6930   62.6570    4.6640 C.3       1 CZ9        -0.2407
     17 CAO        28.0160   70.5060    6.3510 C.3       1 CZ9         0.0595
     18 CAP        29.4190   69.8820    6.3920 C.3       1 CZ9         0.0805
     19 NAR        32.1840   64.0260    4.8170 N.am      1 CZ9        -0.4390
     20 CAU        30.9340   68.3720    5.2320 C.2       1 CZ9         0.2936
     21 CAV        27.8810   70.3990    3.9830 C.2       1 CZ9         0.2926
     22 CAW        28.9720   69.3730    4.0140 C.2       1 CZ9         0.3156
     23 BAY        32.2700   61.8750    5.9640 B         1 CZ9         3.0000
     24 NBB        27.7600   71.2830    5.1390 N.am      1 CZ9        -0.2590
     25 NBC        29.9690   69.4730    5.0910 N.am      1 CZ9        -0.1574
     26 CD1        34.5490   68.4900    4.2950 C.ar      1 CZ9        -0.0685
     27 CD2        32.7740   69.1910    2.7830 C.ar      1 CZ9        -0.0685
     28 CE1        34.9370   69.8240    4.4640 C.ar      1 CZ9        -0.0398
     29 CE2        33.1560   70.5210    2.9650 C.ar      1 CZ9        -0.0398
     30 H          30.0729   67.1292    3.8180 H         1 CZ9         0.1886
     31 H          32.5967   66.5221    5.3365 H         1 CZ9         0.0818
     32 H          32.5678   66.5978    2.3065 H         1 CZ9         0.0452
     33 H          33.9033   66.0734    3.3296 H         1 CZ9         0.0452
     34 H          35.5035   72.2490    3.6626 H         1 CZ9         0.2458
     35 H          27.1399   73.8855    5.3667 H         1 CZ9         0.0249
     36 H          26.7926   73.3387    3.7080 H         1 CZ9         0.0249
     37 H          25.4540   73.7358    4.8132 H         1 CZ9         0.0249
     38 H          30.4530   61.7962    6.9465 H         1 CZ9        -0.1290
     39 H          33.8193   63.1327    6.5042 H         1 CZ9        -0.1290
     40 H          25.7422   71.3015    4.5953 H         1 CZ9         0.0521
     41 H          26.0910   71.8507    6.2613 H         1 CZ9         0.0521
     42 H          32.0274   62.2035    3.7310 H         1 CZ9        -0.1856
     43 H          30.6051   62.6153    4.6100 H         1 CZ9        -0.1856
     44 H          27.9340   71.1851    7.1996 H         1 CZ9         0.0548
     45 H          27.2933   69.6905    6.3767 H         1 CZ9         0.0548
     46 H          29.3381   68.9763    6.9931 H         1 CZ9         0.0596
     47 H          30.0878   70.6481    6.7844 H         1 CZ9         0.0596
     48 H          33.0084   64.2240    5.3840 H         1 CZ9         0.1457
     49 H          35.0812   67.6962    4.8191 H         1 CZ9         0.0530
     50 H          31.9386   68.9437    2.1279 H         1 CZ9         0.0530
     51 H          35.7815   70.0741    5.1062 H         1 CZ9         0.0525
     52 H          32.6152   71.3178    2.4543 H         1 CZ9         0.0525
@<TRIPOS>BOND
     1    1    3 2  
     2    4    1 1  
     3    1   19 am 
     4    4    2 1  
     5    2   20 am 
     6    5    4 1  
     7    6    5 1  
     8   26    6 ar 
     9    6   27 ar 
    10    8    7 1  
    11   28    8 ar 
    12    8   29 ar 
    13   15    9 1  
    14   20   10 2  
    15   21   11 2  
    16   22   12 2  
    17   23   13 1  
    18   23   14 1  
    19   24   15 1  
    20   19   16 1  
    21   16   23 1  
    22   18   17 1  
    23   17   24 1  
    24   25   18 1  
    25   20   25 am 
    26   22   21 1  
    27   21   24 am 
    28   25   22 am 
    29   26   28 ar 
    30   27   29 ar 
    31    2   30 1  
    32    4   31 1  
    33    5   32 1  
    34    5   33 1  
    35    7   34 1  
    36    9   35 1  
    37    9   36 1  
    38    9   37 1  
    39   13   38 1  
    40   14   39 1  
    41   15   40 1  
    42   15   41 1  
    43   16   42 1  
    44   16   43 1  
    45   17   44 1  
    46   17   45 1  
    47   18   46 1  
    48   18   47 1  
    49   19   48 1  
    50   26   49 1  
    51   27   50 1  
    52   28   51 1  
    53   29   52 1  
@<TRIPOS>SUBSTRUCTURE
     1 CZ9         1

