3mxs_ligand
  -I-interpret- 

 52 53  0  0  0  0  0  0  0  0999 V2000
   31.5280   65.0120    4.1970 C   0  0  0  0  0
   30.8850   67.3070    4.4090 N   0  0  0  0  0
   30.5260   64.8240    3.5160 O   0  0  0  0  0
   32.0540   66.4090    4.3980 C   0  0  0  0  0
   33.0400   66.7370    3.2790 C   0  0  0  0  0
   33.4740   68.1760    3.4500 C   0  0  0  0  0
   34.5980   72.1340    3.9600 O   0  0  0  0  0
   34.2320   70.8320    3.8020 C   0  0  0  0  0
   26.4550   73.3100    4.7440 C   0  0  0  0  0
   31.7970   68.4670    6.0990 O   0  0  0  0  0
   27.1370   70.4750    3.0160 O   0  0  0  0  0
   28.9900   68.5160    3.1430 O   0  0  0  0  0
   31.3520   62.0290    7.1900 O   0  0  0  0  0
   33.7490   62.2190    6.2180 O   0  0  0  0  0
   26.4250   71.8730    5.2240 C   0  0  0  0  0
   31.6930   62.6570    4.6640 C   0  0  0  0  0
   28.0160   70.5060    6.3510 C   0  0  0  0  0
   29.4190   69.8820    6.3920 C   0  0  0  0  0
   32.1840   64.0260    4.8170 N   0  0  0  0  0
   30.9340   68.3720    5.2320 C   0  0  0  0  0
   27.8810   70.3990    3.9830 C   0  0  0  0  0
   28.9720   69.3730    4.0140 C   0  0  0  0  0
   32.2700   61.8750    5.9640 B   0  0  0  0  0
   27.7600   71.2830    5.1390 N   0  0  0  0  0
   29.9690   69.4730    5.0910 N   0  0  0  0  0
   34.5490   68.4900    4.2950 C   0  0  0  0  0
   32.7740   69.1910    2.7830 C   0  0  0  0  0
   34.9370   69.8240    4.4640 C   0  0  0  0  0
   33.1560   70.5210    2.9650 C   0  0  0  0  0
   30.0729   67.1292    3.8180 H   0  0  0  0  0
   32.5967   66.5221    5.3365 H   0  0  0  0  0
   32.5678   66.5978    2.3065 H   0  0  0  0  0
   33.9033   66.0734    3.3296 H   0  0  0  0  0
   34.0160   72.6941    3.4412 H   0  0  0  0  0
   27.1399   73.8855    5.3667 H   0  0  0  0  0
   26.7926   73.3387    3.7080 H   0  0  0  0  0
   25.4540   73.7358    4.8132 H   0  0  0  0  0
   30.4530   61.7962    6.9465 H   0  0  0  0  0
   34.2485   62.0971    5.4073 H   0  0  0  0  0
   25.7422   71.3015    4.5953 H   0  0  0  0  0
   26.0910   71.8507    6.2613 H   0  0  0  0  0
   32.0274   62.2035    3.7310 H   0  0  0  0  0
   30.6051   62.6153    4.6100 H   0  0  0  0  0
   27.9340   71.1851    7.1996 H   0  0  0  0  0
   27.2933   69.6905    6.3767 H   0  0  0  0  0
   29.3381   68.9763    6.9931 H   0  0  0  0  0
   30.0878   70.6481    6.7844 H   0  0  0  0  0
   33.0084   64.2240    5.3840 H   0  0  0  0  0
   35.0812   67.6962    4.8191 H   0  0  0  0  0
   31.9386   68.9437    2.1279 H   0  0  0  0  0
   35.7815   70.0741    5.1062 H   0  0  0  0  0
   32.6152   71.3178    2.4543 H   0  0  0  0  0
  1  3  2  0  0  0
  4  1  1  0  0  0
  1 19  1  0  0  0
  4  2  1  0  0  0
  2 20  1  0  0  0
  5  4  1  0  0  0
  6  5  1  0  0  0
 26  6  4  0  0  0
  6 27  4  0  0  0
  8  7  1  0  0  0
 28  8  4  0  0  0
  8 29  4  0  0  0
 15  9  1  0  0  0
 20 10  2  0  0  0
 21 11  2  0  0  0
 22 12  2  0  0  0
 23 13  1  0  0  0
 23 14  1  0  0  0
 24 15  1  0  0  0
 19 16  1  0  0  0
 16 23  1  0  0  0
 18 17  1  0  0  0
 17 24  1  0  0  0
 25 18  1  0  0  0
 20 25  1  0  0  0
 22 21  1  0  0  0
 21 24  1  0  0  0
 25 22  1  0  0  0
 26 28  4  0  0  0
 27 29  4  0  0  0
  2 30  1  0  0  0
  4 31  1  0  0  0
  5 32  1  0  0  0
  5 33  1  0  0  0
  7 34  1  0  0  0
  9 35  1  0  0  0
  9 36  1  0  0  0
  9 37  1  0  0  0
 13 38  1  0  0  0
 14 39  1  0  0  0
 15 40  1  0  0  0
 15 41  1  0  0  0
 16 42  1  0  0  0
 16 43  1  0  0  0
 17 44  1  0  0  0
 17 45  1  0  0  0
 18 46  1  0  0  0
 18 47  1  0  0  0
 19 48  1  0  0  0
 26 49  1  0  0  0
 27 50  1  0  0  0
 28 51  1  0  0  0
 29 52  1  0  0  0
M  END
$$$$
