4few_ligand
  -I-interpret- 

 37 39  0  0  0  0  0  0  0  0999 V2000
  -21.3120  -27.3190  -17.9070 C   0  0  0  0  0
  -21.4630  -26.0450  -18.3030 N   0  0  0  0  0
  -21.7980  -25.7750  -19.5440 C   0  0  0  0  0
  -21.9830  -26.7390  -20.4280 N   0  0  0  0  0
  -21.8410  -28.0290  -20.1120 C   0  0  0  0  0
  -21.4900  -28.3660  -18.8030 C   0  0  0  0  0
  -21.2480  -29.5130  -18.0280 C   0  0  0  0  0
  -20.9500  -29.1030  -16.7960 N   0  0  0  0  0
  -20.9900  -27.8700  -16.7340 N   0  0  0  0  0
  -21.2940  -30.8560  -18.3990 C   0  0  0  0  0
  -21.6080  -31.2860  -19.6790 C   0  0  0  0  0
  -21.6520  -32.6310  -20.0010 C   0  0  0  0  0
  -21.3820  -33.5730  -19.0210 C   0  0  0  0  0
  -21.0710  -33.1640  -17.7290 C   0  0  0  0  0
  -21.0320  -31.8090  -17.4200 C   0  0  0  0  0
  -20.6860  -27.1140  -15.4890 C   0  0  0  0  0
  -21.9360  -26.3730  -15.0330 C   0  0  0  0  0
  -20.2340  -28.1320  -14.4450 C   0  0  0  0  0
  -19.5410  -26.1240  -15.7610 C   0  0  0  0  0
  -22.0540  -28.9110  -21.0800 N   0  0  0  0  0
  -21.4320  -35.2520  -19.4220 Cl  0  0  0  0  0
  -21.9257  -24.7366  -19.8500 H   0  0  0  0  0
  -21.8254  -30.5470  -20.4501 H   0  0  0  0  0
  -21.8966  -32.9465  -21.0153 H   0  0  0  0  0
  -20.8579  -33.9053  -16.9588 H   0  0  0  0  0
  -20.7947  -31.4915  -16.4046 H   0  0  0  0  0
  -22.2514  -25.6806  -15.8135 H   0  0  0  0  0
  -22.7324  -27.0915  -14.8393 H   0  0  0  0  0
  -21.7156  -25.8184  -14.1209 H   0  0  0  0  0
  -21.0333  -28.8527  -14.2723 H   0  0  0  0  0
  -19.3465  -28.6515  -14.8063 H   0  0  0  0  0
  -20.0006  -27.6161  -13.5136 H   0  0  0  0  0
  -18.6553  -26.6735  -16.0800 H   0  0  0  0  0
  -19.8415  -25.4296  -16.5457 H   0  0  0  0  0
  -19.3175  -25.5696  -14.8495 H   0  0  0  0  0
  -22.3131  -28.5913  -22.0133 H   0  0  0  0  0
  -21.9586  -29.9088  -20.8909 H   0  0  0  0  0
  1  2  4  0  0  0
  1  6  4  0  0  0
  1  9  4  0  0  0
  2  3  4  0  0  0
  3  4  4  0  0  0
  4  5  4  0  0  0
  5  6  4  0  0  0
  5 20  1  0  0  0
  6  7  4  0  0  0
  7  8  4  0  0  0
  7 10  1  0  0  0
  8  9  4  0  0  0
  9 16  1  0  0  0
 10 11  4  0  0  0
 10 15  4  0  0  0
 11 12  4  0  0  0
 12 13  4  0  0  0
 13 14  4  0  0  0
 13 21  1  0  0  0
 14 15  4  0  0  0
 16 17  1  0  0  0
 16 18  1  0  0  0
 16 19  1  0  0  0
  3 22  1  0  0  0
 11 23  1  0  0  0
 12 24  1  0  0  0
 14 25  1  0  0  0
 15 26  1  0  0  0
 17 27  1  0  0  0
 17 28  1  0  0  0
 17 29  1  0  0  0
 18 30  1  0  0  0
 18 31  1  0  0  0
 18 32  1  0  0  0
 19 33  1  0  0  0
 19 34  1  0  0  0
 19 35  1  0  0  0
 20 36  1  0  0  0
 20 37  1  0  0  0
M  END
$$$$
