2i4x_ligand
  -I-interpret- 

 98101  0  0  0  0  0  0  0  0999 V2000
   13.4730   22.1090   17.8170 N   0  0  0  0  0
   11.7410   17.9830   18.3630 C   0  0  0  0  0
   12.3050   18.9340   12.4460 O   0  0  0  0  0
   14.4130   22.9560   17.1040 C   0  0  0  0  0
   13.7300   23.4230   15.7780 C   0  0  0  0  0
   13.3440   22.2380   14.8870 C   0  0  0  0  0
   14.3060   21.6160   14.0710 C   0  0  0  0  0
   13.9610   20.5220   13.2620 C   0  0  0  0  0
   12.6410   20.0320   13.2540 C   0  0  0  0  0
   11.4110   17.9640   13.0050 C   0  0  0  0  0
   11.4860   16.4440   11.9980 P   0  0  0  0  0
   12.9740   15.8600   11.9930 O   0  0  0  0  0
   13.5850   15.1940   10.8740 C   0  0  0  0  0
   15.0260   14.7800   11.2600 C   0  0  0  0  0
   10.5540   15.4320   12.5810 O   0  0  0  0  0
   11.0670   16.7420   10.4880 O   0  0  0  0  0
    9.8080   17.2670   10.0700 C   0  0  0  0  0
    9.8220   17.3870    8.5290 C   0  0  0  0  0
   11.6670   20.6530   14.0660 C   0  0  0  0  0
   12.0190   21.7510   14.8760 C   0  0  0  0  0
   14.7880   24.1500   18.0260 C   0  0  0  0  0
   13.6400   24.9830   18.1640 O   0  0  0  0  0
   15.9240   25.0660   17.4750 C   0  0  0  0  0
   17.2230   24.3480   17.3230 N   0  0  0  0  0
   18.2800   24.6180   18.3460 C   0  0  0  0  0
   18.1980   23.7680   19.6570 C   0  0  0  0  0
   19.5130   22.9770   19.8340 C   0  0  0  0  0
   17.0320   22.7470   19.6110 C   0  0  0  0  0
   17.8120   24.1050   15.7620 S   0  0  0  0  0
   18.7750   23.0300   15.8190 O   0  0  0  0  0
   16.7170   23.9160   14.8380 O   0  0  0  0  0
   18.6990   25.6000   15.3270 C   0  0  0  0  0
   20.0820   25.7000   15.5790 C   0  0  0  0  0
   20.7880   26.8630   15.2490 C   0  0  0  0  0
   20.1240   27.9520   14.6530 C   0  0  0  0  0
   20.8210   29.1170   14.3210 O   0  0  0  0  0
   22.1840   29.3210   14.7220 C   0  0  0  0  0
   18.7440   27.8520   14.3990 C   0  0  0  0  0
   18.0360   26.6850   14.7300 C   0  0  0  0  0
   13.7280   20.8210   18.1030 C   0  0  0  0  0
   14.7640   20.2300   17.8020 O   0  0  0  0  0
   12.6760   20.2780   18.7520 O   0  0  0  0  0
   12.7420   18.8820   19.1220 C   0  0  0  0  0
   12.2090   18.7940   20.5650 C   0  0  0  0  0
   10.8060   18.9500   20.3330 O   0  0  0  0  0
   10.4620   18.0910   19.2430 C   0  0  0  0  0
    9.4410   18.6750   18.4080 O   0  0  0  0  0
   10.0750   19.4490   17.3840 C   0  0  0  0  0
   11.2380   18.5220   16.9960 C   0  0  0  0  0
   12.5823   22.5084   18.1129 H   0  0  0  0  0
   12.2213   17.0195   18.1925 H   0  0  0  0  0
   15.3318   22.4288   16.8471 H   0  0  0  0  0
   14.4367   24.0467   15.2305 H   0  0  0  0  0
   12.8217   23.9681   16.0347 H   0  0  0  0  0
   15.3307   21.9876   14.0668 H   0  0  0  0  0
   14.7187   20.0495   12.6369 H   0  0  0  0  0
   10.3941   18.3565   13.0055 H   0  0  0  0  0
   11.7029   17.7414   14.0313 H   0  0  0  0  0
   13.6127   15.8662   10.0164 H   0  0  0  0  0
   13.0057   14.3086   10.6119 H   0  0  0  0  0
   15.6012   15.6691   11.5184 H   0  0  0  0  0
   14.9921   14.1061   12.1161 H   0  0  0  0  0
   15.4957   14.2743   10.4163 H   0  0  0  0  0
    9.6420   18.2456   10.5204 H   0  0  0  0  0
    9.0022   16.6049   10.3869 H   0  0  0  0  0
   10.6270   18.0562    8.2253 H   0  0  0  0  0
    9.9818   16.4019    8.0906 H   0  0  0  0  0
    8.8671   17.7871    8.1883 H   0  0  0  0  0
   10.6418   20.2827   14.0663 H   0  0  0  0  0
   11.2623   22.2280   15.4989 H   0  0  0  0  0
   15.1376   23.7069   18.9585 H   0  0  0  0  0
   12.9075   24.4629   18.5025 H   0  0  0  0  0
   16.0727   25.8781   18.1866 H   0  0  0  0  0
   15.6201   25.4185   16.4894 H   0  0  0  0  0
   18.1561   25.6582   18.6472 H   0  0  0  0  0
   19.2314   24.3667   17.8771 H   0  0  0  0  0
   18.0313   24.4574   20.4846 H   0  0  0  0  0
   19.6566   22.3172   18.9784 H   0  0  0  0  0
   20.3484   23.6739   19.9013 H   0  0  0  0  0
   19.4586   22.3838   20.7468 H   0  0  0  0  0
   16.0889   23.2797   19.4889 H   0  0  0  0  0
   17.1785   22.0677   18.7712 H   0  0  0  0  0
   17.0118   22.1783   20.5407 H   0  0  0  0  0
   20.6081   24.8620   16.0362 H   0  0  0  0  0
   21.8566   26.9256   15.4544 H   0  0  0  0  0
   22.2490   29.2958   15.8098 H   0  0  0  0  0
   22.8072   28.5319   14.3011 H   0  0  0  0  0
   22.5272   30.2896   14.3585 H   0  0  0  0  0
   18.2183   28.6895   13.9402 H   0  0  0  0  0
   16.9678   26.6210   14.5228 H   0  0  0  0  0
   13.7666   18.5602   18.9355 H   0  0  0  0  0
   12.6341   19.5335   21.2436 H   0  0  0  0  0
   12.4759   17.8734   21.0840 H   0  0  0  0  0
   10.1013   17.1386   19.6316 H   0  0  0  0  0
   10.3902   20.4400   17.7107 H   0  0  0  0  0
    9.4178   19.7047   16.5529 H   0  0  0  0  0
   10.9299   17.7247   16.3196 H   0  0  0  0  0
   12.0178   19.0401   16.4379 H   0  0  0  0  0
  1  4  1  0  0  0
 40  1  1  0  0  0
 43  2  1  0  0  0
  2 46  1  0  0  0
  2 49  1  0  0  0
  9  3  1  0  0  0
  3 10  1  0  0  0
  4  5  1  0  0  0
  4 21  1  0  0  0
  5  6  1  0  0  0
  6  7  4  0  0  0
  6 20  4  0  0  0
  7  8  4  0  0  0
  8  9  4  0  0  0
 19  9  4  0  0  0
 10 11  1  0  0  0
 11 12  1  0  0  0
 11 15  2  0  0  0
 11 16  1  0  0  0
 12 13  1  0  0  0
 13 14  1  0  0  0
 16 17  1  0  0  0
 17 18  1  0  0  0
 20 19  4  0  0  0
 21 22  1  0  0  0
 21 23  1  0  0  0
 23 24  1  0  0  0
 24 25  1  0  0  0
 24 29  1  0  0  0
 25 26  1  0  0  0
 26 27  1  0  0  0
 26 28  1  0  0  0
 29 30  2  0  0  0
 29 31  2  0  0  0
 29 32  1  0  0  0
 32 33  4  0  0  0
 32 39  4  0  0  0
 33 34  4  0  0  0
 34 35  4  0  0  0
 35 36  1  0  0  0
 38 35  4  0  0  0
 36 37  1  0  0  0
 39 38  4  0  0  0
 40 41  2  0  0  0
 42 40  1  0  0  0
 42 43  1  0  0  0
 43 44  1  0  0  0
 44 45  1  0  0  0
 45 46  1  0  0  0
 46 47  1  0  0  0
 47 48  1  0  0  0
 48 49  1  0  0  0
  1 50  1  0  0  0
  2 51  1  0  0  0
  4 52  1  0  0  0
  5 53  1  0  0  0
  5 54  1  0  0  0
  7 55  1  0  0  0
  8 56  1  0  0  0
 10 57  1  0  0  0
 10 58  1  0  0  0
 13 59  1  0  0  0
 13 60  1  0  0  0
 14 61  1  0  0  0
 14 62  1  0  0  0
 14 63  1  0  0  0
 17 64  1  0  0  0
 17 65  1  0  0  0
 18 66  1  0  0  0
 18 67  1  0  0  0
 18 68  1  0  0  0
 19 69  1  0  0  0
 20 70  1  0  0  0
 21 71  1  0  0  0
 22 72  1  0  0  0
 23 73  1  0  0  0
 23 74  1  0  0  0
 25 75  1  0  0  0
 25 76  1  0  0  0
 26 77  1  0  0  0
 27 78  1  0  0  0
 27 79  1  0  0  0
 27 80  1  0  0  0
 28 81  1  0  0  0
 28 82  1  0  0  0
 28 83  1  0  0  0
 33 84  1  0  0  0
 34 85  1  0  0  0
 37 86  1  0  0  0
 37 87  1  0  0  0
 37 88  1  0  0  0
 38 89  1  0  0  0
 39 90  1  0  0  0
 43 91  1  0  0  0
 44 92  1  0  0  0
 44 93  1  0  0  0
 46 94  1  0  0  0
 48 95  1  0  0  0
 48 96  1  0  0  0
 49 97  1  0  0  0
 49 98  1  0  0  0
M  END
$$$$
