2clh_ligand
  -I-interpret- 

 35 36  0  0  0  0  0  0  0  0999 V2000
   51.4300   24.8680   14.8070 C   0  0  0  0  0
   50.5780   25.8790   15.2670 C   0  0  0  0  0
   49.1770   25.6170   15.5370 C   0  0  0  0  0
   48.7780   24.2650   15.6510 C   0  0  0  0  0
   49.6120   23.1800   15.1620 C   0  0  0  0  0
   50.9740   23.4920   14.7470 C   0  0  0  0  0
   51.8550   22.4590   14.2870 C   0  0  0  0  0
   51.2870   20.9950   14.3830 C   0  0  0  0  0
   50.0040   20.6580   14.9310 C   0  0  0  0  0
   49.1220   21.8170   15.0610 C   0  0  0  0  0
   48.0150   26.9810   15.7360 S   0  0  0  0  0
   46.6800   26.4500   15.4520 O   0  0  0  0  0
   48.1490   27.4850   17.0820 O   0  0  0  0  0
   47.9510   28.9050   12.4260 C   0  0  0  0  0
   47.9350   28.3420   11.1250 O   0  0  0  0  0
   48.7880   28.0370   13.3410 C   0  0  0  0  0
   48.4070   28.2920   14.7270 N   0  0  0  0  0
   46.6860   30.2280    9.7300 O   0  0  0  0  0
   49.0050   30.2430   10.0020 O   0  0  0  0  0
   47.7920   29.3570    9.8630 P   0  0  0  0  0
   47.8990   28.5460    8.6550 O   0  0  0  0  0
   52.4434   25.1164   14.4916 H   0  0  0  0  0
   50.9747   26.8818   15.4253 H   0  0  0  0  0
   47.8210   24.0309   16.1173 H   0  0  0  0  0
   52.8502   22.6731   13.8974 H   0  0  0  0  0
   51.9094   20.1824   14.0083 H   0  0  0  0  0
   49.7178   19.6465   15.2194 H   0  0  0  0  0
   48.0451   21.6497   15.0831 H   0  0  0  0  0
   46.9325   28.9614   12.8101 H   0  0  0  0  0
   48.3791   29.9065   12.3833 H   0  0  0  0  0
   49.8434   28.2719   13.2030 H   0  0  0  0  0
   48.6198   26.9867   13.1031 H   0  0  0  0  0
   48.3763   29.2462   15.0861 H   0  0  0  0  0
   49.7893   29.6974   10.0960 H   0  0  0  0  0
   48.6478   27.9508    8.7358 H   0  0  0  0  0
  2  1  4  0  0  0
  1  6  4  0  0  0
  3  2  4  0  0  0
  3  4  4  0  0  0
 11  3  1  0  0  0
  4  5  4  0  0  0
  5  6  4  0  0  0
  5 10  4  0  0  0
  6  7  4  0  0  0
  7  8  4  0  0  0
  9  8  4  0  0  0
 10  9  4  0  0  0
 11 12  2  0  0  0
 11 13  2  0  0  0
 17 11  1  0  0  0
 14 15  1  0  0  0
 16 14  1  0  0  0
 15 20  1  0  0  0
 16 17  1  0  0  0
 20 18  2  0  0  0
 20 19  1  0  0  0
 20 21  1  0  0  0
  1 22  1  0  0  0
  2 23  1  0  0  0
  4 24  1  0  0  0
  7 25  1  0  0  0
  8 26  1  0  0  0
  9 27  1  0  0  0
 10 28  1  0  0  0
 14 29  1  0  0  0
 14 30  1  0  0  0
 16 31  1  0  0  0
 16 32  1  0  0  0
 17 33  1  0  0  0
 19 34  1  0  0  0
 21 35  1  0  0  0
M  END
$$$$
