5dpw_ligand
  -I-interpret- 

156158  0  0  0  0  0  0  0  0999 V2000
   11.7590  -67.8790    8.7620 N   0  3  0  0  0
   13.0550  -67.4640    8.2390 C   0  0  0  0  0
   13.4980  -66.1260    8.8330 C   0  0  0  0  0
   14.4890  -65.5420    8.3920 O   0  0  0  0  0
   13.0040  -67.3700    6.7120 C   0  0  0  0  0
   12.8430  -68.7130    6.0160 C   0  0  0  0  0
   12.6510  -68.5760    4.5180 C   0  0  0  0  0
   12.9070  -69.5600    3.7920 O   0  0  0  0  0
   12.2400  -67.4860    4.0660 O   0  0  0  0  0
   12.7600  -65.6540    9.8370 N   0  0  0  0  0
   13.0580  -64.3890   10.5070 C   0  0  0  0  0
   13.1200  -63.2280    9.5160 C   0  0  0  0  0
   14.1960  -62.7130    9.2110 O   0  0  0  0  0
   14.3760  -64.4900   11.2830 C   0  0  0  0  0
   14.6870  -63.2290   12.0730 C   0  0  0  0  0
   14.2310  -63.1210   13.2300 O   0  0  0  0  0
   15.3900  -62.3470   11.5360 O   0  0  0  0  0
   11.9580  -62.8270    9.0130 N   0  0  0  0  0
   11.8670  -61.6810    8.1150 C   0  0  0  0  0
   10.4400  -61.1440    8.0880 C   0  0  0  0  0
    9.4850  -61.8610    8.3890 O   0  0  0  0  0
   12.3320  -62.0580    6.7050 C   0  0  0  0  0
   12.3680  -60.8960    5.7150 C   0  0  0  0  0
   13.2270  -59.7360    6.1900 C   0  0  0  0  0
   14.1720  -59.9700    6.9740 O   0  0  0  0  0
   12.9540  -58.5880    5.7800 O   0  0  0  0  0
   10.3090  -59.8760    7.7170 N   0  0  0  0  0
    9.0590  -59.1440    7.8720 C   0  0  0  0  0
    8.0070  -59.4450    6.8160 C   0  0  0  0  0
    8.3220  -59.7220    5.6600 O   0  0  0  0  0
    9.3480  -57.6460    7.8600 C   0  0  0  0  0
   10.3410  -57.2490    8.8830 C   0  0  0  0  0
   11.6900  -57.1390    8.7180 C   0  0  0  0  0
   10.0720  -56.9160   10.2460 C   0  0  0  0  0
   12.2790  -56.7540    9.8970 N   0  0  0  0  0
   11.3050  -56.6130   10.8510 C   0  0  0  0  0
    8.9070  -56.8450   11.0140 C   0  0  0  0  0
   11.4070  -56.2400   12.1870 C   0  0  0  0  0
    9.0100  -56.4750   12.3400 C   0  0  0  0  0
   10.2510  -56.1760   12.9120 C   0  0  0  0  0
    6.7500  -59.3860    7.2450 N   0  0  0  0  0
    5.6110  -59.3520    6.3410 C   0  0  0  0  0
    5.0730  -57.9310    6.3410 C   0  0  0  0  0
    4.5050  -57.4760    7.3330 O   0  0  0  0  0
    4.5040  -60.3390    6.7620 C   0  0  0  0  0
    3.2510  -60.1670    5.9030 C   0  0  0  0  0
    5.0130  -61.7620    6.6750 C   0  0  0  0  0
    5.2690  -57.2280    5.2310 N   0  0  0  0  0
    4.8460  -55.8380    5.1210 C   0  0  0  0  0
    3.4480  -55.7010    4.5320 C   0  0  0  0  0
    3.2370  -55.9720    3.3500 O   0  0  0  0  0
    5.8400  -55.0520    4.2680 C   0  0  0  0  0
    5.4100  -53.6150    4.0550 C   0  0  0  0  0
    5.7030  -52.7400    4.8690 O   0  0  0  0  0
    4.7060  -53.3660    2.9570 N   0  0  0  0  0
    2.5000  -55.2770    5.3630 N   0  0  0  0  0
    1.1230  -55.0800    4.9210 C   0  0  0  0  0
    0.8740  -53.5740    4.8410 C   0  0  0  0  0
    1.5280  -52.8040    5.5400 O   0  0  0  0  0
    0.0760  -55.7580    5.8680 C   0  0  0  0  0
    0.6150  -57.0500    6.5120 C   0  0  0  0  0
   -0.3920  -54.8070    6.9520 C   0  0  0  0  0
   -0.0630  -53.1540    3.9940 N   0  0  0  0  0
   -0.3290  -51.7300    3.7950 C   0  0  0  0  0
   -1.7870  -51.4630    3.4410 C   0  0  0  0  0
   -2.4220  -52.2610    2.7510 O   0  0  0  0  0
    0.5730  -51.1690    2.6920 C   0  0  0  0  0
    1.2720  -49.8580    3.0450 C   0  0  0  0  0
    0.3130  -48.7730    3.5000 C   0  0  0  0  0
   -0.8080  -48.6680    3.0020 O   0  0  0  0  0
    0.7510  -47.9620    4.4570 N   0  0  0  0  0
   -2.3020  -50.3310    3.9160 N   0  0  0  0  0
   -3.6350  -49.8580    3.5480 C   0  0  0  0  0
   -4.7150  -50.8940    3.8440 C   0  0  0  0  0
   -5.5780  -50.6780    4.6960 O   0  0  0  0  0
   -3.6550  -49.4720    2.0650 C   0  0  0  0  0
   -4.9060  -49.8820    1.3250 C   0  0  0  0  0
   -4.9960  -51.1260    0.7130 C   0  0  0  0  0
   -5.9900  -49.0220    1.2250 C   0  0  0  0  0
   -6.1350  -51.5050    0.0320 C   0  0  0  0  0
   -7.1330  -49.3930    0.5440 C   0  0  0  0  0
   -7.2000  -50.6360   -0.0500 C   0  0  0  0  0
   -8.3340  -51.0130   -0.7300 O   0  0  0  0  0
   -4.7430  -51.9650    3.2360 O   0  0  0  0  0
   11.8071  -67.9375    9.7792 H   0  0  0  0  0
   11.0506  -67.1964    8.4926 H   0  0  0  0  0
   11.5158  -68.7925    8.3788 H   0  0  0  0  0
   13.7870  -68.2179    8.5288 H   0  0  0  0  0
   13.9522  -66.9457    6.3818 H   0  0  0  0  0
   12.1349  -66.7650    6.4536 H   0  0  0  0  0
   11.9561  -69.1976    6.4243 H   0  0  0  0  0
   13.7525  -69.2892    6.1857 H   0  0  0  0  0
   12.1072  -66.8702    4.7904 H   0  0  0  0  0
   11.9553  -66.1967   10.1506 H   0  0  0  0  0
   12.2464  -64.1897   11.2068 H   0  0  0  0  0
   15.1793  -64.6408   10.5618 H   0  0  0  0  0
   14.2870  -65.3152   11.9896 H   0  0  0  0  0
   15.6339  -62.6285   10.6512 H   0  0  0  0  0
   11.1078  -63.3331    9.2609 H   0  0  0  0  0
   12.5252  -60.8961    8.4876 H   0  0  0  0  0
   11.6167  -62.7836    6.3177 H   0  0  0  0  0
   13.3525  -62.4302    6.7957 H   0  0  0  0  0
   11.3487  -60.5279    5.5986 H   0  0  0  0  0
   12.7969  -61.2667    4.7840 H   0  0  0  0  0
   14.2060  -60.9111    7.1606 H   0  0  0  0  0
   11.1120  -59.3974    7.3090 H   0  0  0  0  0
    8.6409  -59.4749    8.8227 H   0  0  0  0  0
    8.4164  -57.1232    8.0766 H   0  0  0  0  0
    9.7547  -57.3910    6.8814 H   0  0  0  0  0
   12.2229  -57.3289    7.7863 H   0  0  0  0  0
    7.9366  -57.0770   10.5751 H   0  0  0  0  0
   12.3718  -56.0078   12.6380 H   0  0  0  0  0
    8.1095  -56.4149   12.9513 H   0  0  0  0  0
   10.2967  -55.8850   13.9614 H   0  0  0  0  0
    6.5771  -59.3636    8.2500 H   0  0  0  0  0
    5.9330  -59.6546    5.3446 H   0  0  0  0  0
    4.2323  -60.1221    7.7951 H   0  0  0  0  0
    2.8719  -59.1512    6.0150 H   0  0  0  0  0
    3.5006  -60.3499    4.8579 H   0  0  0  0  0
    2.4903  -60.8777    6.2259 H   0  0  0  0  0
    5.3130  -61.9771    5.6494 H   0  0  0  0  0
    5.8698  -61.8812    7.3382 H   0  0  0  0  0
    4.2214  -62.4486    6.9750 H   0  0  0  0  0
    5.7272  -57.6725    4.4355 H   0  0  0  0  0
    4.8190  -55.4317    6.1321 H   0  0  0  0  0
    5.9010  -55.5336    3.2921 H   0  0  0  0  0
    6.7976  -55.0435    4.7885 H   0  0  0  0  0
    4.3851  -52.4178    2.7610 H   0  0  0  0  0
    4.4861  -54.1229    2.3096 H   0  0  0  0  0
    2.7417  -55.0844    6.3350 H   0  0  0  0  0
    0.9956  -55.5548    3.9481 H   0  0  0  0  0
   -0.7721  -56.0230    5.2367 H   0  0  0  0  0
    0.8736  -57.7638    5.7299 H   0  0  0  0  0
    1.5019  -56.8179    7.1016 H   0  0  0  0  0
   -0.1506  -57.4790    7.1584 H   0  0  0  0  0
    0.4624  -54.4922    7.5511 H   0  0  0  0  0
   -0.8563  -53.9345    6.4924 H   0  0  0  0  0
   -1.1174  -55.3130    7.5891 H   0  0  0  0  0
   -0.6075  -53.8407    3.4722 H   0  0  0  0  0
   -0.1141  -51.2300    4.7394 H   0  0  0  0  0
   -0.0655  -50.9667    1.8321 H   0  0  0  0  0
    1.3546  -51.9077    2.5148 H   0  0  0  0  0
    1.7746  -49.4993    2.1468 H   0  0  0  0  0
    1.9570  -50.0601    3.8684 H   0  0  0  0  0
    0.1504  -47.2158    4.8076 H   0  0  0  0  0
    1.6878  -48.0856    4.8411 H   0  0  0  0  0
   -1.7446  -49.7720    4.5619 H   0  0  0  0  0
   -3.8580  -48.9819    4.1569 H   0  0  0  0  0
   -2.8210  -49.9892    1.5906 H   0  0  0  0  0
   -3.6003  -48.3844    2.0188 H   0  0  0  0  0
   -4.1528  -51.8143    0.7717 H   0  0  0  0  0
   -5.9389  -48.0380    1.6912 H   0  0  0  0  0
   -6.1912  -52.4867   -0.4383 H   0  0  0  0  0
   -7.9775  -48.7072    0.4764 H   0  0  0  0  0
   -8.9780  -50.3019   -0.6951 H   0  0  0  0  0
   -4.0168  -51.9947    2.6088 H   0  0  0  0  0
  1  2  1  0  0  0
  2  3  1  0  0  0
  2  5  1  0  0  0
  3  4  2  0  0  0
  3 10  1  0  0  0
  5  6  1  0  0  0
  6  7  1  0  0  0
  7  8  2  0  0  0
  7  9  1  0  0  0
 10 11  1  0  0  0
 11 12  1  0  0  0
 11 14  1  0  0  0
 12 13  2  0  0  0
 12 18  1  0  0  0
 14 15  1  0  0  0
 15 16  2  0  0  0
 15 17  1  0  0  0
 18 19  1  0  0  0
 19 20  1  0  0  0
 19 22  1  0  0  0
 20 21  2  0  0  0
 20 27  1  0  0  0
 22 23  1  0  0  0
 23 24  1  0  0  0
 24 25  1  0  0  0
 24 26  2  0  0  0
 27 28  1  0  0  0
 28 29  1  0  0  0
 28 31  1  0  0  0
 29 30  2  0  0  0
 29 41  1  0  0  0
 31 32  1  0  0  0
 32 33  4  0  0  0
 32 34  4  0  0  0
 33 35  4  0  0  0
 34 36  4  0  0  0
 34 37  4  0  0  0
 35 36  4  0  0  0
 36 38  4  0  0  0
 37 39  4  0  0  0
 38 40  4  0  0  0
 39 40  4  0  0  0
 41 42  1  0  0  0
 42 43  1  0  0  0
 42 45  1  0  0  0
 43 44  2  0  0  0
 43 48  1  0  0  0
 45 46  1  0  0  0
 45 47  1  0  0  0
 48 49  1  0  0  0
 49 50  1  0  0  0
 49 52  1  0  0  0
 50 51  2  0  0  0
 50 56  1  0  0  0
 52 53  1  0  0  0
 53 54  2  0  0  0
 53 55  1  0  0  0
 56 57  1  0  0  0
 57 58  1  0  0  0
 57 60  1  0  0  0
 58 59  2  0  0  0
 58 63  1  0  0  0
 60 61  1  0  0  0
 60 62  1  0  0  0
 63 64  1  0  0  0
 64 65  1  0  0  0
 64 67  1  0  0  0
 65 66  2  0  0  0
 65 72  1  0  0  0
 67 68  1  0  0  0
 68 69  1  0  0  0
 69 70  2  0  0  0
 69 71  1  0  0  0
 72 73  1  0  0  0
 73 74  1  0  0  0
 73 76  1  0  0  0
 74 75  2  0  0  0
 74 84  1  0  0  0
 76 77  1  0  0  0
 77 78  4  0  0  0
 77 79  4  0  0  0
 78 80  4  0  0  0
 79 81  4  0  0  0
 80 82  4  0  0  0
 81 82  4  0  0  0
 82 83  1  0  0  0
  1 85  1  0  0  0
  1 86  1  0  0  0
  1 87  1  0  0  0
  2 88  1  0  0  0
  5 89  1  0  0  0
  5 90  1  0  0  0
  6 91  1  0  0  0
  6 92  1  0  0  0
  9 93  1  0  0  0
 10 94  1  0  0  0
 11 95  1  0  0  0
 14 96  1  0  0  0
 14 97  1  0  0  0
 17 98  1  0  0  0
 18 99  1  0  0  0
 19100  1  0  0  0
 22101  1  0  0  0
 22102  1  0  0  0
 23103  1  0  0  0
 23104  1  0  0  0
 25105  1  0  0  0
 27106  1  0  0  0
 28107  1  0  0  0
 31108  1  0  0  0
 31109  1  0  0  0
 33110  1  0  0  0
 37111  1  0  0  0
 38112  1  0  0  0
 39113  1  0  0  0
 40114  1  0  0  0
 41115  1  0  0  0
 42116  1  0  0  0
 45117  1  0  0  0
 46118  1  0  0  0
 46119  1  0  0  0
 46120  1  0  0  0
 47121  1  0  0  0
 47122  1  0  0  0
 47123  1  0  0  0
 48124  1  0  0  0
 49125  1  0  0  0
 52126  1  0  0  0
 52127  1  0  0  0
 55128  1  0  0  0
 55129  1  0  0  0
 56130  1  0  0  0
 57131  1  0  0  0
 60132  1  0  0  0
 61133  1  0  0  0
 61134  1  0  0  0
 61135  1  0  0  0
 62136  1  0  0  0
 62137  1  0  0  0
 62138  1  0  0  0
 63139  1  0  0  0
 64140  1  0  0  0
 67141  1  0  0  0
 67142  1  0  0  0
 68143  1  0  0  0
 68144  1  0  0  0
 71145  1  0  0  0
 71146  1  0  0  0
 72147  1  0  0  0
 73148  1  0  0  0
 76149  1  0  0  0
 76150  1  0  0  0
 78151  1  0  0  0
 79152  1  0  0  0
 80153  1  0  0  0
 81154  1  0  0  0
 83155  1  0  0  0
 84156  1  0  0  0
M  END
$$$$
