### 
### Created by X-TOOL on Wed Jan  1 15:39:34 2020
### 

@<TRIPOS>MOLECULE
5dpw_ligand
  153   155     1     0     0
SMALL
GAST_HUCK


@<TRIPOS>ATOM
      1 N          11.7590  -67.8790    8.7620 N.4       1 GLU         0.2380
      2 CA         13.0550  -67.4640    8.2390 C.3       1 GLU         0.0665
      3 C          13.4980  -66.1260    8.8330 C.2       1 GLU         0.2269
      4 O          14.4890  -65.5420    8.3920 O.2       1 GLU        -0.3907
      5 CB         13.0040  -67.3700    6.7120 C.3       1 GLU         0.0194
      6 CG         12.8430  -68.7130    6.0160 C.3       1 GLU         0.0075
      7 CD         12.6510  -68.5760    4.5180 C.2       1 GLU         0.0351
      8 OE1        12.9070  -69.5600    3.7920 O.co2     1 GLU        -0.5690
      9 OE2        12.2400  -67.4860    4.0660 O.co2     1 GLU        -0.5690
     10 N          12.7600  -65.6540    9.8370 N.am      1 ASP        -0.2595
     11 CA         13.0580  -64.3890   10.5070 C.3       1 ASP         0.1424
     12 C          13.1200  -63.2280    9.5160 C.2       1 ASP         0.2056
     13 O          14.1960  -62.7130    9.2110 O.2       1 ASP        -0.3943
     14 CB         14.3760  -64.4900   11.2830 C.3       1 ASP         0.0406
     15 CG         14.6870  -63.2290   12.0730 C.2       1 ASP         0.0393
     16 OD1        14.2310  -63.1210   13.2300 O.co2     1 ASP        -0.5688
     17 OD2        15.3900  -62.3470   11.5360 O.co2     1 ASP        -0.5688
     18 N          11.9580  -62.8270    9.0130 N.am      1 GLU        -0.2635
     19 CA         11.8670  -61.6810    8.1150 C.3       1 GLU         0.1325
     20 C          10.4400  -61.1440    8.0880 C.2       1 GLU         0.2041
     21 O           9.4850  -61.8610    8.3890 O.2       1 GLU        -0.3944
     22 CB         12.3320  -62.0580    6.7050 C.3       1 GLU        -0.0008
     23 CG         12.3680  -60.8960    5.7150 C.3       1 GLU         0.0044
     24 CD         13.2270  -59.7360    6.1900 C.2       1 GLU         0.0350
     25 OE1        14.1720  -59.9700    6.9740 O.co2     1 GLU        -0.5690
     26 OE2        12.9540  -58.5880    5.7800 O.co2     1 GLU        -0.5690
     27 N          10.3090  -59.8760    7.7170 N.am      1 TRP        -0.2627
     28 CA          9.0590  -59.1440    7.8720 C.3       1 TRP         0.1352
     29 C           8.0070  -59.4450    6.8160 C.2       1 TRP         0.2052
     30 O           8.3220  -59.7220    5.6600 O.2       1 TRP        -0.3942
     31 CB          9.3480  -57.6460    7.8600 C.3       1 TRP         0.0042
     32 CG         10.3410  -57.2490    8.8830 C.2       1 TRP        -0.0418
     33 CD1        11.6900  -57.1390    8.7180 C.2       1 TRP         0.0167
     34 CD2        10.0720  -56.9160   10.2460 C.ar      1 TRP        -0.0214
     35 NE1        12.2790  -56.7540    9.8970 N.pl3     1 TRP        -0.2890
     36 CE2        11.3050  -56.6130   10.8510 C.ar      1 TRP         0.0603
     37 CE3         8.9070  -56.8450   11.0140 C.ar      1 TRP        -0.0747
     38 CZ2        11.4070  -56.2400   12.1870 C.ar      1 TRP        -0.0443
     39 CZ3         9.0100  -56.4750   12.3400 C.ar      1 TRP        -0.0792
     40 CH2        10.2510  -56.1760   12.9120 C.ar      1 TRP        -0.0768
     41 N           6.7500  -59.3860    7.2450 N.am      1 VAL        -0.2634
     42 CA          5.6110  -59.3520    6.3410 C.3       1 VAL         0.1333
     43 C           5.0730  -57.9310    6.3410 C.2       1 VAL         0.2043
     44 O           4.5050  -57.4760    7.3330 O.2       1 VAL        -0.3944
     45 CB          4.5040  -60.3390    6.7620 C.3       1 VAL        -0.0063
     46 CG1         3.2510  -60.1670    5.9030 C.3       1 VAL        -0.0584
     47 CG2         5.0130  -61.7620    6.6750 C.3       1 VAL        -0.0584
     48 N           5.2690  -57.2280    5.2310 N.am      1 ASN        -0.2616
     49 CA          4.8460  -55.8380    5.1210 C.3       1 ASN         0.1476
     50 C           3.4480  -55.7010    4.5320 C.2       1 ASN         0.2063
     51 O           3.2370  -55.9720    3.3500 O.2       1 ASN        -0.3942
     52 CB          5.8400  -55.0520    4.2680 C.3       1 ASN         0.0773
     53 CG          5.4100  -53.6150    4.0550 C.2       1 ASN         0.1780
     54 OD1         5.7030  -52.7400    4.8690 O.2       1 ASN        -0.3970
     55 ND2         4.7060  -53.3660    2.9570 N.am      1 ASN        -0.3007
     56 N           2.5000  -55.2770    5.3630 N.am      1 VAL        -0.2633
     57 CA          1.1230  -55.0800    4.9210 C.3       1 VAL         0.1333
     58 C           0.8740  -53.5740    4.8410 C.2       1 VAL         0.2042
     59 O           1.5280  -52.8040    5.5400 O.2       1 VAL        -0.3944
     60 CB          0.0760  -55.7580    5.8680 C.3       1 VAL        -0.0063
     61 CG1         0.6150  -57.0500    6.5120 C.3       1 VAL        -0.0584
     62 CG2        -0.3920  -54.8070    6.9520 C.3       1 VAL        -0.0584
     63 N          -0.0630  -53.1540    3.9940 N.am      1 GLN        -0.2636
     64 CA         -0.3290  -51.7300    3.7950 C.3       1 GLN         0.1330
     65 C          -1.7870  -51.4630    3.4410 C.2       1 GLN         0.2036
     66 O          -2.4220  -52.2610    2.7510 O.2       1 GLN        -0.3944
     67 CB          0.5730  -51.1690    2.6920 C.3       1 GLN         0.0045
     68 CG          1.2720  -49.8580    3.0450 C.3       1 GLN         0.0412
     69 CD          0.3130  -48.7730    3.5000 C.2       1 GLN         0.1737
     70 OE1        -0.8080  -48.6680    3.0020 O.2       1 GLN        -0.3973
     71 NE2         0.7510  -47.9620    4.4570 N.am      1 GLN        -0.3009
     72 N          -2.3020  -50.3310    3.9160 N.am      1 TYR        -0.2679
     73 CA         -3.6350  -49.8580    3.5480 C.3       1 TYR         0.1025
     74 C          -4.7150  -50.8940    3.8440 C.2       1 TYR         0.0619
     75 O          -5.5780  -50.6780    4.6960 O.co2     1 TYR        -0.5665
     76 CB         -3.6550  -49.4720    2.0650 C.3       1 TYR         0.0108
     77 CG         -4.9060  -49.8820    1.3250 C.ar      1 TYR        -0.0499
     78 CD1        -4.9960  -51.1260    0.7130 C.ar      1 TYR        -0.0686
     79 CD2        -5.9900  -49.0220    1.2250 C.ar      1 TYR        -0.0686
     80 CE1        -6.1350  -51.5050    0.0320 C.ar      1 TYR        -0.0398
     81 CE2        -7.1330  -49.3930    0.5440 C.ar      1 TYR        -0.0398
     82 CZ         -7.2000  -50.6360   -0.0500 C.ar      1 TYR         0.0805
     83 OH         -8.3340  -51.0130   -0.7300 O.3       1 TYR        -0.3376
     84 OXT        -4.7430  -51.9650    3.2360 O.co2     1 TYR        -0.5665
     85 H1         11.4979  -68.7617    8.3511 H         1 GLU         0.2015
     86 H2         11.0660  -67.1838    8.5331 H         1 GLU         0.2015
     87 H3         11.8170  -67.9786    9.7634 H         1 GLU         0.2015
     88 H4         13.7976  -68.2264    8.5168 H         1 GLU         0.1099
     89 H5         13.9393  -66.9087    6.3621 H         1 GLU         0.0363
     90 H6         12.1532  -66.7312    6.4327 H         1 GLU         0.0363
     91 H7         11.9657  -69.2252    6.4379 H         1 GLU         0.0434
     92 H8         13.7441  -69.3160    6.2016 H         1 GLU         0.0434
     93 H9         11.9711  -66.1860   10.1445 H         1 ASP         0.1886
     94 H10        12.2491  -64.1842   11.2237 H         1 ASP         0.0819
     95 H11        15.1929  -64.6685   10.5683 H         1 ASP         0.0478
     96 H12        14.3092  -65.3364   11.9824 H         1 ASP         0.0478
     97 H13        11.1245  -63.3232    9.2560 H         1 GLU         0.1883
     98 H14        12.5284  -60.8888    8.4958 H         1 GLU         0.0801
     99 H15        11.6469  -62.8231    6.3110 H         1 GLU         0.0330
    100 H16        13.3463  -62.4771    6.7789 H         1 GLU         0.0330
    101 H17        11.3409  -60.5324    5.5641 H         1 GLU         0.0433
    102 H18        12.7714  -61.2623    4.7595 H         1 GLU         0.0433
    103 H19        11.0963  -59.4067    7.3170 H         1 TRP         0.1884
    104 H20         8.6359  -59.4147    8.8506 H         1 TRP         0.0815
    105 H21         8.4097  -57.1048    8.0514 H         1 TRP         0.0397
    106 H22         9.7348  -57.3699    6.8680 H         1 TRP         0.0397
    107 H23        12.2224  -57.3288    7.7872 H         1 TRP         0.0795
    108 H24        13.2868  -56.5970   10.0408 H         1 TRP         0.2216
    109 H25         7.9419  -57.0757   10.5776 H         1 TRP         0.0540
    110 H26        12.3665  -56.0091   12.6355 H         1 TRP         0.0541
    111 H27         8.1145  -56.4152   12.9479 H         1 TRP         0.0510
    112 H28        10.2965  -55.8866   13.9557 H         1 TRP         0.0530
    113 H29         6.5805  -59.3641    8.2303 H         1 VAL         0.1883
    114 H30         5.9483  -59.6165    5.3280 H         1 VAL         0.0802
    115 H31         4.2350  -60.1294    7.8078 H         1 VAL         0.0343
    116 H32         2.4825  -60.8838    6.2280 H         1 VAL         0.0234
    117 H33         3.5016  -60.3514    4.8479 H         1 VAL         0.0234
    118 H34         2.8674  -59.1422    6.0151 H         1 VAL         0.0234
    119 H35         5.9134  -61.8680    7.2979 H         1 VAL         0.0234
    120 H36         5.2602  -61.9998    5.6298 H         1 VAL         0.0234
    121 H37         4.2354  -62.4522    7.0341 H         1 VAL         0.0234
    122 H38         5.7183  -57.6638    4.4511 H         1 ASN         0.1885
    123 H39         4.8344  -55.4056    6.1324 H         1 ASN         0.0826
    124 H40         5.9294  -55.5428    3.2876 H         1 ASN         0.0551
    125 H41         6.8182  -55.0569    4.7711 H         1 ASN         0.0551
    126 H42         4.3944  -52.4358    2.7631 H         1 ASN         0.1814
    127 H43         4.4874  -54.1087    2.3240 H         1 ASN         0.1814
    128 H44         2.7370  -55.0882    6.3160 H         1 VAL         0.1883
    129 H45         1.0098  -55.5178    3.9182 H         1 VAL         0.0802
    130 H46        -0.7961  -56.0276    5.2542 H         1 VAL         0.0343
    131 H47        -0.1568  -57.4839    7.1647 H         1 VAL         0.0234
    132 H48         1.5101  -56.8171    7.1074 H         1 VAL         0.0234
    133 H49         0.8764  -57.7713    5.7237 H         1 VAL         0.0234
    134 H50        -0.7763  -53.8855    6.4904 H         1 VAL         0.0234
    135 H51         0.4517  -54.5613    7.6136 H         1 VAL         0.0234
    136 H52        -1.1910  -55.2841    7.5385 H         1 VAL         0.0234
    137 H53        -0.5969  -53.8273    3.4824 H         1 GLN         0.1883
    138 H54        -0.1012  -51.2059    4.7349 H         1 GLN         0.0801
    139 H55        -0.0447  -50.9981    1.7980 H         1 GLN         0.0337
    140 H56         1.3453  -51.9191    2.4662 H         1 GLN         0.0337
    141 H57         1.8104  -49.4983    2.1558 H         1 GLN         0.0504
    142 H58         1.9904  -50.0519    3.8551 H         1 GLN         0.0504
    143 H59         0.1638  -47.2278    4.7978 H         1 GLN         0.1814
    144 H60         1.6679  -48.0858    4.8365 H         1 GLN         0.1814
    145 H61        -1.7555  -49.7830    4.5493 H         1 TYR         0.1877
    146 H62        -3.8550  -48.9599    4.1437 H         1 TYR         0.0747
    147 H63        -2.7942  -49.9499    1.5745 H         1 TYR         0.0446
    148 H64        -3.5572  -48.3787    1.9938 H         1 TYR         0.0446
    149 H65        -4.1575  -51.8105    0.7714 H         1 TYR         0.0530
    150 H66        -5.9392  -48.0435    1.6886 H         1 TYR         0.0530
    151 H67        -6.1909  -52.4813   -0.4357 H         1 TYR         0.0525
    152 H68        -7.9728  -48.7109    0.4768 H         1 TYR         0.0525
    153 H69        -8.2177  -51.8901   -1.0757 H         1 TYR         0.2458
@<TRIPOS>BOND
     1    1    2 1  
     2    2    3 1  
     3    2    5 1  
     4    3    4 2  
     5    3   10 am 
     6    5    6 1  
     7    6    7 1  
     8    7    8 ar 
     9    7    9 ar 
    10   10   11 1  
    11   11   12 1  
    12   11   14 1  
    13   12   13 2  
    14   12   18 am 
    15   14   15 1  
    16   15   16 ar 
    17   15   17 ar 
    18   18   19 1  
    19   19   20 1  
    20   19   22 1  
    21   20   21 2  
    22   20   27 am 
    23   22   23 1  
    24   23   24 1  
    25   24   25 ar 
    26   24   26 ar 
    27   27   28 1  
    28   28   29 1  
    29   28   31 1  
    30   29   30 2  
    31   29   41 am 
    32   31   32 1  
    33   32   33 2  
    34   32   34 1  
    35   33   35 1  
    36   34   36 ar 
    37   34   37 ar 
    38   35   36 1  
    39   36   38 ar 
    40   37   39 ar 
    41   38   40 ar 
    42   39   40 ar 
    43   41   42 1  
    44   42   43 1  
    45   42   45 1  
    46   43   44 2  
    47   43   48 am 
    48   45   46 1  
    49   45   47 1  
    50   48   49 1  
    51   49   50 1  
    52   49   52 1  
    53   50   51 2  
    54   50   56 am 
    55   52   53 1  
    56   53   54 2  
    57   53   55 am 
    58   56   57 1  
    59   57   58 1  
    60   57   60 1  
    61   58   59 2  
    62   58   63 am 
    63   60   61 1  
    64   60   62 1  
    65   63   64 1  
    66   64   65 1  
    67   64   67 1  
    68   65   66 2  
    69   65   72 am 
    70   67   68 1  
    71   68   69 1  
    72   69   70 2  
    73   69   71 am 
    74   72   73 1  
    75   73   74 1  
    76   73   76 1  
    77   74   75 ar 
    78   74   84 ar 
    79   76   77 1  
    80   77   78 ar 
    81   77   79 ar 
    82   78   80 ar 
    83   79   81 ar 
    84   80   82 ar 
    85   81   82 ar 
    86   82   83 1  
    87    1   85 1  
    88    1   86 1  
    89    1   87 1  
    90    2   88 1  
    91    5   89 1  
    92    5   90 1  
    93    6   91 1  
    94    6   92 1  
    95   10   93 1  
    96   11   94 1  
    97   14   95 1  
    98   14   96 1  
    99   18   97 1  
   100   19   98 1  
   101   22   99 1  
   102   22  100 1  
   103   23  101 1  
   104   23  102 1  
   105   27  103 1  
   106   28  104 1  
   107   31  105 1  
   108   31  106 1  
   109   33  107 1  
   110   35  108 1  
   111   37  109 1  
   112   38  110 1  
   113   39  111 1  
   114   40  112 1  
   115   41  113 1  
   116   42  114 1  
   117   45  115 1  
   118   46  116 1  
   119   46  117 1  
   120   46  118 1  
   121   47  119 1  
   122   47  120 1  
   123   47  121 1  
   124   48  122 1  
   125   49  123 1  
   126   52  124 1  
   127   52  125 1  
   128   55  126 1  
   129   55  127 1  
   130   56  128 1  
   131   57  129 1  
   132   60  130 1  
   133   61  131 1  
   134   61  132 1  
   135   61  133 1  
   136   62  134 1  
   137   62  135 1  
   138   62  136 1  
   139   63  137 1  
   140   64  138 1  
   141   67  139 1  
   142   67  140 1  
   143   68  141 1  
   144   68  142 1  
   145   71  143 1  
   146   71  144 1  
   147   72  145 1  
   148   73  146 1  
   149   76  147 1  
   150   76  148 1  
   151   78  149 1  
   152   79  150 1  
   153   80  151 1  
   154   81  152 1  
   155   83  153 1  
@<TRIPOS>SUBSTRUCTURE
     1 GLU         1

