5qax_ligand
  -I-interpret- 

 30 32  0  0  0  0  0  0  0  0999 V2000
  126.2970 -100.4240   33.0850 N   0  0  0  0  0
  131.9530 -103.8960   27.1780 C   0  0  0  0  0
  132.5050 -104.1890   26.0930 O   0  0  0  0  0
  130.7370 -103.0030   27.1260 C   0  0  0  0  0
  126.9830 -100.3850   34.2180 C   0  0  0  0  0
  128.3450 -100.6340   34.3200 C   0  0  0  0  0
  129.0390 -100.9380   33.1910 C   0  0  0  0  0
  128.3740 -100.9970   31.9510 C   0  0  0  0  0
  129.0160 -101.3120   30.7310 C   0  0  0  0  0
  130.1390 -102.5650   28.3050 C   0  0  0  0  0
  130.1940 -102.6240   25.9050 C   0  0  0  0  0
  129.0750 -101.8160   25.8630 C   0  0  0  0  0
  128.4820 -101.3840   27.0360 C   0  0  0  0  0
  128.9990 -101.7600   28.2760 C   0  0  0  0  0
  128.3170 -101.3690   29.5370 C   0  0  0  0  0
  126.9480 -101.0910   29.5540 C   0  0  0  0  0
  126.2940 -100.7820   30.7080 C   0  0  0  0  0
  126.9870 -100.7300   31.9370 C   0  0  0  0  0
  132.3380 -104.2950   28.3030 O   0  0  0  0  0
  126.4413 -100.1409   35.1318 H   0  0  0  0  0
  128.8479 -100.5867   35.2859 H   0  0  0  0  0
  130.1095 -101.1359   33.2456 H   0  0  0  0  0
  130.0870 -101.5148   30.7305 H   0  0  0  0  0
  130.5674 -102.8550   29.2644 H   0  0  0  0  0
  130.6526 -102.9655   24.9770 H   0  0  0  0  0
  128.6571 -101.5173   24.9016 H   0  0  0  0  0
  127.6015 -100.7431   26.9908 H   0  0  0  0  0
  126.3885 -101.1222   28.6190 H   0  0  0  0  0
  125.2246 -100.5727   30.6825 H   0  0  0  0  0
  131.7595 -103.9406   28.9822 H   0  0  0  0  0
  1  5  4  0  0  0
 18  1  4  0  0  0
  2  3  2  0  0  0
  4  2  1  0  0  0
  2 19  1  0  0  0
 10  4  4  0  0  0
  4 11  4  0  0  0
  6  5  4  0  0  0
  7  6  4  0  0  0
  8  7  4  0  0  0
  9  8  4  0  0  0
  8 18  4  0  0  0
 15  9  4  0  0  0
 14 10  4  0  0  0
 12 11  4  0  0  0
 13 12  4  0  0  0
 14 13  4  0  0  0
 14 15  1  0  0  0
 15 16  4  0  0  0
 16 17  4  0  0  0
 17 18  4  0  0  0
  5 20  1  0  0  0
  6 21  1  0  0  0
  7 22  1  0  0  0
  9 23  1  0  0  0
 10 24  1  0  0  0
 11 25  1  0  0  0
 12 26  1  0  0  0
 13 27  1  0  0  0
 16 28  1  0  0  0
 17 29  1  0  0  0
 19 30  1  0  0  0
M  END
$$$$
