2nww_ligand
  -I-interpret- 

 31 31  0  0  0  0  0  0  0  0999 V2000
   13.1380    4.4620    5.0560 C   0  0  0  0  0
   14.5140    4.5240    4.8510 C   0  0  0  0  0
   15.3850    4.7700    5.9070 C   0  0  0  0  0
   14.8730    4.9600    7.1820 C   0  0  0  0  0
   13.4950    4.9050    7.3920 C   0  0  0  0  0
   12.6150    4.6500    6.3340 C   0  0  0  0  0
   11.2200    4.5950    6.5420 C   0  0  0  0  0
   10.4670    3.3340    6.5860 O   0  0  0  0  0
   10.9840    2.4540    7.6280 C   0  0  0  0  0
   11.1120    1.0270    7.1310 C   0  0  0  0  0
   12.3170    0.5650    7.1040 O   0  0  0  0  0
   10.0060    0.4000    6.7950 O   0  0  0  0  0
   10.1140    2.4080    8.8820 C   0  0  0  0  0
   10.7670    3.2760    9.9500 C   0  0  0  0  0
   11.3450    2.6760   10.8830 O   0  0  0  0  0
   10.6710    4.5170    9.8100 O   0  0  0  0  0
    8.7680    2.9010    8.5760 N   0  3  0  0  0
   12.4702    4.2665    4.2170 H   0  0  0  0  0
   14.9144    4.3775    3.8479 H   0  0  0  0  0
   16.4604    4.8131    5.7342 H   0  0  0  0  0
   15.5458    5.1518    8.0179 H   0  0  0  0  0
   13.0978    5.0629    8.3947 H   0  0  0  0  0
   10.8176    5.0939    5.6604 H   0  0  0  0  0
   11.1037    4.9890    7.5516 H   0  0  0  0  0
   11.9547    2.8791    7.8833 H   0  0  0  0  0
    9.2569    0.9882    6.9151 H   0  0  0  0  0
   10.0263    1.3829    9.2421 H   0  0  0  0  0
   10.1777    4.7104    9.0095 H   0  0  0  0  0
    8.1948    2.8665    9.4190 H   0  0  0  0  0
    8.8272    3.8632    8.2428 H   0  0  0  0  0
    8.3486    2.3151    7.8540 H   0  0  0  0  0
  1  2  4  0  0  0
  1  6  4  0  0  0
  2  3  4  0  0  0
  3  4  4  0  0  0
  4  5  4  0  0  0
  5  6  4  0  0  0
  6  7  1  0  0  0
  7  8  1  0  0  0
  8  9  1  0  0  0
  9 10  1  0  0  0
  9 13  1  0  0  0
 10 11  2  0  0  0
 10 12  1  0  0  0
 13 14  1  0  0  0
 13 17  1  0  0  0
 14 15  2  0  0  0
 14 16  1  0  0  0
  1 18  1  0  0  0
  2 19  1  0  0  0
  3 20  1  0  0  0
  4 21  1  0  0  0
  5 22  1  0  0  0
  7 23  1  0  0  0
  7 24  1  0  0  0
  9 25  1  0  0  0
 12 26  1  0  0  0
 13 27  1  0  0  0
 16 28  1  0  0  0
 17 29  1  0  0  0
 17 30  1  0  0  0
 17 31  1  0  0  0
M  END
$$$$
