1gz3_ligand
  -I-interpret- 

 47 49  0  0  0  0  0  0  0  0999 V2000
   26.1110   34.8470   -5.3390 P   0  0  0  0  0
   26.8790   34.6070   -4.0430 O   0  0  0  0  0
   25.4320   36.1570   -5.4110 O   0  0  0  0  0
   25.1820   33.7240   -5.7210 O   0  0  0  0  0
   28.0810   33.7440   -7.1790 P   0  0  0  0  0
   28.2550   34.0690   -8.5810 O   0  0  0  0  0
   27.4420   32.4650   -6.8490 O   0  0  0  0  0
   27.2330   34.8800   -6.5180 O   0  0  0  0  0
   31.0500   33.8220   -6.9310 P   0  0  0  0  0
   31.9250   34.1590   -5.7760 O   0  0  0  0  0
   31.3010   32.5800   -7.6740 O   0  0  0  0  0
   29.5080   33.8300   -6.4350 O   0  0  0  0  0
   31.0990   35.0360   -7.9960 O   0  0  0  0  0
   30.9100   36.4060   -7.5880 C   0  0  0  0  0
   31.1420   37.3300   -8.8010 C   0  0  0  0  0
   30.7500   38.7170   -8.4720 O   0  0  0  0  0
   32.6110   37.3720   -9.1830 C   0  0  0  0  0
   32.7660   37.2060  -10.6110 O   0  0  0  0  0
   33.0930   38.7370   -8.7780 C   0  0  0  0  0
   34.1210   39.2050   -9.6660 O   0  0  0  0  0
   31.8610   39.5890   -8.8430 C   0  0  0  0  0
   31.9460   40.7980   -8.0050 N   0  0  0  0  0
   32.2880   40.8880   -6.6650 C   0  0  0  0  0
   32.2710   42.1920   -6.3040 N   0  0  0  0  0
   31.9230   42.8280   -7.4010 C   0  0  0  0  0
   31.7970   44.2060   -7.4530 C   0  0  0  0  0
   32.0330   44.9740   -6.3940 N   0  0  0  0  0
   31.4210   44.7440   -8.6520 N   0  0  0  0  0
   31.2050   43.9310   -9.7430 C   0  0  0  0  0
   31.3510   42.5700   -9.6410 N   0  0  0  0  0
   31.7290   42.0210   -8.4470 C   0  0  0  0  0
   27.2901   33.7399   -4.0718 H   0  0  0  0  0
   25.6515   32.8885   -5.6644 H   0  0  0  0  0
   27.3876   32.3725   -5.8950 H   0  0  0  0  0
   31.6414   34.9927   -5.3937 H   0  0  0  0  0
   31.6178   36.6542   -6.7971 H   0  0  0  0  0
   29.8953   36.5405   -7.2132 H   0  0  0  0  0
   30.5443   36.9327   -9.6214 H   0  0  0  0  0
   33.1731   36.5745   -8.6970 H   0  0  0  0  0
   33.6988   37.2348  -10.8360 H   0  0  0  0  0
   33.5473   38.7520   -7.7873 H   0  0  0  0  0
   34.4112   40.0764   -9.3867 H   0  0  0  0  0
   31.7235   39.9890   -9.8476 H   0  0  0  0  0
   32.5299   40.0496   -6.0119 H   0  0  0  0  0
   32.3160   44.5509   -5.5101 H   0  0  0  0  0
   31.9311   45.9864   -6.4653 H   0  0  0  0  0
   30.9154   44.3728  -10.6964 H   0  0  0  0  0
  1  2  1  0  0  0
  1  3  2  0  0  0
  1  4  1  0  0  0
  8  1  1  0  0  0
  5  6  2  0  0  0
  5  7  1  0  0  0
  5  8  1  0  0  0
 12  5  1  0  0  0
  9 10  1  0  0  0
  9 11  2  0  0  0
  9 12  1  0  0  0
  9 13  1  0  0  0
 13 14  1  0  0  0
 14 15  1  0  0  0
 15 16  1  0  0  0
 15 17  1  0  0  0
 16 21  1  0  0  0
 17 18  1  0  0  0
 17 19  1  0  0  0
 19 20  1  0  0  0
 19 21  1  0  0  0
 21 22  1  0  0  0
 22 23  4  0  0  0
 22 31  4  0  0  0
 23 24  4  0  0  0
 24 25  4  0  0  0
 25 26  4  0  0  0
 25 31  4  0  0  0
 26 27  1  0  0  0
 26 28  4  0  0  0
 28 29  4  0  0  0
 29 30  4  0  0  0
 30 31  4  0  0  0
  2 32  1  0  0  0
  4 33  1  0  0  0
  7 34  1  0  0  0
 10 35  1  0  0  0
 14 36  1  0  0  0
 14 37  1  0  0  0
 15 38  1  0  0  0
 17 39  1  0  0  0
 18 40  1  0  0  0
 19 41  1  0  0  0
 20 42  1  0  0  0
 21 43  1  0  0  0
 23 44  1  0  0  0
 27 45  1  0  0  0
 27 46  1  0  0  0
 29 47  1  0  0  0
M  END
$$$$
