### 
### Created by X-TOOL on Mon Sep 10 21:12:50 2018
### 

@<TRIPOS>MOLECULE
1gz3_ligand
   43    45     1     0     0
SMALL
GAST_HUCK


@<TRIPOS>ATOM
      1 PG         26.1110   34.8470   -5.3390 P.3       1 ATP         0.1879
      2 O1G        26.8790   34.6070   -4.0430 O.co2     1 ATP        -0.6091
      3 O2G        25.4320   36.1570   -5.4110 O.co2     1 ATP        -0.6091
      4 O3G        25.1820   33.7240   -5.7210 O.co2     1 ATP        -0.6091
      5 PB         28.0810   33.7440   -7.1790 P.3       1 ATP         0.3553
      6 O1B        28.2550   34.0690   -8.5810 O.co2     1 ATP        -0.5652
      7 O2B        27.4420   32.4650   -6.8490 O.co2     1 ATP        -0.5652
      8 O3B        27.2330   34.8800   -6.5180 O.3       1 ATP        -0.1546
      9 PA         31.0500   33.8220   -6.9310 P.3       1 ATP         0.3266
     10 O1A        31.9250   34.1590   -5.7760 O.co2     1 ATP        -0.5692
     11 O2A        31.3010   32.5800   -7.6740 O.co2     1 ATP        -0.5692
     12 O3A        29.5080   33.8300   -6.4350 O.3       1 ATP        -0.1171
     13 O5         31.0990   35.0360   -7.9960 O.3       1 ATP        -0.2441
     14 C5         30.9100   36.4060   -7.5880 C.3       1 ATP         0.1131
     15 C4         31.1420   37.3300   -8.8010 C.3       1 ATP         0.1189
     16 O4         30.7500   38.7170   -8.4720 O.3       1 ATP        -0.3364
     17 C3         32.6110   37.3720   -9.1830 C.3       1 ATP         0.1149
     18 O3         32.7660   37.2060  -10.6110 O.3       1 ATP        -0.3864
     19 C2         33.0930   38.7370   -8.7780 C.3       1 ATP         0.1385
     20 O2         34.1210   39.2050   -9.6660 O.3       1 ATP        -0.3836
     21 C1         31.8610   39.5890   -8.8430 C.3       1 ATP         0.2010
     22 N9         31.9460   40.7980   -8.0050 N.pl3     1 ATP        -0.1919
     23 C8         32.2880   40.8880   -6.6650 C.2       1 ATP         0.1123
     24 N7         32.2710   42.1920   -6.3040 N.2       1 ATP        -0.2958
     25 C5         31.9230   42.8280   -7.4010 C.ar      1 ATP         0.1045
     26 C6         31.7970   44.2060   -7.4530 C.ar      1 ATP         0.1298
     27 N6         32.0330   44.9740   -6.3940 N.pl3     1 ATP        -0.3152
     28 N1         31.4210   44.7440   -8.6520 N.ar      1 ATP        -0.2698
     29 C2         31.2050   43.9310   -9.7430 C.ar      1 ATP         0.0533
     30 N3         31.3510   42.5700   -9.6410 N.ar      1 ATP        -0.2714
     31 C4         31.7290   42.0210   -8.4470 C.ar      1 ATP         0.1613
     32 H1         31.6272   36.6557   -6.7922 H         1 ATP         0.0648
     33 H2         29.8847   36.5407   -7.2131 H         1 ATP         0.0648
     34 H3         30.5470   36.9636   -9.6505 H         1 ATP         0.0651
     35 H4         33.1714   36.5874   -8.6537 H         1 ATP         0.0648
     36 H5         33.6891   37.2345  -10.8336 H         1 ATP         0.2100
     37 H6         33.4897   38.7173   -7.7522 H         1 ATP         0.0676
     38 H7         33.7765   39.2530  -10.5501 H         1 ATP         0.2101
     39 H8         31.7173   39.9208   -9.8819 H         1 ATP         0.0996
     40 H9         32.5297   40.0503   -6.0125 H         1 ATP         0.1349
     41 H10        31.9301   45.9963   -6.4660 H         1 ATP         0.1820
     42 H11        32.3188   44.5468   -5.5014 H         1 ATP         0.1820
     43 H12        30.9170   44.3704  -10.6912 H         1 ATP         0.0996
@<TRIPOS>BOND
     1    1    2 ar 
     2    1    3 ar 
     3    1    4 ar 
     4    8    1 1  
     5    5    6 ar 
     6    5    7 ar 
     7    5    8 1  
     8   12    5 1  
     9    9   10 ar 
    10    9   11 ar 
    11    9   12 1  
    12    9   13 1  
    13   13   14 1  
    14   14   15 1  
    15   15   16 1  
    16   15   17 1  
    17   16   21 1  
    18   17   18 1  
    19   17   19 1  
    20   19   20 1  
    21   19   21 1  
    22   21   22 1  
    23   22   23 1  
    24   22   31 1  
    25   23   24 2  
    26   24   25 1  
    27   25   26 ar 
    28   25   31 ar 
    29   26   27 1  
    30   26   28 ar 
    31   28   29 ar 
    32   29   30 ar 
    33   30   31 ar 
    34   14   32 1  
    35   14   33 1  
    36   15   34 1  
    37   17   35 1  
    38   18   36 1  
    39   19   37 1  
    40   20   38 1  
    41   21   39 1  
    42   23   40 1  
    43   27   41 1  
    44   27   42 1  
    45   29   43 1  
@<TRIPOS>SUBSTRUCTURE
     1 ATP         1

