1pu7_ligand
  -I-interpret- 

 22 23  0  0  0  0  0  0  0  0999 V2000
  121.4080    9.0630   46.2260 N   0  0  0  0  0
  120.1280    8.8610   46.6300 C   0  0  0  0  0
  119.1820    9.6610   46.0500 C   0  0  0  0  0
  119.2500   10.6740   45.0980 N   0  0  0  0  0
  117.8290    9.4640   46.4620 C   0  0  0  0  0
  117.0850   10.3170   45.8000 N   0  0  0  0  0
  117.9280   11.0250   44.9910 C   0  0  0  0  0
  115.6230   10.3360   46.0290 C   0  0  0  0  0
  117.4830    8.4900   47.4270 N   0  0  0  0  0
  116.0870    8.3100   47.8690 C   0  0  0  0  0
  118.4790    7.7520   47.9560 C   0  0  0  0  0
  119.7550    7.9360   47.5650 N   0  0  0  0  0
  121.6160    9.7780   45.5290 H   0  0  0  0  0
  122.1619    8.4998   46.6195 H   0  0  0  0  0
  117.5786   11.8056   44.3152 H   0  0  0  0  0
  115.2046    9.3612   45.7784 H   0  0  0  0  0
  115.4236   10.5599   47.0769 H   0  0  0  0  0
  115.1679   11.1008   45.3997 H   0  0  0  0  0
  115.7239    9.2389   48.3088 H   0  0  0  0  0
  115.4672    8.0455   47.0123 H   0  0  0  0  0
  116.0422    7.5131   48.6114 H   0  0  0  0  0
  118.2495    6.9977   48.7087 H   0  0  0  0  0
  1  2  1  0  0  0
  2  3  4  0  0  0
  2 12  4  0  0  0
  3  4  4  0  0  0
  3  5  4  0  0  0
  4  7  4  0  0  0
  5  6  4  0  0  0
  5  9  4  0  0  0
  6  7  4  0  0  0
  6  8  1  0  0  0
  9 10  1  0  0  0
  9 11  4  0  0  0
 11 12  4  0  0  0
  1 13  1  0  0  0
  1 14  1  0  0  0
  7 15  1  0  0  0
  8 16  1  0  0  0
  8 17  1  0  0  0
  8 18  1  0  0  0
 10 19  1  0  0  0
 10 20  1  0  0  0
 10 21  1  0  0  0
 11 22  1  0  0  0
M  END
$$$$
