2gj5_ligand
  -I-interpret- 

 76 78  0  0  0  0  0  0  0  0999 V2000
   -0.3760    0.1720   24.5870 O   0  0  0  0  0
    0.7100    1.3280   21.4030 C   0  0  0  0  0
    0.4350    1.6960   22.8140 C   0  0  0  0  0
   -0.8320    1.0150   23.5110 C   0  0  0  0  0
   -1.6350    0.1660   22.4900 C   0  0  0  0  0
   -1.8270    0.8320   21.0410 C   0  0  0  0  0
   -3.0170    0.7230   20.3760 C   0  0  0  0  0
   -4.4060    1.3320   20.3160 C   0  0  0  0  0
   -4.6770    2.6370   19.8890 C   0  0  0  0  0
   -4.6590    2.1750   18.3350 C   0  0  0  0  0
   -0.5570    1.5740   20.5560 C   0  0  0  0  0
   -4.3550    3.2200   17.3230 C   0  0  0  0  0
   -4.6900    4.7220   17.6710 C   0  0  0  0  0
   -4.3770    5.1520   19.1110 C   0  0  0  0  0
   -3.7620    3.9740   19.9600 C   0  0  0  0  0
   -3.5680    4.7120   21.3800 C   0  0  0  0  0
   -3.2280    6.2690   21.0100 C   0  0  0  0  0
   -3.2090    6.2670   19.4350 C   0  0  0  0  0
   -5.8170    5.6360   19.6230 C   0  0  0  0  0
   -0.5150    2.3310   19.5340 C   0  0  0  0  0
   -3.5620    7.7220   18.7240 C   0  0  0  0  0
   -2.8980    7.7440   17.3660 C   0  0  0  0  0
   -3.0400    9.0810   19.3210 C   0  0  0  0  0
   -4.1810   10.2680   18.9580 C   0  0  0  0  0
   -3.2030   11.4000   18.5670 C   0  0  0  0  0
   -3.4180   12.8640   19.0180 C   0  0  0  0  0
   -2.1790   12.8600   19.7030 C   0  0  0  0  0
   -3.0820   14.1050   18.3630 C   0  0  0  0  0
    0.1203    0.6996   25.2170 H   0  0  0  0  0
    0.9875    0.2754   21.3476 H   0  0  0  0  0
    1.5291    1.9366   21.0199 H   0  0  0  0  0
    0.2297    2.7665   22.8067 H   0  0  0  0  0
    1.3023    1.3602   23.3825 H   0  0  0  0  0
   -1.4871    1.7968   23.8955 H   0  0  0  0  0
   -2.6332    0.0376   22.9085 H   0  0  0  0  0
   -1.0705   -0.7539   22.3376 H   0  0  0  0  0
   -2.4326    0.9651   20.1446 H   0  0  0  0  0
   -3.3209   -0.2193   20.8318 H   0  0  0  0  0
   -2.6641    1.1411   19.4333 H   0  0  0  0  0
   -4.6994    1.3592   21.3654 H   0  0  0  0  0
   -4.8990    0.7258   19.5561 H   0  0  0  0  0
   -5.4699    3.0422   20.5176 H   0  0  0  0  0
   -5.6703    1.8332   18.1148 H   0  0  0  0  0
   -3.8585    1.4397   18.2527 H   0  0  0  0  0
   -4.9830    2.9785   16.4654 H   0  0  0  0  0
   -3.2726    3.1903   17.1979 H   0  0  0  0  0
   -5.7656    4.8389   17.5389 H   0  0  0  0  0
   -4.0680    5.3375   17.0210 H   0  0  0  0  0
   -2.8191    3.5439   19.6223 H   0  0  0  0  0
   -2.7710    4.2543   21.9659 H   0  0  0  0  0
   -4.4604    4.6314   22.0007 H   0  0  0  0  0
   -2.2866    6.6085   21.4420 H   0  0  0  0  0
   -3.9560    6.9682   21.4214 H   0  0  0  0  0
   -2.2170    6.0524   19.0376 H   0  0  0  0  0
   -6.1679    6.4552   18.9954 H   0  0  0  0  0
   -6.5201    4.8051   19.5647 H   0  0  0  0  0
   -5.7387    5.9756   20.6558 H   0  0  0  0  0
   -1.4128    2.4909   18.9369 H   0  0  0  0  0
    0.4188    2.8196   19.2557 H   0  0  0  0  0
   -4.6475    7.7216   18.8232 H   0  0  0  0  0
   -1.8206    7.6328   17.4880 H   0  0  0  0  0
   -3.2831    6.9229   16.7613 H   0  0  0  0  0
   -3.1133    8.6920   16.8730 H   0  0  0  0  0
   -2.0724    9.3390   18.8905 H   0  0  0  0  0
   -2.9083    8.9971   20.3998 H   0  0  0  0  0
   -4.8776   10.5084   19.7612 H   0  0  0  0  0
   -4.9115    9.9970   18.1958 H   0  0  0  0  0
   -3.2922   11.4512   17.4819 H   0  0  0  0  0
   -2.2728   11.1152   19.0587 H   0  0  0  0  0
   -4.4822   12.9401   19.2413 H   0  0  0  0  0
   -2.1917   12.0853   20.4697 H   0  0  0  0  0
   -1.3747   12.6595   18.9952 H   0  0  0  0  0
   -2.0201   13.8322   20.1696 H   0  0  0  0  0
   -2.0051   14.1485   18.2003 H   0  0  0  0  0
   -3.5980   14.1598   17.4045 H   0  0  0  0  0
   -3.3899   14.9409   18.9912 H   0  0  0  0  0
  4  1  1  0  0  0
  3  2  1  0  0  0
  2 11  1  0  0  0
  3  4  1  0  0  0
  4  5  1  0  0  0
  5  6  1  0  0  0
  6  7  1  0  0  0
  6 11  1  0  0  0
  7  8  1  0  0  0
  8  9  1  0  0  0
  9 10  1  0  0  0
  9 15  1  0  0  0
 10 12  1  0  0  0
 11 20  2  0  0  0
 12 13  1  0  0  0
 13 14  1  0  0  0
 14 15  1  0  0  0
 14 18  1  0  0  0
 14 19  1  0  0  0
 15 16  1  0  0  0
 16 17  1  0  0  0
 17 18  1  0  0  0
 18 21  1  0  0  0
 21 22  1  0  0  0
 21 23  1  0  0  0
 23 24  1  0  0  0
 24 25  1  0  0  0
 25 26  1  0  0  0
 26 27  1  0  0  0
 26 28  1  0  0  0
  1 29  1  0  0  0
  2 30  1  0  0  0
  2 31  1  0  0  0
  3 32  1  0  0  0
  3 33  1  0  0  0
  4 34  1  0  0  0
  5 35  1  0  0  0
  5 36  1  0  0  0
  6 37  1  0  0  0
  7 38  1  0  0  0
  7 39  1  0  0  0
  8 40  1  0  0  0
  8 41  1  0  0  0
  9 42  1  0  0  0
 10 43  1  0  0  0
 10 44  1  0  0  0
 12 45  1  0  0  0
 12 46  1  0  0  0
 13 47  1  0  0  0
 13 48  1  0  0  0
 15 49  1  0  0  0
 16 50  1  0  0  0
 16 51  1  0  0  0
 17 52  1  0  0  0
 17 53  1  0  0  0
 18 54  1  0  0  0
 19 55  1  0  0  0
 19 56  1  0  0  0
 19 57  1  0  0  0
 20 58  1  0  0  0
 20 59  1  0  0  0
 21 60  1  0  0  0
 22 61  1  0  0  0
 22 62  1  0  0  0
 22 63  1  0  0  0
 23 64  1  0  0  0
 23 65  1  0  0  0
 24 66  1  0  0  0
 24 67  1  0  0  0
 25 68  1  0  0  0
 25 69  1  0  0  0
 26 70  1  0  0  0
 27 71  1  0  0  0
 27 72  1  0  0  0
 27 73  1  0  0  0
 28 74  1  0  0  0
 28 75  1  0  0  0
 28 76  1  0  0  0
M  END
$$$$
