4zt2_ligand
  -I-interpret- 

 40 42  0  0  0  0  0  0  0  0999 V2000
   39.0340   16.0350  200.4800 C   0  0  0  0  0
   40.4130   15.9920  200.5020 C   0  0  0  0  0
   41.1090   14.8040  200.4870 C   0  0  0  0  0
   40.4170   13.6020  200.4820 C   0  0  0  0  0
   41.1860   12.3080  200.5550 C   0  0  0  0  0
   42.4380   12.4550  198.4500 C   0  0  0  0  0
   42.8110   11.7240  197.1720 C   0  0  0  0  0
   42.6650   13.4800  195.4740 N   0  0  0  0  0
   43.5560   12.5550  196.1520 C   0  0  0  0  0
   43.0360   14.3650  194.5480 C   0  0  0  0  0
   42.8820   15.9860  193.0710 C   0  0  0  0  0
   42.5690   17.1000  192.3050 C   0  0  0  0  0
   42.1600   15.2080  193.9550 N   0  0  0  0  0
   43.6120   17.7440  191.6630 C   0  0  0  0  0
   44.8930   17.2470  191.8080 C   0  0  0  0  0
   44.1820   15.5600  193.1910 C   0  0  0  0  0
   39.0240   13.6210  200.4710 C   0  0  0  0  0
   45.1990   16.1710  192.5520 N   0  0  0  0  0
   41.2970   17.4780  200.6520 Cl  0  0  0  0  0
   38.3580   14.8330  200.4760 C   0  0  0  0  0
   36.6090   14.8480  200.5130 Cl  0  0  0  0  0
   41.4550   11.7070  199.2450 N   0  3  0  0  0
   44.2730   14.5380  194.1140 N   0  0  0  0  0
   38.4986   16.9843  200.4663 H   0  0  0  0  0
   42.1990   14.8082  200.4791 H   0  0  0  0  0
   40.5795   11.6000  201.1198 H   0  0  0  0  0
   42.1487   12.5268  201.0169 H   0  0  0  0  0
   41.9974   13.4141  198.1778 H   0  0  0  0  0
   43.3404   12.5756  199.0494 H   0  0  0  0  0
   41.8768   11.4150  196.7031 H   0  0  0  0  0
   43.4758   10.9093  197.4591 H   0  0  0  0  0
   41.6771   13.4504  195.7261 H   0  0  0  0  0
   43.9918   11.8857  195.4102 H   0  0  0  0  0
   44.3260   13.1291  196.6673 H   0  0  0  0  0
   41.5421   17.4537  192.2127 H   0  0  0  0  0
   43.4262   18.6282  191.0533 H   0  0  0  0  0
   45.7032   17.7581  191.2880 H   0  0  0  0  0
   38.4627   12.6867  200.4585 H   0  0  0  0  0
   40.5783   11.7016  198.7236 H   0  0  0  0  0
   41.8362   10.7749  199.4071 H   0  0  0  0  0
  2  1  4  0  0  0
  1 20  4  0  0  0
  3  2  4  0  0  0
  2 19  1  0  0  0
  4  3  4  0  0  0
  5  4  1  0  0  0
  4 17  4  0  0  0
 22  5  1  0  0  0
  7  6  1  0  0  0
  6 22  1  0  0  0
  9  7  1  0  0  0
  8  9  1  0  0  0
 10  8  1  0  0  0
 13 10  4  0  0  0
 10 23  4  0  0  0
 11 12  4  0  0  0
 11 13  4  0  0  0
 11 16  4  0  0  0
 12 14  4  0  0  0
 14 15  4  0  0  0
 15 18  4  0  0  0
 16 18  4  0  0  0
 16 23  4  0  0  0
 17 20  4  0  0  0
 20 21  1  0  0  0
  1 24  1  0  0  0
  3 25  1  0  0  0
  5 26  1  0  0  0
  5 27  1  0  0  0
  6 28  1  0  0  0
  6 29  1  0  0  0
  7 30  1  0  0  0
  7 31  1  0  0  0
  8 32  1  0  0  0
  9 33  1  0  0  0
  9 34  1  0  0  0
 12 35  1  0  0  0
 14 36  1  0  0  0
 15 37  1  0  0  0
 17 38  1  0  0  0
 22 39  1  0  0  0
 22 40  1  0  0  0
M  END
$$$$
