4wup_ligand
  -I-interpret- 

 25 25  0  0  0  0  0  0  0  0999 V2000
   14.1170   36.9040   18.0660 C   0  0  0  0  0
   14.2790   36.0260   19.1220 C   0  0  0  0  0
   14.1550   37.7480   21.1160 O   0  0  0  0  0
   15.0540   36.6880   20.5950 S   0  0  0  0  0
   15.1640   35.5380   21.6120 O   0  0  0  0  0
   16.6260   37.3160   20.3920 N   0  0  0  0  0
   13.7990   34.7050   19.0950 C   0  0  0  0  0
   13.1710   34.2300   17.9290 C   0  0  0  0  0
   12.9870   35.1050   16.8410 C   0  0  0  0  0
   13.4690   36.4290   16.9080 C   0  0  0  0  0
   12.1600   34.5450   15.3160 S   0  0  0  0  0
   10.5280   35.3710   15.3480 C   0  0  0  0  0
   10.0820   35.7590   13.9350 C   0  0  0  0  0
    8.6820   35.7000   13.9100 O   0  0  0  0  0
   14.4788   37.9304   18.1272 H   0  0  0  0  0
   16.8197   38.2905   20.6229 H   0  0  0  0  0
   17.3728   36.7173   20.0396 H   0  0  0  0  0
   13.9117   34.0580   19.9649 H   0  0  0  0  0
   12.8307   33.1963   17.8685 H   0  0  0  0  0
   13.3387   37.0931   16.0535 H   0  0  0  0  0
   10.6054   36.2756   15.9512 H   0  0  0  0  0
    9.7956   34.6825   15.7694 H   0  0  0  0  0
   10.5076   35.0778   13.1981 H   0  0  0  0  0
   10.4279   36.7622   13.6858 H   0  0  0  0  0
    8.3684   35.9386   13.0346 H   0  0  0  0  0
  1  2  4  0  0  0
  1 10  4  0  0  0
  2  4  1  0  0  0
  2  7  4  0  0  0
  4  3  2  0  0  0
  4  5  2  0  0  0
  4  6  1  0  0  0
  7  8  4  0  0  0
  8  9  4  0  0  0
  9 10  4  0  0  0
  9 11  1  0  0  0
 11 12  1  0  0  0
 12 13  1  0  0  0
 13 14  1  0  0  0
  1 15  1  0  0  0
  6 16  1  0  0  0
  6 17  1  0  0  0
  7 18  1  0  0  0
  8 19  1  0  0  0
 10 20  1  0  0  0
 12 21  1  0  0  0
 12 22  1  0  0  0
 13 23  1  0  0  0
 13 24  1  0  0  0
 14 25  1  0  0  0
M  END
$$$$
