1sr7_ligand
  -I-interpret- 

 67 71  0  0  0  0  0  0  0  0999 V2000
   -5.1290  -11.2270   30.4090 O   0  0  0  0  0
   -4.6810  -10.3470   29.7000 C   0  0  0  0  0
   -5.6140   -9.3250   29.1610 C   0  0  0  0  0
   -3.2830  -10.3920   29.2260 C   0  0  0  0  0
   -2.7470   -9.5110   28.2950 C   0  0  0  0  0
   -1.2690   -9.6320   27.8690 C   0  0  0  0  0
   -3.5700   -8.3370   27.7820 C   0  0  0  0  0
   -5.0320   -8.3430   28.2080 C   0  0  0  0  0
   -2.9750   -7.0520   28.3980 C   0  0  0  0  0
   -3.4520   -8.4040   26.2290 C   0  0  0  0  0
   -4.1590  -10.0120   25.6640 Cl  0  0  0  0  0
   -4.3330   -7.3810   25.4680 C   0  0  0  0  0
   -4.3130   -6.0400   25.8700 O   0  0  0  0  0
   -1.9720   -8.3700   25.7530 C   0  0  0  0  0
   -1.2470   -9.5830   26.3190 C   0  0  0  0  0
   -1.9260   -8.3100   24.2330 C   0  0  0  0  0
   -0.6100   -8.4170   23.4000 C   0  0  0  0  0
   -1.0360   -8.0810   22.0220 C   0  0  0  0  0
   -0.3630   -9.0410   21.0370 C   0  0  0  0  0
   -2.8540   -7.3330   23.4930 C   0  0  0  0  0
   -4.3280   -7.4860   23.9950 C   0  0  0  0  0
   -2.3760   -5.8920   23.8480 C   0  0  0  0  0
   -2.5090   -7.6580   22.0240 C   0  0  0  0  0
   -2.9930   -6.6500   21.1020 C   0  0  0  0  0
   -2.1380   -6.0030   20.4660 O   0  0  0  0  0
   -4.4140   -6.3560   21.0480 C   0  0  0  0  0
   -4.7630   -5.4580   19.6100 Cl  0  0  0  0  0
   -3.2470   -8.9290   21.8580 O   0  0  0  0  0
   -3.4640   -9.3390   20.5610 C   0  0  0  0  0
   -3.2350   -8.6950   19.5440 O   0  0  0  0  0
   -3.8600  -10.7480   20.6120 C   0  0  0  0  0
   -3.9550  -11.4150   21.7380 C   0  0  0  0  0
   -4.3420  -12.7320   21.4170 C   0  0  0  0  0
   -4.4070  -12.7950   20.0210 C   0  0  0  0  0
   -4.1130  -11.5510   19.4790 O   0  0  0  0  0
   -5.9621   -8.7483   30.0179 H   0  0  0  0  0
   -6.3773   -9.8714   28.6070 H   0  0  0  0  0
   -2.6307  -11.1651   29.6321 H   0  0  0  0  0
   -0.8342  -10.5623   28.2346 H   0  0  0  0  0
   -0.6752   -8.8217   28.2918 H   0  0  0  0  0
   -5.1308   -7.3991   28.7441 H   0  0  0  0  0
   -5.5531   -8.5714   27.2783 H   0  0  0  0  0
   -3.5093   -6.1842   28.0114 H   0  0  0  0  0
   -3.0770   -7.0896   29.4826 H   0  0  0  0  0
   -1.9202   -6.9784   28.1333 H   0  0  0  0  0
   -5.2929   -7.7521   25.8271 H   0  0  0  0  0
   -4.9035   -5.5305   25.3103 H   0  0  0  0  0
   -1.4628   -7.4788   26.1199 H   0  0  0  0  0
   -1.7540  -10.4750   25.9510 H   0  0  0  0  0
   -0.2054   -9.5251   26.0030 H   0  0  0  0  0
   -2.3274   -9.3229   24.2641 H   0  0  0  0  0
   -0.1571   -9.4063   23.4648 H   0  0  0  0  0
    0.1694   -7.7497   23.7678 H   0  0  0  0  0
   -0.6647   -7.1641   21.5642 H   0  0  0  0  0
    0.7196   -8.9439   21.1192 H   0  0  0  0  0
   -0.6561  -10.0644   21.2713 H   0  0  0  0  0
   -0.6750   -8.7957   20.0218 H   0  0  0  0  0
   -4.9518   -6.7032   23.5635 H   0  0  0  0  0
   -4.7274   -8.4529   23.6890 H   0  0  0  0  0
   -2.4412   -5.7442   24.9260 H   0  0  0  0  0
   -1.3432   -5.7630   23.5241 H   0  0  0  0  0
   -3.0105   -5.1649   23.3412 H   0  0  0  0  0
   -4.6969   -5.7681   21.9212 H   0  0  0  0  0
   -4.9780   -7.2887   21.0398 H   0  0  0  0  0
   -3.7689  -11.0228   22.7378 H   0  0  0  0  0
   -4.5495  -13.5408   22.1176 H   0  0  0  0  0
   -4.6519  -13.6873   19.4449 H   0  0  0  0  0
  1  2  2  0  0  0
  2  3  1  0  0  0
  2  4  1  0  0  0
  3  8  1  0  0  0
  4  5  2  0  0  0
  5  6  1  0  0  0
  5  7  1  0  0  0
  6 15  1  0  0  0
  7  8  1  0  0  0
  7  9  1  0  0  0
  7 10  1  0  0  0
 10 11  1  0  0  0
 10 12  1  0  0  0
 10 14  1  0  0  0
 12 13  1  0  0  0
 12 21  1  0  0  0
 14 15  1  0  0  0
 14 16  1  0  0  0
 16 17  1  0  0  0
 16 20  1  0  0  0
 17 18  1  0  0  0
 18 19  1  0  0  0
 18 23  1  0  0  0
 20 21  1  0  0  0
 20 22  1  0  0  0
 20 23  1  0  0  0
 23 24  1  0  0  0
 23 28  1  0  0  0
 24 25  2  0  0  0
 24 26  1  0  0  0
 26 27  1  0  0  0
 28 29  1  0  0  0
 29 30  2  0  0  0
 29 31  1  0  0  0
 31 32  4  0  0  0
 31 35  4  0  0  0
 32 33  4  0  0  0
 33 34  4  0  0  0
 34 35  4  0  0  0
  3 36  1  0  0  0
  3 37  1  0  0  0
  4 38  1  0  0  0
  6 39  1  0  0  0
  6 40  1  0  0  0
  8 41  1  0  0  0
  8 42  1  0  0  0
  9 43  1  0  0  0
  9 44  1  0  0  0
  9 45  1  0  0  0
 12 46  1  0  0  0
 13 47  1  0  0  0
 14 48  1  0  0  0
 15 49  1  0  0  0
 15 50  1  0  0  0
 16 51  1  0  0  0
 17 52  1  0  0  0
 17 53  1  0  0  0
 18 54  1  0  0  0
 19 55  1  0  0  0
 19 56  1  0  0  0
 19 57  1  0  0  0
 21 58  1  0  0  0
 21 59  1  0  0  0
 22 60  1  0  0  0
 22 61  1  0  0  0
 22 62  1  0  0  0
 26 63  1  0  0  0
 26 64  1  0  0  0
 32 65  1  0  0  0
 33 66  1  0  0  0
 34 67  1  0  0  0
M  END
$$$$
