5ulg_ligand
  -I-interpret- 

 48 48  0  0  0  0  0  0  0  0999 V2000
  -43.3190  135.9940    7.6370 C   0  0  0  0  0
  -41.0990  137.2240    7.1370 C   0  0  0  0  0
  -39.3800  135.4020    9.8910 C   0  0  0  0  0
  -37.2340  131.9990    8.2780 C   0  0  0  0  0
  -37.8090  133.7680   11.4770 C   0  0  0  0  0
  -40.8470  140.9480    6.6530 O   0  0  0  0  0
  -41.0280  139.5960    6.2350 C   0  0  0  0  0
  -40.4420  138.6050    7.2140 C   0  0  0  0  0
  -42.4780  137.2410    7.8290 C   0  0  0  0  0
  -44.7490  136.1460    8.1690 C   0  0  0  0  0
  -40.1100  136.2120    7.6860 C   0  0  0  0  0
  -40.1490  136.2530    9.1220 O   0  0  0  0  0
  -38.4700  134.5100    9.3020 C   0  0  0  0  0
  -39.4950  135.4740   11.2680 C   0  0  0  0  0
  -38.6990  134.6610   12.0530 C   0  0  0  0  0
  -37.6970  133.6590   10.1000 C   0  0  0  0  0
  -36.6910  132.6690    9.5270 C   0  0  0  0  0
  -35.4960  133.2950    9.0810 O   0  0  0  0  0
  -36.3260  130.8700    7.7970 C   0  0  0  0  0
  -34.9760  131.2840    7.5060 N   0  3  0  0  0
  -42.8434  135.1849    8.1913 H   0  0  0  0  0
  -43.3826  135.7987    6.5665 H   0  0  0  0  0
  -41.3219  136.9306    6.1112 H   0  0  0  0  0
  -37.2962  132.7476    7.4882 H   0  0  0  0  0
  -38.2101  131.5754    8.5143 H   0  0  0  0  0
  -37.1875  133.1417   12.1171 H   0  0  0  0  0
  -41.2341  141.5376    6.0018 H   0  0  0  0  0
  -40.5179  139.4677    5.2803 H   0  0  0  0  0
  -42.0990  139.4061    6.1643 H   0  0  0  0  0
  -39.3865  138.4836    6.9704 H   0  0  0  0  0
  -40.6072  138.9947    8.2185 H   0  0  0  0  0
  -42.2877  137.3258    8.8989 H   0  0  0  0  0
  -43.0379  138.0646    7.3860 H   0  0  0  0  0
  -44.7169  136.3626    9.2368 H   0  0  0  0  0
  -45.2449  136.9636    7.6459 H   0  0  0  0  0
  -45.2981  135.2195    8.0012 H   0  0  0  0  0
  -39.1055  136.4530    7.3381 H   0  0  0  0  0
  -40.3747  135.2132    7.3390 H   0  0  0  0  0
  -38.3649  134.4801    8.2175 H   0  0  0  0  0
  -40.2039  136.1627   11.7277 H   0  0  0  0  0
  -38.7721  134.7229   13.1388 H   0  0  0  0  0
  -36.5009  131.9723   10.3435 H   0  0  0  0  0
  -34.8990  132.6297    8.7308 H   0  0  0  0  0
  -36.7524  130.4858    6.8704 H   0  0  0  0  0
  -36.2720  130.1351    8.6002 H   0  0  0  0  0
  -34.4347  130.4784    7.1924 H   0  0  0  0  0
  -34.9896  131.9925    6.7723 H   0  0  0  0  0
  -34.5520  131.6731    8.3482 H   0  0  0  0  0
  9  1  1  0  0  0
  1 10  1  0  0  0
  2  8  1  0  0  0
  2  9  1  0  0  0
 11  2  1  0  0  0
  3 12  1  0  0  0
 13  3  4  0  0  0
  3 14  4  0  0  0
 17  4  1  0  0  0
  4 19  1  0  0  0
  5 15  4  0  0  0
 16  5  4  0  0  0
  7  6  1  0  0  0
  8  7  1  0  0  0
 12 11  1  0  0  0
 16 13  4  0  0  0
 15 14  4  0  0  0
 16 17  1  0  0  0
 17 18  1  0  0  0
 19 20  1  0  0  0
  1 21  1  0  0  0
  1 22  1  0  0  0
  2 23  1  0  0  0
  4 24  1  0  0  0
  4 25  1  0  0  0
  5 26  1  0  0  0
  6 27  1  0  0  0
  7 28  1  0  0  0
  7 29  1  0  0  0
  8 30  1  0  0  0
  8 31  1  0  0  0
  9 32  1  0  0  0
  9 33  1  0  0  0
 10 34  1  0  0  0
 10 35  1  0  0  0
 10 36  1  0  0  0
 11 37  1  0  0  0
 11 38  1  0  0  0
 13 39  1  0  0  0
 14 40  1  0  0  0
 15 41  1  0  0  0
 17 42  1  0  0  0
 18 43  1  0  0  0
 19 44  1  0  0  0
 19 45  1  0  0  0
 20 46  1  0  0  0
 20 47  1  0  0  0
 20 48  1  0  0  0
M  END
$$$$
