4xg4_ligand
  -I-interpret- 

 64 67  0  0  0  0  0  0  0  0999 V2000
   12.6400   -1.5010   12.5040 C   0  0  0  0  0
   11.5110   -1.1000   13.2500 C   0  0  0  0  0
   11.6760   -0.1080   14.2040 C   0  0  0  0  0
   12.8660    0.4280   14.4220 N   0  0  0  0  0
   13.8340   -0.9190   12.8090 N   0  0  0  0  0
   17.6370   -6.1960   12.1250 O   0  0  0  0  0
   16.4250   -6.7590   11.6530 C   0  0  0  0  0
   15.4960   -5.6050   11.3300 C   0  0  0  0  0
   16.6980   -7.4610   10.3200 C   0  0  0  0  0
   15.9050   -6.6570    9.2790 C   0  0  0  0  0
   14.8690   -5.9470   10.0480 N   0  3  0  0  0
   14.4310   -4.7350    9.3520 C   0  0  0  0  0
   13.4340   -3.9650   10.2100 C   0  0  0  0  0
   13.7370   -2.9560   11.0060 C   0  0  0  0  0
   12.0680   -4.1430   10.3220 C   0  0  0  0  0
   11.2280   -5.2030    9.5940 C   0  0  0  0  0
   11.5890   -3.2540   11.1810 C   0  0  0  0  0
   12.6230   -2.4920   11.5900 N   0  0  0  0  0
   10.2650   -1.5980   13.0760 F   0  0  0  0  0
   13.9660    0.0520   13.7500 C   0  0  0  0  0
   15.1120    0.6800   14.1050 N   0  0  0  0  0
   16.3690    0.4590   13.6540 C   0  0  0  0  0
   16.7370   -0.5910   12.8050 C   0  0  0  0  0
   18.0650   -0.7460   12.3840 C   0  0  0  0  0
   18.4590   -1.9030   11.4590 C   0  0  0  0  0
   17.3740    1.3410   14.0720 C   0  0  0  0  0
   18.6990    1.1900   13.6670 C   0  0  0  0  0
   19.7470    2.1880   14.1630 C   0  0  0  0  0
   19.0440    0.1450   12.8120 C   0  0  0  0  0
   20.3250   -0.0190   12.4030 O   0  0  0  0  0
   20.5530    0.6750   11.1790 C   0  0  0  0  0
   21.9670    0.2500   10.7820 C   0  0  0  0  0
   22.9030    0.7200   11.7700 O   0  0  0  0  0
   10.8166    0.2341   14.7806 H   0  0  0  0  0
   18.2530   -6.9001   12.3407 H   0  0  0  0  0
   16.0115   -7.4467   12.3907 H   0  0  0  0  0
   16.0397   -4.6623   11.2677 H   0  0  0  0  0
   14.7502   -5.4641   12.1123 H   0  0  0  0  0
   16.3907   -8.5065   10.3432 H   0  0  0  0  0
   17.7624   -7.4858   10.0866 H   0  0  0  0  0
   15.4687   -7.3040    8.5180 H   0  0  0  0  0
   16.5453   -5.9649    8.7321 H   0  0  0  0  0
   14.0378   -6.5251   10.1717 H   0  0  0  0  0
   13.9517   -5.0161    8.4143 H   0  0  0  0  0
   15.2974   -4.1026    9.1582 H   0  0  0  0  0
   14.7403   -2.5605   11.1642 H   0  0  0  0  0
   11.3248   -5.0647    8.5171 H   0  0  0  0  0
   11.5830   -6.1967    9.8674 H   0  0  0  0  0
   10.1823   -5.0972    9.8827 H   0  0  0  0  0
   10.5506   -3.1571   11.4980 H   0  0  0  0  0
   15.0153    1.4164   14.8042 H   0  0  0  0  0
   15.9801   -1.2984   12.4663 H   0  0  0  0  0
   18.2299   -2.8505   11.9467 H   0  0  0  0  0
   17.8992   -1.8280   10.5268 H   0  0  0  0  0
   19.5271   -1.8503   11.2481 H   0  0  0  0  0
   17.1125    2.1680   14.7321 H   0  0  0  0  0
   19.4743    3.1916   13.8365 H   0  0  0  0  0
   19.7891    2.1577   15.2518 H   0  0  0  0  0
   20.7216    1.9234   13.7529 H   0  0  0  0  0
   20.4580    1.7553   11.2887 H   0  0  0  0  0
   19.8143    0.4284   10.4164 H   0  0  0  0  0
   22.2167    0.6784    9.8113 H   0  0  0  0  0
   22.0168   -0.8372   10.7217 H   0  0  0  0  0
   23.7908    0.4531   11.5206 H   0  0  0  0  0
  1  2  4  0  0  0
  1  5  4  0  0  0
 18  1  1  0  0  0
  2  3  4  0  0  0
  2 19  1  0  0  0
  3  4  4  0  0  0
 20  4  4  0  0  0
  5 20  4  0  0  0
  7  6  1  0  0  0
  8  7  1  0  0  0
  9  7  1  0  0  0
 11  8  1  0  0  0
 10  9  1  0  0  0
 11 10  1  0  0  0
 12 11  1  0  0  0
 13 12  1  0  0  0
 14 13  4  0  0  0
 13 15  4  0  0  0
 14 18  4  0  0  0
 15 16  1  0  0  0
 15 17  4  0  0  0
 17 18  4  0  0  0
 20 21  1  0  0  0
 21 22  1  0  0  0
 22 23  4  0  0  0
 22 26  4  0  0  0
 23 24  4  0  0  0
 24 25  1  0  0  0
 24 29  4  0  0  0
 26 27  4  0  0  0
 27 28  1  0  0  0
 27 29  4  0  0  0
 29 30  1  0  0  0
 30 31  1  0  0  0
 31 32  1  0  0  0
 32 33  1  0  0  0
  3 34  1  0  0  0
  6 35  1  0  0  0
  7 36  1  0  0  0
  8 37  1  0  0  0
  8 38  1  0  0  0
  9 39  1  0  0  0
  9 40  1  0  0  0
 10 41  1  0  0  0
 10 42  1  0  0  0
 11 43  1  0  0  0
 12 44  1  0  0  0
 12 45  1  0  0  0
 14 46  1  0  0  0
 16 47  1  0  0  0
 16 48  1  0  0  0
 16 49  1  0  0  0
 17 50  1  0  0  0
 21 51  1  0  0  0
 23 52  1  0  0  0
 25 53  1  0  0  0
 25 54  1  0  0  0
 25 55  1  0  0  0
 26 56  1  0  0  0
 28 57  1  0  0  0
 28 58  1  0  0  0
 28 59  1  0  0  0
 31 60  1  0  0  0
 31 61  1  0  0  0
 32 62  1  0  0  0
 32 63  1  0  0  0
 33 64  1  0  0  0
M  END
$$$$
