3sue_ligand
  -I-interpret- 

104110  0  0  0  0  0  0  0  0999 V2000
    2.4760   -9.7570   31.1330 C   0  0  0  0  0
    1.3770  -11.7780   31.5120 N   0  0  0  0  0
    1.9560   -9.6360   30.0650 O   0  0  0  0  0
    2.6250  -11.0070   31.6660 C   0  0  0  0  0
    3.9010  -11.7690   31.1510 C   0  0  0  0  0
    0.4870  -11.9400   32.4950 C   0  0  0  0  0
    2.5950   -5.6560   35.5540 N   0  0  0  0  0
    0.4540   -3.3530   37.1790 C   0  0  0  0  0
    3.1150   -3.9150   36.9200 C   0  0  0  0  0
   -2.9650  -13.1150   33.0540 C   0  0  0  0  0
   -2.4620  -11.7730   33.4680 C   0  0  0  0  0
   -1.5080  -12.8960   33.2950 C   0  0  0  0  0
    7.6460   -1.9430   28.4520 C   0  0  0  0  0
    6.2860   -1.7790   28.9500 C   0  0  0  0  0
    5.8900   -3.4560   26.3170 O   0  0  0  0  0
    6.2200   -4.2460   27.4200 S   0  0  0  0  0
    3.0140   -6.7220   27.7090 C   0  0  0  0  0
    4.5290   -7.8200   29.7450 O   0  0  0  0  0
    3.4920   -7.2800   30.0230 C   0  0  0  0  0
    4.1810  -12.8780   32.1250 C   0  0  0  0  0
    3.2000   -8.5640   25.8730 C   0  0  0  0  0
    0.8600   -4.3950   36.4100 C   0  0  0  0  0
   -2.6010  -11.3050   34.8700 C   0  0  0  0  0
    4.9830   -5.1230   27.9380 N   0  0  0  0  0
    2.5120   -7.9920   27.0840 C   0  0  0  0  0
   -1.2050   -9.2640   34.7080 C   0  0  0  0  0
    1.3730   -2.5830   37.8230 C   0  0  0  0  0
    2.1540   -7.4020   34.2250 O   0  0  0  0  0
    4.9190   -2.2270   38.3330 C   0  0  0  0  0
    3.5620   -2.0510   38.3700 O   0  0  0  0  0
   -2.5850   -9.8380   34.8740 C   0  0  0  0  0
   -1.0960   -7.9650   35.3470 C   0  0  0  0  0
    1.7410   -6.3910   34.9400 C   0  0  0  0  0
    0.3710   -6.1430   35.0590 C   0  0  0  0  0
    2.1960   -4.6710   36.2800 C   0  0  0  0  0
   -0.0160   -5.1350   35.8010 N   0  0  0  0  0
   -0.6130   -6.9000   34.4340 C   0  0  0  0  0
    2.7250   -2.8500   37.7080 C   0  0  0  0  0
    7.2670   -5.0730   26.9790 O   0  0  0  0  0
    6.8750   -3.1150   28.8700 C   0  0  0  0  0
    4.4810   -5.9790   25.9480 O   0  0  0  0  0
    1.7970   -6.7560   26.8310 C   0  0  0  0  0
    4.2480   -5.9010   27.1210 C   0  0  0  0  0
    2.7470   -6.7240   29.1320 N   0  0  0  0  0
    4.1050   -9.7400   26.1140 C   0  0  0  0  0
    0.7400  -11.4340   33.5500 O   0  0  0  0  0
   -0.5890  -12.6520   32.2310 O   0  0  0  0  0
    3.5730   -6.5220   32.4150 C   0  0  0  0  0
    2.9130   -7.3220   31.3040 C   0  0  0  0  0
    2.9360   -8.7200   31.7840 N   0  0  0  0  0
    3.6130   -8.7310   33.0750 C   0  0  0  0  0
    3.4360   -7.4130   33.6420 C   0  0  0  0  0
    5.1000  -10.8780   31.0950 C   0  0  0  0  0
    3.7310  -12.3340   29.7660 C   0  0  0  0  0
    1.1835  -12.2097   30.6084 H   0  0  0  0  0
    2.8118  -10.8865   32.7331 H   0  0  0  0  0
   -0.6086   -3.1327   37.2809 H   0  0  0  0  0
    4.1745   -4.1480   36.8133 H   0  0  0  0  0
   -3.6150  -13.5493   32.2944 H   0  0  0  0  0
   -3.7463  -13.8212   33.3351 H   0  0  0  0  0
   -2.6199  -10.7752   33.0587 H   0  0  0  0  0
   -0.7892  -13.4720   33.8778 H   0  0  0  0  0
    8.5650   -1.5098   28.0571 H   0  0  0  0  0
    5.4446   -1.1326   29.1997 H   0  0  0  0  0
    5.0512  -13.4427   31.7904 H   0  0  0  0  0
    4.3781  -12.4540   33.1096 H   0  0  0  0  0
    3.3161  -13.5392   32.1792 H   0  0  0  0  0
    3.8338   -7.7689   25.4803 H   0  0  0  0  0
    2.4081   -8.9205   25.2143 H   0  0  0  0  0
   -1.7782  -11.6880   35.4737 H   0  0  0  0  0
   -3.5377  -11.6683   35.2927 H   0  0  0  0  0
    4.7422   -5.0905   28.9286 H   0  0  0  0  0
    2.2900   -8.9735   27.5029 H   0  0  0  0  0
   -1.0032   -9.1459   33.6434 H   0  0  0  0  0
   -0.4884   -9.9413   35.1725 H   0  0  0  0  0
    1.0395   -1.7461   38.4366 H   0  0  0  0  0
    5.1668   -3.2144   38.7226 H   0  0  0  0  0
    5.2670   -2.1435   37.3034 H   0  0  0  0  0
    5.4000   -1.4628   38.9436 H   0  0  0  0  0
   -2.9691   -9.5047   35.8381 H   0  0  0  0  0
   -3.1893   -9.4974   34.0332 H   0  0  0  0  0
   -0.3732   -8.0565   36.1577 H   0  0  0  0  0
   -2.0919   -7.6807   35.6869 H   0  0  0  0  0
   -1.4479   -6.2514   34.1686 H   0  0  0  0  0
   -0.1949   -7.3598   33.5385 H   0  0  0  0  0
    7.0277   -3.9341   29.5727 H   0  0  0  0  0
    1.4045   -6.2108   25.9726 H   0  0  0  0  0
    0.7683   -6.3968   26.8616 H   0  0  0  0  0
    1.9039   -6.2484   29.4534 H   0  0  0  0  0
    4.8994   -9.4505   26.8019 H   0  0  0  0  0
    3.5285  -10.5579   26.5462 H   0  0  0  0  0
    4.5410  -10.0612   25.1680 H   0  0  0  0  0
    3.1045   -5.5482   32.5572 H   0  0  0  0  0
    4.6129   -6.2842   32.1911 H   0  0  0  0  0
    1.9312   -6.8782   31.1389 H   0  0  0  0  0
    4.6707   -8.9674   32.9592 H   0  0  0  0  0
    3.1949   -9.4966   33.7286 H   0  0  0  0  0
    4.1294   -7.0964   34.4211 H   0  0  0  0  0
    5.2915  -10.4660   32.0858 H   0  0  0  0  0
    5.9646  -11.4547   30.7666 H   0  0  0  0  0
    4.9150  -10.0658   30.3920 H   0  0  0  0  0
    4.6445  -12.8503   29.4709 H   0  0  0  0  0
    2.8975  -13.0364   29.7613 H   0  0  0  0  0
    3.5284  -11.5230   29.0665 H   0  0  0  0  0
  1  3  2  0  0  0
  4  1  1  0  0  0
  1 50  1  0  0  0
  2  4  1  0  0  0
  6  2  1  0  0  0
  4  5  1  0  0  0
  5 20  1  0  0  0
  5 53  1  0  0  0
  5 54  1  0  0  0
  6 46  2  0  0  0
 47  6  1  0  0  0
 33  7  4  0  0  0
  7 35  4  0  0  0
 22  8  4  0  0  0
  8 27  4  0  0  0
 35  9  4  0  0  0
  9 38  4  0  0  0
 11 10  1  0  0  0
 12 10  1  0  0  0
 11 12  1  0  0  0
 23 11  1  0  0  0
 12 47  1  0  0  0
 14 13  2  0  0  0
 40 13  1  0  0  0
 40 14  1  0  0  0
 16 15  2  0  0  0
 24 16  1  0  0  0
 16 39  2  0  0  0
 16 40  1  0  0  0
 17 25  1  0  0  0
 17 42  1  0  0  0
 17 43  1  0  0  0
 44 17  1  0  0  0
 19 18  2  0  0  0
 19 44  1  0  0  0
 49 19  1  0  0  0
 25 21  1  0  0  0
 21 45  1  0  0  0
 35 22  4  0  0  0
 36 22  4  0  0  0
 31 23  1  0  0  0
 43 24  1  0  0  0
 42 25  1  0  0  0
 26 31  1  0  0  0
 32 26  1  0  0  0
 38 27  4  0  0  0
 28 33  1  0  0  0
 52 28  1  0  0  0
 30 29  1  0  0  0
 38 30  1  0  0  0
 37 32  1  0  0  0
 33 34  4  0  0  0
 34 36  4  0  0  0
 34 37  1  0  0  0
 43 41  2  0  0  0
 48 49  1  0  0  0
 48 52  1  0  0  0
 49 50  1  0  0  0
 50 51  1  0  0  0
 51 52  1  0  0  0
  2 55  1  0  0  0
  4 56  1  0  0  0
  8 57  1  0  0  0
  9 58  1  0  0  0
 10 59  1  0  0  0
 10 60  1  0  0  0
 11 61  1  0  0  0
 12 62  1  0  0  0
 13 63  1  0  0  0
 14 64  1  0  0  0
 20 65  1  0  0  0
 20 66  1  0  0  0
 20 67  1  0  0  0
 21 68  1  0  0  0
 21 69  1  0  0  0
 23 70  1  0  0  0
 23 71  1  0  0  0
 24 72  1  0  0  0
 25 73  1  0  0  0
 26 74  1  0  0  0
 26 75  1  0  0  0
 27 76  1  0  0  0
 29 77  1  0  0  0
 29 78  1  0  0  0
 29 79  1  0  0  0
 31 80  1  0  0  0
 31 81  1  0  0  0
 32 82  1  0  0  0
 32 83  1  0  0  0
 37 84  1  0  0  0
 37 85  1  0  0  0
 40 86  1  0  0  0
 42 87  1  0  0  0
 42 88  1  0  0  0
 44 89  1  0  0  0
 45 90  1  0  0  0
 45 91  1  0  0  0
 45 92  1  0  0  0
 48 93  1  0  0  0
 48 94  1  0  0  0
 49 95  1  0  0  0
 51 96  1  0  0  0
 51 97  1  0  0  0
 52 98  1  0  0  0
 53 99  1  0  0  0
 53100  1  0  0  0
 53101  1  0  0  0
 54102  1  0  0  0
 54103  1  0  0  0
 54104  1  0  0  0
M  END
$$$$
