### 
### Created by X-TOOL on Mon Sep 10 21:12:48 2018
### 

@<TRIPOS>MOLECULE
1jmq_ligand
  138   142     1     0     0
SMALL
GAST_HUCK


@<TRIPOS>ATOM
      1 N         -14.1710   -0.1780    9.4930 N.4       1 GLY         0.2357
      2 CA        -13.3380   -1.3410    9.9110 C.3       1 GLY         0.0545
      3 C         -13.7270   -2.5710    9.0890 C.2       1 GLY         0.2237
      4 O         -14.8890   -2.9040    8.9640 O.2       1 GLY        -0.3910
      5 H1        -13.9137    0.6318   10.0354 H         1 GLY         0.2012
      6 H2        -15.1445   -0.3896    9.6463 H         1 GLY         0.2012
      7 H3        -14.0181    0.0105    8.5147 H         1 GLY         0.2012
      8 H4        -13.5049   -1.5463   10.9787 H         1 GLY         0.1061
      9 H5        -12.2757   -1.1097    9.7437 H         1 GLY         0.1061
     10 N         -12.7640   -3.2490    8.5270 N.am      1 THR        -0.2589
     11 CA        -13.0800   -4.4580    7.7120 C.3       1 THR         0.1568
     12 C         -11.7860   -5.1520    7.2690 C.2       1 THR         0.2090
     13 O         -10.7640   -4.5110    7.1190 O.2       1 THR        -0.3941
     14 CB        -13.8470   -3.9270    6.5000 C.3       1 THR         0.0924
     15 OG1       -14.1470   -5.0030    5.6230 O.3       1 THR        -0.3874
     16 CG2       -12.9930   -2.8920    5.7670 C.3       1 THR        -0.0346
     17 H6        -11.8142   -2.9582    8.6426 H         1 THR         0.1885
     18 H7        -13.6998   -5.1632    8.2852 H         1 THR         0.0826
     19 H8        -14.7829   -3.4567    6.8362 H         1 THR         0.0639
     20 H9        -13.3384   -5.4095    5.3342 H         1 THR         0.2101
     21 H10       -13.5460   -2.5111    4.8957 H         1 THR         0.0257
     22 H11       -12.0567   -3.3611    5.4305 H         1 THR         0.0257
     23 H12       -12.7620   -2.0591    6.4473 H         1 THR         0.0257
     24 N         -11.8670   -6.4460    7.0720 N.am      1 PRO        -0.2498
     25 CA        -10.6770   -7.2210    6.6410 C.3       1 PRO         0.1340
     26 C         -10.3370   -6.9110    5.1770 C.2       1 PRO         0.2066
     27 O         -11.1890   -6.4810    4.4250 O.2       1 PRO        -0.3942
     28 CB        -11.1150   -8.6730    6.8010 C.3       1 PRO        -0.0104
     29 CG        -12.6070   -8.6410    6.7000 C.3       1 PRO        -0.0281
     30 CD        -13.0540   -7.3020    7.2270 C.3       1 PRO         0.0369
     31 H13        -9.8080   -6.9989    7.2779 H         1 PRO         0.0802
     32 H14       -10.8022   -9.0655    7.7798 H         1 PRO         0.0313
     33 H15       -10.6868   -9.2962    6.0021 H         1 PRO         0.0313
     34 H16       -13.0442   -9.4499    7.3037 H         1 PRO         0.0287
     35 H17       -12.9175   -8.7572    5.6512 H         1 PRO         0.0287
     36 H18       -13.8974   -6.9117    6.6386 H         1 PRO         0.0524
     37 H19       -13.3477   -7.3760    8.2845 H         1 PRO         0.0524
     38 N          -9.0970   -7.1400    4.8160 N.am      1 PRO        -0.2498
     39 CA         -8.6480   -6.8780    3.4230 C.3       1 PRO         0.1340
     40 C          -9.3320   -7.8350    2.4360 C.2       1 PRO         0.2066
     41 O         -10.0190   -8.7520    2.8410 O.2       1 PRO        -0.3942
     42 CB         -7.1420   -7.1260    3.4790 C.3       1 PRO        -0.0104
     43 CG         -6.9530   -8.0430    4.6430 C.3       1 PRO        -0.0281
     44 CD         -8.0030   -7.6620    5.6500 C.3       1 PRO         0.0369
     45 H20        -8.8623   -5.8393    3.1313 H         1 PRO         0.0802
     46 H21        -6.5988   -6.1825    3.6361 H         1 PRO         0.0313
     47 H22        -6.7920   -7.6004    2.5504 H         1 PRO         0.0313
     48 H23        -5.9483   -7.9134    5.0717 H         1 PRO         0.0287
     49 H24        -7.0861   -9.0891    4.3302 H         1 PRO         0.0287
     50 H25        -8.3315   -8.5385    6.2278 H         1 PRO         0.0524
     51 H26        -7.6280   -6.8893    6.3373 H         1 PRO         0.0524
     52 N          -9.1240   -7.5850    1.1640 N.am      1 PRO        -0.2498
     53 CA         -9.7360   -8.4350    0.1100 C.3       1 PRO         0.1340
     54 C          -9.0870   -9.8280    0.0930 C.2       1 PRO         0.2066
     55 O          -8.1410  -10.0740    0.8150 O.2       1 PRO        -0.3942
     56 CB         -9.4530   -7.6640   -1.1810 C.3       1 PRO        -0.0104
     57 CG         -8.2560   -6.8260   -0.8800 C.3       1 PRO        -0.0281
     58 CD         -8.3080   -6.5030    0.5900 C.3       1 PRO         0.0369
     59 H27       -10.8191   -8.5404    0.2703 H         1 PRO         0.0802
     60 H28       -10.3111   -7.0296   -1.4477 H         1 PRO         0.0313
     61 H29        -9.2400   -8.3588   -2.0067 H         1 PRO         0.0313
     62 H30        -8.2840   -5.8995   -1.4723 H         1 PRO         0.0287
     63 H31        -7.3362   -7.3824   -1.1129 H         1 PRO         0.0287
     64 H32        -7.2981   -6.5016    1.0259 H         1 PRO         0.0524
     65 H33        -8.7815   -5.5246    0.7587 H         1 PRO         0.0524
     66 N          -9.6250  -10.7040   -0.7270 N.am      1 PRO        -0.2498
     67 CA         -9.0910  -12.0890   -0.8210 C.3       1 PRO         0.1338
     68 C          -7.7820  -12.1450   -1.6260 C.2       1 PRO         0.2042
     69 O          -7.2660  -13.2110   -1.8950 O.2       1 PRO        -0.3944
     70 CB        -10.1950  -12.8490   -1.5480 C.3       1 PRO        -0.0104
     71 CG        -10.9340  -11.8150   -2.3380 C.3       1 PRO        -0.0281
     72 CD        -10.7710  -10.4950   -1.6280 C.3       1 PRO         0.0369
     73 H34        -8.9196  -12.5077    0.1817 H         1 PRO         0.0802
     74 H35       -10.8675  -13.3352   -0.8260 H         1 PRO         0.0313
     75 H36        -9.7637  -13.6086   -2.2165 H         1 PRO         0.0313
     76 H37       -12.0000  -12.0796   -2.3974 H         1 PRO         0.0287
     77 H38       -10.5155  -11.7488   -3.3531 H         1 PRO         0.0287
     78 H39       -10.5594   -9.6897   -2.3469 H         1 PRO         0.0524
     79 H40       -11.6766  -10.2466   -1.0551 H         1 PRO         0.0524
     80 N          -7.2420  -11.0190   -2.0140 N.am      1 TYR        -0.2621
     81 CA         -5.9690  -11.0220   -2.7980 C.3       1 TYR         0.1390
     82 C          -6.1320  -11.8310   -4.0880 C.2       1 TYR         0.2058
     83 O          -7.0540  -12.6070   -4.2370 O.2       1 TYR        -0.3942
     84 CB         -4.9210  -11.6730   -1.8890 C.3       1 TYR         0.0163
     85 CG         -3.5660  -11.5680   -2.5450 C.ar      1 TYR        -0.0493
     86 CD1        -2.7330  -10.4780   -2.2650 C.ar      1 TYR        -0.0685
     87 CD2        -3.1460  -12.5580   -3.4400 C.ar      1 TYR        -0.0685
     88 CE1        -1.4810  -10.3790   -2.8810 C.ar      1 TYR        -0.0398
     89 CE2        -1.8940  -12.4600   -4.0550 C.ar      1 TYR        -0.0398
     90 CZ         -1.0610  -11.3700   -3.7760 C.ar      1 TYR         0.0805
     91 OH          0.1740  -11.2740   -4.3830 O.3       1 TYR        -0.3376
     92 H41        -7.6830  -10.1512   -1.7851 H         1 TYR         0.1885
     93 H42        -5.6722   -9.9926   -3.0476 H         1 TYR         0.0821
     94 H43        -5.1743  -12.7322   -1.7342 H         1 TYR         0.0453
     95 H44        -4.9018  -11.1549   -0.9188 H         1 TYR         0.0453
     96 H45        -3.0581   -9.7112   -1.5712 H         1 TYR         0.0530
     97 H46        -3.7915  -13.4014   -3.6568 H         1 TYR         0.0530
     98 H47        -0.8360   -9.5349   -2.6653 H         1 TYR         0.0525
     99 H48        -1.5686  -13.2278   -4.7476 H         1 TYR         0.0525
    100 H49         0.0607  -11.2424   -5.3257 H         1 TYR         0.2458
    101 N          -5.2360  -11.6510   -5.0200 N.am      1 THR        -0.2612
    102 CA         -5.3270  -12.4040   -6.3040 C.3       1 THR         0.1565
    103 C          -3.9830  -12.3700   -7.0310 C.2       1 THR         0.2065
    104 O          -2.9910  -11.9050   -6.5040 O.2       1 THR        -0.3943
    105 CB         -6.3910  -11.6740   -7.1240 C.3       1 THR         0.0924
    106 OG1        -6.3670  -10.2880   -6.8100 O.3       1 THR        -0.3874
    107 CG2        -7.7650  -12.2500   -6.7970 C.3       1 THR        -0.0346
    108 H50        -4.4861  -11.0061   -4.8725 H         1 THR         0.1884
    109 H51        -5.6244  -13.4474   -6.1227 H         1 THR         0.0826
    110 H52        -6.1835  -11.8090   -8.1958 H         1 THR         0.0639
    111 H53        -7.0290   -9.8372   -7.3209 H         1 THR         0.2101
    112 H54        -8.5319  -11.7259   -7.3862 H         1 THR         0.0257
    113 H55        -7.9724  -12.1177   -5.7249 H         1 THR         0.0257
    114 H56        -7.7816  -13.3217   -7.0442 H         1 THR         0.0257
    115 N          -3.9420  -12.8560   -8.2410 N.am      1 VAL        -0.2634
    116 CA         -2.6630  -12.8470   -9.0030 C.3       1 VAL         0.1332
    117 C          -2.8930  -13.3510  -10.4300 C.2       1 VAL         0.2034
    118 O          -2.4200  -14.4040  -10.8100 O.2       1 VAL        -0.3944
    119 CB         -1.7370  -13.7960   -8.2400 C.3       1 VAL        -0.0063
    120 CG1        -2.3760  -15.1840   -8.1690 C.3       1 VAL        -0.0584
    121 CG2        -0.3930  -13.8890   -8.9650 C.3       1 VAL        -0.0584
    122 H57        -4.7692  -13.2344   -8.6564 H         1 VAL         0.1883
    123 H58        -2.2371  -11.8333   -9.0344 H         1 VAL         0.0802
    124 H59        -1.5781  -13.4130   -7.2211 H         1 VAL         0.0343
    125 H60        -1.7102  -15.8665   -7.6204 H         1 VAL         0.0234
    126 H61        -2.5349  -15.5671   -9.1878 H         1 VAL         0.0234
    127 H62        -3.3423  -15.1166   -7.6477 H         1 VAL         0.0234
    128 H63         0.0660  -12.8907   -9.0158 H         1 VAL         0.0234
    129 H64        -0.5517  -14.2718   -9.9839 H         1 VAL         0.0234
    130 H65         0.2731  -14.5713   -8.4166 H         1 VAL         0.0234
    131 N          -3.6150  -12.6080  -11.2230 N.am      1 GLY        -0.2722
    132 CA         -3.8740  -13.0450  -12.6230 C.3       1 GLY         0.0833
    133 C          -4.5170  -14.4340  -12.6140 C.2       1 GLY         0.0570
    134 O          -5.5860  -14.5660  -12.0420 O.co2     1 GLY        -0.5669
    135 OXT        -3.9280  -15.3410  -13.1780 O.co2     1 GLY        -0.5669
    136 H66        -3.9947  -11.7447  -10.8906 H         1 GLY         0.1873
    137 H67        -2.9241  -13.0844  -13.1764 H         1 GLY         0.0689
    138 H68        -4.5530  -12.3300  -13.1105 H         1 GLY         0.0689
@<TRIPOS>BOND
     1    1    2 1  
     2    1    5 1  
     3    1    6 1  
     4    1    7 1  
     5    2    3 1  
     6    2    8 1  
     7    2    9 1  
     8    3    4 2  
     9    3   10 am 
    10   10   11 1  
    11   10   17 1  
    12   11   12 1  
    13   11   14 1  
    14   11   18 1  
    15   12   13 2  
    16   12   24 am 
    17   14   15 1  
    18   14   16 1  
    19   14   19 1  
    20   15   20 1  
    21   16   21 1  
    22   16   22 1  
    23   16   23 1  
    24   24   25 1  
    25   24   30 1  
    26   25   26 1  
    27   25   28 1  
    28   25   31 1  
    29   26   27 2  
    30   26   38 am 
    31   28   29 1  
    32   28   32 1  
    33   28   33 1  
    34   29   30 1  
    35   29   34 1  
    36   29   35 1  
    37   30   36 1  
    38   30   37 1  
    39   38   39 1  
    40   38   44 1  
    41   39   40 1  
    42   39   42 1  
    43   39   45 1  
    44   40   41 2  
    45   40   52 am 
    46   42   43 1  
    47   42   46 1  
    48   42   47 1  
    49   43   44 1  
    50   43   48 1  
    51   43   49 1  
    52   44   50 1  
    53   44   51 1  
    54   52   53 1  
    55   52   58 1  
    56   53   54 1  
    57   53   56 1  
    58   53   59 1  
    59   54   55 2  
    60   54   66 am 
    61   56   57 1  
    62   56   60 1  
    63   56   61 1  
    64   57   58 1  
    65   57   62 1  
    66   57   63 1  
    67   58   64 1  
    68   58   65 1  
    69   66   67 1  
    70   66   72 1  
    71   67   68 1  
    72   67   70 1  
    73   67   73 1  
    74   68   69 2  
    75   68   80 am 
    76   70   71 1  
    77   70   74 1  
    78   70   75 1  
    79   71   72 1  
    80   71   76 1  
    81   71   77 1  
    82   72   78 1  
    83   72   79 1  
    84   80   81 1  
    85   80   92 1  
    86   81   82 1  
    87   81   84 1  
    88   81   93 1  
    89   82   83 2  
    90   82  101 am 
    91   84   85 1  
    92   84   94 1  
    93   84   95 1  
    94   85   86 ar 
    95   85   87 ar 
    96   86   88 ar 
    97   86   96 1  
    98   87   89 ar 
    99   87   97 1  
   100   88   90 ar 
   101   88   98 1  
   102   89   90 ar 
   103   89   99 1  
   104   90   91 1  
   105   91  100 1  
   106  101  102 1  
   107  101  108 1  
   108  102  103 1  
   109  102  105 1  
   110  102  109 1  
   111  103  104 2  
   112  103  115 am 
   113  105  106 1  
   114  105  107 1  
   115  105  110 1  
   116  106  111 1  
   117  107  112 1  
   118  107  113 1  
   119  107  114 1  
   120  115  116 1  
   121  115  122 1  
   122  116  117 1  
   123  116  119 1  
   124  116  123 1  
   125  117  118 2  
   126  117  131 am 
   127  119  120 1  
   128  119  121 1  
   129  119  124 1  
   130  120  125 1  
   131  120  126 1  
   132  120  127 1  
   133  121  128 1  
   134  121  129 1  
   135  121  130 1  
   136  131  132 1  
   137  131  136 1  
   138  132  133 1  
   139  132  137 1  
   140  132  138 1  
   141  133  134 ar 
   142  133  135 ar 
@<TRIPOS>SUBSTRUCTURE
     1 GLY         1

