1jmq_ligand
  -I-interpret- 

139143  0  0  0  0  0  0  0  0999 V2000
  -14.1710   -0.1780    9.4930 N   0  3  0  0  0
  -13.3380   -1.3410    9.9110 C   0  0  0  0  0
  -13.7270   -2.5710    9.0890 C   0  0  0  0  0
  -14.8890   -2.9040    8.9640 O   0  0  0  0  0
  -12.7640   -3.2490    8.5270 N   0  0  0  0  0
  -13.0800   -4.4580    7.7120 C   0  0  0  0  0
  -11.7860   -5.1520    7.2690 C   0  0  0  0  0
  -10.7640   -4.5110    7.1190 O   0  0  0  0  0
  -13.8470   -3.9270    6.5000 C   0  0  0  0  0
  -14.1470   -5.0030    5.6230 O   0  0  0  0  0
  -12.9930   -2.8920    5.7670 C   0  0  0  0  0
  -11.8670   -6.4460    7.0720 N   0  0  0  0  0
  -10.6770   -7.2210    6.6410 C   0  0  0  0  0
  -10.3370   -6.9110    5.1770 C   0  0  0  0  0
  -11.1890   -6.4810    4.4250 O   0  0  0  0  0
  -11.1150   -8.6730    6.8010 C   0  0  0  0  0
  -12.6070   -8.6410    6.7000 C   0  0  0  0  0
  -13.0540   -7.3020    7.2270 C   0  0  0  0  0
   -9.0970   -7.1400    4.8160 N   0  0  0  0  0
   -8.6480   -6.8780    3.4230 C   0  0  0  0  0
   -9.3320   -7.8350    2.4360 C   0  0  0  0  0
  -10.0190   -8.7520    2.8410 O   0  0  0  0  0
   -7.1420   -7.1260    3.4790 C   0  0  0  0  0
   -6.9530   -8.0430    4.6430 C   0  0  0  0  0
   -8.0030   -7.6620    5.6500 C   0  0  0  0  0
   -9.1240   -7.5850    1.1640 N   0  0  0  0  0
   -9.7360   -8.4350    0.1100 C   0  0  0  0  0
   -9.0870   -9.8280    0.0930 C   0  0  0  0  0
   -8.1410  -10.0740    0.8150 O   0  0  0  0  0
   -9.4530   -7.6640   -1.1810 C   0  0  0  0  0
   -8.2560   -6.8260   -0.8800 C   0  0  0  0  0
   -8.3080   -6.5030    0.5900 C   0  0  0  0  0
   -9.6250  -10.7040   -0.7270 N   0  0  0  0  0
   -9.0910  -12.0890   -0.8210 C   0  0  0  0  0
   -7.7820  -12.1450   -1.6260 C   0  0  0  0  0
   -7.2660  -13.2110   -1.8950 O   0  0  0  0  0
  -10.1950  -12.8490   -1.5480 C   0  0  0  0  0
  -10.9340  -11.8150   -2.3380 C   0  0  0  0  0
  -10.7710  -10.4950   -1.6280 C   0  0  0  0  0
   -7.2420  -11.0190   -2.0140 N   0  0  0  0  0
   -5.9690  -11.0220   -2.7980 C   0  0  0  0  0
   -6.1320  -11.8310   -4.0880 C   0  0  0  0  0
   -7.0540  -12.6070   -4.2370 O   0  0  0  0  0
   -4.9210  -11.6730   -1.8890 C   0  0  0  0  0
   -3.5660  -11.5680   -2.5450 C   0  0  0  0  0
   -2.7330  -10.4780   -2.2650 C   0  0  0  0  0
   -3.1460  -12.5580   -3.4400 C   0  0  0  0  0
   -1.4810  -10.3790   -2.8810 C   0  0  0  0  0
   -1.8940  -12.4600   -4.0550 C   0  0  0  0  0
   -1.0610  -11.3700   -3.7760 C   0  0  0  0  0
    0.1740  -11.2740   -4.3830 O   0  0  0  0  0
   -5.2360  -11.6510   -5.0200 N   0  0  0  0  0
   -5.3270  -12.4040   -6.3040 C   0  0  0  0  0
   -3.9830  -12.3700   -7.0310 C   0  0  0  0  0
   -2.9910  -11.9050   -6.5040 O   0  0  0  0  0
   -6.3910  -11.6740   -7.1240 C   0  0  0  0  0
   -6.3670  -10.2880   -6.8100 O   0  0  0  0  0
   -7.7650  -12.2500   -6.7970 C   0  0  0  0  0
   -3.9420  -12.8560   -8.2410 N   0  0  0  0  0
   -2.6630  -12.8470   -9.0030 C   0  0  0  0  0
   -2.8930  -13.3510  -10.4300 C   0  0  0  0  0
   -2.4200  -14.4040  -10.8100 O   0  0  0  0  0
   -1.7370  -13.7960   -8.2400 C   0  0  0  0  0
   -2.3760  -15.1840   -8.1690 C   0  0  0  0  0
   -0.3930  -13.8890   -8.9650 C   0  0  0  0  0
   -3.6150  -12.6080  -11.2230 N   0  0  0  0  0
   -3.8740  -13.0450  -12.6230 C   0  0  0  0  0
   -4.5170  -14.4340  -12.6140 C   0  0  0  0  0
   -5.5860  -14.5660  -12.0420 O   0  0  0  0  0
   -3.9280  -15.3410  -13.1780 O   0  0  0  0  0
  -13.9098    0.6407   10.0424 H   0  0  0  0  0
  -14.0155    0.0117    8.5029 H   0  0  0  0  0
  -15.1558   -0.3933    9.6486 H   0  0  0  0  0
  -13.5041   -1.5445   10.9689 H   0  0  0  0  0
  -12.2855   -1.1117    9.7446 H   0  0  0  0  0
  -11.7952   -2.9524    8.6449 H   0  0  0  0  0
  -13.6583   -5.1940    8.2705 H   0  0  0  0  0
  -14.7739   -3.4597    6.8325 H   0  0  0  0  0
  -14.6831   -5.6513    6.0854 H   0  0  0  0  0
  -12.0658   -3.3582    5.4337 H   0  0  0  0  0
  -13.5422   -2.5150    4.9042 H   0  0  0  0  0
  -12.7643   -2.0675    6.4423 H   0  0  0  0  0
   -9.7822   -6.9859    7.2173 H   0  0  0  0  0
  -10.7835   -9.0925    7.7508 H   0  0  0  0  0
  -10.6723   -9.3146    6.0391 H   0  0  0  0  0
  -13.0507   -9.4514    7.2783 H   0  0  0  0  0
  -12.9272   -8.7759    5.6669 H   0  0  0  0  0
  -13.9180   -6.9128    6.6884 H   0  0  0  0  0
  -13.3925   -7.3566    8.2617 H   0  0  0  0  0
   -8.8970   -5.8745    3.0779 H   0  0  0  0  0
   -6.5808   -6.1989    3.5958 H   0  0  0  0  0
   -6.7663   -7.5610    2.5529 H   0  0  0  0  0
   -5.9517   -7.9453    5.0624 H   0  0  0  0  0
   -7.0554   -9.0859    4.3431 H   0  0  0  0  0
   -8.3130   -8.5019    6.2718 H   0  0  0  0  0
   -7.6436   -6.9327    6.3759 H   0  0  0  0  0
  -10.8007   -8.6121    0.2620 H   0  0  0  0  0
  -10.3056   -7.0550   -1.4814 H   0  0  0  0  0
   -9.2733   -8.3360   -2.0202 H   0  0  0  0  0
   -8.2618   -5.9141   -1.4771 H   0  0  0  0  0
   -7.3380   -7.3594   -1.1269 H   0  0  0  0  0
   -7.3152   -6.4527    1.0372 H   0  0  0  0  0
   -8.7341   -5.5182    0.7817 H   0  0  0  0  0
   -8.8489  -12.5030    0.1578 H   0  0  0  0  0
  -10.8531  -13.3653   -0.8491 H   0  0  0  0  0
   -9.7878  -13.6292   -2.1911 H   0  0  0  0  0
  -11.9891  -12.0776   -2.4143 H   0  0  0  0  0
  -10.5350  -11.7536   -3.3505 H   0  0  0  0  0
  -10.6007   -9.6736   -2.3240 H   0  0  0  0  0
  -11.6717  -10.2074   -1.0856 H   0  0  0  0  0
   -7.6918  -10.1338   -1.7805 H   0  0  0  0  0
   -5.6782  -10.0129   -3.0900 H   0  0  0  0  0
   -5.1723  -12.7219   -1.7318 H   0  0  0  0  0
   -4.9030  -11.1630   -0.9259 H   0  0  0  0  0
   -3.0599   -9.7070   -1.5674 H   0  0  0  0  0
   -3.7951  -13.4061   -3.6580 H   0  0  0  0  0
   -0.8325   -9.5302   -2.6641 H   0  0  0  0  0
   -1.5668  -13.2320   -4.7514 H   0  0  0  0  0
    0.3044  -12.0288   -4.9617 H   0  0  0  0  0
   -4.4711  -10.9932   -4.8696 H   0  0  0  0  0
   -5.5820  -13.4520   -6.1465 H   0  0  0  0  0
   -6.1855  -11.8052   -8.1864 H   0  0  0  0  0
   -7.0360   -9.8324   -7.3263 H   0  0  0  0  0
   -7.7801  -13.3119   -7.0424 H   0  0  0  0  0
   -7.9692  -12.1183   -5.7344 H   0  0  0  0  0
   -8.5240  -11.7299   -7.3814 H   0  0  0  0  0
   -4.7857  -13.2419   -8.6648 H   0  0  0  0  0
   -2.2398  -11.8459   -9.0851 H   0  0  0  0  0
   -1.5794  -13.4168   -7.2303 H   0  0  0  0  0
   -3.3333  -15.1158   -7.6523 H   0  0  0  0  0
   -2.5330  -15.5624   -9.1791 H   0  0  0  0  0
   -1.7154  -15.8593   -7.6252 H   0  0  0  0  0
   -0.5516  -14.2685   -9.9744 H   0  0  0  0  0
    0.0608  -12.8992   -9.0147 H   0  0  0  0  0
    0.2660  -14.5653   -8.4206 H   0  0  0  0  0
   -4.0023  -11.7274  -10.8840 H   0  0  0  0  0
   -2.9327  -13.0842  -13.1711 H   0  0  0  0  0
   -4.5470  -12.3365  -13.1059 H   0  0  0  0  0
   -3.1116  -15.0051  -13.5551 H   0  0  0  0  0
  1  2  1  0  0  0
  2  3  1  0  0  0
  3  4  2  0  0  0
  3  5  1  0  0  0
  5  6  1  0  0  0
  6  7  1  0  0  0
  6  9  1  0  0  0
  7  8  2  0  0  0
  7 12  1  0  0  0
  9 10  1  0  0  0
  9 11  1  0  0  0
 12 13  1  0  0  0
 12 18  1  0  0  0
 13 14  1  0  0  0
 13 16  1  0  0  0
 14 15  2  0  0  0
 14 19  1  0  0  0
 16 17  1  0  0  0
 17 18  1  0  0  0
 19 20  1  0  0  0
 19 25  1  0  0  0
 20 21  1  0  0  0
 20 23  1  0  0  0
 21 22  2  0  0  0
 21 26  1  0  0  0
 23 24  1  0  0  0
 24 25  1  0  0  0
 26 27  1  0  0  0
 26 32  1  0  0  0
 27 28  1  0  0  0
 27 30  1  0  0  0
 28 29  2  0  0  0
 28 33  1  0  0  0
 30 31  1  0  0  0
 31 32  1  0  0  0
 33 34  1  0  0  0
 33 39  1  0  0  0
 34 35  1  0  0  0
 34 37  1  0  0  0
 35 36  2  0  0  0
 35 40  1  0  0  0
 37 38  1  0  0  0
 38 39  1  0  0  0
 40 41  1  0  0  0
 41 42  1  0  0  0
 41 44  1  0  0  0
 42 43  2  0  0  0
 42 52  1  0  0  0
 44 45  1  0  0  0
 45 46  4  0  0  0
 45 47  4  0  0  0
 46 48  4  0  0  0
 47 49  4  0  0  0
 48 50  4  0  0  0
 49 50  4  0  0  0
 50 51  1  0  0  0
 52 53  1  0  0  0
 53 54  1  0  0  0
 53 56  1  0  0  0
 54 55  2  0  0  0
 54 59  1  0  0  0
 56 57  1  0  0  0
 56 58  1  0  0  0
 59 60  1  0  0  0
 60 61  1  0  0  0
 60 63  1  0  0  0
 61 62  2  0  0  0
 61 66  1  0  0  0
 63 64  1  0  0  0
 63 65  1  0  0  0
 66 67  1  0  0  0
 67 68  1  0  0  0
 68 69  2  0  0  0
 68 70  1  0  0  0
  1 71  1  0  0  0
  1 72  1  0  0  0
  1 73  1  0  0  0
  2 74  1  0  0  0
  2 75  1  0  0  0
  5 76  1  0  0  0
  6 77  1  0  0  0
  9 78  1  0  0  0
 10 79  1  0  0  0
 11 80  1  0  0  0
 11 81  1  0  0  0
 11 82  1  0  0  0
 13 83  1  0  0  0
 16 84  1  0  0  0
 16 85  1  0  0  0
 17 86  1  0  0  0
 17 87  1  0  0  0
 18 88  1  0  0  0
 18 89  1  0  0  0
 20 90  1  0  0  0
 23 91  1  0  0  0
 23 92  1  0  0  0
 24 93  1  0  0  0
 24 94  1  0  0  0
 25 95  1  0  0  0
 25 96  1  0  0  0
 27 97  1  0  0  0
 30 98  1  0  0  0
 30 99  1  0  0  0
 31100  1  0  0  0
 31101  1  0  0  0
 32102  1  0  0  0
 32103  1  0  0  0
 34104  1  0  0  0
 37105  1  0  0  0
 37106  1  0  0  0
 38107  1  0  0  0
 38108  1  0  0  0
 39109  1  0  0  0
 39110  1  0  0  0
 40111  1  0  0  0
 41112  1  0  0  0
 44113  1  0  0  0
 44114  1  0  0  0
 46115  1  0  0  0
 47116  1  0  0  0
 48117  1  0  0  0
 49118  1  0  0  0
 51119  1  0  0  0
 52120  1  0  0  0
 53121  1  0  0  0
 56122  1  0  0  0
 57123  1  0  0  0
 58124  1  0  0  0
 58125  1  0  0  0
 58126  1  0  0  0
 59127  1  0  0  0
 60128  1  0  0  0
 63129  1  0  0  0
 64130  1  0  0  0
 64131  1  0  0  0
 64132  1  0  0  0
 65133  1  0  0  0
 65134  1  0  0  0
 65135  1  0  0  0
 66136  1  0  0  0
 67137  1  0  0  0
 67138  1  0  0  0
 70139  1  0  0  0
M  END
$$$$
