6c9p_ligand
  -I-interpret- 

 34 36  0  0  0  0  0  0  0  0999 V2000
   17.7670   20.0280   -4.5290 O   0  0  0  0  0
   16.5960   19.7010   -5.2710 C   0  0  0  0  0
   16.2260   20.8090   -6.2290 C   0  0  0  0  0
   17.3150   21.0320   -7.1420 O   0  0  0  0  0
   16.8160   21.5380   -8.3570 C   0  0  0  0  0
   17.7230   21.1050   -9.4220 N   0  0  0  0  0
   17.7500   19.8890   -9.9800 C   0  0  0  0  0
   18.7300   19.8650  -10.9050 N   0  0  0  0  0
   19.3390   21.0900  -10.9250 C   0  0  0  0  0
   20.4130   21.6810  -11.6660 C   0  0  0  0  0
   21.3000   20.7080  -12.9290 S   0  0  0  0  0
   22.3220   21.8500  -13.9210 C   0  0  0  0  0
   20.7680   22.9410  -11.4320 N   0  0  0  0  0
   20.1330   23.6640  -10.5140 C   0  0  0  0  0
   19.1320   23.1480   -9.8100 N   0  0  0  0  0
   18.7070   21.8600   -9.9900 C   0  0  0  0  0
   15.3780   21.0190   -8.5050 C   0  0  0  0  0
   14.5250   22.0060   -9.0430 O   0  0  0  0  0
   14.9870   20.5570   -7.0860 C   0  0  0  0  0
   13.9070   21.3560   -6.6030 O   0  0  0  0  0
   17.9769   19.3073   -3.9305 H   0  0  0  0  0
   15.7717   19.5565   -4.5726 H   0  0  0  0  0
   16.7911   18.7958   -5.8461 H   0  0  0  0  0
   16.0073   21.6610   -5.5853 H   0  0  0  0  0
   16.7747   22.6264   -8.4003 H   0  0  0  0  0
   17.0907   19.0581   -9.7288 H   0  0  0  0  0
   21.6788   22.5877  -14.4008 H   0  0  0  0  0
   23.0349   22.3562  -13.2701 H   0  0  0  0  0
   22.8604   21.2856  -14.6823 H   0  0  0  0  0
   20.4386   24.6952  -10.3368 H   0  0  0  0  0
   15.2906   20.1954   -9.2137 H   0  0  0  0  0
   14.8273   22.2437   -9.9226 H   0  0  0  0  0
   14.6730   19.5134   -7.0652 H   0  0  0  0  0
   13.6660   21.0662   -5.7201 H   0  0  0  0  0
  1  2  1  0  0  0
  2  3  1  0  0  0
  3  4  1  0  0  0
  3 19  1  0  0  0
  4  5  1  0  0  0
  5  6  1  0  0  0
  5 17  1  0  0  0
  6  7  4  0  0  0
  6 16  4  0  0  0
  7  8  4  0  0  0
  8  9  4  0  0  0
  9 10  4  0  0  0
  9 16  4  0  0  0
 10 11  1  0  0  0
 10 13  4  0  0  0
 11 12  1  0  0  0
 13 14  4  0  0  0
 14 15  4  0  0  0
 15 16  4  0  0  0
 17 18  1  0  0  0
 17 19  1  0  0  0
 19 20  1  0  0  0
  1 21  1  0  0  0
  2 22  1  0  0  0
  2 23  1  0  0  0
  3 24  1  0  0  0
  5 25  1  0  0  0
  7 26  1  0  0  0
 12 27  1  0  0  0
 12 28  1  0  0  0
 12 29  1  0  0  0
 14 30  1  0  0  0
 17 31  1  0  0  0
 18 32  1  0  0  0
 19 33  1  0  0  0
 20 34  1  0  0  0
M  END
$$$$
