6slg_ligand
  -I-interpret- 

 60 64  0  0  0  0  0  0  0  0999 V2000
   -5.9410    2.6330   12.0070 C   0  0  0  0  0
   -7.2790    2.3160   12.2070 C   0  0  0  0  0
   -7.5910    4.0750   13.5950 C   0  0  0  0  0
   -8.6290    7.5130   16.6990 N   0  0  0  0  0
   -1.9780    4.5330   12.3500 C   0  0  0  0  0
   -0.6470    4.6280   11.6920 C   0  0  0  0  0
    0.0390    6.2770   13.4490 C   0  0  0  0  0
   -1.1070    5.8040   14.3200 C   0  0  0  0  0
   -0.1790    7.7370   13.0900 C   0  0  0  0  0
   -1.5700    9.1680   11.8680 C   0  0  0  0  0
    1.6300    5.4880   11.6970 C   0  0  0  0  0
    1.8610    6.4290   10.5300 C   0  0  0  0  0
    3.1540    6.6530   10.0700 C   0  0  0  0  0
    3.4030    7.5110    9.0130 C   0  0  0  0  0
    0.8000    7.0810    9.9010 C   0  0  0  0  0
   -8.1130    5.9130   15.2030 C   0  0  0  0  0
   -6.9920    6.1350   15.9720 C   0  0  0  0  0
   -7.3750    7.1160   16.8790 C   0  0  0  0  0
    2.5670    9.0440    7.4290 F   0  0  0  0  0
    2.3440    8.1490    8.4190 C   0  0  0  0  0
    1.0620    7.9330    8.8530 C   0  0  0  0  0
    0.0450    8.5960    8.2530 F   0  0  0  0  0
    0.2710    5.4630   12.2430 N   0  0  0  0  0
   -1.3560    7.8440   12.3180 O   0  0  0  0  0
   -2.1870    5.2640   13.4900 N   0  0  0  0  0
   -3.5130    5.1720   13.7770 C   0  0  0  0  0
   -0.4040    3.9460   10.7040 O   0  0  0  0  0
   -3.0970    3.9130   11.9610 N   0  0  0  0  0
   -4.0470    4.2860   12.8810 C   0  0  0  0  0
   -5.4330    3.7990   12.8090 C   0  0  0  0  0
   -5.0810    1.7590   11.1250 C   0  0  0  0  0
   -6.3090    4.4850   13.5600 N   0  0  0  0  0
   -8.1200    3.0010   12.9900 N   0  0  0  0  0
   -8.4340    4.9050   14.3000 N   0  0  0  0  0
   -9.0640    6.7550   15.6550 N   0  0  0  0  0
  -10.3990    7.0000   15.1170 C   0  0  0  0  0
   -7.6732    1.4432   11.6865 H   0  0  0  0  0
    0.9490    6.1589   14.0373 H   0  0  0  0  0
   -1.4882    6.6475   14.8956 H   0  0  0  0  0
   -0.7468    5.0220   14.9884 H   0  0  0  0  0
    0.6723    8.1085   12.5196 H   0  0  0  0  0
   -0.2779    8.3304   13.9990 H   0  0  0  0  0
   -1.6619    9.8321   12.7274 H   0  0  0  0  0
   -0.7267    9.4821   11.2530 H   0  0  0  0  0
   -2.4857    9.2063   11.2780 H   0  0  0  0  0
    2.2770    5.8351   12.5026 H   0  0  0  0  0
    1.8283    4.4833   11.3237 H   0  0  0  0  0
    3.9881    6.1426   10.5515 H   0  0  0  0  0
    4.4207    7.6765    8.6595 H   0  0  0  0  0
   -0.2243    6.9173   10.2359 H   0  0  0  0  0
   -6.0200    5.6490   15.8879 H   0  0  0  0  0
   -6.7186    7.5151   17.6523 H   0  0  0  0  0
   -4.0466    5.7008   14.5668 H   0  0  0  0  0
   -5.0548    0.7482   11.5321 H   0  0  0  0  0
   -5.5001    1.7361   10.1190 H   0  0  0  0  0
   -4.0697    2.1641   11.0896 H   0  0  0  0  0
   -9.4306    4.7607   14.1377 H   0  0  0  0  0
  -11.1398    6.8420   15.9008 H   0  0  0  0  0
  -10.4617    8.0272   14.7577 H   0  0  0  0  0
  -10.5887    6.3131   14.2922 H   0  0  0  0  0
  1  2  4  0  0  0
 30  1  4  0  0  0
  1 31  1  0  0  0
  2 33  4  0  0  0
  3 32  4  0  0  0
 33  3  4  0  0  0
  3 34  1  0  0  0
  4 18  4  0  0  0
 35  4  4  0  0  0
  5  6  1  0  0  0
  5 25  4  0  0  0
 28  5  4  0  0  0
  6 23  1  0  0  0
  6 27  2  0  0  0
  8  7  1  0  0  0
  7  9  1  0  0  0
 23  7  1  0  0  0
 25  8  1  0  0  0
  9 24  1  0  0  0
 24 10  1  0  0  0
 11 12  1  0  0  0
 23 11  1  0  0  0
 12 13  4  0  0  0
 12 15  4  0  0  0
 13 14  4  0  0  0
 14 20  4  0  0  0
 15 21  4  0  0  0
 16 17  4  0  0  0
 34 16  1  0  0  0
 16 35  4  0  0  0
 17 18  4  0  0  0
 20 19  1  0  0  0
 21 20  4  0  0  0
 21 22  1  0  0  0
 26 25  4  0  0  0
 29 26  4  0  0  0
 29 28  4  0  0  0
 29 30  1  0  0  0
 30 32  4  0  0  0
 35 36  1  0  0  0
  2 37  1  0  0  0
  7 38  1  0  0  0
  8 39  1  0  0  0
  8 40  1  0  0  0
  9 41  1  0  0  0
  9 42  1  0  0  0
 10 43  1  0  0  0
 10 44  1  0  0  0
 10 45  1  0  0  0
 11 46  1  0  0  0
 11 47  1  0  0  0
 13 48  1  0  0  0
 14 49  1  0  0  0
 15 50  1  0  0  0
 17 51  1  0  0  0
 18 52  1  0  0  0
 26 53  1  0  0  0
 31 54  1  0  0  0
 31 55  1  0  0  0
 31 56  1  0  0  0
 34 57  1  0  0  0
 36 58  1  0  0  0
 36 59  1  0  0  0
 36 60  1  0  0  0
M  END
$$$$
