4knn_ligand
  -I-interpret- 

 31 32  0  0  0  0  0  0  0  0999 V2000
   -4.5310   -5.3950   16.7490 O   0  0  0  0  0
  -12.8810    2.2500   20.6770 C   0  0  0  0  0
   -7.4100   -1.0020   18.4710 C   0  0  0  0  0
   -6.7180   -3.4650   18.3700 C   0  0  0  0  0
   -6.5110   -5.0320   19.2150 Cl  0  0  0  0  0
   -7.2220   -2.2820   19.0690 C   0  0  0  0  0
   -7.1000   -0.9420   17.0870 C   0  0  0  0  0
   -6.6150   -2.0800   16.3880 C   0  0  0  0  0
   -6.4260   -3.3290   16.9890 C   0  0  0  0  0
   -5.8110   -4.7350   16.0580 S   0  0  0  0  0
   -5.3040   -4.1320   14.5630 N   0  0  0  0  0
   -6.9800   -5.6010   15.9160 O   0  0  0  0  0
   -7.9220    0.2360   19.1310 C   0  0  0  0  0
   -7.4180    1.3850   18.8650 O   0  0  0  0  0
   -9.0020    0.0710   20.1890 C   0  0  0  0  0
  -10.5450   -0.9600   20.0740 S   0  0  0  0  0
  -11.2740    0.6710   20.0050 C   0  0  0  0  0
  -10.7380    1.6440   19.1630 N   0  0  0  0  0
  -11.2300    2.8850   19.0320 C   0  0  0  0  0
  -12.3340    3.2240   19.8280 C   0  0  0  0  0
  -12.3620    0.9800   20.7670 N   0  0  0  0  0
  -13.7471    2.5091   21.2861 H   0  0  0  0  0
   -7.4720   -2.3877   20.1247 H   0  0  0  0  0
   -7.2368   -0.0037   16.5495 H   0  0  0  0  0
   -6.3781   -1.9744   15.3293 H   0  0  0  0  0
   -4.3312   -4.2359   14.2745 H   0  0  0  0  0
   -5.9708   -3.6641   13.9491 H   0  0  0  0  0
   -9.4189    1.0773   20.2287 H   0  0  0  0  0
   -8.4546   -0.4492   20.9750 H   0  0  0  0  0
  -10.7904    3.5998   18.3363 H   0  0  0  0  0
  -12.7596    4.2267   19.7877 H   0  0  0  0  0
 10  1  2  0  0  0
  2 20  4  0  0  0
 21  2  4  0  0  0
  3  6  4  0  0  0
  3  7  4  0  0  0
 13  3  1  0  0  0
  4  5  1  0  0  0
  6  4  4  0  0  0
  4  9  4  0  0  0
  7  8  4  0  0  0
  8  9  4  0  0  0
  9 10  1  0  0  0
 10 11  1  0  0  0
 10 12  2  0  0  0
 13 14  2  0  0  0
 15 13  1  0  0  0
 16 15  1  0  0  0
 17 16  1  0  0  0
 17 18  4  0  0  0
 17 21  4  0  0  0
 18 19  4  0  0  0
 19 20  4  0  0  0
  2 22  1  0  0  0
  6 23  1  0  0  0
  7 24  1  0  0  0
  8 25  1  0  0  0
 11 26  1  0  0  0
 11 27  1  0  0  0
 15 28  1  0  0  0
 15 29  1  0  0  0
 19 30  1  0  0  0
 20 31  1  0  0  0
M  END
$$$$
