5mny_ligand
  -I-interpret- 

 14 14  0  0  0  0  0  0  0  0999 V2000
   -1.6540  -15.2430  -17.0440 C   0  0  0  0  0
   -0.9450  -15.5690  -15.9080 C   0  0  0  0  0
   -0.8330  -14.6170  -14.9050 C   0  0  0  0  0
   -1.4320  -13.3830  -15.0380 C   0  0  0  0  0
   -2.1470  -13.0860  -16.1790 C   0  0  0  0  0
   -2.2620  -14.0180  -17.1970 C   0  0  0  0  0
   -1.7270  -16.2210  -18.1330 N   0  0  0  0  0
   -0.4836  -16.5506  -15.8002 H   0  0  0  0  0
   -0.2658  -14.8473  -14.0031 H   0  0  0  0  0
   -1.3407  -12.6432  -14.2427 H   0  0  0  0  0
   -2.6247  -12.1115  -16.2804 H   0  0  0  0  0
   -2.8233  -13.7857  -18.1020 H   0  0  0  0  0
   -1.2584  -17.1223  -18.0413 H   0  0  0  0  0
   -2.2464  -16.0004  -18.9827 H   0  0  0  0  0
  1  2  4  0  0  0
  1  6  4  0  0  0
  1  7  1  0  0  0
  2  3  4  0  0  0
  3  4  4  0  0  0
  4  5  4  0  0  0
  5  6  4  0  0  0
  2  8  1  0  0  0
  3  9  1  0  0  0
  4 10  1  0  0  0
  5 11  1  0  0  0
  6 12  1  0  0  0
  7 13  1  0  0  0
  7 14  1  0  0  0
M  END
$$$$
