1b4h_ligand
  -I-interpret- 

 64 63  0  0  0  0  0  0  0  0999 V2000
    6.9040   16.5060   15.2410 N   0  3  0  0  0
    6.4100   17.7980   14.6260 C   0  0  0  0  0
    5.1890   18.2950   15.3860 C   0  0  0  0  0
    4.4070   17.5010   15.9320 O   0  0  0  0  0
    6.1910   17.6980   13.1300 C   0  0  0  0  0
    5.1980   16.6440   12.6470 C   0  0  0  0  0
    5.1970   16.5160   11.1200 C   0  0  0  0  0
    6.4830   15.8710   10.5660 C   0  0  0  0  0
    6.5800   14.4150   10.9420 N   0  3  0  0  0
    5.0230   19.6170   15.4400 N   0  0  0  0  0
    3.9130   20.2380   16.1670 C   0  0  0  0  0
    2.6180   20.2370   15.3780 C   0  0  0  0  0
    2.6140   20.4860   14.1800 O   0  0  0  0  0
    4.2460   21.7250   16.4190 C   0  0  0  0  0
    5.3280   21.7390   17.5140 C   0  0  0  0  0
    4.8950   21.6090   18.8560 N   0  3  0  0  0
    1.5270   19.8830   16.0720 N   0  0  0  0  0
    0.2520   19.8540   15.4020 C   0  0  0  0  0
   -0.7500   20.7010   16.2050 C   0  0  0  0  0
   -1.7660   21.0200   15.5720 O   0  0  0  0  0
   -0.3560   18.4420   15.2850 C   0  0  0  0  0
   -1.3050   18.4360   14.0740 C   0  0  0  0  0
   -2.2080   17.2240   14.1400 C   0  0  0  0  0
   -2.6000   16.7050   12.7880 C   0  0  0  0  0
   -3.6240   17.4370   12.0800 N   0  3  0  0  0
   -0.5670   21.0090   17.3870 O   0  0  0  0  0
    7.0319   16.6357   16.2446 H   0  0  0  0  0
    6.2184   15.7688   15.0769 H   0  0  0  0  0
    7.7933   16.2460   14.8144 H   0  0  0  0  0
    7.1946   18.5476   14.7291 H   0  0  0  0  0
    7.1547   17.4173   12.7052 H   0  0  0  0  0
    5.7788   18.6594   12.8236 H   0  0  0  0  0
    4.1996   16.9442   12.9652 H   0  0  0  0  0
    5.4880   15.6823   13.0701 H   0  0  0  0  0
    5.1246   17.5207   10.7036 H   0  0  0  0  0
    4.3594   15.8763   10.8419 H   0  0  0  0  0
    7.3405   16.3938   10.9896 H   0  0  0  0  0
    6.4646   15.9453    9.4787 H   0  0  0  0  0
    7.4405   14.0229   10.5596 H   0  0  0  0  0
    6.5872   14.3273   11.9582 H   0  0  0  0  0
    5.7777   13.9127   10.5618 H   0  0  0  0  0
    5.6925   20.2170   14.9581 H   0  0  0  0  0
    3.7850   19.6606   17.0826 H   0  0  0  0  0
    3.3614   22.2798   16.7316 H   0  0  0  0  0
    4.5996   22.2097   15.5090 H   0  0  0  0  0
    5.8003   22.7193   17.4498 H   0  0  0  0  0
    5.9551   20.8687   17.3205 H   0  0  0  0  0
    5.7039   21.6333   19.4769 H   0  0  0  0  0
    4.2659   22.3785   19.0851 H   0  0  0  0  0
    4.4044   20.7219   18.9693 H   0  0  0  0  0
    1.5986   19.6379   17.0595 H   0  0  0  0  0
    0.4294   20.2349   14.3962 H   0  0  0  0  0
   -1.7033   20.6804   14.6762 H   0  0  0  0  0
   -0.9017   18.1890   16.1940 H   0  0  0  0  0
    0.4321   17.7010   15.1512 H   0  0  0  0  0
   -0.7188   18.4003   13.1557 H   0  0  0  0  0
   -1.9129   19.3407   14.0868 H   0  0  0  0  0
   -3.1205   17.5197   14.6577 H   0  0  0  0  0
   -1.6613   16.4322   14.6521 H   0  0  0  0  0
   -3.0079   15.7085   12.9572 H   0  0  0  0  0
   -1.7040   16.7720   12.1709 H   0  0  0  0  0
   -3.8006   16.9888   11.1809 H   0  0  0  0  0
   -4.4810   17.4416   12.6331 H   0  0  0  0  0
   -3.3111   18.3958   11.9276 H   0  0  0  0  0
  3  2  1  0  0  0
  2  5  1  0  0  0
  2  1  1  0  0  0
  5  6  1  0  0  0
  6  7  1  0  0  0
  7  8  1  0  0  0
  8  9  1  0  0  0
  3  4  2  0  0  0
 11 10  1  0  0  0
 11 14  1  0  0  0
 12 11  1  0  0  0
 12 13  2  0  0  0
 14 15  1  0  0  0
 15 16  1  0  0  0
 18 19  1  0  0  0
 18 21  1  0  0  0
 17 18  1  0  0  0
 21 22  1  0  0  0
 22 23  1  0  0  0
 23 24  1  0  0  0
 24 25  1  0  0  0
 19 26  2  0  0  0
 19 20  1  0  0  0
 10  3  1  0  0  0
 12 17  1  0  0  0
  1 27  1  0  0  0
  1 28  1  0  0  0
  1 29  1  0  0  0
  2 30  1  0  0  0
  5 31  1  0  0  0
  5 32  1  0  0  0
  6 33  1  0  0  0
  6 34  1  0  0  0
  7 35  1  0  0  0
  7 36  1  0  0  0
  8 37  1  0  0  0
  8 38  1  0  0  0
  9 39  1  0  0  0
  9 40  1  0  0  0
  9 41  1  0  0  0
 10 42  1  0  0  0
 11 43  1  0  0  0
 14 44  1  0  0  0
 14 45  1  0  0  0
 15 46  1  0  0  0
 15 47  1  0  0  0
 16 48  1  0  0  0
 16 49  1  0  0  0
 16 50  1  0  0  0
 17 51  1  0  0  0
 18 52  1  0  0  0
 20 53  1  0  0  0
 21 54  1  0  0  0
 21 55  1  0  0  0
 22 56  1  0  0  0
 22 57  1  0  0  0
 23 58  1  0  0  0
 23 59  1  0  0  0
 24 60  1  0  0  0
 24 61  1  0  0  0
 25 62  1  0  0  0
 25 63  1  0  0  0
 25 64  1  0  0  0
M  END
$$$$
