6hv4_ligand
  -I-interpret- 

 87 89  0  0  0  0  0  0  0  0999 V2000
   65.2690 -131.6860   40.4460 C   0  0  0  0  0
   64.7460 -132.7710   41.1200 C   0  0  0  0  0
   64.1010 -132.5910   42.3140 C   0  0  0  0  0
   63.5880 -133.6290   43.0600 C   0  0  0  0  0
   63.5470 -135.0170   42.4010 C   0  0  0  0  0
   63.5700 -137.4950   42.8730 C   0  0  0  0  0
   61.4190 -135.1640   39.2620 C   0  0  0  0  0
   61.1490 -134.1470   37.0530 C   0  0  0  0  0
   56.1010 -134.2780   33.2140 C   0  0  0  0  0
   54.7380 -134.4150   33.8480 C   0  0  0  0  0
   54.4110 -133.1360   34.4380 O   0  0  0  0  0
   55.3290 -132.7160   35.4380 C   0  0  0  0  0
   56.6970 -132.6060   34.7830 C   0  0  0  0  0
   57.0650 -133.9150   34.2530 N   0  3  0  0  0
   58.3710 -133.7830   33.6310 C   0  0  0  0  0
   59.3990 -134.4370   34.4980 C   0  0  0  0  0
   59.2430 -135.5740   34.8820 O   0  0  0  0  0
   60.4530 -133.7200   34.7880 N   0  0  0  0  0
   61.5110 -134.2470   35.6160 C   0  0  0  0  0
   62.6900 -133.3430   35.4250 C   0  0  0  0  0
   60.4440 -133.2430   37.4450 O   0  0  0  0  0
   61.6570 -135.0880   37.8280 N   0  0  0  0  0
   60.6050 -136.3690   39.6590 C   0  0  0  0  0
   59.2880 -136.4170   39.2620 C   0  0  0  0  0
   58.8130 -136.6000   37.9970 C   0  0  0  0  0
   57.4500 -136.6540   37.7760 C   0  0  0  0  0
   56.5540 -136.5280   38.8110 C   0  0  0  0  0
   55.2050 -136.5740   38.7340 O   0  0  0  0  0
   54.5190 -135.3620   38.5050 C   0  0  0  0  0
   57.0480 -136.3690   40.0580 C   0  0  0  0  0
   58.3910 -136.3180   40.2750 C   0  0  0  0  0
   62.7100 -135.2550   40.0170 C   0  0  0  0  0
   63.7420 -135.5200   39.4590 O   0  0  0  0  0
   62.5660 -135.0300   41.3040 N   0  0  0  0  0
   65.1790 -130.4160   40.9560 C   0  0  0  0  0
   64.5490 -130.2340   42.1600 C   0  0  0  0  0
   64.0260 -131.3210   42.8290 C   0  0  0  0  0
   63.2800 -136.1560   43.4180 C   0  0  0  0  0
   62.0640 -136.0790   43.9980 O   0  0  0  0  0
   63.7350 -138.5800   43.8540 C   0  0  0  0  0
   64.9570 -137.5040   42.2300 C   0  0  0  0  0
   63.0660 -138.1740   41.7700 O   0  0  0  0  0
   65.7643 -131.8418   39.4876 H   0  0  0  0  0
   64.8466 -133.7723   40.7011 H   0  0  0  0  0
   62.5490 -133.3652   43.2577 H   0  0  0  0  0
   64.2501 -133.7299   43.9200 H   0  0  0  0  0
   64.5366 -135.2113   41.9874 H   0  0  0  0  0
   60.8723 -134.2535   39.5076 H   0  0  0  0  0
   56.0765 -133.5063   32.4446 H   0  0  0  0  0
   56.3916 -135.2213   32.7515 H   0  0  0  0  0
   54.7442 -135.1976   34.6067 H   0  0  0  0  0
   53.9940 -134.6955   33.1024 H   0  0  0  0  0
   55.3549 -133.4335   36.2581 H   0  0  0  0  0
   55.0267 -131.7551   35.8545 H   0  0  0  0  0
   57.4350 -132.2813   35.5165 H   0  0  0  0  0
   56.6647 -131.8741   33.9759 H   0  0  0  0  0
   57.0764 -134.6191   34.9909 H   0  0  0  0  0
   58.6131 -132.7270   33.5108 H   0  0  0  0  0
   58.3596 -134.2632   32.6525 H   0  0  0  0  0
   60.5290 -132.7708   34.4224 H   0  0  0  0  0
   61.7014 -135.2865   35.3489 H   0  0  0  0  0
   62.4116 -132.3236   35.6921 H   0  0  0  0  0
   63.5088 -133.6763   36.0626 H   0  0  0  0  0
   63.0045 -133.3737   34.3818 H   0  0  0  0  0
   62.2480 -135.7999   37.3986 H   0  0  0  0  0
   60.5787 -136.3545   40.7486 H   0  0  0  0  0
   61.0857 -137.2168   39.1709 H   0  0  0  0  0
   59.5065 -136.7034   37.1624 H   0  0  0  0  0
   57.0782 -136.7993   36.7617 H   0  0  0  0  0
   54.7364 -134.6645   39.3139 H   0  0  0  0  0
   54.8459 -134.9345   37.5571 H   0  0  0  0  0
   53.4467 -135.5543   38.4677 H   0  0  0  0  0
   56.3628 -136.2804   40.9011 H   0  0  0  0  0
   58.7569 -136.1938   41.2942 H   0  0  0  0  0
   61.6083 -134.8297   41.5924 H   0  0  0  0  0
   65.5999 -129.5685   40.4150 H   0  0  0  0  0
   64.4618 -129.2348   42.5867 H   0  0  0  0  0
   63.5401 -131.1672   43.7925 H   0  0  0  0  0
   63.9985 -135.9990   44.2225 H   0  0  0  0  0
   61.9268 -135.1904   44.3344 H   0  0  0  0  0
   64.5640 -138.3424   44.5207 H   0  0  0  0  0
   62.8187 -138.6854   44.4348 H   0  0  0  0  0
   63.9441 -139.5128   43.3304 H   0  0  0  0  0
   64.9867 -136.7719   41.4230 H   0  0  0  0  0
   65.7056 -137.2501   42.9805 H   0  0  0  0  0
   65.1641 -138.4965   41.8297 H   0  0  0  0  0
   63.4819 -139.0371   41.7095 H   0  0  0  0  0
  2  1  4  0  0  0
  1 35  4  0  0  0
  3  2  4  0  0  0
  4  3  1  0  0  0
  3 37  4  0  0  0
  5  4  1  0  0  0
 34  5  1  0  0  0
  5 38  1  0  0  0
 38  6  1  0  0  0
  6 40  1  0  0  0
  6 41  1  0  0  0
  6 42  1  0  0  0
  7 22  1  0  0  0
  7 23  1  0  0  0
 32  7  1  0  0  0
  8 19  1  0  0  0
  8 21  2  0  0  0
 22  8  1  0  0  0
  9 10  1  0  0  0
 14  9  1  0  0  0
 10 11  1  0  0  0
 12 11  1  0  0  0
 13 12  1  0  0  0
 14 13  1  0  0  0
 15 14  1  0  0  0
 16 15  1  0  0  0
 16 17  2  0  0  0
 18 16  1  0  0  0
 19 18  1  0  0  0
 19 20  1  0  0  0
 23 24  1  0  0  0
 24 25  4  0  0  0
 24 31  4  0  0  0
 25 26  4  0  0  0
 26 27  4  0  0  0
 27 28  1  0  0  0
 30 27  4  0  0  0
 28 29  1  0  0  0
 31 30  4  0  0  0
 32 33  2  0  0  0
 32 34  1  0  0  0
 35 36  4  0  0  0
 36 37  4  0  0  0
 38 39  1  0  0  0
  1 43  1  0  0  0
  2 44  1  0  0  0
  4 45  1  0  0  0
  4 46  1  0  0  0
  5 47  1  0  0  0
  7 48  1  0  0  0
  9 49  1  0  0  0
  9 50  1  0  0  0
 10 51  1  0  0  0
 10 52  1  0  0  0
 12 53  1  0  0  0
 12 54  1  0  0  0
 13 55  1  0  0  0
 13 56  1  0  0  0
 14 57  1  0  0  0
 15 58  1  0  0  0
 15 59  1  0  0  0
 18 60  1  0  0  0
 19 61  1  0  0  0
 20 62  1  0  0  0
 20 63  1  0  0  0
 20 64  1  0  0  0
 22 65  1  0  0  0
 23 66  1  0  0  0
 23 67  1  0  0  0
 25 68  1  0  0  0
 26 69  1  0  0  0
 29 70  1  0  0  0
 29 71  1  0  0  0
 29 72  1  0  0  0
 30 73  1  0  0  0
 31 74  1  0  0  0
 34 75  1  0  0  0
 35 76  1  0  0  0
 36 77  1  0  0  0
 37 78  1  0  0  0
 38 79  1  0  0  0
 39 80  1  0  0  0
 40 81  1  0  0  0
 40 82  1  0  0  0
 40 83  1  0  0  0
 41 84  1  0  0  0
 41 85  1  0  0  0
 41 86  1  0  0  0
 42 87  1  0  0  0
M  END
$$$$
