1gz9_ligand
  -I-interpret- 

 65 67  0  0  0  0  0  0  0  0999 V2000
   84.0580   39.0520   32.1980 C   0  0  0  0  0
   85.0580   38.2610   31.3190 C   0  0  0  0  0
   86.4940   38.8670   31.1370 C   0  0  0  0  0
   87.0350   39.4220   32.5010 C   0  0  0  0  0
   85.9920   40.3700   33.1510 C   0  0  0  0  0
   86.4830   40.9540   34.5360 C   0  0  0  0  0
   83.6990   40.1630   31.3960 O   0  0  0  0  0
   84.4080   37.6720   30.1660 O   0  0  0  0  0
   87.3460   37.8350   30.6590 O   0  0  0  0  0
   87.3050   38.3430   33.3820 O   0  0  0  0  0
   84.6700   39.6390   33.4120 O   0  0  0  0  0
   82.7760   42.1810   30.7350 C   0  0  0  0  0
   82.5960   41.0400   31.6660 C   0  0  0  0  0
   81.2000   40.3830   31.2130 C   0  0  0  0  0
   80.0820   41.4300   31.3420 C   0  0  0  0  0
   80.4740   42.6120   30.4080 C   0  0  0  0  0
   79.4910   43.7340   30.4520 C   0  0  0  0  0
   84.0330   42.8220   31.1550 O   0  0  0  0  0
   80.9290   39.2470   32.0890 O   0  0  0  0  0
   79.9590   41.9390   32.6690 O   0  0  0  0  0
   81.7370   43.1500   30.8260 O   0  0  0  0  0
   79.9240   44.6680   29.4540 O   0  0  0  0  0
   86.6530   45.9390   30.0400 C   0  0  0  0  0
   85.1640   46.3050   29.9110 C   0  0  0  0  0
   84.3530   45.2680   30.7370 C   0  0  0  0  0
   84.6490   43.8440   30.2510 C   0  0  0  0  0
   86.1590   43.5440   30.2680 C   0  0  0  0  0
   86.5000   42.2210   29.5840 C   0  0  0  0  0
   87.3940   46.8460   29.2860 O   0  0  0  0  0
   84.8880   47.5970   30.4290 O   0  0  0  0  0
   82.9840   45.5800   30.6260 O   0  0  0  0  0
   86.8610   44.5770   29.5060 O   0  0  0  0  0
   87.7560   41.7210   30.0700 O   0  0  0  0  0
   83.2552   38.3843   32.5109 H   0  0  0  0  0
   85.3705   37.4063   31.9190 H   0  0  0  0  0
   86.4620   39.6949   30.4287 H   0  0  0  0  0
   87.9518   39.9804   32.3122 H   0  0  0  0  0
   85.8557   41.1845   32.4396 H   0  0  0  0  0
   85.7330   41.6428   34.9248 H   0  0  0  0  0
   86.6285   40.1367   35.2424 H   0  0  0  0  0
   87.4248   41.4836   34.3922 H   0  0  0  0  0
   83.5426   37.3438   30.4209 H   0  0  0  0  0
   87.0068   37.5023   29.8248 H   0  0  0  0  0
   87.9501   37.7567   32.9798 H   0  0  0  0  0
   82.7732   41.8161   29.7079 H   0  0  0  0  0
   82.5748   41.2827   32.7284 H   0  0  0  0  0
   81.2481   40.0486   30.1767 H   0  0  0  0  0
   79.1309   40.9667   31.0797 H   0  0  0  0  0
   80.5074   42.2082   29.3961 H   0  0  0  0  0
   79.4569   44.1944   31.4394 H   0  0  0  0  0
   78.4779   43.3831   30.2554 H   0  0  0  0  0
   80.0978   38.8395   31.8348 H   0  0  0  0  0
   79.2507   42.5864   32.6978 H   0  0  0  0  0
   79.3240   45.4172   29.4367 H   0  0  0  0  0
   86.9651   45.9736   31.0838 H   0  0  0  0  0
   84.8933   46.2992   28.8552 H   0  0  0  0  0
   84.6440   45.3131   31.7865 H   0  0  0  0  0
   84.2414   43.7887   29.2416 H   0  0  0  0  0
   86.4562   43.5065   31.3160 H   0  0  0  0  0
   86.5725   42.3834   28.5086 H   0  0  0  0  0
   85.7178   41.4941   29.8027 H   0  0  0  0  0
   88.3271   46.6314   29.3558 H   0  0  0  0  0
   85.3812   48.2525   29.9303 H   0  0  0  0  0
   82.8348   46.4756   30.9378 H   0  0  0  0  0
   87.9591   40.8905   29.6334 H   0  0  0  0  0
  7  1  1  0  0  0
  1 11  1  0  0  0
  1  2  1  0  0  0
  2  8  1  0  0  0
  2  3  1  0  0  0
  3  9  1  0  0  0
  3  4  1  0  0  0
  4 10  1  0  0  0
  5  4  1  0  0  0
 11  5  1  0  0  0
  5  6  1  0  0  0
 12 21  1  0  0  0
 13 12  1  0  0  0
 12 18  1  0  0  0
 18 26  1  0  0  0
 26 27  1  0  0  0
 26 25  1  0  0  0
 25 31  1  0  0  0
 25 24  1  0  0  0
 24 30  1  0  0  0
 24 23  1  0  0  0
 32 23  1  0  0  0
 23 29  1  0  0  0
 27 32  1  0  0  0
 27 28  1  0  0  0
 28 33  1  0  0  0
 13 14  1  0  0  0
 14 19  1  0  0  0
 14 15  1  0  0  0
 15 20  1  0  0  0
 15 16  1  0  0  0
 21 16  1  0  0  0
 16 17  1  0  0  0
 17 22  1  0  0  0
 13  7  1  0  0  0
  1 34  1  0  0  0
  2 35  1  0  0  0
  3 36  1  0  0  0
  4 37  1  0  0  0
  5 38  1  0  0  0
  6 39  1  0  0  0
  6 40  1  0  0  0
  6 41  1  0  0  0
  8 42  1  0  0  0
  9 43  1  0  0  0
 10 44  1  0  0  0
 12 45  1  0  0  0
 13 46  1  0  0  0
 14 47  1  0  0  0
 15 48  1  0  0  0
 16 49  1  0  0  0
 17 50  1  0  0  0
 17 51  1  0  0  0
 19 52  1  0  0  0
 20 53  1  0  0  0
 22 54  1  0  0  0
 23 55  1  0  0  0
 24 56  1  0  0  0
 25 57  1  0  0  0
 26 58  1  0  0  0
 27 59  1  0  0  0
 28 60  1  0  0  0
 28 61  1  0  0  0
 29 62  1  0  0  0
 30 63  1  0  0  0
 31 64  1  0  0  0
 33 65  1  0  0  0
M  END
$$$$
