6gf3_ligand
  -I-interpret- 

 61 66  0  0  0  0  0  0  0  0999 V2000
   17.5470   66.6000   45.1640 C   0  0  0  0  0
   17.4940   65.7050   46.2890 C   0  0  0  0  0
   17.0710   64.3520   46.0770 C   0  0  0  0  0
   16.7050   63.9430   44.7400 C   0  0  0  0  0
   16.7720   64.8560   43.6890 C   0  0  0  0  0
   17.1850   66.1630   43.8950 C   0  0  0  0  0
   16.6560   65.8060   41.7540 C   0  0  0  0  0
   17.1290   66.7690   42.6610 C   0  0  0  0  0
   16.1810   66.1530   40.5320 C   0  0  0  0  0
   15.7340   67.4970   40.2500 C   0  0  0  0  0
   15.3090   68.3400   41.6230 C   0  0  0  0  0
   16.5880   68.2670   42.4140 C   0  0  0  0  0
   14.9090   69.8330   41.4510 C   0  0  0  0  0
   15.9230   70.9660   41.6230 C   0  0  0  0  0
   17.3490   70.5930   42.1140 C   0  0  0  0  0
   16.6330   62.2170   46.9050 C   0  0  0  0  0
   17.1330   66.8950   48.3840 C   0  0  0  0  0
   16.8830   66.2330   49.7310 C   0  0  0  0  0
   18.7610   68.6290   42.8360 C   0  0  0  0  0
   18.6780   67.0660   42.4700 C   0  0  0  0  0
   14.1040   67.6970   42.3230 C   0  0  0  0  0
   13.0480   67.2690   41.3030 C   0  0  0  0  0
   15.9160   65.1720   39.5790 C   0  0  0  0  0
   14.5400   64.6250   37.8790 C   0  0  0  0  0
   16.5010   64.6930   42.4300 N   0  0  0  0  0
   17.6620   69.1490   41.9720 N   0  3  0  0  0
   17.0430   63.5500   47.1550 O   0  0  0  0  0
   17.8630   66.1280   47.5450 O   0  0  0  0  0
   16.7060   68.0190   48.1400 O   0  0  0  0  0
   14.8880   70.7050   42.5960 O   0  0  0  0  0
   16.1050   63.9890   39.8250 O   0  0  0  0  0
   15.4490   65.5930   38.3850 O   0  0  0  0  0
   17.8739   67.6298   45.3079 H   0  0  0  0  0
   16.3766   62.9205   44.5536 H   0  0  0  0  0
   17.2398   66.3612   40.3783 H   0  0  0  0  0
   14.8509   67.4279   39.6149 H   0  0  0  0  0
   16.5578   68.0290   39.7741 H   0  0  0  0  0
   16.2698   68.6617   43.3789 H   0  0  0  0  0
   14.2123   69.5358   40.6672 H   0  0  0  0  0
   16.2524   71.7950   40.9967 H   0  0  0  0  0
   17.4064   70.8391   43.1743 H   0  0  0  0  0
   18.0622   71.1456   41.5024 H   0  0  0  0  0
   15.6237   62.2198   46.4933 H   0  0  0  0  0
   17.3163   61.7557   46.1920 H   0  0  0  0  0
   16.6446   61.6536   47.8380 H   0  0  0  0  0
   17.3172   66.8452   50.5214 H   0  0  0  0  0
   15.8095   66.1360   49.8931 H   0  0  0  0  0
   17.3438   65.2452   49.7401 H   0  0  0  0  0
   19.7341   69.0855   42.6548 H   0  0  0  0  0
   18.6473   68.8524   43.8968 H   0  0  0  0  0
   19.0434   66.8352   41.4693 H   0  0  0  0  0
   19.3190   66.4407   43.0914 H   0  0  0  0  0
   13.6617   68.4261   43.0018 H   0  0  0  0  0
   14.4432   66.8163   42.8683 H   0  0  0  0  0
   12.7071   68.1422   40.7467 H   0  0  0  0  0
   13.4826   66.5446   40.6142 H   0  0  0  0  0
   12.2042   66.8162   41.8237 H   0  0  0  0  0
   15.0556   63.6723   37.7585 H   0  0  0  0  0
   13.7121   64.5057   38.5779 H   0  0  0  0  0
   14.1575   64.9572   36.9139 H   0  0  0  0  0
   17.8766   69.1292   40.9750 H   0  0  0  0  0
  2  1  4  0  0  0
  1  6  4  0  0  0
  2  3  4  0  0  0
 28  2  1  0  0  0
  3  4  4  0  0  0
  3 27  1  0  0  0
  4  5  4  0  0  0
  6  5  4  0  0  0
  5 25  1  0  0  0
  6  8  1  0  0  0
  8  7  1  0  0  0
  7  9  1  0  0  0
 25  7  2  0  0  0
  8 12  1  0  0  0
  8 20  1  0  0  0
  9 10  1  0  0  0
  9 23  1  0  0  0
 11 10  1  0  0  0
 12 11  1  0  0  0
 11 13  1  0  0  0
 11 21  1  0  0  0
 12 26  1  0  0  0
 13 14  1  0  0  0
 13 30  1  0  0  0
 15 14  1  0  0  0
 14 30  1  0  0  0
 26 15  1  0  0  0
 27 16  1  0  0  0
 17 18  1  0  0  0
 17 28  1  0  0  0
 17 29  2  0  0  0
 20 19  1  0  0  0
 19 26  1  0  0  0
 21 22  1  0  0  0
 23 31  2  0  0  0
 23 32  1  0  0  0
 32 24  1  0  0  0
  1 33  1  0  0  0
  4 34  1  0  0  0
  9 35  1  0  0  0
 10 36  1  0  0  0
 10 37  1  0  0  0
 12 38  1  0  0  0
 13 39  1  0  0  0
 14 40  1  0  0  0
 15 41  1  0  0  0
 15 42  1  0  0  0
 16 43  1  0  0  0
 16 44  1  0  0  0
 16 45  1  0  0  0
 18 46  1  0  0  0
 18 47  1  0  0  0
 18 48  1  0  0  0
 19 49  1  0  0  0
 19 50  1  0  0  0
 20 51  1  0  0  0
 20 52  1  0  0  0
 21 53  1  0  0  0
 21 54  1  0  0  0
 22 55  1  0  0  0
 22 56  1  0  0  0
 22 57  1  0  0  0
 24 58  1  0  0  0
 24 59  1  0  0  0
 24 60  1  0  0  0
 26 61  1  0  0  0
M  END
$$$$
