### 
### Created by X-TOOL on Tue Oct 16 15:17:24 2018
### 

@<TRIPOS>MOLECULE
2zz1_ligand
   33    34     1     0     0
SMALL
GAST_HUCK


@<TRIPOS>ATOM
      1 O3P        24.5860  -17.0270    7.6270 O.co2     1 Q6CN303    -0.5537
      2 P          24.5080  -16.0120    8.7490 P.3       1 Q6CN303     0.2008
      3 O1P        25.8140  -15.2770    8.9660 O.co2     1 Q6CN303    -0.5537
      4 O2P        23.3180  -15.1050    8.6240 O.co2     1 Q6CN303    -0.5537
      5 O5'        24.1660  -16.8480   10.1040 O.3       1 Q6CN303    -0.2734
      6 C5'        25.1930  -17.4770   10.8640 C.3       1 Q6CN303     0.1071
      7 C4'        24.4550  -18.1490   12.0310 C.3       1 Q6CN303     0.1181
      8 C3'        23.9190  -17.1700   13.0460 C.3       1 Q6CN303     0.1148
      9 O3'        22.8010  -17.8330   13.6960 O.3       1 Q6CN303    -0.3864
     10 C2'        25.0980  -17.0780   14.0270 C.3       1 Q6CN303     0.1380
     11 O2'        24.5910  -16.7320   15.3100 O.3       1 Q6CN303    -0.3837
     12 O4'        25.3770  -19.0230   12.7050 O.3       1 Q6CN303    -0.3369
     13 C1'        25.6460  -18.5020   14.0210 C.3       1 Q6CN303     0.2047
     14 N1         27.0920  -18.6260   14.2710 N.am      1 Q6CN303    -0.1397
     15 C6         27.5010  -19.5470   15.2020 C.2       1 Q6CN303     0.2142
     16 C5         28.8640  -19.6850   15.5060 C.2       1 Q6CN303     0.0561
     17 C4         29.7620  -18.8800   14.8380 C.2       1 Q6CN303     0.2071
     18 O4         31.0370  -18.9510   15.0200 O.2       1 Q6CN303    -0.3972
     19 N3         29.3080  -18.0430   13.8740 N.am      1 Q6CN303    -0.1827
     20 C2         27.9870  -17.9120   13.5980 C.2       1 Q6CN303     0.3305
     21 O2         27.6330  -17.1150   12.7080 O.2       1 Q6CN303    -0.3829
     22 C7         26.8020  -20.8310   15.2930 C.1       1 Q6CN303     0.1434
     23 N8         26.2510  -21.8460   15.3980 N.1       1 Q6CN303    -0.3157
     24 H1         25.9119  -16.7324   11.2365 H         1 Q6CN303     0.0639
     25 H2         25.7223  -18.2259   10.2566 H         1 Q6CN303     0.0639
     26 H3         23.6157  -18.7338   11.6265 H         1 Q6CN303     0.0650
     27 H4         23.6342  -16.1971   12.6189 H         1 Q6CN303     0.0648
     28 H5         22.4264  -17.2532   14.3487 H         1 Q6CN303     0.2100
     29 H6         25.8549  -16.3492   13.7015 H         1 Q6CN303     0.0675
     30 H7         25.3102  -16.6715   15.9277 H         1 Q6CN303     0.2101
     31 H8         25.1111  -19.0901   14.7812 H         1 Q6CN303     0.0988
     32 H9         29.2025  -20.4068   16.2478 H         1 Q6CN303     0.0544
     33 H10        29.9680  -17.5050   13.3496 H         1 Q6CN303     0.2264
@<TRIPOS>BOND
     1    2    1 ar 
     2    2    3 ar 
     3    2    4 ar 
     4    2    5 1  
     5    5    6 1  
     6    6    7 1  
     7    7    8 1  
     8    7   12 1  
     9    8    9 1  
    10    8   10 1  
    11   10   11 1  
    12   10   13 1  
    13   13   12 1  
    14   13   14 1  
    15   14   15 1  
    16   14   20 am 
    17   15   16 2  
    18   15   22 1  
    19   16   17 1  
    20   17   18 2  
    21   17   19 am 
    22   20   19 am 
    23   20   21 2  
    24   22   23 3  
    25    6   24 1  
    26    6   25 1  
    27    7   26 1  
    28    8   27 1  
    29    9   28 1  
    30   10   29 1  
    31   11   30 1  
    32   13   31 1  
    33   16   32 1  
    34   19   33 1  
@<TRIPOS>SUBSTRUCTURE
     1 Q6CN303      1

