2zz1_ligand
  -I-interpret- 

 35 36  0  0  0  0  0  0  0  0999 V2000
   24.5860  -17.0270    7.6270 O   0  0  0  0  0
   24.5080  -16.0120    8.7490 P   0  0  0  0  0
   25.8140  -15.2770    8.9660 O   0  0  0  0  0
   23.3180  -15.1050    8.6240 O   0  0  0  0  0
   24.1660  -16.8480   10.1040 O   0  0  0  0  0
   25.1930  -17.4770   10.8640 C   0  0  0  0  0
   24.4550  -18.1490   12.0310 C   0  0  0  0  0
   23.9190  -17.1700   13.0460 C   0  0  0  0  0
   22.8010  -17.8330   13.6960 O   0  0  0  0  0
   25.0980  -17.0780   14.0270 C   0  0  0  0  0
   24.5910  -16.7320   15.3100 O   0  0  0  0  0
   25.3770  -19.0230   12.7050 O   0  0  0  0  0
   25.6460  -18.5020   14.0210 C   0  0  0  0  0
   27.0920  -18.6260   14.2710 N   0  0  0  0  0
   27.5010  -19.5470   15.2020 C   0  0  0  0  0
   28.8640  -19.6850   15.5060 C   0  0  0  0  0
   29.7620  -18.8800   14.8380 C   0  0  0  0  0
   31.0370  -18.9510   15.0200 O   0  0  0  0  0
   29.3080  -18.0430   13.8740 N   0  0  0  0  0
   27.9870  -17.9120   13.5980 C   0  0  0  0  0
   27.6330  -17.1150   12.7080 O   0  0  0  0  0
   26.8020  -20.8310   15.2930 C   0  0  0  0  0
   26.2510  -21.8460   15.3980 N   0  0  0  0  0
   25.3602  -17.5808    7.7513 H   0  0  0  0  0
   26.5297  -15.9128    9.0370 H   0  0  0  0  0
   25.9390  -16.7621   11.2112 H   0  0  0  0  0
   25.7569  -18.1963   10.2702 H   0  0  0  0  0
   23.6034  -18.6811   11.6071 H   0  0  0  0  0
   23.5921  -16.2029   12.6640 H   0  0  0  0  0
   22.4225  -17.2471   14.3556 H   0  0  0  0  0
   25.8543  -16.3363   13.7701 H   0  0  0  0  0
   25.3178  -16.6709   15.9342 H   0  0  0  0  0
   25.1647  -19.0401   14.8376 H   0  0  0  0  0
   29.2028  -20.4075   16.2485 H   0  0  0  0  0
   29.9812  -17.4942   13.3391 H   0  0  0  0  0
  2  1  1  0  0  0
  2  3  1  0  0  0
  2  4  2  0  0  0
  2  5  1  0  0  0
  5  6  1  0  0  0
  6  7  1  0  0  0
  7  8  1  0  0  0
  7 12  1  0  0  0
  8  9  1  0  0  0
  8 10  1  0  0  0
 10 11  1  0  0  0
 10 13  1  0  0  0
 13 12  1  0  0  0
 13 14  1  0  0  0
 14 15  1  0  0  0
 14 20  1  0  0  0
 15 16  2  0  0  0
 15 22  1  0  0  0
 16 17  1  0  0  0
 17 18  2  0  0  0
 17 19  1  0  0  0
 20 19  1  0  0  0
 20 21  2  0  0  0
 22 23  3  0  0  0
  1 24  1  0  0  0
  3 25  1  0  0  0
  6 26  1  0  0  0
  6 27  1  0  0  0
  7 28  1  0  0  0
  8 29  1  0  0  0
  9 30  1  0  0  0
 10 31  1  0  0  0
 11 32  1  0  0  0
 13 33  1  0  0  0
 16 34  1  0  0  0
 19 35  1  0  0  0
M  END
$$$$
