1ie9_ligand
  -I-interpret- 

 74 76  0  0  0  0  0  0  0  0999 V2000
   16.9800   17.5100   34.6530 O   0  0  0  0  0
    4.6030   26.3090   34.8340 O   0  0  0  0  0
   14.1900   17.4070   35.5340 C   0  0  0  0  0
   14.8850   16.3260   34.6780 C   0  0  0  0  0
   15.9770   17.0020   33.7970 C   0  0  0  0  0
   15.3640   18.1640   33.0050 C   0  0  0  0  0
   14.5540   19.1610   33.7870 C   0  0  0  0  0
   14.7020   20.4720   33.4950 C   0  0  0  0  0
   14.0990   21.6380   34.1650 C   0  0  0  0  0
   13.8420   22.8600   33.6810 C   0  0  0  0  0
   14.1920   23.3060   32.2700 C   0  0  0  0  0
   13.6120   18.5750   34.7620 C   0  0  0  0  0
   12.8740   23.6780   31.5580 C   0  0  0  0  0
   12.0280   24.6670   32.4050 C   0  0  0  0  0
   11.7400   24.1920   33.8560 C   0  0  0  0  0
   13.1630   23.9190   34.4800 C   0  0  0  0  0
   12.9450   23.7500   35.9730 C   0  0  0  0  0
   11.7720   24.7360   36.1940 C   0  0  0  0  0
   11.2500   25.2820   34.8340 C   0  0  0  0  0
   10.8410   22.9170   33.8900 C   0  0  0  0  0
   12.2960   18.9620   34.8400 C   0  0  0  0  0
    9.7230   25.5380   34.9110 C   0  0  0  0  0
    9.4280   26.5180   36.1020 C   0  0  0  0  0
    9.0600   25.8970   33.6160 C   0  0  0  0  0
    7.4920   26.0950   33.8050 C   0  0  0  0  0
    6.5730   24.9620   34.2050 C   0  0  0  0  0
    5.0440   25.2150   34.0620 C   0  0  0  0  0
    4.6470   25.4180   32.6280 C   0  0  0  0  0
    4.2480   24.0530   34.6660 C   0  0  0  0  0
   13.2270   16.8630   36.4060 O   0  0  0  0  0
   17.3686   16.7881   35.1524 H   0  0  0  0  0
    3.6577   26.4243   34.7129 H   0  0  0  0  0
   15.0057   17.8249   36.1239 H   0  0  0  0  0
   14.1508   15.8337   34.0403 H   0  0  0  0  0
   15.3455   15.5821   35.3281 H   0  0  0  0  0
   16.3932   16.2750   33.0996 H   0  0  0  0  0
   14.6754   17.7111   32.2917 H   0  0  0  0  0
   16.2041   18.7200   32.5888 H   0  0  0  0  0
   15.3544   20.6972   32.6514 H   0  0  0  0  0
   13.8214   21.4830   35.2076 H   0  0  0  0  0
   14.7013   22.5055   31.7334 H   0  0  0  0  0
   14.8643   24.1635   32.2979 H   0  0  0  0  0
   12.2936   22.7675   31.4090 H   0  0  0  0  0
   13.1175   24.1570   30.6096 H   0  0  0  0  0
   11.0642   24.7697   31.9063 H   0  0  0  0  0
   12.6000   25.5918   32.4803 H   0  0  0  0  0
   13.8950   24.7241   34.4159 H   0  0  0  0  0
   13.8257   23.9583   36.5806 H   0  0  0  0  0
   12.7337   22.7262   36.2817 H   0  0  0  0  0
   12.1234   25.5723   36.7983 H   0  0  0  0  0
   10.9605   24.2113   36.6982 H   0  0  0  0  0
   11.6139   26.2589   34.5157 H   0  0  0  0  0
    9.8876   23.1332   33.4079 H   0  0  0  0  0
   11.3419   22.1066   33.3604 H   0  0  0  0  0
   10.6677   22.6237   34.9254 H   0  0  0  0  0
   11.9125   19.7285   34.1665 H   0  0  0  0  0
   11.6355   18.5026   35.5754 H   0  0  0  0  0
    9.2389   24.5847   35.1231 H   0  0  0  0  0
    9.7735   26.0699   37.0336 H   0  0  0  0  0
    9.9510   27.4595   35.9342 H   0  0  0  0  0
    8.3554   26.7024   36.1619 H   0  0  0  0  0
    9.2245   25.0869   32.9055 H   0  0  0  0  0
    9.4870   26.8327   33.2551 H   0  0  0  0  0
    7.1483   26.3577   32.8045 H   0  0  0  0  0
    7.4242   26.7843   34.6467 H   0  0  0  0  0
    6.7504   24.7934   35.2672 H   0  0  0  0  0
    6.8042   24.1370   33.5312 H   0  0  0  0  0
    5.1775   26.2802   32.2240 H   0  0  0  0  0
    4.9039   24.5291   32.0519 H   0  0  0  0  0
    3.5724   25.5915   32.5709 H   0  0  0  0  0
    4.5045   23.1297   34.1465 H   0  0  0  0  0
    4.4939   23.9567   35.7235 H   0  0  0  0  0
    3.1814   24.2490   34.5560 H   0  0  0  0  0
   13.6114   16.1254   36.8854 H   0  0  0  0  0
  5  1  1  0  0  0
 27  2  1  0  0  0
  3  4  1  0  0  0
 12  3  1  0  0  0
  3 30  1  0  0  0
  5  4  1  0  0  0
  6  5  1  0  0  0
  7  6  1  0  0  0
  8  7  2  0  0  0
  7 12  1  0  0  0
  9  8  1  0  0  0
 10  9  2  0  0  0
 10 11  1  0  0  0
 16 10  1  0  0  0
 13 11  1  0  0  0
 12 21  2  0  0  0
 14 13  1  0  0  0
 15 14  1  0  0  0
 15 16  1  0  0  0
 19 15  1  0  0  0
 15 20  1  0  0  0
 17 16  1  0  0  0
 18 17  1  0  0  0
 19 18  1  0  0  0
 22 19  1  0  0  0
 22 23  1  0  0  0
 24 22  1  0  0  0
 25 24  1  0  0  0
 26 25  1  0  0  0
 26 27  1  0  0  0
 27 28  1  0  0  0
 27 29  1  0  0  0
  1 31  1  0  0  0
  2 32  1  0  0  0
  3 33  1  0  0  0
  4 34  1  0  0  0
  4 35  1  0  0  0
  5 36  1  0  0  0
  6 37  1  0  0  0
  6 38  1  0  0  0
  8 39  1  0  0  0
  9 40  1  0  0  0
 11 41  1  0  0  0
 11 42  1  0  0  0
 13 43  1  0  0  0
 13 44  1  0  0  0
 14 45  1  0  0  0
 14 46  1  0  0  0
 16 47  1  0  0  0
 17 48  1  0  0  0
 17 49  1  0  0  0
 18 50  1  0  0  0
 18 51  1  0  0  0
 19 52  1  0  0  0
 20 53  1  0  0  0
 20 54  1  0  0  0
 20 55  1  0  0  0
 21 56  1  0  0  0
 21 57  1  0  0  0
 22 58  1  0  0  0
 23 59  1  0  0  0
 23 60  1  0  0  0
 23 61  1  0  0  0
 24 62  1  0  0  0
 24 63  1  0  0  0
 25 64  1  0  0  0
 25 65  1  0  0  0
 26 66  1  0  0  0
 26 67  1  0  0  0
 28 68  1  0  0  0
 28 69  1  0  0  0
 28 70  1  0  0  0
 29 71  1  0  0  0
 29 72  1  0  0  0
 29 73  1  0  0  0
 30 74  1  0  0  0
M  END
$$$$
