2cng_ligand
  -I-interpret- 

 51 54  0  0  0  0  0  0  0  0999 V2000
    5.9160   10.8390   49.1060 C   0  0  0  0  0
    6.1830   12.2230   48.6140 C   0  0  0  0  0
    7.3920   12.7570   49.3270 C   0  0  0  0  0
    8.1520   11.8190   49.8670 N   0  0  0  0  0
    7.5610   10.1750   49.4430 S   0  0  0  0  0
    7.4850    9.0530   50.6310 O   0  0  0  0  0
    8.0970    9.5930   48.0470 O   0  0  0  0  0
    7.6920   13.9370   49.4500 O   0  0  0  0  0
    5.0870    9.9100   48.2600 C   0  0  0  0  0
    5.2100    9.9330   46.7940 C   0  0  0  0  0
    4.4050    9.0210   45.9870 C   0  0  0  0  0
    3.4790    8.0900   46.6460 C   0  0  0  0  0
    3.3640    8.0780   48.1010 C   0  0  0  0  0
    4.1640    8.9850   48.9030 C   0  0  0  0  0
    2.6470    7.1410   45.8240 C   0  0  0  0  0
    1.1450    7.3090   46.1010 C   0  0  0  0  0
    0.4280    6.2270   45.4160 N   0  0  0  0  0
   -0.4890   12.9260   44.3330 C   0  0  0  0  0
   -0.3270   12.0680   45.5210 C   0  0  0  0  0
    0.0620   10.6740   45.3630 C   0  0  0  0  0
    0.2570   10.1370   44.0200 C   0  0  0  0  0
    0.0680   10.9650   42.8330 C   0  0  0  0  0
   -0.2900   12.3660   42.9840 C   0  0  0  0  0
    0.3420    9.7300   46.3550 N   0  0  0  0  0
    0.7170    8.6520   45.5310 C   0  0  0  0  0
    0.7010    8.8140   44.1310 N   0  0  0  0  0
   -0.8430   14.3180   44.5330 C   0  0  0  0  0
   -0.1750   15.2050   43.6320 F   0  0  0  0  0
   -0.4500   14.8640   45.7810 F   0  0  0  0  0
   -2.2330   14.5230   44.3920 F   0  0  0  0  0
   -0.8310    5.9530   45.7520 C   0  0  0  0  0
   -1.5740    4.8780   45.0040 C   0  0  0  0  0
   -1.3940    6.5790   46.6590 O   0  0  0  0  0
   -2.9420    4.8140   45.3780 F   0  0  0  0  0
   -0.9190    3.6360   45.0130 F   0  0  0  0  0
   -1.6050    5.1590   43.6240 F   0  0  0  0  0
    5.2552   10.9099   49.9700 H   0  0  0  0  0
    5.3219   12.8611   48.8124 H   0  0  0  0  0
    6.3615   12.2078   47.5388 H   0  0  0  0  0
    8.9686   12.0045   50.4493 H   0  0  0  0  0
    5.8987   10.6275   46.3129 H   0  0  0  0  0
    4.4905    9.0307   44.9004 H   0  0  0  0  0
    2.6756    7.3861   48.5863 H   0  0  0  0  0
    4.0739    8.9739   49.9892 H   0  0  0  0  0
    2.9312    6.1219   46.0865 H   0  0  0  0  0
    2.8262    7.3541   44.7702 H   0  0  0  0  0
    0.9282    7.2706   47.1685 H   0  0  0  0  0
    0.8922    5.6872   44.6856 H   0  0  0  0  0
   -0.4983   12.4770   46.5167 H   0  0  0  0  0
    0.1945   10.5355   41.8392 H   0  0  0  0  0
   -0.4106   12.9987   42.1047 H   0  0  0  0  0
  1  2  1  0  0  0
  1  5  1  0  0  0
  9  1  1  0  0  0
  2  3  1  0  0  0
  4  3  1  0  0  0
  3  8  2  0  0  0
  5  4  1  0  0  0
  5  6  2  0  0  0
  5  7  2  0  0  0
 10  9  4  0  0  0
 14  9  4  0  0  0
 11 10  4  0  0  0
 12 11  4  0  0  0
 12 13  4  0  0  0
 15 12  1  0  0  0
 13 14  4  0  0  0
 16 15  1  0  0  0
 16 17  1  0  0  0
 25 16  1  0  0  0
 17 31  1  0  0  0
 19 18  4  0  0  0
 18 23  4  0  0  0
 18 27  1  0  0  0
 20 19  4  0  0  0
 20 21  4  0  0  0
 24 20  4  0  0  0
 21 22  4  0  0  0
 21 26  4  0  0  0
 22 23  4  0  0  0
 24 25  4  0  0  0
 25 26  4  0  0  0
 27 28  1  0  0  0
 27 29  1  0  0  0
 27 30  1  0  0  0
 31 32  1  0  0  0
 31 33  2  0  0  0
 32 34  1  0  0  0
 32 35  1  0  0  0
 32 36  1  0  0  0
  1 37  1  0  0  0
  2 38  1  0  0  0
  2 39  1  0  0  0
  4 40  1  0  0  0
 10 41  1  0  0  0
 11 42  1  0  0  0
 13 43  1  0  0  0
 14 44  1  0  0  0
 15 45  1  0  0  0
 15 46  1  0  0  0
 16 47  1  0  0  0
 17 48  1  0  0  0
 19 49  1  0  0  0
 22 50  1  0  0  0
 23 51  1  0  0  0
M  END
$$$$
