4ygf_ligand
  -I-interpret- 

 19 19  0  0  0  0  0  0  0  0999 V2000
  -10.6140  -39.7310  -77.0970 C   0  0  0  0  0
  -11.4820  -41.2740  -78.8790 C   0  0  0  0  0
  -12.6220  -43.5080  -79.1400 C   0  0  0  0  0
  -13.1990  -44.5860  -80.0690 C   0  0  0  0  0
   -8.5240  -38.7950  -75.5160 N   0  0  0  0  0
  -10.9110  -40.1110  -79.3180 N   0  0  0  0  0
  -10.4540  -39.2840  -78.3730 N   0  0  0  0  0
  -12.0430  -42.3150  -79.6900 N   0  0  0  0  0
  -10.8430  -37.6150  -75.5950 O   0  0  0  0  0
  -10.6760  -39.8250  -74.5010 O   0  0  0  0  0
  -12.6640  -43.6880  -77.9570 O   0  0  0  0  0
  -10.1690  -38.9510  -75.5990 S   0  0  0  0  0
  -11.3930  -41.2220  -77.1570 S   0  0  0  0  0
  -12.6652  -45.5232  -79.9115 H   0  0  0  0  0
  -14.2568  -44.7270  -79.8468 H   0  0  0  0  0
  -13.0832  -44.2702  -81.1058 H   0  0  0  0  0
   -8.1013  -37.8678  -75.4706 H   0  0  0  0  0
   -7.9326  -39.6260  -75.5102 H   0  0  0  0  0
  -12.0301  -42.2028  -80.7037 H   0  0  0  0  0
  1  7  4  0  0  0
  1 12  1  0  0  0
 13  1  4  0  0  0
  2  6  4  0  0  0
  8  2  1  0  0  0
  2 13  4  0  0  0
  3  4  1  0  0  0
  3  8  1  0  0  0
  3 11  2  0  0  0
 12  5  1  0  0  0
  6  7  4  0  0  0
 12  9  2  0  0  0
 12 10  2  0  0  0
  4 14  1  0  0  0
  4 15  1  0  0  0
  4 16  1  0  0  0
  5 17  1  0  0  0
  5 18  1  0  0  0
  8 19  1  0  0  0
M  END
$$$$
