3muz_ligand
  -I-interpret- 

 33 33  0  0  0  0  0  0  0  0999 V2000
   14.7350   27.5490   75.7920 C   0  0  0  0  0
   13.4070   27.4730   76.5790 C   0  0  0  0  0
   13.5070   26.4620   77.5770 O   0  0  0  0  0
   12.2680   27.1460   75.6090 C   0  0  0  0  0
   11.0330   27.0700   76.3030 O   0  0  0  0  0
   12.1940   28.2410   74.5400 C   0  0  0  0  0
   11.8580   29.5080   75.1420 O   0  0  0  0  0
   13.5690   28.2990   73.8160 C   0  0  0  0  0
   14.6440   28.5660   74.7570 O   0  0  0  0  0
   13.5530   29.3980   72.7380 C   0  0  0  0  0
   12.4340   29.2140   71.8720 O   0  0  0  0  0
   16.1090   27.9480   76.9120 S   0  0  0  0  0
   17.5260   27.8860   75.7630 C   0  0  0  0  0
   17.6510   29.1890   74.9720 C   0  0  0  0  0
   18.8120   27.6660   76.5770 C   0  0  0  0  0
   14.9197   26.5789   75.3306 H   0  0  0  0  0
   13.2040   28.4288   77.0620 H   0  0  0  0  0
   14.2235   26.6775   78.1785 H   0  0  0  0  0
   12.4611   26.1811   75.1403 H   0  0  0  0  0
   11.0846   26.3828   76.9713 H   0  0  0  0  0
   11.4123   28.0165   73.8143 H   0  0  0  0  0
   11.0062   29.4375   75.5790 H   0  0  0  0  0
   13.7437   27.3290   73.3505 H   0  0  0  0  0
   14.4718   29.3419   72.1543 H   0  0  0  0  0
   13.4776   30.3727   73.2200 H   0  0  0  0  0
   12.4316   29.9029   71.2034 H   0  0  0  0  0
   17.3703   27.0696   75.0578 H   0  0  0  0  0
   16.7405   29.3511   74.3951 H   0  0  0  0  0
   17.7976   30.0193   75.6628 H   0  0  0  0  0
   18.5036   29.1220   74.2963 H   0  0  0  0  0
   18.9406   28.4889   77.2802 H   0  0  0  0  0
   18.7375   26.7266   77.1248 H   0  0  0  0  0
   19.6662   27.6272   75.9010 H   0  0  0  0  0
  1  2  1  0  0  0
  1  9  1  0  0  0
  1 12  1  0  0  0
  2  3  1  0  0  0
  2  4  1  0  0  0
  4  5  1  0  0  0
  4  6  1  0  0  0
  6  7  1  0  0  0
  6  8  1  0  0  0
  8  9  1  0  0  0
  8 10  1  0  0  0
 10 11  1  0  0  0
 12 13  1  0  0  0
 13 14  1  0  0  0
 13 15  1  0  0  0
  1 16  1  0  0  0
  2 17  1  0  0  0
  3 18  1  0  0  0
  4 19  1  0  0  0
  5 20  1  0  0  0
  6 21  1  0  0  0
  7 22  1  0  0  0
  8 23  1  0  0  0
 10 24  1  0  0  0
 10 25  1  0  0  0
 11 26  1  0  0  0
 13 27  1  0  0  0
 14 28  1  0  0  0
 14 29  1  0  0  0
 14 30  1  0  0  0
 15 31  1  0  0  0
 15 32  1  0  0  0
 15 33  1  0  0  0
M  END
$$$$
