3tfn_ligand
  -I-interpret- 

 64 67  0  0  0  0  0  0  0  0999 V2000
    6.0010   21.1640    5.6370 O   0  0  0  0  0
    2.0990   23.8690    7.6700 O   0  0  0  0  0
    7.2810   21.9940    7.1850 O   0  0  0  0  0
   -4.4530   29.5170    8.2570 C   0  0  0  0  0
   -1.2460   29.9900    2.8400 C   0  0  0  0  0
   -3.4110   30.1130    8.8770 C   0  0  0  0  0
   -4.2150   28.6750    7.2120 C   0  0  0  0  0
   -1.8510   28.8670    3.3480 C   0  0  0  0  0
   -0.3920   30.7400    3.6070 C   0  0  0  0  0
   -2.1520   29.8650    8.4190 C   0  0  0  0  0
   -2.9530   28.4400    6.7530 C   0  0  0  0  0
   -1.6200   28.4690    4.6410 C   0  0  0  0  0
   -0.1660   30.3500    4.8940 C   0  0  0  0  0
    2.6910   21.3420    4.8520 C   0  0  0  0  0
    4.0930   21.2180    4.3640 C   0  0  0  0  0
    2.8360   27.2930    6.9880 C   0  0  0  0  0
    1.4420   26.2840    8.7390 C   0  0  0  0  0
    1.5740   27.9630    6.4000 C   0  0  0  0  0
    0.7630   27.6380    8.5700 C   0  0  0  0  0
    2.8740   22.0050    6.2170 C   0  0  0  0  0
    4.5510   22.6410    4.6520 C   0  0  0  0  0
    5.0620   22.7740    7.0270 C   0  0  0  0  0
    3.5040   24.4940    5.9290 C   0  0  0  0  0
    6.2160   21.9270    6.5630 C   0  0  0  0  0
    2.6110   24.8150    7.1140 C   0  0  0  0  0
   -1.9100   29.0070    7.4090 C   0  0  0  0  0
   -0.7480   29.1970    5.4140 C   0  0  0  0  0
   -0.4880   28.8700    6.8990 C   0  0  0  0  0
    2.3530   26.0470    7.5970 N   0  0  0  0  0
    0.3370   27.6960    7.1750 N   0  3  0  0  0
    3.9930   23.0090    5.9750 C   0  0  0  0  0
    7.2104   22.6663    7.8666 H   0  0  0  0  0
   -5.4735   29.7076    8.5891 H   0  0  0  0  0
   -1.4476   30.2898    1.8116 H   0  0  0  0  0
   -3.5740   30.7778    9.7252 H   0  0  0  0  0
   -5.0561   28.1762    6.7304 H   0  0  0  0  0
   -2.5226   28.2848    2.7170 H   0  0  0  0  0
    0.0941   31.6258    3.1982 H   0  0  0  0  0
   -1.3116   30.3786    8.8859 H   0  0  0  0  0
   -2.7860   27.8108    5.8788 H   0  0  0  0  0
   -2.1200   27.5900    5.0479 H   0  0  0  0  0
    0.4834   30.9531    5.5285 H   0  0  0  0  0
    2.1718   20.3852    4.9079 H   0  0  0  0  0
    2.0538   21.9167    4.1798 H   0  0  0  0  0
    4.2001   20.8935    3.3289 H   0  0  0  0  0
    4.6838   20.4329    4.8358 H   0  0  0  0  0
    3.3325   27.9339    7.7166 H   0  0  0  0  0
    3.5883   27.1043    6.2222 H   0  0  0  0  0
    0.6866   25.4989    8.7719 H   0  0  0  0  0
    2.0120   26.2754    9.6680 H   0  0  0  0  0
    1.4254   27.5547    5.4003 H   0  0  0  0  0
    1.7409   29.0400    6.4156 H   0  0  0  0  0
    1.4418   28.4557    8.8123 H   0  0  0  0  0
   -0.0833   27.7453    9.2485 H   0  0  0  0  0
    3.1173   21.2881    7.0012 H   0  0  0  0  0
    1.9603   22.4760    6.5794 H   0  0  0  0  0
    4.2011   23.3254    3.8791 H   0  0  0  0  0
    5.6391   22.7049    4.6582 H   0  0  0  0  0
    5.4684   23.7497    7.2933 H   0  0  0  0  0
    4.5872   22.2431    7.8521 H   0  0  0  0  0
    4.3751   25.1483    5.9626 H   0  0  0  0  0
    2.9333   24.6441    5.0126 H   0  0  0  0  0
    0.2000   29.5069    7.4550 H   0  0  0  0  0
   -0.1716   26.8401    6.9532 H   0  0  0  0  0
 24  1  2  0  0  0
 25  2  2  0  0  0
 24  3  1  0  0  0
  6  4  4  0  0  0
  7  4  4  0  0  0
  8  5  4  0  0  0
  9  5  4  0  0  0
 10  6  4  0  0  0
 11  7  4  0  0  0
 12  8  4  0  0  0
 13  9  4  0  0  0
 26 10  4  0  0  0
 26 11  4  0  0  0
 27 12  4  0  0  0
 27 13  4  0  0  0
 15 14  1  0  0  0
 20 14  1  0  0  0
 21 15  1  0  0  0
 18 16  1  0  0  0
 16 29  1  0  0  0
 19 17  1  0  0  0
 17 29  1  0  0  0
 30 18  1  0  0  0
 30 19  1  0  0  0
 31 20  1  0  0  0
 31 21  1  0  0  0
 22 24  1  0  0  0
 31 22  1  0  0  0
 25 23  1  0  0  0
 23 31  1  0  0  0
 29 25  1  0  0  0
 28 26  1  0  0  0
 28 27  1  0  0  0
 28 30  1  0  0  0
  3 32  1  0  0  0
  4 33  1  0  0  0
  5 34  1  0  0  0
  6 35  1  0  0  0
  7 36  1  0  0  0
  8 37  1  0  0  0
  9 38  1  0  0  0
 10 39  1  0  0  0
 11 40  1  0  0  0
 12 41  1  0  0  0
 13 42  1  0  0  0
 14 43  1  0  0  0
 14 44  1  0  0  0
 15 45  1  0  0  0
 15 46  1  0  0  0
 16 47  1  0  0  0
 16 48  1  0  0  0
 17 49  1  0  0  0
 17 50  1  0  0  0
 18 51  1  0  0  0
 18 52  1  0  0  0
 19 53  1  0  0  0
 19 54  1  0  0  0
 20 55  1  0  0  0
 20 56  1  0  0  0
 21 57  1  0  0  0
 21 58  1  0  0  0
 22 59  1  0  0  0
 22 60  1  0  0  0
 23 61  1  0  0  0
 23 62  1  0  0  0
 28 63  1  0  0  0
 30 64  1  0  0  0
M  END
$$$$
