1bcj_ligand
  -I-interpret- 

 30 30  0  0  0  0  0  0  0  0999 V2000
   48.0370   -3.1700   21.2800 C   0  0  0  0  0
   46.5930   -3.1570   21.8130 C   0  0  0  0  0
   46.5410   -3.9110   23.1570 C   0  0  0  0  0
   47.1420   -5.3110   23.0070 C   0  0  0  0  0
   48.5440   -5.2160   22.3930 C   0  0  0  0  0
   49.1810   -6.5670   22.1330 C   0  0  0  0  0
   45.4850   -1.1490   21.0440 C   0  0  0  0  0
   45.0800    0.2870   21.3510 C   0  0  0  0  0
   46.1600   -1.7860   21.9970 N   0  0  0  0  0
   48.0910   -2.5600   20.0400 O   0  0  0  0  0
   45.2020   -4.0180   23.6140 O   0  0  0  0  0
   46.3060   -6.1070   22.1810 O   0  0  0  0  0
   48.4880   -4.5190   21.1290 O   0  0  0  0  0
   50.5990   -6.4830   22.1910 O   0  0  0  0  0
   45.1780   -1.6630   19.9620 O   0  0  0  0  0
   48.6687   -2.6359   21.9898 H   0  0  0  0  0
   45.9307   -3.6474   21.0996 H   0  0  0  0  0
   47.1233   -3.3472   23.8858 H   0  0  0  0  0
   47.2169   -5.7736   23.9911 H   0  0  0  0  0
   49.1486   -4.6821   23.1261 H   0  0  0  0  0
   48.8916   -6.9036   21.1375 H   0  0  0  0  0
   48.8411   -7.2661   22.8971 H   0  0  0  0  0
   45.5198    0.9537   20.6092 H   0  0  0  0  0
   43.9938    0.3716   21.3188 H   0  0  0  0  0
   45.4376    0.5597   22.3439 H   0  0  0  0  0
   46.3758   -1.3031   22.8691 H   0  0  0  0  0
   47.7918   -1.6512   20.1184 H   0  0  0  0  0
   44.8259   -3.1397   23.7078 H   0  0  0  0  0
   45.4308   -6.1618   22.5716 H   0  0  0  0  0
   50.9769   -7.3494   22.0234 H   0  0  0  0  0
  1 13  1  0  0  0
  1 10  1  0  0  0
  1  2  1  0  0  0
  2  9  1  0  0  0
  2  3  1  0  0  0
  3 11  1  0  0  0
  3  4  1  0  0  0
  4 12  1  0  0  0
  4  5  1  0  0  0
  5 13  1  0  0  0
  5  6  1  0  0  0
  6 14  1  0  0  0
  9  7  1  0  0  0
  7 15  2  0  0  0
  7  8  1  0  0  0
  1 16  1  0  0  0
  2 17  1  0  0  0
  3 18  1  0  0  0
  4 19  1  0  0  0
  5 20  1  0  0  0
  6 21  1  0  0  0
  6 22  1  0  0  0
  8 23  1  0  0  0
  8 24  1  0  0  0
  8 25  1  0  0  0
  9 26  1  0  0  0
 10 27  1  0  0  0
 11 28  1  0  0  0
 12 29  1  0  0  0
 14 30  1  0  0  0
M  END
$$$$
