6ebw_ligand
  -I-interpret- 

 56 60  0  0  0  0  0  0  0  0999 V2000
  -19.9790   -9.6370    6.3950 C   0  0  0  0  0
  -20.4100   -8.4510    5.8030 C   0  0  0  0  0
  -21.6560   -7.9610    6.1010 C   0  0  0  0  0
  -22.4580   -8.6720    6.9960 C   0  0  0  0  0
  -24.0220   -9.5310    8.3890 C   0  0  0  0  0
  -21.8820  -12.4750    9.0560 C   0  0  0  0  0
  -21.3460  -14.7110   10.2330 C   0  0  0  0  0
  -24.7120   -7.3350    7.2490 C   0  0  0  0  0
  -26.8150   -6.1220    6.9960 C   0  0  0  0  0
  -26.8810   -8.5240    7.7140 C   0  0  0  0  0
  -17.0170  -11.8950    5.9290 C   0  0  0  0  0
  -22.8530  -11.5260    9.1470 C   0  0  0  0  0
  -22.1640  -13.4690    9.9950 C   0  0  0  0  0
  -21.9680   -9.8620    7.5570 C   0  0  0  0  0
  -18.2710  -11.4200    6.6650 C   0  0  0  0  0
  -27.9490   -6.4470    6.0160 C   0  0  0  0  0
  -27.9840   -8.7440    6.6690 C   0  0  0  0  0
  -17.9690  -11.2740    8.1380 C   0  0  0  0  0
  -18.0120  -12.3910    8.9500 C   0  0  0  0  0
  -17.7380  -12.2550   10.3020 C   0  0  0  0  0
  -17.4300  -10.9920   10.7920 C   0  0  0  0  0
  -17.4070   -9.9190    9.9180 C   0  0  0  0  0
  -23.8170   -8.4760    7.5460 C   0  0  0  0  0
  -17.1570  -10.8160   12.1030 F   0  0  0  0  0
  -22.9460  -10.3540    8.3920 N   0  0  0  0  0
  -23.2560  -13.1360   10.6320 N   0  0  0  0  0
  -23.7120  -11.9150   10.1230 N   0  0  0  0  0
  -20.7550  -10.2970    7.2360 N   0  0  0  0  0
  -26.0710   -7.3530    7.3200 N   0  0  0  0  0
  -17.6740  -10.0900    8.6370 N   0  0  0  0  0
  -18.7150  -10.1390    6.1000 N   0  0  0  0  0
  -24.1860   -6.2910    6.9100 O   0  0  0  0  0
  -28.7250   -7.5310    6.5300 O   0  0  0  0  0
  -19.7617   -7.9169    5.1084 H   0  0  0  0  0
  -22.0127   -7.0357    5.6485 H   0  0  0  0  0
  -24.9258   -9.6888    8.9775 H   0  0  0  0  0
  -21.0341  -12.4615    8.3712 H   0  0  0  0  0
  -21.3056  -15.2991    9.3162 H   0  0  0  0  0
  -20.3360  -14.4280   10.5295 H   0  0  0  0  0
  -21.8065  -15.3016   11.0250 H   0  0  0  0  0
  -27.2360   -5.7029    7.9099 H   0  0  0  0  0
  -26.1381   -5.4001    6.5391 H   0  0  0  0  0
  -26.2459   -9.4081    7.7695 H   0  0  0  0  0
  -27.3306   -8.3477    8.6912 H   0  0  0  0  0
  -16.2189  -11.1652    6.0652 H   0  0  0  0  0
  -16.7033  -12.8578    6.3323 H   0  0  0  0  0
  -17.2383  -11.9993    4.8668 H   0  0  0  0  0
  -19.0691  -12.1523    6.5435 H   0  0  0  0  0
  -27.5267   -6.7274    5.0510 H   0  0  0  0  0
  -28.5853   -5.5707    5.8923 H   0  0  0  0  0
  -28.6451   -9.5492    6.9896 H   0  0  0  0  0
  -27.5405   -9.0208    5.7125 H   0  0  0  0  0
  -18.2584  -13.3673    8.5326 H   0  0  0  0  0
  -17.7636  -13.1193   10.9656 H   0  0  0  0  0
  -17.1661   -8.9236   10.2912 H   0  0  0  0  0
  -18.0921   -9.6133    5.4867 H   0  0  0  0  0
  1  2  4  0  0  0
  1 28  4  0  0  0
 31  1  1  0  0  0
  2  3  4  0  0  0
  3  4  4  0  0  0
 14  4  4  0  0  0
  4 23  4  0  0  0
  5 23  4  0  0  0
 25  5  4  0  0  0
 12  6  4  0  0  0
  6 13  4  0  0  0
 13  7  1  0  0  0
 23  8  1  0  0  0
  8 29  1  0  0  0
  8 32  2  0  0  0
  9 16  1  0  0  0
 29  9  1  0  0  0
 10 17  1  0  0  0
 29 10  1  0  0  0
 15 11  1  0  0  0
 25 12  1  0  0  0
 12 27  4  0  0  0
 13 26  4  0  0  0
 14 25  4  0  0  0
 28 14  4  0  0  0
 15 18  1  0  0  0
 15 31  1  0  0  0
 16 33  1  0  0  0
 17 33  1  0  0  0
 18 19  4  0  0  0
 18 30  4  0  0  0
 19 20  4  0  0  0
 20 21  4  0  0  0
 21 22  4  0  0  0
 21 24  1  0  0  0
 22 30  4  0  0  0
 26 27  4  0  0  0
  2 34  1  0  0  0
  3 35  1  0  0  0
  5 36  1  0  0  0
  6 37  1  0  0  0
  7 38  1  0  0  0
  7 39  1  0  0  0
  7 40  1  0  0  0
  9 41  1  0  0  0
  9 42  1  0  0  0
 10 43  1  0  0  0
 10 44  1  0  0  0
 11 45  1  0  0  0
 11 46  1  0  0  0
 11 47  1  0  0  0
 15 48  1  0  0  0
 16 49  1  0  0  0
 16 50  1  0  0  0
 17 51  1  0  0  0
 17 52  1  0  0  0
 19 53  1  0  0  0
 20 54  1  0  0  0
 22 55  1  0  0  0
 31 56  1  0  0  0
M  END
$$$$
