4ymx_ligand
  -I-interpret- 

 27 26  0  0  0  0  0  0  0  0999 V2000
   -3.3070   -8.1900  -18.0480 N   0  3  0  0  0
   -3.2680   -9.6320  -18.4080 C   0  0  0  0  0
   -3.6290   -9.8310  -19.8690 C   0  0  0  0  0
   -4.0420   -8.8920  -20.5470 O   0  0  0  0  0
   -4.2270  -10.4270  -17.5210 C   0  0  0  0  0
   -5.6520   -9.9090  -17.5340 C   0  0  0  0  0
   -6.6090  -10.8840  -16.8670 C   0  0  0  0  0
   -7.8910  -10.2530  -16.5890 N   0  0  0  0  0
   -8.9180  -10.8610  -16.0080 C   0  0  0  0  0
   -8.8350  -12.1280  -15.6390 N   0  0  0  0  0
  -10.0370  -10.1920  -15.8040 N   0  0  0  0  0
   -3.5110  -10.9360  -20.3960 O   0  0  0  0  0
   -2.6631   -7.6736  -18.6473 H   0  0  0  0  0
   -4.2540   -7.8339  -18.1778 H   0  0  0  0  0
   -3.0306   -8.0767  -17.0727 H   0  0  0  0  0
   -2.2528   -9.9953  -18.2482 H   0  0  0  0  0
   -3.8628  -10.3456  -16.4969 H   0  0  0  0  0
   -4.2504  -11.4474  -17.9035 H   0  0  0  0  0
   -5.9612   -9.7785  -18.5711 H   0  0  0  0  0
   -5.6811   -8.9681  -16.9845 H   0  0  0  0  0
   -6.1708  -11.2133  -15.9248 H   0  0  0  0  0
   -6.7733  -11.7262  -17.5391 H   0  0  0  0  0
   -8.0082   -9.2765  -16.8593 H   0  0  0  0  0
   -9.6339  -12.5843  -15.1987 H   0  0  0  0  0
   -7.9721  -12.6491  -15.7947 H   0  0  0  0  0
  -10.1075   -9.2161  -16.0921 H   0  0  0  0  0
   -3.1811  -11.5641  -19.7493 H   0  0  0  0  0
  1  2  1  0  0  0
  2  3  1  0  0  0
  2  5  1  0  0  0
  3  4  2  0  0  0
  3 12  1  0  0  0
  5  6  1  0  0  0
  6  7  1  0  0  0
  7  8  1  0  0  0
  8  9  1  0  0  0
  9 10  1  0  0  0
  9 11  2  0  0  0
  1 13  1  0  0  0
  1 14  1  0  0  0
  1 15  1  0  0  0
  2 16  1  0  0  0
  5 17  1  0  0  0
  5 18  1  0  0  0
  6 19  1  0  0  0
  6 20  1  0  0  0
  7 21  1  0  0  0
  7 22  1  0  0  0
  8 23  1  0  0  0
 10 24  1  0  0  0
 10 25  1  0  0  0
 11 26  1  0  0  0
 12 27  1  0  0  0
M  END
$$$$
