3nil_ligand
  -I-interpret- 

 50 49  0  0  0  0  0  0  0  0999 V2000
  -39.3400   13.1910   -5.4950 N   0  3  0  0  0
  -40.2600   13.2810   -6.6670 C   0  0  0  0  0
  -40.5660   11.8930   -7.2280 C   0  0  0  0  0
  -39.8790   10.9220   -6.9030 O   0  0  0  0  0
  -39.6590   14.1760   -7.7680 C   0  0  0  0  0
  -39.0440   15.5010   -7.3000 C   0  0  0  0  0
  -40.0760   16.4260   -6.6710 C   0  0  0  0  0
  -39.6500   17.8270   -6.6870 N   0  0  0  0  0
  -38.9100   18.4170   -5.7510 C   0  0  0  0  0
  -38.4840   17.7410   -4.6820 N   0  0  0  0  0
  -38.5930   19.6970   -5.8840 N   0  0  0  0  0
  -41.6010   11.8020   -8.0630 N   0  0  0  0  0
  -41.9140   10.5600   -8.7710 C   0  0  0  0  0
  -41.4030   10.5990  -10.2170 C   0  0  0  0  0
  -41.6270   11.5730  -10.9420 O   0  0  0  0  0
  -43.4220   10.2790   -8.7270 C   0  0  0  0  0
  -43.8220    9.0170   -9.4950 C   0  0  0  0  0
  -42.9690    8.3810  -10.1500 O   0  0  0  0  0
  -45.0100    8.6550   -9.4490 O   0  0  0  0  0
  -40.7230    9.5240  -10.6190 N   0  0  0  0  0
  -40.1560    9.3960  -11.9610 C   0  0  0  0  0
  -40.7710    8.2290  -12.7410 C   0  0  0  0  0
  -41.4437    7.3379  -12.1571 O   0  0  0  0  0
  -38.6420    9.2540  -11.8840 C   0  0  0  0  0
  -40.6011    8.1594  -13.9875 O   0  0  0  0  0
  -39.7583   12.5948   -4.7809 H   0  0  0  0  0
  -38.4495   12.7929   -5.7931 H   0  0  0  0  0
  -39.1858   14.1241   -5.1129 H   0  0  0  0  0
  -41.1924   13.7296   -6.3241 H   0  0  0  0  0
  -40.4832   14.4394   -8.4308 H   0  0  0  0  0
  -38.8467   13.6041   -8.2165 H   0  0  0  0  0
  -38.6238   16.0050   -8.1703 H   0  0  0  0  0
  -38.2881   15.2761   -6.5476 H   0  0  0  0  0
  -40.2107   16.1254   -5.6319 H   0  0  0  0  0
  -40.9975   16.3462   -7.2477 H   0  0  0  0  0
  -39.9443   18.3971   -7.4799 H   0  0  0  0  0
  -37.9185   18.2097   -3.9743 H   0  0  0  0  0
  -38.7239   16.7557   -4.5728 H   0  0  0  0  0
  -38.9156   20.2204   -6.6979 H   0  0  0  0  0
  -42.1910   12.6204   -8.2126 H   0  0  0  0  0
  -41.3996    9.7442   -8.2632 H   0  0  0  0  0
  -43.9294   11.1240   -9.1924 H   0  0  0  0  0
  -43.7008   10.1332   -7.6834 H   0  0  0  0  0
  -42.1153    8.8117  -10.0647 H   0  0  0  0  0
  -40.5926    8.7562   -9.9603 H   0  0  0  0  0
  -40.4000   10.3075  -12.5066 H   0  0  0  0  0
  -41.4814    7.5311  -11.2175 H   0  0  0  0  0
  -38.2198   10.1354  -11.4013 H   0  0  0  0  0
  -38.3907    8.3655  -11.3047 H   0  0  0  0  0
  -38.2355    9.1598  -12.8910 H   0  0  0  0  0
  1  2  1  0  0  0
  2  3  1  0  0  0
  2  5  1  0  0  0
  3  4  2  0  0  0
  3 12  1  0  0  0
  5  6  1  0  0  0
  6  7  1  0  0  0
  7  8  1  0  0  0
  8  9  1  0  0  0
  9 10  1  0  0  0
  9 11  2  0  0  0
 12 13  1  0  0  0
 13 14  1  0  0  0
 13 16  1  0  0  0
 14 15  2  0  0  0
 14 20  1  0  0  0
 16 17  1  0  0  0
 17 18  1  0  0  0
 17 19  2  0  0  0
 20 21  1  0  0  0
 21 22  1  0  0  0
 21 24  1  0  0  0
 22 23  1  0  0  0
 22 25  2  0  0  0
  1 26  1  0  0  0
  1 27  1  0  0  0
  1 28  1  0  0  0
  2 29  1  0  0  0
  5 30  1  0  0  0
  5 31  1  0  0  0
  6 32  1  0  0  0
  6 33  1  0  0  0
  7 34  1  0  0  0
  7 35  1  0  0  0
  8 36  1  0  0  0
 10 37  1  0  0  0
 10 38  1  0  0  0
 11 39  1  0  0  0
 12 40  1  0  0  0
 13 41  1  0  0  0
 16 42  1  0  0  0
 16 43  1  0  0  0
 18 44  1  0  0  0
 20 45  1  0  0  0
 21 46  1  0  0  0
 23 47  1  0  0  0
 24 48  1  0  0  0
 24 49  1  0  0  0
 24 50  1  0  0  0
M  END
$$$$
