### 
### Created by X-TOOL on Mon Sep 10 21:13:15 2018
### 

@<TRIPOS>MOLECULE
4ga3_ligand
   35    35     1     0     0
SMALL
GAST_HUCK


@<TRIPOS>ATOM
      1 CAA        17.4860   84.4930   23.9350 C.3       1 4GA        -0.0652
      2 OAB        17.1980   76.0740   24.2340 O.co2     1 4GA        -0.5594
      3 OAC        16.6710   79.1230   27.8850 O.co2     1 4GA        -0.5594
      4 OAD        14.8900   76.4360   27.3640 O.3       1 4GA        -0.3586
      5 OAE        15.4300   74.7180   25.5050 O.co2     1 4GA        -0.5594
      6 OAF        14.6970   76.3380   23.7860 O.co2     1 4GA        -0.5594
      7 OAG        17.0460   76.5820   27.8550 O.co2     1 4GA        -0.5594
      8 OAH        18.4440   77.7770   26.2410 O.co2     1 4GA        -0.5594
      9 CAI        16.0390   80.7850   24.8330 C.2       1 4GA         0.1816
     10 CAJ        15.8300   79.4440   24.7430 C.2       1 4GA         0.1186
     11 CAK        14.4280   80.3800   26.1640 C.2       1 4GA         0.1886
     12 CAL        16.0860   83.9930   24.4070 C.3       1 4GA        -0.0532
     13 CAM        16.2250   83.4280   25.8170 C.3       1 4GA        -0.0218
     14 CAN        14.9840   82.6400   26.1590 C.3       1 4GA         0.0877
     15 CAO        14.2310   78.0010   25.9620 C.3       1 4GA         0.0809
     16 NAP        15.1880   81.3180   25.7170 N.pl3     1 4GA        -0.1380
     17 NAQ        14.8460   79.2320   25.5750 N.2       1 4GA        -0.2649
     18 CAR        15.3940   77.1950   26.2820 C.3       1 4GA         0.2171
     19 PAS        15.7940   76.0970   24.8180 P.3       1 4GA         0.1110
     20 PAT        16.8920   77.9460   27.0210 P.3       1 4GA         0.1110
     21 H1         17.4047   84.9045   22.9181 H         1 4GA         0.0230
     22 H2         18.1948   83.6518   23.9345 H         1 4GA         0.0230
     23 H3         17.8459   85.2753   24.6194 H         1 4GA         0.0230
     24 H4         15.5402   75.7969   27.6311 H         1 4GA         0.2133
     25 H5         16.7869   81.3413   24.2699 H         1 4GA         0.2017
     26 H6         16.3576   78.7196   24.1244 H         1 4GA         0.1406
     27 H7         13.6103   80.4872   26.8752 H         1 4GA         0.1987
     28 H8         15.7233   83.2083   23.7268 H         1 4GA         0.0264
     29 H9         15.3744   84.8318   24.4117 H         1 4GA         0.0264
     30 H10        16.3462   84.2533   26.5340 H         1 4GA         0.0294
     31 H11        17.1043   82.7688   25.8645 H         1 4GA         0.0294
     32 H12        14.1106   83.0753   25.6514 H         1 4GA         0.0657
     33 H13        14.8194   82.6514   27.2465 H         1 4GA         0.0657
     34 H14        13.6513   77.5626   25.1363 H         1 4GA         0.0476
     35 H15        13.5789   78.1337   26.8379 H         1 4GA         0.0476
@<TRIPOS>BOND
     1   12    1 1  
     2   19    2 ar 
     3   20    3 ar 
     4   18    4 1  
     5   19    5 ar 
     6   19    6 ar 
     7   20    7 ar 
     8   20    8 ar 
     9   10    9 2  
    10   16    9 1  
    11   17   10 1  
    12   11   16 1  
    13   17   11 2  
    14   13   12 1  
    15   14   13 1  
    16   16   14 1  
    17   15   17 1  
    18   18   15 1  
    19   18   19 1  
    20   18   20 1  
    21    1   21 1  
    22    1   22 1  
    23    1   23 1  
    24    4   24 1  
    25    9   25 1  
    26   10   26 1  
    27   11   27 1  
    28   12   28 1  
    29   12   29 1  
    30   13   30 1  
    31   13   31 1  
    32   14   32 1  
    33   14   33 1  
    34   15   34 1  
    35   15   35 1  
@<TRIPOS>SUBSTRUCTURE
     1 4GA         1

