4ga3_ligand
  -I-interpret- 

 39 39  0  0  0  0  0  0  0  0999 V2000
   17.4860   84.4930   23.9350 C   0  0  0  0  0
   17.1980   76.0740   24.2340 O   0  0  0  0  0
   16.6710   79.1230   27.8850 O   0  0  0  0  0
   14.8900   76.4360   27.3640 O   0  0  0  0  0
   15.4300   74.7180   25.5050 O   0  0  0  0  0
   14.6970   76.3380   23.7860 O   0  0  0  0  0
   17.0460   76.5820   27.8550 O   0  0  0  0  0
   18.4440   77.7770   26.2410 O   0  0  0  0  0
   16.0390   80.7850   24.8330 C   0  0  0  0  0
   15.8300   79.4440   24.7430 C   0  0  0  0  0
   14.4280   80.3800   26.1640 C   0  0  0  0  0
   16.0860   83.9930   24.4070 C   0  0  0  0  0
   16.2250   83.4280   25.8170 C   0  0  0  0  0
   14.9840   82.6400   26.1590 C   0  0  0  0  0
   14.2310   78.0010   25.9620 C   0  0  0  0  0
   15.1880   81.3180   25.7170 N   0  0  0  0  0
   14.8460   79.2320   25.5750 N   0  3  0  0  0
   15.3940   77.1950   26.2820 C   0  0  0  0  0
   15.7940   76.0970   24.8180 P   0  0  0  0  0
   16.8920   77.9460   27.0210 P   0  0  0  0  0
   17.8415   85.2681   24.6140 H   0  0  0  0  0
   18.1873   83.6586   23.9350 H   0  0  0  0  0
   17.4041   84.9005   22.9274 H   0  0  0  0  0
   14.6934   77.0208   28.0995 H   0  0  0  0  0
   14.5403   74.7649   25.8626 H   0  0  0  0  0
   13.8425   76.3397   24.2235 H   0  0  0  0  0
   17.1871   75.8515   27.2483 H   0  0  0  0  0
   18.4504   76.9745   25.7142 H   0  0  0  0  0
   16.7876   81.3419   24.2694 H   0  0  0  0  0
   16.3581   78.7189   24.1238 H   0  0  0  0  0
   13.6095   80.4873   26.8758 H   0  0  0  0  0
   15.7189   83.2208   23.7309 H   0  0  0  0  0
   15.3754   84.8195   24.4054 H   0  0  0  0  0
   16.3480   84.2447   26.5284 H   0  0  0  0  0
   17.0976   82.7767   25.8662 H   0  0  0  0  0
   14.1102   83.0743   25.6732 H   0  0  0  0  0
   14.8037   82.6595   27.2338 H   0  0  0  0  0
   13.5935   77.5668   25.1918 H   0  0  0  0  0
   13.5257   78.1021   26.7869 H   0  0  0  0  0
 12  1  1  0  0  0
 19  2  2  0  0  0
 20  3  2  0  0  0
 18  4  1  0  0  0
 19  5  1  0  0  0
 19  6  1  0  0  0
 20  7  1  0  0  0
 20  8  1  0  0  0
 10  9  4  0  0  0
 16  9  4  0  0  0
 17 10  4  0  0  0
 11 16  4  0  0  0
 17 11  4  0  0  0
 13 12  1  0  0  0
 14 13  1  0  0  0
 16 14  1  0  0  0
 15 17  1  0  0  0
 18 15  1  0  0  0
 18 19  1  0  0  0
 18 20  1  0  0  0
  1 21  1  0  0  0
  1 22  1  0  0  0
  1 23  1  0  0  0
  4 24  1  0  0  0
  5 25  1  0  0  0
  6 26  1  0  0  0
  7 27  1  0  0  0
  8 28  1  0  0  0
  9 29  1  0  0  0
 10 30  1  0  0  0
 11 31  1  0  0  0
 12 32  1  0  0  0
 12 33  1  0  0  0
 13 34  1  0  0  0
 13 35  1  0  0  0
 14 36  1  0  0  0
 14 37  1  0  0  0
 15 38  1  0  0  0
 15 39  1  0  0  0
M  END
$$$$
