5abh_ligand
  -I-interpret- 

 46 46  0  0  0  0  0  0  0  0999 V2000
   27.5120   52.9680  249.3110 C   0  0  0  0  0
   27.8930   51.8380  248.4430 N   0  3  0  0  0
   29.3670   51.6630  248.2870 C   0  0  0  0  0
   29.5990   50.1810  248.2560 C   0  0  0  0  0
   28.4570   49.6780  249.1280 C   0  0  0  0  0
   27.2840   50.5140  248.6810 C   0  0  0  0  0
   28.5470   53.5820  250.2520 C   0  0  0  0  0
   27.8460   54.5770  251.1660 C   0  0  0  0  0
   28.3580   56.0010  251.0480 C   0  0  0  0  0
   28.0230   56.7940  252.3020 C   0  0  0  0  0
   29.9100   52.4040  247.0730 C   0  0  0  0  0
   28.9710   52.3830  245.8730 C   0  0  0  0  0
   27.7820   52.6620  246.0030 O   0  0  0  0  0
   29.5400   52.1700  244.6760 N   0  0  0  0  0
   28.8320   52.4730  243.4420 C   0  0  0  0  0
   26.0810   50.4140  249.6330 C   0  0  0  0  0
   26.4440   50.6880  250.9870 O   0  0  0  0  0
   28.1910   48.2960  248.9690 O   0  0  0  0  0
   29.5700   49.6230  246.9330 O   0  0  0  0  0
   26.7466   52.5612  249.9719 H   0  0  0  0  0
   27.2574   53.7718  248.6202 H   0  0  0  0  0
   27.4679   52.1704  247.5774 H   0  0  0  0  0
   29.9194   52.1081  249.1146 H   0  0  0  0  0
   30.5899   49.8930  248.6071 H   0  0  0  0  0
   28.6897   49.7764  250.1883 H   0  0  0  0  0
   26.7910   50.1787  247.7686 H   0  0  0  0  0
   29.3181   54.0905  249.6732 H   0  0  0  0  0
   29.0164   52.7991  250.8477 H   0  0  0  0  0
   28.0281   54.2545  252.1911 H   0  0  0  0  0
   26.7942   54.5895  250.8801 H   0  0  0  0  0
   27.8833   56.4778  250.1905 H   0  0  0  0  0
   29.4405   55.9785  250.9222 H   0  0  0  0  0
   26.9418   56.8163  252.4382 H   0  0  0  0  0
   28.4896   56.3200  253.1655 H   0  0  0  0  0
   28.3984   57.8120  252.1977 H   0  0  0  0  0
   30.8330   51.9074  246.7737 H   0  0  0  0  0
   30.0474   53.4461  247.3615 H   0  0  0  0  0
   30.4851   51.7891  244.6310 H   0  0  0  0  0
   27.9168   51.8828  243.3954 H   0  0  0  0  0
   28.5833   53.5340  243.4184 H   0  0  0  0  0
   29.4673   52.2284  242.5907 H   0  0  0  0  0
   25.6920   49.3969  249.5841 H   0  0  0  0  0
   25.3400   51.1511  249.3236 H   0  0  0  0  0
   25.6672   50.6152  251.5464 H   0  0  0  0  0
   28.9524   47.7891  249.2605 H   0  0  0  0  0
   30.3069   49.9695  246.4245 H   0  0  0  0  0
  1  2  1  0  0  0
  1  7  1  0  0  0
  2  3  1  0  0  0
  2  6  1  0  0  0
  3  4  1  0  0  0
  3 11  1  0  0  0
  4  5  1  0  0  0
  4 19  1  0  0  0
  5  6  1  0  0  0
  5 18  1  0  0  0
  6 16  1  0  0  0
  7  8  1  0  0  0
  8  9  1  0  0  0
  9 10  1  0  0  0
 11 12  1  0  0  0
 12 13  2  0  0  0
 12 14  1  0  0  0
 14 15  1  0  0  0
 16 17  1  0  0  0
  1 20  1  0  0  0
  1 21  1  0  0  0
  2 22  1  0  0  0
  3 23  1  0  0  0
  4 24  1  0  0  0
  5 25  1  0  0  0
  6 26  1  0  0  0
  7 27  1  0  0  0
  7 28  1  0  0  0
  8 29  1  0  0  0
  8 30  1  0  0  0
  9 31  1  0  0  0
  9 32  1  0  0  0
 10 33  1  0  0  0
 10 34  1  0  0  0
 10 35  1  0  0  0
 11 36  1  0  0  0
 11 37  1  0  0  0
 14 38  1  0  0  0
 15 39  1  0  0  0
 15 40  1  0  0  0
 15 41  1  0  0  0
 16 42  1  0  0  0
 16 43  1  0  0  0
 17 44  1  0  0  0
 18 45  1  0  0  0
 19 46  1  0  0  0
M  END
$$$$
