2rd6_ligand
  -I-interpret- 

 34 36  0  0  0  0  0  0  0  0999 V2000
   26.5400   65.6230    9.3920 C   0  0  0  0  0
   26.9380   66.4290   10.4920 C   0  0  0  0  0
   28.2920   66.3560   10.9360 C   0  0  0  0  0
   25.5670   64.5520    7.7490 C   0  0  0  0  0
   26.0130   67.3690   11.2180 C   0  0  0  0  0
   24.4690   64.0880    6.7730 C   0  0  0  0  0
   22.3940   63.6700    7.8910 C   0  0  0  0  0
   24.2720   62.5770    6.8630 C   0  0  0  0  0
   29.2270   65.4930   10.2900 C   0  0  0  0  0
   28.8190   64.6970    9.1930 C   0  0  0  0  0
   27.4990   64.7530    8.7410 C   0  0  0  0  0
   26.8370   64.1060    7.7180 N   0  0  0  0  0
   25.3440   65.4470    8.7180 N   0  0  0  0  0
   24.7080   67.3040   10.9130 N   0  0  0  0  0
   26.3940   68.1870   12.0460 O   0  0  0  0  0
   23.1570   64.6780    7.1410 N   0  3  0  0  0
   23.2480   62.4100    7.9760 C   0  0  0  0  0
   24.8840   64.5500    5.3750 C   0  0  0  0  0
   28.6161   66.9667   11.7787 H   0  0  0  0  0
   21.4514   63.4558    7.3872 H   0  0  0  0  0
   22.1602   64.0376    8.8902 H   0  0  0  0  0
   25.2023   62.0490    7.0724 H   0  0  0  0  0
   23.9346   62.1457    5.9206 H   0  0  0  0  0
   30.2575   65.4467   10.6421 H   0  0  0  0  0
   29.5358   64.0398    8.7007 H   0  0  0  0  0
   24.0458   67.9316   11.3691 H   0  0  0  0  0
   24.3782   66.6270   10.2250 H   0  0  0  0  0
   22.6469   64.9501    6.3007 H   0  0  0  0  0
   23.2953   65.5106    7.7137 H   0  0  0  0  0
   22.6555   61.5029    7.8569 H   0  0  0  0  0
   23.7175   62.2966    8.9531 H   0  0  0  0  0
   25.8256   64.0741    5.1011 H   0  0  0  0  0
   24.1123   64.2711    4.6576 H   0  0  0  0  0
   25.0088   65.6328    5.3737 H   0  0  0  0  0
  1  2  4  0  0  0
  1 11  4  0  0  0
 13  1  4  0  0  0
  2  3  4  0  0  0
  2  5  1  0  0  0
  3  9  4  0  0  0
  4  6  1  0  0  0
  4 12  4  0  0  0
  4 13  4  0  0  0
  5 14  1  0  0  0
  5 15  2  0  0  0
  6  8  1  0  0  0
  6 16  1  0  0  0
  6 18  1  0  0  0
 16  7  1  0  0  0
  7 17  1  0  0  0
  8 17  1  0  0  0
  9 10  4  0  0  0
 10 11  4  0  0  0
 11 12  4  0  0  0
  3 19  1  0  0  0
  7 20  1  0  0  0
  7 21  1  0  0  0
  8 22  1  0  0  0
  8 23  1  0  0  0
  9 24  1  0  0  0
 10 25  1  0  0  0
 14 26  1  0  0  0
 14 27  1  0  0  0
 16 28  1  0  0  0
 16 29  1  0  0  0
 17 30  1  0  0  0
 17 31  1  0  0  0
 18 32  1  0  0  0
 18 33  1  0  0  0
 18 34  1  0  0  0
M  END
$$$$
