3hvg_ligand
  -I-interpret- 

 21 21  0  0  0  0  0  0  0  0999 V2000
  -59.0730  -40.8190   39.7120 O   0  0  0  0  0
  -59.9320  -40.1200   39.2270 C   0  0  0  0  0
  -61.3210  -40.5920   39.1410 C   0  0  0  0  0
  -59.6120  -38.8610   38.7460 N   0  0  0  0  0
  -60.5830  -38.0420   38.1870 C   0  0  0  0  0
  -60.2320  -36.7970   37.7220 N   0  0  0  0  0
  -61.8220  -38.4400   38.0980 N   0  0  0  0  0
  -62.2310  -39.7750   38.5890 C   0  0  0  0  0
  -63.6800  -40.1870   38.4620 C   0  0  0  0  0
  -64.3250  -40.3480   39.8400 C   0  0  0  0  0
  -65.7920  -40.7540   39.6750 C   0  0  0  0  0
  -61.6035  -41.5763   39.5144 H   0  0  0  0  0
  -59.2643  -36.4816   37.7893 H   0  0  0  0  0
  -62.5196  -37.8218   37.6837 H   0  0  0  0  0
  -63.7282  -41.1420   37.9388 H   0  0  0  0  0
  -64.2171  -39.4143   37.9119 H   0  0  0  0  0
  -64.2690  -39.4024   40.3792 H   0  0  0  0  0
  -63.7961  -41.1193   40.4000 H   0  0  0  0  0
  -66.3203  -39.9827   39.1146 H   0  0  0  0  0
  -65.8475  -41.6994   39.1353 H   0  0  0  0  0
  -66.2489  -40.8680   40.6580 H   0  0  0  0  0
  1  2  2  0  0  0
  2  3  1  0  0  0
  2  4  1  0  0  0
  3  8  2  0  0  0
  4  5  4  0  0  0
  5  6  2  0  0  0
  5  7  1  0  0  0
  7  8  1  0  0  0
  8  9  1  0  0  0
  9 10  1  0  0  0
 10 11  1  0  0  0
  3 12  1  0  0  0
  6 13  1  0  0  0
  7 14  1  0  0  0
  9 15  1  0  0  0
  9 16  1  0  0  0
 10 17  1  0  0  0
 10 18  1  0  0  0
 11 19  1  0  0  0
 11 20  1  0  0  0
 11 21  1  0  0  0
M  END
$$$$
