5ggp_ligand
  -I-interpret- 

 76 77  0  0  0  0  0  0  0  0999 V2000
   50.0290   -3.9190    9.4670 N   0  3  0  0  0
   49.2230   -2.7020    9.4150 C   0  0  0  0  0
   49.9300   -1.5880   10.1670 C   0  0  0  0  0
   50.0930   -1.6780   11.3830 O   0  0  0  0  0
   47.8230   -2.9140   10.0230 C   0  0  0  0  0
   47.1530   -3.9770    9.3310 O   0  0  0  0  0
   46.9900   -1.6410    9.9060 C   0  0  0  0  0
   50.3600   -0.5410    9.4410 N   0  0  0  0  0
   51.1130    0.5750   10.0170 C   0  0  0  0  0
   50.4460    1.1600   11.2480 C   0  0  0  0  0
   49.2180    1.1370   11.3810 O   0  0  0  0  0
   51.1430    1.6110    8.8860 C   0  0  0  0  0
   51.0180    0.8130    7.6430 C   0  0  0  0  0
   50.1340   -0.3620    7.9940 C   0  0  0  0  0
   51.2780    1.6500   12.1550 N   0  0  0  0  0
   50.8200    2.3900   13.3270 C   0  0  0  0  0
   51.7370    3.6010   13.4640 C   0  0  0  0  0
   52.8940    3.5440   13.0540 O   0  0  0  0  0
   50.8600    1.5230   14.6080 C   0  0  0  0  0
   50.3500    2.2680   15.7210 O   0  0  0  0  0
   52.2930    1.0960   14.9180 C   0  0  0  0  0
   51.2250    4.7150   14.0100 N   0  0  0  0  0
   52.1230    5.8490   14.2570 C   0  0  0  0  0
   53.1170    5.5020   15.3580 C   0  0  0  0  0
   52.8950    4.5220   16.0760 O   0  0  0  0  0
   51.1720    6.9730   14.6940 C   0  0  0  0  0
   49.7970    6.5370   14.2170 C   0  0  0  0  0
   49.8200    5.0390   14.3160 C   0  0  0  0  0
   54.2040    6.2570   15.4910 N   0  0  0  0  0
   54.5730    7.3500   14.5910 C   0  0  0  0  0
   55.7420    6.9280   13.7210 C   0  0  0  0  0
   56.6990    6.3750   14.2370 O   0  0  0  0  0
   54.9670    8.6130   15.3840 C   0  0  0  0  0
   55.6630    9.6270   14.4800 C   0  0  0  0  0
   53.7440    9.2170   16.0560 C   0  0  0  0  0
   55.7020    7.1500   12.5220 O   0  0  0  0  0
   50.9447   -3.7367    9.0562 H   0  0  0  0  0
   50.1424   -4.2090   10.4383 H   0  0  0  0  0
   49.5608   -4.6581    8.9426 H   0  0  0  0  0
   49.0996   -2.4330    8.3659 H   0  0  0  0  0
   47.9384   -3.1690   11.0764 H   0  0  0  0  0
   47.6730   -4.7809    9.4014 H   0  0  0  0  0
   46.8741   -1.3796    8.8542 H   0  0  0  0  0
   46.0089   -1.8082   10.3504 H   0  0  0  0  0
   47.4941   -0.8290   10.4301 H   0  0  0  0  0
   52.1002    0.2593   10.3545 H   0  0  0  0  0
   52.0585    2.2024    8.8998 H   0  0  0  0  0
   50.3407    2.3425    8.9826 H   0  0  0  0  0
   51.9929    0.4823    7.2848 H   0  0  0  0  0
   50.5886    1.4042    6.8342 H   0  0  0  0  0
   49.0860   -0.1837    7.7532 H   0  0  0  0  0
   50.3776   -1.2553    7.4189 H   0  0  0  0  0
   52.2797    1.5042   12.0293 H   0  0  0  0  0
   49.7804    2.6919   13.2001 H   0  0  0  0  0
   50.2451    0.6388   14.4404 H   0  0  0  0  0
   50.3789    1.7222   16.5102 H   0  0  0  0  0
   52.6864    0.5155   14.0835 H   0  0  0  0  0
   52.9101    1.9817   15.0689 H   0  0  0  0  0
   52.3018    0.4871   15.8220 H   0  0  0  0  0
   52.7214    6.1269   13.3894 H   0  0  0  0  0
   51.4606    7.9335   14.2670 H   0  0  0  0  0
   51.1950    7.1231   15.7734 H   0  0  0  0  0
   49.5914    6.8755   13.2015 H   0  0  0  0  0
   48.9994    6.9732   14.8184 H   0  0  0  0  0
   49.5023    4.6727   15.2922 H   0  0  0  0  0
   49.1154    4.5574   13.6380 H   0  0  0  0  0
   54.8244    6.0600   16.2763 H   0  0  0  0  0
   53.7077    7.5808   13.9696 H   0  0  0  0  0
   55.6746    8.3285   16.1627 H   0  0  0  0  0
   56.5643    9.1797   14.0609 H   0  0  0  0  0
   54.9894    9.9147   13.6728 H   0  0  0  0  0
   55.9305   10.5082   15.0631 H   0  0  0  0  0
   53.0101    9.4873   15.2967 H   0  0  0  0  0
   53.3095    8.4878   16.7398 H   0  0  0  0  0
   54.0388   10.1073   16.6115 H   0  0  0  0  0
   54.8758    7.5886   12.3063 H   0  0  0  0  0
  1  2  1  0  0  0
  2  3  1  0  0  0
  2  5  1  0  0  0
  3  4  2  0  0  0
  3  8  1  0  0  0
  5  6  1  0  0  0
  5  7  1  0  0  0
  8  9  1  0  0  0
  8 14  1  0  0  0
  9 10  1  0  0  0
  9 12  1  0  0  0
 10 11  2  0  0  0
 10 15  1  0  0  0
 12 13  1  0  0  0
 13 14  1  0  0  0
 15 16  1  0  0  0
 16 17  1  0  0  0
 16 19  1  0  0  0
 17 18  2  0  0  0
 17 22  1  0  0  0
 19 20  1  0  0  0
 19 21  1  0  0  0
 22 23  1  0  0  0
 22 28  1  0  0  0
 23 24  1  0  0  0
 23 26  1  0  0  0
 24 25  2  0  0  0
 24 29  1  0  0  0
 26 27  1  0  0  0
 27 28  1  0  0  0
 29 30  1  0  0  0
 30 31  1  0  0  0
 30 33  1  0  0  0
 31 32  2  0  0  0
 31 36  1  0  0  0
 33 34  1  0  0  0
 33 35  1  0  0  0
  1 37  1  0  0  0
  1 38  1  0  0  0
  1 39  1  0  0  0
  2 40  1  0  0  0
  5 41  1  0  0  0
  6 42  1  0  0  0
  7 43  1  0  0  0
  7 44  1  0  0  0
  7 45  1  0  0  0
  9 46  1  0  0  0
 12 47  1  0  0  0
 12 48  1  0  0  0
 13 49  1  0  0  0
 13 50  1  0  0  0
 14 51  1  0  0  0
 14 52  1  0  0  0
 15 53  1  0  0  0
 16 54  1  0  0  0
 19 55  1  0  0  0
 20 56  1  0  0  0
 21 57  1  0  0  0
 21 58  1  0  0  0
 21 59  1  0  0  0
 23 60  1  0  0  0
 26 61  1  0  0  0
 26 62  1  0  0  0
 27 63  1  0  0  0
 27 64  1  0  0  0
 28 65  1  0  0  0
 28 66  1  0  0  0
 29 67  1  0  0  0
 30 68  1  0  0  0
 33 69  1  0  0  0
 34 70  1  0  0  0
 34 71  1  0  0  0
 34 72  1  0  0  0
 35 73  1  0  0  0
 35 74  1  0  0  0
 35 75  1  0  0  0
 36 76  1  0  0  0
M  END
$$$$
