3mks_ligand
  -I-interpret- 

 40 43  0  0  0  0  0  0  0  0999 V2000
  171.3980   34.3160  -52.1780 C   0  0  0  0  0
  170.7940   35.1430  -53.1080 C   0  0  0  0  0
  171.4000   35.3260  -54.3500 C   0  0  0  0  0
  172.6200   34.6450  -54.6670 C   0  0  0  0  0
  173.2050   33.7990  -53.7110 C   0  0  0  0  0
  172.5980   33.6510  -52.4740 C   0  0  0  0  0
  170.7700   36.1640  -55.2780 C   0  0  0  0  0
  171.3890   36.3120  -56.5240 C   0  0  0  0  0
  172.5930   35.6460  -56.8290 C   0  0  0  0  0
  173.2270   34.7880  -55.9250 C   0  0  0  0  0
  174.4300   34.0990  -56.1690 C   0  0  0  0  0
  175.6580   34.7700  -56.0510 C   0  0  0  0  0
  176.8530   34.1010  -56.2260 C   0  0  0  0  0
  176.8650   32.7470  -56.5150 C   0  0  0  0  0
  175.6670   32.0560  -56.6300 C   0  0  0  0  0
  174.4650   32.7260  -56.4590 C   0  0  0  0  0
  175.7020   36.1290  -55.7350 C   0  0  0  0  0
  176.9080   36.8010  -55.6360 C   0  0  0  0  0
  178.1200   36.1220  -55.8330 C   0  0  0  0  0
  178.0720   34.7690  -56.1140 C   0  0  0  0  0
  173.2310   31.8710  -56.5780 C   0  0  0  0  0
  173.2510   30.7740  -55.9170 O   0  0  0  0  0
  172.2770   32.3330  -57.2520 O   0  0  0  0  0
  173.1690   35.8640  -58.1930 C   0  0  0  0  0
  173.3060   34.8500  -58.8830 O   0  0  0  0  0
  173.4250   37.0070  -58.5590 O   0  0  0  0  0
  170.9351   34.1788  -51.2008 H   0  0  0  0  0
  169.8558   35.6454  -52.8725 H   0  0  0  0  0
  174.1269   33.2643  -53.9395 H   0  0  0  0  0
  173.0581   33.0103  -51.7217 H   0  0  0  0  0
  169.8388   36.6782  -55.0403 H   0  0  0  0  0
  170.9304   36.9559  -57.2745 H   0  0  0  0  0
  177.8123   32.2255  -56.6517 H   0  0  0  0  0
  175.6709   30.9893  -56.8542 H   0  0  0  0  0
  174.7713   36.6698  -55.5634 H   0  0  0  0  0
  176.9163   37.8658  -55.4032 H   0  0  0  0  0
  179.0731   36.6467  -55.7664 H   0  0  0  0  0
  179.0014   34.2160  -56.2501 H   0  0  0  0  0
  174.1079   30.6704  -55.4969 H   0  0  0  0  0
  173.0397   34.0802  -58.3749 H   0  0  0  0  0
  1  2  4  0  0  0
  1  6  4  0  0  0
  2  3  4  0  0  0
  3  4  4  0  0  0
  3  7  4  0  0  0
  4  5  4  0  0  0
  4 10  4  0  0  0
  5  6  4  0  0  0
  7  8  4  0  0  0
  8  9  4  0  0  0
  9 10  4  0  0  0
  9 24  1  0  0  0
 10 11  1  0  0  0
 11 12  4  0  0  0
 11 16  4  0  0  0
 12 13  4  0  0  0
 12 17  4  0  0  0
 13 14  4  0  0  0
 13 20  4  0  0  0
 14 15  4  0  0  0
 15 16  4  0  0  0
 16 21  1  0  0  0
 17 18  4  0  0  0
 18 19  4  0  0  0
 19 20  4  0  0  0
 21 22  1  0  0  0
 21 23  2  0  0  0
 24 25  1  0  0  0
 24 26  2  0  0  0
  1 27  1  0  0  0
  2 28  1  0  0  0
  5 29  1  0  0  0
  6 30  1  0  0  0
  7 31  1  0  0  0
  8 32  1  0  0  0
 14 33  1  0  0  0
 15 34  1  0  0  0
 17 35  1  0  0  0
 18 36  1  0  0  0
 19 37  1  0  0  0
 20 38  1  0  0  0
 22 39  1  0  0  0
 25 40  1  0  0  0
M  END
$$$$
