5lxb_ligand
  -I-interpret- 

 47 51  0  0  0  0  0  0  0  0999 V2000
   34.8260  -25.0340   58.4250 C   0  0  0  0  0
   34.9770  -29.4860   52.4340 C   0  0  0  0  0
   34.4960  -26.5390   58.4520 C   0  0  0  0  0
   39.2670  -29.5610   51.7430 C   0  0  0  0  0
   36.8930  -30.2600   51.1750 C   0  0  0  0  0
   36.2570  -25.0250   56.5430 C   0  0  0  0  0
   35.4680  -27.2330   57.5030 C   0  0  0  0  0
   36.7800  -27.2470   58.2660 C   0  0  0  0  0
   34.0660  -27.9420   54.5160 O   0  0  0  0  0
   35.2810  -27.9110   54.3540 C   0  0  0  0  0
   36.1230  -27.1600   55.0990 N   0  0  0  0  0
   35.5400  -26.3760   56.2260 C   0  0  0  0  0
   37.1440  -25.8030   58.6300 C   0  0  0  0  0
   36.2240  -24.8190   57.9970 N   0  3  0  0  0
   37.5720  -26.9690   54.8530 C   0  0  0  0  0
   35.8410  -28.7340   53.2400 C   0  0  0  0  0
   35.5060  -30.2410   51.3940 C   0  0  0  0  0
   37.7580  -29.5160   51.9840 C   0  0  0  0  0
   40.0310  -28.2690   52.1010 C   0  0  0  0  0
   37.2290  -28.7480   53.0220 C   0  0  0  0  0
   38.2010  -27.9900   53.8880 C   0  0  0  0  0
   39.2900  -27.3040   53.0380 C   0  0  0  0  0
   34.6951  -24.6245   59.4266 H   0  0  0  0  0
   34.1592  -24.5376   57.7200 H   0  0  0  0  0
   33.9030  -29.4792   52.6201 H   0  0  0  0  0
   33.4662  -26.7111   58.1390 H   0  0  0  0  0
   34.5979  -26.9355   59.4622 H   0  0  0  0  0
   39.4076  -29.7206   50.6740 H   0  0  0  0  0
   39.6626  -30.3461   52.3873 H   0  0  0  0  0
   37.3010  -30.8627   50.3636 H   0  0  0  0  0
   35.7504  -24.2036   56.0363 H   0  0  0  0  0
   37.2885  -25.0565   56.1920 H   0  0  0  0  0
   35.1915  -28.2444   57.2050 H   0  0  0  0  0
   37.5650  -27.6853   57.6498 H   0  0  0  0  0
   36.6784  -27.8454   59.1714 H   0  0  0  0  0
   34.5416  -26.1058   55.8819 H   0  0  0  0  0
   38.1539  -25.6053   58.2705 H   0  0  0  0  0
   37.0667  -25.6946   59.7118 H   0  0  0  0  0
   36.5258  -23.8833   58.2687 H   0  0  0  0  0
   38.0750  -27.0880   55.8127 H   0  0  0  0  0
   37.6893  -25.9865   54.3958 H   0  0  0  0  0
   34.8443  -30.8184   50.7483 H   0  0  0  0  0
   40.1915  -27.7329   51.1656 H   0  0  0  0  0
   40.9361  -28.5774   52.6242 H   0  0  0  0  0
   38.6430  -28.7586   54.5221 H   0  0  0  0  0
   38.7985  -26.5554   52.4166 H   0  0  0  0  0
   40.0251  -26.8828   53.7238 H   0  0  0  0  0
  3  1  1  0  0  0
 14  1  1  0  0  0
 16  2  4  0  0  0
  2 17  4  0  0  0
  7  3  1  0  0  0
 18  4  1  0  0  0
  4 19  1  0  0  0
 17  5  4  0  0  0
  5 18  4  0  0  0
 12  6  1  0  0  0
  6 14  1  0  0  0
  7  8  1  0  0  0
 12  7  1  0  0  0
  8 13  1  0  0  0
 10  9  2  0  0  0
 11 10  1  0  0  0
 10 16  1  0  0  0
 11 12  1  0  0  0
 11 15  1  0  0  0
 13 14  1  0  0  0
 15 21  1  0  0  0
 16 20  4  0  0  0
 18 20  4  0  0  0
 19 22  1  0  0  0
 20 21  1  0  0  0
 21 22  1  0  0  0
  1 23  1  0  0  0
  1 24  1  0  0  0
  2 25  1  0  0  0
  3 26  1  0  0  0
  3 27  1  0  0  0
  4 28  1  0  0  0
  4 29  1  0  0  0
  5 30  1  0  0  0
  6 31  1  0  0  0
  6 32  1  0  0  0
  7 33  1  0  0  0
  8 34  1  0  0  0
  8 35  1  0  0  0
 12 36  1  0  0  0
 13 37  1  0  0  0
 13 38  1  0  0  0
 14 39  1  0  0  0
 15 40  1  0  0  0
 15 41  1  0  0  0
 17 42  1  0  0  0
 19 43  1  0  0  0
 19 44  1  0  0  0
 21 45  1  0  0  0
 22 46  1  0  0  0
 22 47  1  0  0  0
M  END
$$$$
