6nss_ligand
  -I-interpret- 

 55 60  0  0  0  0  0  0  0  0999 V2000
  -10.0240   17.5490  -11.8320 C   0  0  0  0  0
  -10.6110   16.1990  -12.0690 C   0  0  0  0  0
  -12.4600   14.7920  -11.8950 C   0  0  0  0  0
  -11.8380   13.7580  -12.4520 C   0  0  0  0  0
   -9.8720   15.1340  -12.6660 C   0  0  0  0  0
   -5.9710   13.8740  -13.7270 C   0  0  0  0  0
   -4.7690   13.5320  -14.3230 C   0  0  0  0  0
   -7.1590   12.5460  -15.3410 C   0  0  0  0  0
   -9.6130   13.0650  -13.4640 C   0  0  0  0  0
   -9.4210   10.6730  -13.1830 C   0  0  0  0  0
   -7.8510    8.7340  -15.5080 C   0  0  0  0  0
   -6.9880    8.3200  -16.5310 C   0  0  0  0  0
   -7.7200    6.5240  -14.5660 C   0  0  0  0  0
   -8.0910    5.6030  -13.5790 O   0  0  0  0  0
   -9.0190    5.1500  -11.4370 C   0  0  0  0  0
   -9.7830    5.5230  -10.3570 C   0  0  0  0  0
  -10.2890    6.7930  -10.2730 C   0  0  0  0  0
  -10.0570    7.6930  -11.2750 C   0  0  0  0  0
   -9.3010    7.3240  -12.3930 C   0  0  0  0  0
  -11.8710   15.9890  -11.6890 N   0  0  0  0  0
  -10.5330   13.9220  -12.8690 N   0  0  0  0  0
   -8.6260   15.0780  -13.1120 N   0  0  0  0  0
   -8.4560   13.8080  -13.6260 C   0  0  0  0  0
   -7.1830   13.3940  -14.2300 C   0  0  0  0  0
   -4.7580   12.5950  -15.3420 C   0  0  0  0  0
   -5.9410   12.1250  -15.8660 C   0  0  0  0  0
   -9.8900   11.7610  -13.8270 N   0  0  0  0  0
   -8.6130   10.7300  -12.2580 O   0  0  0  0  0
  -10.0170    9.3450  -13.6730 C   0  0  0  0  0
   -9.0980    8.2030  -13.4830 N   0  0  0  0  0
   -8.2090    7.8350  -14.5190 C   0  0  0  0  0
   -6.4660    7.0350  -16.5460 C   0  0  0  0  0
   -6.8600    6.1120  -15.5950 C   0  0  0  0  0
   -8.7960    6.0330  -12.4630 C   0  0  0  0  0
   -9.1615   17.4580  -11.1717 H   0  0  0  0  0
   -9.7112   17.9798  -12.7831 H   0  0  0  0  0
  -10.7717   18.1926  -11.3685 H   0  0  0  0  0
  -13.4987   14.6671  -11.5889 H   0  0  0  0  0
  -12.3471   12.8023  -12.5766 H   0  0  0  0  0
   -5.9718   14.5264  -12.8538 H   0  0  0  0  0
   -3.8398   13.9963  -13.9929 H   0  0  0  0  0
   -8.0929   12.2151  -15.7954 H   0  0  0  0  0
   -8.2363    9.7535  -15.4914 H   0  0  0  0  0
   -6.7232    9.0172  -17.3259 H   0  0  0  0  0
   -8.5889    4.1493  -11.4784 H   0  0  0  0  0
   -9.9872    4.8044   -9.5633 H   0  0  0  0  0
  -10.8784    7.0867   -9.4045 H   0  0  0  0  0
  -10.4625    8.7022  -11.2029 H   0  0  0  0  0
   -3.8084   12.2278  -15.7312 H   0  0  0  0  0
   -5.9236   11.4193  -16.6966 H   0  0  0  0  0
  -10.4905   11.6110  -14.6378 H   0  0  0  0  0
  -10.2156    9.4408  -14.7405 H   0  0  0  0  0
  -10.9190    9.1488  -13.0934 H   0  0  0  0  0
   -5.7424    6.7518  -17.3104 H   0  0  0  0  0
   -6.5083    5.0815  -15.6439 H   0  0  0  0  0
  2  1  1  0  0  0
  5  2  4  0  0  0
  2 20  4  0  0  0
  4  3  4  0  0  0
  3 20  4  0  0  0
 21  4  4  0  0  0
 21  5  4  0  0  0
 22  5  4  0  0  0
  6  7  4  0  0  0
 24  6  4  0  0  0
  7 25  4  0  0  0
 24  8  4  0  0  0
  8 26  4  0  0  0
  9 21  4  0  0  0
  9 23  4  0  0  0
 27  9  1  0  0  0
 10 27  1  0  0  0
 10 28  2  0  0  0
 29 10  1  0  0  0
 11 12  4  0  0  0
 31 11  4  0  0  0
 12 32  4  0  0  0
 14 13  1  0  0  0
 13 31  4  0  0  0
 13 33  4  0  0  0
 34 14  1  0  0  0
 15 16  4  0  0  0
 34 15  4  0  0  0
 17 16  4  0  0  0
 18 17  4  0  0  0
 19 18  4  0  0  0
 30 19  1  0  0  0
 19 34  4  0  0  0
 23 22  4  0  0  0
 23 24  1  0  0  0
 26 25  4  0  0  0
 29 30  1  0  0  0
 30 31  1  0  0  0
 32 33  4  0  0  0
  1 35  1  0  0  0
  1 36  1  0  0  0
  1 37  1  0  0  0
  3 38  1  0  0  0
  4 39  1  0  0  0
  6 40  1  0  0  0
  7 41  1  0  0  0
  8 42  1  0  0  0
 11 43  1  0  0  0
 12 44  1  0  0  0
 15 45  1  0  0  0
 16 46  1  0  0  0
 17 47  1  0  0  0
 18 48  1  0  0  0
 25 49  1  0  0  0
 26 50  1  0  0  0
 27 51  1  0  0  0
 29 52  1  0  0  0
 29 53  1  0  0  0
 32 54  1  0  0  0
 33 55  1  0  0  0
M  END
$$$$
