### 
### Created by X-TOOL on Mon Sep 10 21:13:08 2018
### 

@<TRIPOS>MOLECULE
3so6_ligand
  207   209     1     0     0
SMALL
GAST_HUCK


@<TRIPOS>ATOM
      1 N          10.2690   62.7570    4.8290 N.4       1 SER         0.2396
      2 CA         11.2640   62.1000    5.8200 C.3       1 SER         0.0885
      3 C          10.5990   61.1210    6.7780 C.2       1 SER         0.2290
      4 O           9.4070   61.2030    7.0730 O.2       1 SER        -0.3906
      5 CB         11.9570   63.1760    6.6910 C.3       1 SER         0.1041
      6 OG         10.8850   63.9210    7.3220 O.3       1 SER        -0.3870
      7 N          11.3880   60.1890    7.1970 N.am      1 ILE        -0.2607
      8 CA         10.9720   59.2960    8.2180 C.3       1 ILE         0.1336
      9 C          12.0610   59.5080    9.2440 C.2       1 ILE         0.2043
     10 O          13.2070   59.4380    8.8970 O.2       1 ILE        -0.3944
     11 CB         11.0230   57.9070    7.5650 C.3       1 ILE        -0.0037
     12 CG1         9.9260   57.7560    6.5130 C.3       1 ILE        -0.0491
     13 CG2        10.8330   56.8590    8.6290 C.3       1 ILE        -0.0582
     14 CD1         9.9150   56.3390    5.7650 C.3       1 ILE        -0.0648
     15 N          11.7390   59.7480   10.5030 N.am      1 ASN        -0.2616
     16 CA         12.7060   60.0740   11.5590 C.3       1 ASN         0.1476
     17 C          12.3540   59.4770   12.8770 C.2       1 ASN         0.2064
     18 O          11.1590   59.3230   13.1340 O.2       1 ASN        -0.3942
     19 CB         12.6970   61.6070   11.7550 C.3       1 ASN         0.0773
     20 CG         12.7680   62.3320   10.4420 C.2       1 ASN         0.1780
     21 OD1        13.6540   62.0570    9.6530 O.2       1 ASN        -0.3970
     22 ND2        11.7780   63.1280   10.1570 N.am      1 ASN        -0.3007
     23 N          13.3560   59.1760   13.6870 N.am      1 PHE        -0.2618
     24 CA         13.0920   58.5380   15.0110 C.3       1 PHE         0.1404
     25 C          13.9980   59.0240   16.0500 C.2       1 PHE         0.2060
     26 O          15.1950   59.1790   15.8100 O.2       1 PHE        -0.3942
     27 CB         13.2270   57.0200   14.9640 C.3       1 PHE         0.0214
     28 CG         12.2570   56.3710   14.0130 C.ar      1 PHE        -0.0386
     29 CD1        12.5790   56.1370   12.6850 C.ar      1 PHE        -0.0601
     30 CD2        11.0040   55.9770   14.4850 C.ar      1 PHE        -0.0601
     31 CE1        11.6880   55.5680   11.8180 C.ar      1 PHE        -0.0686
     32 CE2        10.0960   55.3160   13.6110 C.ar      1 PHE        -0.0686
     33 CZ         10.4110   55.1620   12.2570 C.ar      1 PHE        -0.0687
     34 N          13.4570   59.2220   17.2450 N.am      1 ASP        -0.2620
     35 CA         14.2540   59.5600   18.4180 C.3       1 ASP         0.1423
     36 C          14.5700   58.2350   19.1530 C.2       1 ASP         0.2057
     37 O          13.6980   57.3790   19.2450 O.2       1 ASP        -0.3943
     38 CB         13.4330   60.3960   19.4130 C.3       1 ASP         0.0406
     39 CG         13.1130   61.8040   18.9780 C.2       1 ASP         0.0393
     40 OD1        13.5110   62.2880   17.9160 O.co2     1 ASP        -0.5688
     41 OD2        12.4480   62.4710   19.8120 O.co2     1 ASP        -0.5688
     42 N          15.7700   58.0910   19.7370 N.am      1 ASN        -0.2615
     43 CA         16.0940   56.8910   20.5010 C.3       1 ASN         0.1481
     44 C          15.7000   57.0610   21.9770 C.2       1 ASN         0.2119
     45 O          16.3000   57.8300   22.6730 O.2       1 ASN        -0.3937
     46 CB         17.5920   56.6610   20.3970 C.3       1 ASN         0.0773
     47 CG         18.0250   55.3970   21.0900 C.2       1 ASN         0.1780
     48 OD1        17.1960   54.6400   21.5830 O.2       1 ASN        -0.3970
     49 ND2        19.3240   55.1640   21.1910 N.am      1 ASN        -0.3007
     50 N          14.7450   56.2510   22.4560 N.am      1 PRO        -0.2339
     51 CA         14.3940   56.3680   23.8740 C.3       1 PRO         0.1524
     52 C          15.4370   55.9490   24.8360 C.2       1 PRO         0.2144
     53 O          15.3180   56.3210   26.0170 O.2       1 PRO        -0.3917
     54 CB         13.1220   55.4950   23.9860 C.2       1 PRO        -0.0526
     55 CG         13.1080   54.6360   22.8810 C.2       1 PRO        -0.0712
     56 CD         13.9610   55.2460   21.7480 C.3       1 PRO         0.0563
     57 N          16.4840   55.2400   24.3810 N.am      1 VAL        -0.2496
     58 CA         17.5100   54.8140   25.2830 C.3       1 VAL         0.1653
     59 C          18.7410   55.7410   25.2030 C.2       1 VAL         0.2184
     60 O          19.7320   55.4280   25.8460 O.2       1 VAL        -0.3906
     61 CB         17.8600   53.3000   25.1050 C.2       1 VAL        -0.0325
     62 CG1        18.8520   52.9930   23.9320 C.3       1 VAL        -0.0258
     63 CG2        18.0890   52.5670   26.2940 C.2       1 VAL        -0.1242
     64 N          18.6560   56.8510   24.4620 N.am      1 TYR        -0.2601
     65 CA         19.8090   57.7830   24.3860 C.3       1 TYR         0.1392
     66 C          20.1380   58.3030   25.7930 C.2       1 TYR         0.2057
     67 O          19.2550   58.7660   26.5820 O.2       1 TYR        -0.3942
     68 CB         19.3870   58.9570   23.5160 C.3       1 TYR         0.0164
     69 CG         20.4460   60.0300   23.4510 C.ar      1 TYR        -0.0493
     70 CD1        21.7530   59.7420   22.9910 C.ar      1 TYR        -0.0685
     71 CD2        20.1730   61.2990   23.8990 C.ar      1 TYR        -0.0685
     72 CE1        22.7130   60.7880   22.8980 C.ar      1 TYR        -0.0398
     73 CE2        21.1100   62.3340   23.7920 C.ar      1 TYR        -0.0398
     74 CZ         22.3760   62.0830   23.2960 C.ar      1 TYR         0.0805
     75 OH         23.3710   63.0120   23.1510 O.3       1 TYR        -0.3376
     76 N          21.4100   58.1180   26.0960 N.am      1 GLN        -0.2634
     77 CA         21.9690   58.6110   27.3720 C.3       1 GLN         0.1330
     78 C          21.3200   57.9550   28.5930 C.2       1 GLN         0.2040
     79 O          21.3680   58.4980   29.7340 O.2       1 GLN        -0.3944
     80 CB         21.8700   60.1470   27.5100 C.3       1 GLN         0.0045
     81 CG         22.7770   60.8940   26.5930 C.3       1 GLN         0.0412
     82 CD         22.7410   62.4360   26.8780 C.2       1 GLN         0.1737
     83 OE1        21.6920   63.0080   27.2890 O.2       1 GLN        -0.3973
     84 NE2        23.8340   63.0980   26.5610 N.am      1 GLN        -0.3009
     85 N          20.7780   56.7550   28.4320 N.am      1 LYS        -0.2637
     86 CA         20.0270   56.1820   29.5930 C.3       1 LYS         0.1310
     87 C          20.8980   55.2520   30.3410 C.2       1 LYS         0.2040
     88 O          20.4040   54.4700   31.1780 O.2       1 LYS        -0.3944
     89 CB         18.7160   55.5280   29.1340 C.3       1 LYS        -0.0122
     90 CG         17.6690   56.5690   28.7330 C.3       1 LYS        -0.0440
     91 CD         16.5890   56.8650   29.6760 C.3       1 LYS        -0.0124
     92 CE         15.6050   57.8400   29.0950 C.3       1 LYS        -0.0354
     93 NZ         15.7800   59.2490   29.5640 N.4       1 LYS         0.2185
     94 N          22.1900   55.3000   30.0600 N.am      1 THR        -0.2613
     95 CA         23.1360   54.6630   31.0220 C.3       1 THR         0.1564
     96 C          23.0180   55.4070   32.3710 C.2       1 THR         0.2060
     97 O          22.6300   56.5720   32.4790 O.2       1 THR        -0.3943
     98 CB         24.6230   54.7650   30.5600 C.3       1 THR         0.0924
     99 OG1        24.9790   56.1590   30.3480 O.3       1 THR        -0.3874
    100 CG2        24.7930   53.9580   29.2950 C.3       1 THR        -0.0346
    101 N          23.2120   54.6330   33.4150 N.am      1 THR        -0.2669
    102 CA         22.8780   55.1750   34.7220 C.3       1 THR         0.1198
    103 C          24.1400   55.5060   35.5080 C.2       1 THR         0.0626
    104 O          24.0212   55.9349   36.6868 O.co2     1 THR        -0.5665
    105 CB         21.9420   54.3240   35.5380 C.3       1 THR         0.0869
    106 OG1        22.4140   52.9930   35.6050 O.3       1 THR        -0.3880
    107 CG2        20.5940   54.3340   34.9820 C.3       1 THR        -0.0352
    108 H           9.8239   62.0326    4.2656 H         1 SER         0.2016
    109 H           9.5576   63.2679    5.3519 H         1 SER         0.2016
    110 H          10.7732   63.4013    4.2199 H         1 SER         0.2016
    111 H          11.9771   61.5621    5.1953 H         1 SER         0.1122
    112 H          12.5918   63.8261    6.0890 H         1 SER         0.0640
    113 H          12.6160   62.7234    7.4319 H         1 SER         0.0640
    114 H          11.2588   64.6077    7.8791 H         1 SER         0.2099
    115 H          12.3186   60.0938    6.7904 H         1 ILE         0.1885
    116 H           9.9829   59.4233    8.6581 H         1 ILE         0.0803
    117 H          11.9900   57.7863    7.0767 H         1 ILE         0.0345
    118 H          10.1050   58.5169    5.7533 H         1 ILE         0.0267
    119 H           8.9716   57.8513    7.0308 H         1 ILE         0.0267
    120 H          11.6275   56.9472    9.3701 H         1 ILE         0.0235
    121 H           9.8665   57.0041    9.1116 H         1 ILE         0.0235
    122 H          10.8680   55.8696    8.1730 H         1 ILE         0.0235
    123 H          10.8671   56.1913    5.2553 H         1 ILE         0.0230
    124 H           9.7659   55.5447    6.4964 H         1 ILE         0.0230
    125 H           9.1046   56.3205    5.0363 H         1 ILE         0.0230
    126 H          10.7525   59.7038   10.7584 H         1 ASN         0.1885
    127 H          13.6719   59.6783   11.2450 H         1 ASN         0.0826
    128 H          13.5682   61.8836   12.3489 H         1 ASN         0.0551
    129 H          11.7679   61.8853   12.2525 H         1 ASN         0.0551
    130 H          11.7176   63.5563    9.2332 H         1 ASN         0.1814
    131 H          11.0628   63.3234   10.8575 H         1 ASN         0.1814
    132 H          14.3146   59.3810   13.4053 H         1 PHE         0.1885
    133 H          12.0646   58.8117   15.2509 H         1 PHE         0.0823
    134 H          13.0181   56.6375   15.9631 H         1 PHE         0.0474
    135 H          14.2347   56.7872   14.6199 H         1 PHE         0.0474
    136 H          13.5689   56.4140   12.3224 H         1 PHE         0.0557
    137 H          10.7220   56.1748   15.5191 H         1 PHE         0.0557
    138 H          11.9684   55.4264   10.7742 H         1 PHE         0.0599
    139 H           9.1532   54.9290   13.9975 H         1 PHE         0.0599
    140 H           9.6881   54.7391   11.5593 H         1 PHE         0.0559
    141 H          12.4459   59.1345   17.3469 H         1 ASP         0.1884
    142 H          15.1392   60.1093   18.0974 H         1 ASP         0.0819
    143 H          14.0377   60.4822   20.3158 H         1 ASP         0.0478
    144 H          12.4774   59.8849   19.5302 H         1 ASP         0.0478
    145 H          16.4656   58.8314   19.6453 H         1 ASN         0.1885
    146 H          15.5418   56.0408   20.1006 H         1 ASN         0.0826
    147 H          18.0971   57.4996   20.8763 H         1 ASN         0.0551
    148 H          17.8482   56.5727   19.3412 H         1 ASN         0.0551
    149 H          19.6568   54.3381   21.6885 H         1 ASN         0.1814
    150 H          19.9922   55.8104   20.7714 H         1 ASN         0.1814
    151 H          14.2563   57.4134   24.1501 H         1 PRO         0.0924
    152 H          12.3750   55.5404   24.7785 H         1 PRO         0.0494
    153 H          12.5778   53.6851   22.8286 H         1 PRO         0.0482
    154 H          14.5753   54.5097   21.2297 H         1 PRO         0.0653
    155 H          13.3629   55.6617   20.9371 H         1 PRO         0.0653
    156 H          16.5475   55.0050   23.3905 H         1 VAL         0.1915
    157 H          17.1218   54.9026   26.2977 H         1 VAL         0.0994
    158 H          19.8693   53.2230   24.2486 H         1 VAL         0.0426
    159 H          18.7827   51.9383   23.6659 H         1 VAL         0.0426
    160 H          18.5918   53.6049   23.0683 H         1 VAL         0.0426
    161 H          18.0169   53.0625   27.2622 H         1 VAL         0.0087
    162 H          18.3374   51.5070   26.2415 H         1 VAL         0.0087
    163 H          17.7989   57.0573   23.9490 H         1 TYR         0.1887
    164 H          20.6840   57.2802   23.9741 H         1 TYR         0.0821
    165 H          18.4881   59.3944   23.9504 H         1 TYR         0.0453
    166 H          19.2185   58.5859   22.5051 H         1 TYR         0.0453
    167 H          22.0228   58.7242   22.7094 H         1 TYR         0.0530
    168 H          19.2022   61.5059   24.3494 H         1 TYR         0.0530
    169 H          23.7120   60.5782   22.5158 H         1 TYR         0.0525
    170 H          20.8398   63.3436   24.1016 H         1 TYR         0.0525
    171 H          23.5811   63.3906   24.0078 H         1 TYR         0.2458
    172 H          22.0162   57.6270   25.4389 H         1 GLN         0.1883
    173 H          23.0216   58.3295   27.3433 H         1 GLN         0.0801
    174 H          22.1587   60.4007   28.5300 H         1 GLN         0.0337
    175 H          20.8481   60.4305   27.2580 H         1 GLN         0.0337
    176 H          22.4470   60.7248   25.5680 H         1 GLN         0.0504
    177 H          23.7953   60.5379   26.7493 H         1 GLN         0.0504
    178 H          23.8565   64.1144   26.6431 H         1 GLN         0.1814
    179 H          24.6583   62.5944   26.2333 H         1 GLN         0.1814
    180 H          20.8692   56.2442   27.5538 H         1 LYS         0.1883
    181 H          19.7433   56.9858   30.2723 H         1 LYS         0.0800
    182 H          18.3169   54.9437   29.9631 H         1 LYS         0.0312
    183 H          18.9302   54.9063   28.2647 H         1 LYS         0.0312
    184 H          17.1762   56.1560   27.8529 H         1 LYS         0.0269
    185 H          18.2200   57.5033   28.6253 H         1 LYS         0.0269
    186 H          17.0241   57.3057   30.5730 H         1 LYS         0.0317
    187 H          16.0638   55.9372   29.9027 H         1 LYS         0.0317
    188 H          14.6124   57.5189   29.4110 H         1 LYS         0.0813
    189 H          15.7560   57.8414   28.0155 H         1 LYS         0.0813
    190 H          15.0763   59.8423   29.1244 H         1 LYS         0.1994
    191 H          15.6715   59.2846   30.5776 H         1 LYS         0.1994
    192 H          16.7112   59.5779   29.3088 H         1 LYS         0.1994
    193 H          22.5282   55.7575   29.2134 H         1 THR         0.1884
    194 H          22.8732   53.6077   31.0954 H         1 THR         0.0826
    195 H          25.2869   54.3650   31.3263 H         1 THR         0.0639
    196 H          24.8670   56.6450   31.1683 H         1 THR         0.2101
    197 H          24.5364   52.9172   29.4923 H         1 THR         0.0257
    198 H          24.1360   54.3551   28.5212 H         1 THR         0.0257
    199 H          25.8288   54.0213   28.9616 H         1 THR         0.0257
    200 H          23.5827   53.6883   33.3124 H         1 THR         0.1876
    201 H          22.3232   56.0912   34.5198 H         1 THR         0.0752
    202 O          25.2787   55.3542   34.9903 O.co2     1 THR        -0.5665
    203 H          21.9063   54.7472   36.5419 H         1 THR         0.0632
    204 H          22.4727   52.6305   34.7180 H         1 THR         0.2100
    205 H          20.2141   55.3556   34.9718 H         1 THR         0.0256
    206 H          20.6192   53.9442   33.9644 H         1 THR         0.0256
    207 H          19.9446   53.7097   35.5957 H         1 THR         0.0256
@<TRIPOS>BOND
     1    1    2 1  
     2    2    3 1  
     3    2    5 1  
     4    3    4 2  
     5    3    7 am 
     6    5    6 1  
     7    7    8 1  
     8    8    9 1  
     9    8   11 1  
    10    9   10 2  
    11    9   15 am 
    12   11   12 1  
    13   11   13 1  
    14   12   14 1  
    15   15   16 1  
    16   16   17 1  
    17   16   19 1  
    18   17   18 2  
    19   17   23 am 
    20   19   20 1  
    21   20   21 2  
    22   20   22 am 
    23   23   24 1  
    24   24   25 1  
    25   24   27 1  
    26   25   26 2  
    27   25   34 am 
    28   27   28 1  
    29   28   29 ar 
    30   28   30 ar 
    31   29   31 ar 
    32   30   32 ar 
    33   31   33 ar 
    34   32   33 ar 
    35   34   35 1  
    36   35   36 1  
    37   35   38 1  
    38   36   37 2  
    39   36   42 am 
    40   38   39 1  
    41   39   40 ar 
    42   39   41 ar 
    43   42   43 1  
    44   43   44 1  
    45   43   46 1  
    46   44   45 2  
    47   44   50 am 
    48   46   47 1  
    49   47   48 2  
    50   47   49 am 
    51   50   51 1  
    52   50   56 1  
    53   51   52 1  
    54   51   54 1  
    55   52   53 2  
    56   52   57 am 
    57   54   55 2  
    58   55   56 1  
    59   57   58 1  
    60   58   59 1  
    61   58   61 1  
    62   59   60 2  
    63   59   64 am 
    64   61   62 1  
    65   61   63 2  
    66   64   65 1  
    67   65   66 1  
    68   65   68 1  
    69   66   67 2  
    70   66   76 am 
    71   68   69 1  
    72   69   70 ar 
    73   69   71 ar 
    74   70   72 ar 
    75   71   73 ar 
    76   72   74 ar 
    77   73   74 ar 
    78   74   75 1  
    79   76   77 1  
    80   77   78 1  
    81   77   80 1  
    82   78   79 2  
    83   78   85 am 
    84   80   81 1  
    85   81   82 1  
    86   82   83 2  
    87   82   84 am 
    88   85   86 1  
    89   86   87 1  
    90   86   89 1  
    91   87   88 2  
    92   87   94 am 
    93   89   90 1  
    94   90   91 1  
    95   91   92 1  
    96   92   93 1  
    97   94   95 1  
    98   95   96 1  
    99   95   98 1  
   100   96   97 2  
   101   96  101 am 
   102   98   99 1  
   103   98  100 1  
   104  101  102 1  
   105  102  103 1  
   106  102  105 1  
   107  103  104 ar 
   108  105  106 1  
   109  105  107 1  
   110    1  108 1  
   111    1  109 1  
   112    1  110 1  
   113    2  111 1  
   114    5  112 1  
   115    5  113 1  
   116    6  114 1  
   117    7  115 1  
   118    8  116 1  
   119   11  117 1  
   120   12  118 1  
   121   12  119 1  
   122   13  120 1  
   123   13  121 1  
   124   13  122 1  
   125   14  123 1  
   126   14  124 1  
   127   14  125 1  
   128   15  126 1  
   129   16  127 1  
   130   19  128 1  
   131   19  129 1  
   132   22  130 1  
   133   22  131 1  
   134   23  132 1  
   135   24  133 1  
   136   27  134 1  
   137   27  135 1  
   138   29  136 1  
   139   30  137 1  
   140   31  138 1  
   141   32  139 1  
   142   33  140 1  
   143   34  141 1  
   144   35  142 1  
   145   38  143 1  
   146   38  144 1  
   147   42  145 1  
   148   43  146 1  
   149   46  147 1  
   150   46  148 1  
   151   49  149 1  
   152   49  150 1  
   153   51  151 1  
   154   54  152 1  
   155   55  153 1  
   156   56  154 1  
   157   56  155 1  
   158   57  156 1  
   159   58  157 1  
   160   62  158 1  
   161   62  159 1  
   162   62  160 1  
   163   63  161 1  
   164   63  162 1  
   165   64  163 1  
   166   65  164 1  
   167   68  165 1  
   168   68  166 1  
   169   70  167 1  
   170   71  168 1  
   171   72  169 1  
   172   73  170 1  
   173   75  171 1  
   174   76  172 1  
   175   77  173 1  
   176   80  174 1  
   177   80  175 1  
   178   81  176 1  
   179   81  177 1  
   180   84  178 1  
   181   84  179 1  
   182   85  180 1  
   183   86  181 1  
   184   89  182 1  
   185   89  183 1  
   186   90  184 1  
   187   90  185 1  
   188   91  186 1  
   189   91  187 1  
   190   92  188 1  
   191   92  189 1  
   192   93  190 1  
   193   93  191 1  
   194   93  192 1  
   195   94  193 1  
   196   95  194 1  
   197   98  195 1  
   198   99  196 1  
   199  100  197 1  
   200  100  198 1  
   201  100  199 1  
   202  101  200 1  
   203  102  201 1  
   204  103  202 ar 
   205  105  203 1  
   206  106  204 1  
   207  107  205 1  
   208  107  206 1  
   209  107  207 1  
@<TRIPOS>SUBSTRUCTURE
     1 SER         1

