3so6_ligand
  -I-interpret- 

209211  0  0  0  0  0  0  0  0999 V2000
   10.2690   62.7570    4.8290 N   0  3  0  0  0
   11.2640   62.1000    5.8200 C   0  0  0  0  0
   10.5990   61.1210    6.7780 C   0  0  0  0  0
    9.4070   61.2030    7.0730 O   0  0  0  0  0
   11.9570   63.1760    6.6910 C   0  0  0  0  0
   10.8850   63.9210    7.3220 O   0  0  0  0  0
   11.3880   60.1890    7.1970 N   0  0  0  0  0
   10.9720   59.2960    8.2180 C   0  0  0  0  0
   12.0610   59.5080    9.2440 C   0  0  0  0  0
   13.2070   59.4380    8.8970 O   0  0  0  0  0
   11.0230   57.9070    7.5650 C   0  0  0  0  0
    9.9260   57.7560    6.5130 C   0  0  0  0  0
   10.8330   56.8590    8.6290 C   0  0  0  0  0
    9.9150   56.3390    5.7650 C   0  0  0  0  0
   11.7390   59.7480   10.5030 N   0  0  0  0  0
   12.7060   60.0740   11.5590 C   0  0  0  0  0
   12.3540   59.4770   12.8770 C   0  0  0  0  0
   11.1590   59.3230   13.1340 O   0  0  0  0  0
   12.6970   61.6070   11.7550 C   0  0  0  0  0
   12.7680   62.3320   10.4420 C   0  0  0  0  0
   13.6540   62.0570    9.6530 O   0  0  0  0  0
   11.7780   63.1280   10.1570 N   0  0  0  0  0
   13.3560   59.1760   13.6870 N   0  0  0  0  0
   13.0920   58.5380   15.0110 C   0  0  0  0  0
   13.9980   59.0240   16.0500 C   0  0  0  0  0
   15.1950   59.1790   15.8100 O   0  0  0  0  0
   13.2270   57.0200   14.9640 C   0  0  0  0  0
   12.2570   56.3710   14.0130 C   0  0  0  0  0
   12.5790   56.1370   12.6850 C   0  0  0  0  0
   11.0040   55.9770   14.4850 C   0  0  0  0  0
   11.6880   55.5680   11.8180 C   0  0  0  0  0
   10.0960   55.3160   13.6110 C   0  0  0  0  0
   10.4110   55.1620   12.2570 C   0  0  0  0  0
   13.4570   59.2220   17.2450 N   0  0  0  0  0
   14.2540   59.5600   18.4180 C   0  0  0  0  0
   14.5700   58.2350   19.1530 C   0  0  0  0  0
   13.6980   57.3790   19.2450 O   0  0  0  0  0
   13.4330   60.3960   19.4130 C   0  0  0  0  0
   13.1130   61.8040   18.9780 C   0  0  0  0  0
   13.5110   62.2880   17.9160 O   0  0  0  0  0
   12.4480   62.4710   19.8120 O   0  0  0  0  0
   15.7700   58.0910   19.7370 N   0  0  0  0  0
   16.0940   56.8910   20.5010 C   0  0  0  0  0
   15.7000   57.0610   21.9770 C   0  0  0  0  0
   16.3000   57.8300   22.6730 O   0  0  0  0  0
   17.5920   56.6610   20.3970 C   0  0  0  0  0
   18.0250   55.3970   21.0900 C   0  0  0  0  0
   17.1960   54.6400   21.5830 O   0  0  0  0  0
   19.3240   55.1640   21.1910 N   0  0  0  0  0
   14.7450   56.2510   22.4560 N   0  0  0  0  0
   14.3940   56.3680   23.8740 C   0  0  0  0  0
   15.4370   55.9490   24.8360 C   0  0  0  0  0
   15.3180   56.3210   26.0170 O   0  0  0  0  0
   13.1220   55.4950   23.9860 C   0  0  0  0  0
   13.1080   54.6360   22.8810 C   0  0  0  0  0
   13.9610   55.2460   21.7480 C   0  0  0  0  0
   16.4840   55.2400   24.3810 N   0  0  0  0  0
   17.5100   54.8140   25.2830 C   0  0  0  0  0
   18.7410   55.7410   25.2030 C   0  0  0  0  0
   19.7320   55.4280   25.8460 O   0  0  0  0  0
   17.8600   53.3000   25.1050 C   0  0  0  0  0
   18.8520   52.9930   23.9320 C   0  0  0  0  0
   18.0890   52.5670   26.2940 C   0  0  0  0  0
   18.6560   56.8510   24.4620 N   0  0  0  0  0
   19.8090   57.7830   24.3860 C   0  0  0  0  0
   20.1380   58.3030   25.7930 C   0  0  0  0  0
   19.2550   58.7660   26.5820 O   0  0  0  0  0
   19.3870   58.9570   23.5160 C   0  0  0  0  0
   20.4460   60.0300   23.4510 C   0  0  0  0  0
   21.7530   59.7420   22.9910 C   0  0  0  0  0
   20.1730   61.2990   23.8990 C   0  0  0  0  0
   22.7130   60.7880   22.8980 C   0  0  0  0  0
   21.1100   62.3340   23.7920 C   0  0  0  0  0
   22.3760   62.0830   23.2960 C   0  0  0  0  0
   23.3710   63.0120   23.1510 O   0  0  0  0  0
   21.4100   58.1180   26.0960 N   0  0  0  0  0
   21.9690   58.6110   27.3720 C   0  0  0  0  0
   21.3200   57.9550   28.5930 C   0  0  0  0  0
   21.3680   58.4980   29.7340 O   0  0  0  0  0
   21.8700   60.1470   27.5100 C   0  0  0  0  0
   22.7770   60.8940   26.5930 C   0  0  0  0  0
   22.7410   62.4360   26.8780 C   0  0  0  0  0
   21.6920   63.0080   27.2890 O   0  0  0  0  0
   23.8340   63.0980   26.5610 N   0  0  0  0  0
   20.7780   56.7550   28.4320 N   0  0  0  0  0
   20.0270   56.1820   29.5930 C   0  0  0  0  0
   20.8980   55.2520   30.3410 C   0  0  0  0  0
   20.4040   54.4700   31.1780 O   0  0  0  0  0
   18.7160   55.5280   29.1340 C   0  0  0  0  0
   17.6690   56.5690   28.7330 C   0  0  0  0  0
   16.5890   56.8650   29.6760 C   0  0  0  0  0
   15.6050   57.8400   29.0950 C   0  0  0  0  0
   15.7800   59.2490   29.5640 N   0  3  0  0  0
   22.1900   55.3000   30.0600 N   0  0  0  0  0
   23.1360   54.6630   31.0220 C   0  0  0  0  0
   23.0180   55.4070   32.3710 C   0  0  0  0  0
   22.6300   56.5720   32.4790 O   0  0  0  0  0
   24.6230   54.7650   30.5600 C   0  0  0  0  0
   24.9790   56.1590   30.3480 O   0  0  0  0  0
   24.7930   53.9580   29.2950 C   0  0  0  0  0
   23.2120   54.6330   33.4150 N   0  0  0  0  0
   22.8780   55.1750   34.7220 C   0  0  0  0  0
   24.1400   55.5060   35.5080 C   0  0  0  0  0
   24.0212   55.9349   36.6868 O   0  0  0  0  0
   21.9420   54.3240   35.5380 C   0  0  0  0  0
   22.4140   52.9930   35.6050 O   0  0  0  0  0
   20.5940   54.3340   34.9820 C   0  0  0  0  0
   25.2787   55.3542   34.9903 O   0  0  0  0  0
    9.8239   62.0326    4.2656 H   0  0  0  0  0
    9.5576   63.2679    5.3519 H   0  0  0  0  0
   10.7732   63.4013    4.2199 H   0  0  0  0  0
   11.9771   61.5621    5.1953 H   0  0  0  0  0
   12.5918   63.8261    6.0890 H   0  0  0  0  0
   12.6160   62.7234    7.4319 H   0  0  0  0  0
   11.2588   64.6077    7.8791 H   0  0  0  0  0
   12.3186   60.0938    6.7904 H   0  0  0  0  0
    9.9829   59.4233    8.6581 H   0  0  0  0  0
   11.9900   57.7863    7.0767 H   0  0  0  0  0
   10.1050   58.5169    5.7533 H   0  0  0  0  0
    8.9716   57.8513    7.0308 H   0  0  0  0  0
   11.6275   56.9472    9.3701 H   0  0  0  0  0
    9.8665   57.0041    9.1116 H   0  0  0  0  0
   10.8680   55.8696    8.1730 H   0  0  0  0  0
   10.8671   56.1913    5.2553 H   0  0  0  0  0
    9.7659   55.5447    6.4964 H   0  0  0  0  0
    9.1046   56.3205    5.0363 H   0  0  0  0  0
   10.7525   59.7038   10.7584 H   0  0  0  0  0
   13.6719   59.6783   11.2450 H   0  0  0  0  0
   13.5682   61.8836   12.3489 H   0  0  0  0  0
   11.7679   61.8853   12.2525 H   0  0  0  0  0
   11.7176   63.5563    9.2332 H   0  0  0  0  0
   11.0628   63.3234   10.8575 H   0  0  0  0  0
   14.3146   59.3810   13.4053 H   0  0  0  0  0
   12.0646   58.8117   15.2509 H   0  0  0  0  0
   13.0181   56.6375   15.9631 H   0  0  0  0  0
   14.2347   56.7872   14.6199 H   0  0  0  0  0
   13.5689   56.4140   12.3224 H   0  0  0  0  0
   10.7220   56.1748   15.5191 H   0  0  0  0  0
   11.9684   55.4264   10.7742 H   0  0  0  0  0
    9.1532   54.9290   13.9975 H   0  0  0  0  0
    9.6881   54.7391   11.5593 H   0  0  0  0  0
   12.4459   59.1345   17.3469 H   0  0  0  0  0
   15.1392   60.1093   18.0974 H   0  0  0  0  0
   14.0377   60.4822   20.3158 H   0  0  0  0  0
   12.4774   59.8849   19.5302 H   0  0  0  0  0
   12.2358   61.9171   20.5668 H   0  0  0  0  0
   16.4656   58.8314   19.6453 H   0  0  0  0  0
   15.5418   56.0408   20.1006 H   0  0  0  0  0
   18.0971   57.4996   20.8763 H   0  0  0  0  0
   17.8482   56.5727   19.3412 H   0  0  0  0  0
   19.6568   54.3381   21.6885 H   0  0  0  0  0
   19.9922   55.8104   20.7714 H   0  0  0  0  0
   14.2563   57.4134   24.1501 H   0  0  0  0  0
   12.3750   55.5404   24.7785 H   0  0  0  0  0
   12.5778   53.6851   22.8286 H   0  0  0  0  0
   14.5753   54.5097   21.2297 H   0  0  0  0  0
   13.3629   55.6617   20.9371 H   0  0  0  0  0
   16.5475   55.0050   23.3905 H   0  0  0  0  0
   17.1218   54.9026   26.2977 H   0  0  0  0  0
   19.8693   53.2230   24.2486 H   0  0  0  0  0
   18.7827   51.9383   23.6659 H   0  0  0  0  0
   18.5918   53.6049   23.0683 H   0  0  0  0  0
   18.0169   53.0625   27.2622 H   0  0  0  0  0
   18.3374   51.5070   26.2415 H   0  0  0  0  0
   17.7989   57.0573   23.9490 H   0  0  0  0  0
   20.6840   57.2802   23.9741 H   0  0  0  0  0
   18.4881   59.3944   23.9504 H   0  0  0  0  0
   19.2185   58.5859   22.5051 H   0  0  0  0  0
   22.0228   58.7242   22.7094 H   0  0  0  0  0
   19.2022   61.5059   24.3494 H   0  0  0  0  0
   23.7120   60.5782   22.5158 H   0  0  0  0  0
   20.8398   63.3436   24.1016 H   0  0  0  0  0
   23.0535   63.8682   23.4471 H   0  0  0  0  0
   22.0162   57.6270   25.4389 H   0  0  0  0  0
   23.0216   58.3295   27.3433 H   0  0  0  0  0
   22.1587   60.4007   28.5300 H   0  0  0  0  0
   20.8481   60.4305   27.2580 H   0  0  0  0  0
   22.4470   60.7248   25.5680 H   0  0  0  0  0
   23.7953   60.5379   26.7493 H   0  0  0  0  0
   23.8565   64.1144   26.6431 H   0  0  0  0  0
   24.6583   62.5944   26.2333 H   0  0  0  0  0
   20.8692   56.2442   27.5538 H   0  0  0  0  0
   19.7433   56.9858   30.2723 H   0  0  0  0  0
   18.3169   54.9437   29.9631 H   0  0  0  0  0
   18.9302   54.9063   28.2647 H   0  0  0  0  0
   17.1762   56.1560   27.8529 H   0  0  0  0  0
   18.2200   57.5033   28.6253 H   0  0  0  0  0
   17.0241   57.3057   30.5730 H   0  0  0  0  0
   16.0638   55.9372   29.9027 H   0  0  0  0  0
   14.6124   57.5189   29.4110 H   0  0  0  0  0
   15.7560   57.8414   28.0155 H   0  0  0  0  0
   15.0763   59.8423   29.1244 H   0  0  0  0  0
   15.6715   59.2846   30.5776 H   0  0  0  0  0
   16.7112   59.5779   29.3088 H   0  0  0  0  0
   22.5282   55.7575   29.2134 H   0  0  0  0  0
   22.8732   53.6077   31.0954 H   0  0  0  0  0
   25.2869   54.3650   31.3263 H   0  0  0  0  0
   25.8944   56.2147   30.0641 H   0  0  0  0  0
   24.5364   52.9172   29.4923 H   0  0  0  0  0
   24.1360   54.3551   28.5212 H   0  0  0  0  0
   25.8288   54.0213   28.9616 H   0  0  0  0  0
   23.5827   53.6883   33.3124 H   0  0  0  0  0
   22.3232   56.0912   34.5198 H   0  0  0  0  0
   21.9063   54.7472   36.5419 H   0  0  0  0  0
   21.8063   52.4651   36.1281 H   0  0  0  0  0
   20.2141   55.3556   34.9718 H   0  0  0  0  0
   20.6192   53.9442   33.9644 H   0  0  0  0  0
   19.9446   53.7097   35.5957 H   0  0  0  0  0
   25.1802   55.0221   34.0950 H   0  0  0  0  0
  1  2  1  0  0  0
  2  3  1  0  0  0
  2  5  1  0  0  0
  3  4  2  0  0  0
  3  7  1  0  0  0
  5  6  1  0  0  0
  7  8  1  0  0  0
  8  9  1  0  0  0
  8 11  1  0  0  0
  9 10  2  0  0  0
  9 15  1  0  0  0
 11 12  1  0  0  0
 11 13  1  0  0  0
 12 14  1  0  0  0
 15 16  1  0  0  0
 16 17  1  0  0  0
 16 19  1  0  0  0
 17 18  2  0  0  0
 17 23  1  0  0  0
 19 20  1  0  0  0
 20 21  2  0  0  0
 20 22  1  0  0  0
 23 24  1  0  0  0
 24 25  1  0  0  0
 24 27  1  0  0  0
 25 26  2  0  0  0
 25 34  1  0  0  0
 27 28  1  0  0  0
 28 29  4  0  0  0
 28 30  4  0  0  0
 29 31  4  0  0  0
 30 32  4  0  0  0
 31 33  4  0  0  0
 32 33  4  0  0  0
 34 35  1  0  0  0
 35 36  1  0  0  0
 35 38  1  0  0  0
 36 37  2  0  0  0
 36 42  1  0  0  0
 38 39  1  0  0  0
 39 40  2  0  0  0
 39 41  1  0  0  0
 42 43  1  0  0  0
 43 44  1  0  0  0
 43 46  1  0  0  0
 44 45  2  0  0  0
 44 50  1  0  0  0
 46 47  1  0  0  0
 47 48  2  0  0  0
 47 49  1  0  0  0
 50 51  1  0  0  0
 50 56  1  0  0  0
 51 52  1  0  0  0
 51 54  1  0  0  0
 52 53  2  0  0  0
 52 57  1  0  0  0
 54 55  2  0  0  0
 55 56  1  0  0  0
 57 58  1  0  0  0
 58 59  1  0  0  0
 58 61  1  0  0  0
 59 60  2  0  0  0
 59 64  1  0  0  0
 61 62  1  0  0  0
 61 63  2  0  0  0
 64 65  1  0  0  0
 65 66  1  0  0  0
 65 68  1  0  0  0
 66 67  2  0  0  0
 66 76  1  0  0  0
 68 69  1  0  0  0
 69 70  4  0  0  0
 69 71  4  0  0  0
 70 72  4  0  0  0
 71 73  4  0  0  0
 72 74  4  0  0  0
 73 74  4  0  0  0
 74 75  1  0  0  0
 76 77  1  0  0  0
 77 78  1  0  0  0
 77 80  1  0  0  0
 78 79  2  0  0  0
 78 85  1  0  0  0
 80 81  1  0  0  0
 81 82  1  0  0  0
 82 83  2  0  0  0
 82 84  1  0  0  0
 85 86  1  0  0  0
 86 87  1  0  0  0
 86 89  1  0  0  0
 87 88  2  0  0  0
 87 94  1  0  0  0
 89 90  1  0  0  0
 90 91  1  0  0  0
 91 92  1  0  0  0
 92 93  1  0  0  0
 94 95  1  0  0  0
 95 96  1  0  0  0
 95 98  1  0  0  0
 96 97  2  0  0  0
 96101  1  0  0  0
 98 99  1  0  0  0
 98100  1  0  0  0
101102  1  0  0  0
102103  1  0  0  0
102105  1  0  0  0
103104  2  0  0  0
105106  1  0  0  0
105107  1  0  0  0
103108  1  0  0  0
  1109  1  0  0  0
  1110  1  0  0  0
  1111  1  0  0  0
  2112  1  0  0  0
  5113  1  0  0  0
  5114  1  0  0  0
  6115  1  0  0  0
  7116  1  0  0  0
  8117  1  0  0  0
 11118  1  0  0  0
 12119  1  0  0  0
 12120  1  0  0  0
 13121  1  0  0  0
 13122  1  0  0  0
 13123  1  0  0  0
 14124  1  0  0  0
 14125  1  0  0  0
 14126  1  0  0  0
 15127  1  0  0  0
 16128  1  0  0  0
 19129  1  0  0  0
 19130  1  0  0  0
 22131  1  0  0  0
 22132  1  0  0  0
 23133  1  0  0  0
 24134  1  0  0  0
 27135  1  0  0  0
 27136  1  0  0  0
 29137  1  0  0  0
 30138  1  0  0  0
 31139  1  0  0  0
 32140  1  0  0  0
 33141  1  0  0  0
 34142  1  0  0  0
 35143  1  0  0  0
 38144  1  0  0  0
 38145  1  0  0  0
 41146  1  0  0  0
 42147  1  0  0  0
 43148  1  0  0  0
 46149  1  0  0  0
 46150  1  0  0  0
 49151  1  0  0  0
 49152  1  0  0  0
 51153  1  0  0  0
 54154  1  0  0  0
 55155  1  0  0  0
 56156  1  0  0  0
 56157  1  0  0  0
 57158  1  0  0  0
 58159  1  0  0  0
 62160  1  0  0  0
 62161  1  0  0  0
 62162  1  0  0  0
 63163  1  0  0  0
 63164  1  0  0  0
 64165  1  0  0  0
 65166  1  0  0  0
 68167  1  0  0  0
 68168  1  0  0  0
 70169  1  0  0  0
 71170  1  0  0  0
 72171  1  0  0  0
 73172  1  0  0  0
 75173  1  0  0  0
 76174  1  0  0  0
 77175  1  0  0  0
 80176  1  0  0  0
 80177  1  0  0  0
 81178  1  0  0  0
 81179  1  0  0  0
 84180  1  0  0  0
 84181  1  0  0  0
 85182  1  0  0  0
 86183  1  0  0  0
 89184  1  0  0  0
 89185  1  0  0  0
 90186  1  0  0  0
 90187  1  0  0  0
 91188  1  0  0  0
 91189  1  0  0  0
 92190  1  0  0  0
 92191  1  0  0  0
 93192  1  0  0  0
 93193  1  0  0  0
 93194  1  0  0  0
 94195  1  0  0  0
 95196  1  0  0  0
 98197  1  0  0  0
 99198  1  0  0  0
100199  1  0  0  0
100200  1  0  0  0
100201  1  0  0  0
101202  1  0  0  0
102203  1  0  0  0
105204  1  0  0  0
106205  1  0  0  0
107206  1  0  0  0
107207  1  0  0  0
107208  1  0  0  0
108209  1  0  0  0
M  END
$$$$
