1ets_ligand
  -I-interpret- 

 68 71  0  0  0  0  0  0  0  0999 V2000
  -37.3520  -31.2710   47.2640 S   0  0  0  0  0
  -36.1430  -32.1060   47.6390 O   0  0  0  0  0
  -38.5750  -31.7440   48.0490 O   0  0  0  0  0
  -38.1890  -28.7440   48.0850 C   0  0  0  0  0
  -37.1270  -29.5950   47.7860 C   0  0  0  0  0
  -35.8140  -29.1890   47.9700 C   0  0  0  0  0
  -35.5410  -27.9820   48.5800 C   0  0  0  0  0
  -36.2550  -25.9070   49.4020 C   0  0  0  0  0
  -37.2690  -25.0020   49.5860 C   0  0  0  0  0
  -38.5750  -25.3700   49.3230 C   0  0  0  0  0
  -38.9180  -26.6390   48.9050 C   0  0  0  0  0
  -37.9070  -27.4960   48.5970 C   0  0  0  0  0
  -36.5890  -27.1350   48.8700 C   0  0  0  0  0
  -37.7430  -31.5420   45.7410 N   0  0  0  0  0
  -36.8040  -31.2460   44.7000 C   0  0  0  0  0
  -37.3310  -30.0430   43.9490 C   0  0  0  0  0
  -38.3210  -29.3770   44.2970 O   0  0  0  0  0
  -36.8080  -28.7550   41.9950 C   0  0  0  0  0
  -35.5080  -27.9520   41.9950 C   0  0  0  0  0
  -34.6750  -28.0830   41.1030 O   0  0  0  0  0
  -36.5780  -29.8560   42.8920 N   0  0  0  0  0
  -37.1950  -29.2680   40.6250 C   0  0  0  0  0
  -38.5810  -29.8840   40.6330 C   0  0  0  0  0
  -38.7510  -31.2500   40.7230 C   0  0  0  0  0
  -39.6770  -29.0660   40.5420 C   0  0  0  0  0
  -40.0100  -31.8040   40.7820 C   0  0  0  0  0
  -40.9350  -29.6180   40.6020 C   0  0  0  0  0
  -41.1240  -30.9810   40.7110 C   0  0  0  0  0
  -42.4130  -31.4950   40.7260 C   0  0  0  0  0
  -42.6090  -32.7600   41.1140 N   0  0  0  0  0
  -43.4470  -30.7100   40.4430 N   0  0  0  0  0
  -35.3110  -27.0940   42.9980 N   0  0  0  0  0
  -34.0690  -26.3880   43.2110 C   0  0  0  0  0
  -33.6300  -26.7280   44.6420 C   0  0  0  0  0
  -34.5750  -26.2790   45.7310 C   0  0  0  0  0
  -35.8200  -27.0390   45.3910 C   0  0  0  0  0
  -36.3370  -26.7910   43.9920 C   0  0  0  0  0
  -39.2193  -29.0582   47.9178 H   0  0  0  0  0
  -34.9957  -29.8248   47.6320 H   0  0  0  0  0
  -34.5167  -27.7037   48.8277 H   0  0  0  0  0
  -35.2254  -25.6653   49.6659 H   0  0  0  0  0
  -37.0455  -23.9952   49.9387 H   0  0  0  0  0
  -39.3642  -24.6291   49.4508 H   0  0  0  0  0
  -39.9613  -26.9442   48.8243 H   0  0  0  0  0
  -38.6594  -31.9251   45.5090 H   0  0  0  0  0
  -36.6937  -32.0983   44.0295 H   0  0  0  0  0
  -35.8203  -31.0352   45.1196 H   0  0  0  0  0
  -37.6374  -28.1191   42.3047 H   0  0  0  0  0
  -35.8137  -30.5042   42.7019 H   0  0  0  0  0
  -36.4785  -30.0339   40.3281 H   0  0  0  0  0
  -37.1942  -28.4289   39.9293 H   0  0  0  0  0
  -37.8763  -31.8999   40.7478 H   0  0  0  0  0
  -39.5528  -27.9896   40.4234 H   0  0  0  0  0
  -40.1304  -32.8825   40.8839 H   0  0  0  0  0
  -41.8051  -28.9626   40.5625 H   0  0  0  0  0
  -43.5570  -33.1278   41.1942 H   0  0  0  0  0
  -41.8105  -33.3569   41.3296 H   0  0  0  0  0
  -43.2941  -29.7278   40.2142 H   0  0  0  0  0
  -34.1983  -25.3134   43.0822 H   0  0  0  0  0
  -33.3142  -26.6884   42.4843 H   0  0  0  0  0
  -32.6880  -26.2064   44.8117 H   0  0  0  0  0
  -33.5781  -27.8151   44.7025 H   0  0  0  0  0
  -34.7211  -25.1992   45.7594 H   0  0  0  0  0
  -34.2049  -26.4816   46.7360 H   0  0  0  0  0
  -36.5956  -26.7104   46.0828 H   0  0  0  0  0
  -35.5777  -28.0995   45.4604 H   0  0  0  0  0
  -37.1978  -27.4361   43.8162 H   0  0  0  0  0
  -36.6147  -25.7409   43.9012 H   0  0  0  0  0
 15 14  1  0  0  0
 16 15  1  0  0  0
 16 17  2  0  0  0
  1  2  2  0  0  0
  1  3  2  0  0  0
  1  5  1  0  0  0
 14  1  1  0  0  0
  5  6  4  0  0  0
  6  7  4  0  0  0
  7 13  4  0  0  0
  8  9  4  0  0  0
 13  8  4  0  0  0
  9 10  4  0  0  0
 11 10  4  0  0  0
 12 11  4  0  0  0
 13 12  4  0  0  0
 18 19  1  0  0  0
 21 18  1  0  0  0
 18 22  1  0  0  0
 19 20  2  0  0  0
 19 32  1  0  0  0
 16 21  1  0  0  0
 22 23  1  0  0  0
 23 24  4  0  0  0
 23 25  4  0  0  0
 24 26  4  0  0  0
 25 27  4  0  0  0
 26 28  4  0  0  0
 27 28  4  0  0  0
 28 29  1  0  0  0
 29 30  1  0  0  0
 29 31  2  0  0  0
 32 33  1  0  0  0
 32 37  1  0  0  0
 33 34  1  0  0  0
 34 35  1  0  0  0
 35 36  1  0  0  0
 37 36  1  0  0  0
 12  4  4  0  0  0
  5  4  4  0  0  0
  4 38  1  0  0  0
  6 39  1  0  0  0
  7 40  1  0  0  0
  8 41  1  0  0  0
  9 42  1  0  0  0
 10 43  1  0  0  0
 11 44  1  0  0  0
 14 45  1  0  0  0
 15 46  1  0  0  0
 15 47  1  0  0  0
 18 48  1  0  0  0
 21 49  1  0  0  0
 22 50  1  0  0  0
 22 51  1  0  0  0
 24 52  1  0  0  0
 25 53  1  0  0  0
 26 54  1  0  0  0
 27 55  1  0  0  0
 30 56  1  0  0  0
 30 57  1  0  0  0
 31 58  1  0  0  0
 33 59  1  0  0  0
 33 60  1  0  0  0
 34 61  1  0  0  0
 34 62  1  0  0  0
 35 63  1  0  0  0
 35 64  1  0  0  0
 36 65  1  0  0  0
 36 66  1  0  0  0
 37 67  1  0  0  0
 37 68  1  0  0  0
M  END
$$$$
