3ijy_ligand
  -I-interpret- 

 64 65  0  0  0  0  0  0  0  0999 V2000
    8.5000    6.3220   79.3780 C   0  0  0  0  0
    9.3520    7.2290   79.5010 O   0  0  0  0  0
    7.7800    6.1340   78.3690 O   0  0  0  0  0
    8.3200    5.3660   80.5760 C   0  0  0  0  0
    7.1840    5.8840   81.4720 C   0  0  0  0  0
    7.0250    4.9210   82.6480 C   0  0  0  0  0
    5.9690    5.3620   83.5000 O   0  0  0  0  0
    6.6850    3.5440   82.1010 C   0  0  0  0  0
    5.4570    3.6090   81.3720 O   0  0  0  0  0
    7.8150    3.0770   81.1850 C   0  0  0  0  0
    8.0170    4.0320   80.1060 O   0  0  0  0  0
    7.5000    1.6880   80.6190 C   0  0  0  0  0
    7.2510    0.7750   81.6940 O   0  0  0  0  0
    8.6610    1.1720   79.7620 C   0  0  0  0  0
    8.3520   -0.1370   79.2570 O   0  0  0  0  0
    9.5230    5.3180   81.3590 O   0  0  0  0  0
   10.5700    4.8460   80.6300 C   0  0  0  0  0
   11.8230    4.7250   81.2060 C   0  0  0  0  0
   12.0070    5.0860   82.5440 C   0  0  0  0  0
    9.7480    0.2110   77.2900 C   0  0  0  0  0
    8.7870    0.8210   76.7740 O   0  0  0  0  0
   10.9310    0.2440   76.8920 O   0  0  0  0  0
    9.4460   -0.6780   78.5090 C   0  0  0  0  0
    9.1100   -2.0870   78.0130 C   0  0  0  0  0
    8.8380   -2.9640   79.2320 C   0  0  0  0  0
    8.5510   -4.2960   78.8140 O   0  0  0  0  0
   10.0800   -2.9810   80.1050 C   0  0  0  0  0
   11.1830   -3.4770   79.3460 O   0  0  0  0  0
   10.4050   -1.5580   80.5470 C   0  0  0  0  0
   10.6070   -0.7320   79.3690 O   0  0  0  0  0
   11.6610   -1.5880   81.4270 C   0  0  0  0  0
   11.4520   -2.4260   82.5690 O   0  0  0  0  0
   12.0530   -0.1770   81.8770 C   0  0  0  0  0
   10.9830    0.4240   82.6010 O   0  0  0  0  0
    7.2095    5.3770   78.5209 H   0  0  0  0  0
    6.2549    5.9385   80.9046 H   0  0  0  0  0
    7.4207    6.8837   81.8362 H   0  0  0  0  0
    7.9513    4.8850   83.2213 H   0  0  0  0  0
    6.1812    6.2316   83.8469 H   0  0  0  0  0
    6.5707    2.8366   82.9224 H   0  0  0  0  0
    4.7544    3.9032   81.9564 H   0  0  0  0  0
    8.7340    3.0135   81.7677 H   0  0  0  0  0
    6.6136    1.7642   79.9893 H   0  0  0  0  0
    7.0542   -0.0936   81.3356 H   0  0  0  0  0
    9.5623    1.1182   80.3726 H   0  0  0  0  0
    8.8199    1.8519   78.9250 H   0  0  0  0  0
   10.4218    4.5619   79.5882 H   0  0  0  0  0
   12.6617    4.3502   80.6194 H   0  0  0  0  0
   11.7536    6.1382   82.6733 H   0  0  0  0  0
   11.3620    4.4753   83.1758 H   0  0  0  0  0
   13.0484    4.9249   82.8225 H   0  0  0  0  0
    7.9859    0.6292   77.2669 H   0  0  0  0  0
    9.9418   -2.4915   77.4363 H   0  0  0  0  0
    8.2333   -2.0593   77.3660 H   0  0  0  0  0
    7.9871   -2.5668   79.7854 H   0  0  0  0  0
    8.3809   -4.8424   79.5848 H   0  0  0  0  0
    9.9019   -3.6155   80.9732 H   0  0  0  0  0
   11.9694   -3.4885   79.8965 H   0  0  0  0  0
    9.5849   -1.1351   81.1272 H   0  0  0  0  0
   12.4770   -1.9970   80.8312 H   0  0  0  0  0
   12.2461   -2.4338   83.1084 H   0  0  0  0  0
   12.2739    0.4291   80.9984 H   0  0  0  0  0
   12.9295   -0.2390   82.5219 H   0  0  0  0  0
   11.2409    1.3066   82.8770 H   0  0  0  0  0
  1  2  2  0  0  0
  1  3  1  0  0  0
  4  1  1  0  0  0
  4  5  1  0  0  0
 11  4  1  0  0  0
  4 16  1  0  0  0
  6  5  1  0  0  0
  6  7  1  0  0  0
  8  6  1  0  0  0
  8  9  1  0  0  0
 10  8  1  0  0  0
 10 11  1  0  0  0
 12 10  1  0  0  0
 12 13  1  0  0  0
 14 12  1  0  0  0
 15 14  1  0  0  0
 23 15  1  0  0  0
 16 17  1  0  0  0
 17 18  2  0  0  0
 18 19  1  0  0  0
 20 21  1  0  0  0
 20 22  2  0  0  0
 20 23  1  0  0  0
 23 24  1  0  0  0
 23 30  1  0  0  0
 24 25  1  0  0  0
 25 26  1  0  0  0
 25 27  1  0  0  0
 27 28  1  0  0  0
 27 29  1  0  0  0
 29 30  1  0  0  0
 29 31  1  0  0  0
 31 32  1  0  0  0
 31 33  1  0  0  0
 33 34  1  0  0  0
  3 35  1  0  0  0
  5 36  1  0  0  0
  5 37  1  0  0  0
  6 38  1  0  0  0
  7 39  1  0  0  0
  8 40  1  0  0  0
  9 41  1  0  0  0
 10 42  1  0  0  0
 12 43  1  0  0  0
 13 44  1  0  0  0
 14 45  1  0  0  0
 14 46  1  0  0  0
 17 47  1  0  0  0
 18 48  1  0  0  0
 19 49  1  0  0  0
 19 50  1  0  0  0
 19 51  1  0  0  0
 21 52  1  0  0  0
 24 53  1  0  0  0
 24 54  1  0  0  0
 25 55  1  0  0  0
 26 56  1  0  0  0
 27 57  1  0  0  0
 28 58  1  0  0  0
 29 59  1  0  0  0
 31 60  1  0  0  0
 32 61  1  0  0  0
 33 62  1  0  0  0
 33 63  1  0  0  0
 34 64  1  0  0  0
M  END
$$$$
