1onz_ligand
  -I-interpret- 

 39 41  0  0  0  0  0  0  0  0999 V2000
   35.8660   29.8950   23.2960 O   0  0  0  0  0
   34.9710   29.0780   23.5070 C   0  0  0  0  0
   33.9160   29.3710   24.3340 O   0  0  0  0  0
   34.8950   27.6600   22.8730 C   0  0  0  0  0
   34.4070   26.8030   23.6910 O   0  0  0  0  0
   34.2080   27.4370   21.5970 N   0  0  0  0  0
   34.1390   26.0780   20.9950 C   0  0  0  0  0
   32.8490   25.6860   20.3650 C   0  0  0  0  0
   32.6140   24.4070   19.7350 C   0  0  0  0  0
   33.6610   23.4220   19.6890 C   0  0  0  0  0
   34.9300   23.7190   20.2690 C   0  0  0  0  0
   35.2230   25.0330   20.9350 C   0  0  0  0  0
   36.6220   25.1500   21.4820 C   0  0  0  0  0
   37.0940   24.0660   22.1940 O   0  0  0  0  0
   37.2970   26.1320   21.3320 O   0  0  0  0  0
   33.6070   28.5670   20.9160 C   0  0  0  0  0
   32.3100   29.0750   21.3400 C   0  0  0  0  0
   31.6590   30.2050   20.6940 C   0  0  0  0  0
   32.2910   30.8740   19.5820 C   0  0  0  0  0
   33.5960   30.3930   19.1210 C   0  0  0  0  0
   34.2400   31.0480   18.0000 C   0  0  0  0  0
   35.5500   30.5870   17.5150 C   0  0  0  0  0
   36.2020   29.4790   18.1570 C   0  0  0  0  0
   37.4520   29.0260   17.7120 O   0  0  0  0  0
   35.5620   28.8250   19.2680 C   0  0  0  0  0
   34.2580   29.2510   19.7800 C   0  0  0  0  0
   33.3239   28.6165   24.3751 H   0  0  0  0  0
   32.0320   26.4073   20.3797 H   0  0  0  0  0
   31.6415   24.1883   19.2939 H   0  0  0  0  0
   33.4862   22.4563   19.2147 H   0  0  0  0  0
   35.7158   22.9647   20.2273 H   0  0  0  0  0
   36.4238   23.3788   22.2102 H   0  0  0  0  0
   31.8060   28.5891   22.1754 H   0  0  0  0  0
   30.6884   30.5482   21.0520 H   0  0  0  0  0
   31.8069   31.7204   19.0948 H   0  0  0  0  0
   33.7492   31.8899   17.5118 H   0  0  0  0  0
   36.0254   31.0851   16.6700 H   0  0  0  0  0
   37.7335   28.2846   18.2529 H   0  0  0  0  0
   36.0653   27.9838   19.7446 H   0  0  0  0  0
  1  2  2  0  0  0
  2  3  1  0  0  0
  2  4  1  0  0  0
  4  5  2  0  0  0
  4  6  1  0  0  0
  6  7  1  0  0  0
  6 16  1  0  0  0
  7  8  4  0  0  0
  7 12  4  0  0  0
  8  9  4  0  0  0
  9 10  4  0  0  0
 10 11  4  0  0  0
 11 12  4  0  0  0
 12 13  1  0  0  0
 13 14  1  0  0  0
 13 15  2  0  0  0
 16 17  4  0  0  0
 16 26  4  0  0  0
 17 18  4  0  0  0
 18 19  4  0  0  0
 19 20  4  0  0  0
 20 21  4  0  0  0
 20 26  4  0  0  0
 21 22  4  0  0  0
 22 23  4  0  0  0
 23 24  1  0  0  0
 23 25  4  0  0  0
 25 26  4  0  0  0
  3 27  1  0  0  0
  8 28  1  0  0  0
  9 29  1  0  0  0
 10 30  1  0  0  0
 11 31  1  0  0  0
 14 32  1  0  0  0
 17 33  1  0  0  0
 18 34  1  0  0  0
 19 35  1  0  0  0
 21 36  1  0  0  0
 22 37  1  0  0  0
 24 38  1  0  0  0
 25 39  1  0  0  0
M  END
$$$$
