6qdx_ligand
  -I-interpret- 

 88 93  0  0  0  0  0  0  0  0999 V2000
   10.0680    5.2380   17.1780 C   0  0  0  0  0
   14.9110    0.8100   19.5750 C   0  0  0  0  0
   10.2150    8.7280   17.5740 C   0  0  0  0  0
   11.2280    3.4120   15.7100 C   0  0  0  0  0
   13.9500   -0.1200   16.3360 C   0  0  0  0  0
   12.1920    2.4300   15.9590 C   0  0  0  0  0
   11.8050    3.5420   17.7990 C   0  0  0  0  0
   11.1120    2.7030   13.5050 C   0  0  0  0  0
   12.5990    1.5770   14.8920 C   0  0  0  0  0
   15.3990    0.1940   16.7500 C   0  0  0  0  0
   15.9090   -0.7580   17.8520 C   0  0  0  0  0
   10.9960    4.0620   16.8770 N   0  0  0  0  0
   12.5270    2.5560   17.2690 N   0  0  0  0  0
    8.7970    5.1850   17.3890 C   0  0  0  0  0
   10.7090    3.5250   14.4740 N   0  0  0  0  0
    9.7930    7.2130   17.5680 C   0  0  0  0  0
   15.4900   -1.3960   20.1590 C   0  0  0  0  0
   16.7630   -1.9480   20.8210 C   0  0  0  0  0
   16.6290   -2.2380   22.3300 C   0  0  0  0  0
   17.1640   -1.0040   23.0210 C   0  0  0  0  0
   15.4810    2.2890   19.4750 C   0  0  0  0  0
    8.5840    6.8050   17.7660 C   0  0  0  0  0
   15.6920    3.0260   20.5580 C   0  0  0  0  0
   16.7370    4.2290   19.9830 C   0  0  0  0  0
   16.8100    4.0220   18.7480 C   0  0  0  0  0
   15.4720    4.6420   16.7120 C   0  0  0  0  0
   14.3250    5.3770   16.4680 C   0  0  0  0  0
   14.6890    5.3810   18.6070 C   0  0  0  0  0
   15.7050    4.2310   14.4360 C   0  0  0  0  0
   13.9050    5.5130   15.1290 C   0  0  0  0  0
   16.1270    4.0870   15.6800 N   0  0  0  0  0
   14.6080    4.9300   14.1620 N   0  0  0  0  0
   12.7240    6.2630   14.8130 N   0  0  0  0  0
   12.0340    1.7530   13.6970 N   0  0  0  0  0
   13.6290    0.5120   15.0480 N   0  0  0  0  0
   15.8750   -0.2610   19.2570 N   0  3  0  0  0
   15.2790   -2.5570   22.7550 N   0  3  0  0  0
   15.6680    4.6680   18.0500 N   0  0  0  0  0
   13.8680    5.8150   17.6610 N   0  0  0  0  0
   10.2050    6.4900   16.2670 O   0  0  0  0  0
   11.6090    8.6070   17.8850 O   0  0  0  0  0
    7.6010    7.3700   16.8520 O   0  0  0  0  0
    7.9720    4.8970   16.2000 O   0  0  0  0  0
   18.1830   -0.4550   22.4940 O   0  0  0  0  0
   16.6050   -0.5540   24.0770 O   0  0  0  0  0
   16.7430    2.4110   18.6170 O   0  0  0  0  0
   16.3310    2.4280   21.6880 O   0  0  0  0  0
   18.0410    4.0290   20.6120 O   0  0  0  0  0
   10.5304    5.2464   18.1650 H   0  0  0  0  0
   14.1083    0.7349   18.8414 H   0  0  0  0  0
   14.6104    0.6611   20.6121 H   0  0  0  0  0
    9.6530    9.3454   18.2747 H   0  0  0  0  0
   10.0094    9.2526   16.6409 H   0  0  0  0  0
   13.2739    0.2687   17.0975 H   0  0  0  0  0
   13.8381   -1.1996   16.2363 H   0  0  0  0  0
   11.8670    3.8746   18.8352 H   0  0  0  0  0
   10.6714    2.8095   12.5137 H   0  0  0  0  0
   15.4275    1.2113   17.1405 H   0  0  0  0  0
   16.0363    0.0716   15.8742 H   0  0  0  0  0
   16.9612   -0.9322   17.6268 H   0  0  0  0  0
   15.2420   -1.6198   17.8284 H   0  0  0  0  0
    8.5110    4.4098   18.0999 H   0  0  0  0  0
   10.3302    6.9731   18.4856 H   0  0  0  0  0
   14.7962   -1.0448   20.9228 H   0  0  0  0  0
   15.0014   -2.1806   19.5812 H   0  0  0  0  0
   17.5345   -1.1858   20.7111 H   0  0  0  0  0
   16.9888   -2.8966   20.3339 H   0  0  0  0  0
   17.1896   -3.1355   22.5914 H   0  0  0  0  0
   14.5866    2.7131   19.0185 H   0  0  0  0  0
    8.2025    7.0625   18.7540 H   0  0  0  0  0
   14.7162    3.3104   20.9516 H   0  0  0  0  0
   16.4025    5.2438   20.1984 H   0  0  0  0  0
   17.7127    4.4340   18.2968 H   0  0  0  0  0
   14.5805    5.5766   19.6738 H   0  0  0  0  0
   16.2648    3.7697   13.6224 H   0  0  0  0  0
   12.1834    6.7012   15.5587 H   0  0  0  0  0
   12.4247    6.3582   13.8425 H   0  0  0  0  0
   14.1376    0.2056   14.2186 H   0  0  0  0  0
   16.8106    0.1231   19.3895 H   0  0  0  0  0
   15.2731   -2.7349   23.7593 H   0  0  0  0  0
   14.6629   -1.7719   22.5440 H   0  0  0  0  0
   14.9551   -3.3876   22.2594 H   0  0  0  0  0
   12.0046    9.4809   17.9217 H   0  0  0  0  0
    7.4704    8.2984   17.0583 H   0  0  0  0  0
    8.0727    3.9734   15.9581 H   0  0  0  0  0
   15.8578   -1.1120   24.3048 H   0  0  0  0  0
   16.4142    3.0789   22.3887 H   0  0  0  0  0
   18.6517    4.7010   20.3005 H   0  0  0  0  0
 12  1  1  0  0  0
  1 14  1  0  0  0
  1 40  1  0  0  0
 21  2  1  0  0  0
  2 36  1  0  0  0
 16  3  1  0  0  0
  3 41  1  0  0  0
  6  4  4  0  0  0
  4 12  4  0  0  0
  4 15  4  0  0  0
 10  5  1  0  0  0
  5 35  1  0  0  0
  9  6  4  0  0  0
  6 13  4  0  0  0
  7 12  4  0  0  0
 13  7  4  0  0  0
  8 15  4  0  0  0
 34  8  4  0  0  0
  9 34  4  0  0  0
 35  9  1  0  0  0
 11 10  1  0  0  0
 36 11  1  0  0  0
 14 22  1  0  0  0
 14 43  1  0  0  0
 16 22  1  0  0  0
 40 16  1  0  0  0
 17 18  1  0  0  0
 36 17  1  0  0  0
 18 19  1  0  0  0
 19 20  1  0  0  0
 19 37  1  0  0  0
 20 44  2  0  0  0
 20 45  1  0  0  0
 21 23  1  0  0  0
 46 21  1  0  0  0
 22 42  1  0  0  0
 24 23  1  0  0  0
 23 47  1  0  0  0
 25 24  1  0  0  0
 24 48  1  0  0  0
 38 25  1  0  0  0
 25 46  1  0  0  0
 26 27  4  0  0  0
 26 31  4  0  0  0
 26 38  4  0  0  0
 27 30  4  0  0  0
 27 39  4  0  0  0
 38 28  4  0  0  0
 28 39  4  0  0  0
 31 29  4  0  0  0
 29 32  4  0  0  0
 30 32  4  0  0  0
 30 33  1  0  0  0
  1 49  1  0  0  0
  2 50  1  0  0  0
  2 51  1  0  0  0
  3 52  1  0  0  0
  3 53  1  0  0  0
  5 54  1  0  0  0
  5 55  1  0  0  0
  7 56  1  0  0  0
  8 57  1  0  0  0
 10 58  1  0  0  0
 10 59  1  0  0  0
 11 60  1  0  0  0
 11 61  1  0  0  0
 14 62  1  0  0  0
 16 63  1  0  0  0
 17 64  1  0  0  0
 17 65  1  0  0  0
 18 66  1  0  0  0
 18 67  1  0  0  0
 19 68  1  0  0  0
 21 69  1  0  0  0
 22 70  1  0  0  0
 23 71  1  0  0  0
 24 72  1  0  0  0
 25 73  1  0  0  0
 28 74  1  0  0  0
 29 75  1  0  0  0
 33 76  1  0  0  0
 33 77  1  0  0  0
 35 78  1  0  0  0
 36 79  1  0  0  0
 37 80  1  0  0  0
 37 81  1  0  0  0
 37 82  1  0  0  0
 41 83  1  0  0  0
 42 84  1  0  0  0
 43 85  1  0  0  0
 45 86  1  0  0  0
 47 87  1  0  0  0
 48 88  1  0  0  0
M  END
$$$$
