3s9i_ligand
  -I-interpret- 

 24 24  0  0  0  0  0  0  0  0999 V2000
   37.0450   81.5890   62.2570 O   0  0  0  0  0
   36.7450   81.1160   63.5100 C   0  0  0  0  0
   37.8880   80.7300   64.4290 C   0  0  0  0  0
   39.0230   80.7700   63.8900 O   0  0  0  0  0
   37.7370   80.5010   65.6470 O   0  0  0  0  0
   35.7410   79.8490   63.6930 C   0  0  0  0  0
   35.1210   79.2050   62.5670 C   0  0  0  0  0
   34.1810   78.0320   62.6080 C   0  0  0  0  0
   33.0560   78.0140   61.6160 C   0  0  0  0  0
   32.1300   76.8370   61.6410 C   0  0  0  0  0
   32.3260   75.7430   62.5840 C   0  0  0  0  0
   33.3810   75.7330   63.5500 C   0  0  0  0  0
   34.3660   76.9210   63.5720 C   0  0  0  0  0
   35.3860   79.6470   61.4580 O   0  0  0  0  0
   37.6464   82.3334   62.3327 H   0  0  0  0  0
   36.2605   82.0556   63.7754 H   0  0  0  0  0
   38.9249   80.9583   62.9538 H   0  0  0  0  0
   34.8998   80.2646   64.2477 H   0  0  0  0  0
   36.3796   79.0727   64.1146 H   0  0  0  0  0
   32.9175   78.8272   60.9035 H   0  0  0  0  0
   31.2948   76.7979   60.9417 H   0  0  0  0  0
   31.6397   74.8968   62.5518 H   0  0  0  0  0
   33.4866   74.9068   64.2531 H   0  0  0  0  0
   35.1878   76.9429   64.2877 H   0  0  0  0  0
  1  2  1  0  0  0
  2  3  1  0  0  0
  2  6  1  0  0  0
  3  4  1  0  0  0
  3  5  2  0  0  0
  6  7  1  0  0  0
  7  8  1  0  0  0
  7 14  2  0  0  0
  8  9  4  0  0  0
  8 13  4  0  0  0
  9 10  4  0  0  0
 10 11  4  0  0  0
 11 12  4  0  0  0
 12 13  4  0  0  0
  1 15  1  0  0  0
  2 16  1  0  0  0
  4 17  1  0  0  0
  6 18  1  0  0  0
  6 19  1  0  0  0
  9 20  1  0  0  0
 10 21  1  0  0  0
 11 22  1  0  0  0
 12 23  1  0  0  0
 13 24  1  0  0  0
M  END
$$$$
