3gyn_ligand
  -I-interpret- 

 70 73  0  0  0  0  0  0  0  0999 V2000
   95.8800    7.0940   63.7860 O   0  0  0  0  0
   96.4120    8.3350   64.3280 S   0  0  0  0  0
   95.9970    8.7650   65.6400 O   0  0  0  0  0
   98.1850    8.2380   64.4260 C   0  0  0  0  0
   96.2480    9.6440   63.2180 N   0  0  0  0  0
   96.0730    9.4350   61.8080 C   0  0  0  0  0
   95.3600   10.3820   61.0690 C   0  0  0  0  0
   96.6090    8.3140   61.1530 C   0  0  0  0  0
   96.4260    8.1500   59.7730 C   0  0  0  0  0
   97.0830    6.7200   58.9770 S   0  0  0  0  0
   98.4090    6.4840   59.4990 O   0  0  0  0  0
   96.0370    5.7210   59.1000 O   0  0  0  0  0
   97.1570    7.2590   57.3750 N   0  0  0  0  0
   96.3400    8.3230   56.9020 C   0  0  0  0  0
   95.4890    8.9840   57.6300 N   0  0  0  0  0
   95.7040    9.0870   59.0170 C   0  0  0  0  0
   95.1820   10.2130   59.6880 C   0  0  0  0  0
   96.5490    8.6450   55.4730 C   0  0  0  0  0
   97.1590    7.6460   54.5120 C   0  0  0  0  0
   97.0210    6.4350   54.7100 O   0  0  0  0  0
   97.8450    8.1930   53.4260 N   0  0  0  0  0
   98.5510    7.3160   52.4870 C   0  0  0  0  0
   99.9500    7.7820   52.0590 C   0  0  0  0  0
  100.0940    7.3780   50.5910 C   0  0  0  0  0
   97.7500    7.0720   51.2080 C   0  0  0  0  0
   98.6740    7.3720   50.0330 C   0  0  0  0  0
   97.8630    9.6430   53.1890 C   0  0  0  0  0
   96.5530   10.3410   53.6060 C   0  0  0  0  0
   96.7950   11.8730   53.5220 C   0  0  0  0  0
   96.1980    9.8690   55.0180 C   0  0  0  0  0
   95.5090   10.7900   55.7900 O   0  0  0  0  0
   95.4340    9.9230   52.6220 C   0  0  0  0  0
   94.0570   10.4720   52.9820 C   0  0  0  0  0
   92.8980    9.7250   52.3000 C   0  0  0  0  0
   91.5600   10.1440   52.9050 C   0  0  0  0  0
   92.9020    9.9870   50.7860 C   0  0  0  0  0
   98.4669    7.4098   65.0762 H   0  0  0  0  0
   98.5943    8.0746   63.4291 H   0  0  0  0  0
   98.5767    9.1704   64.8326 H   0  0  0  0  0
   96.2762   10.5991   63.5748 H   0  0  0  0  0
   94.9403   11.2557   61.5675 H   0  0  0  0  0
   97.1687    7.5696   61.7193 H   0  0  0  0  0
   97.8059    6.8082   56.7300 H   0  0  0  0  0
   94.6307   10.9648   59.1233 H   0  0  0  0  0
   98.6671    6.4031   53.0712 H   0  0  0  0  0
  100.7252    7.3244   52.6736 H   0  0  0  0  0
  100.0653    8.8583   52.1868 H   0  0  0  0  0
  100.5691    6.4024   50.4885 H   0  0  0  0  0
  100.7360    8.0700   50.0459 H   0  0  0  0  0
   96.8699    7.7144   51.1779 H   0  0  0  0  0
   97.3983    6.0411   51.1662 H   0  0  0  0  0
   98.5653    6.6225   49.2491 H   0  0  0  0  0
   98.4288    8.3317   49.5782 H   0  0  0  0  0
   97.9965    9.8018   52.1189 H   0  0  0  0  0
   98.6689   10.0664   53.7885 H   0  0  0  0  0
   97.6061   12.1489   54.1958 H   0  0  0  0  0
   97.0625   12.1418   52.5001 H   0  0  0  0  0
   95.8856   12.3996   53.8113 H   0  0  0  0  0
   95.3619   11.5887   55.2781 H   0  0  0  0  0
   95.3669    8.8354   52.6507 H   0  0  0  0  0
   95.6969   10.3239   51.6431 H   0  0  0  0  0
   94.0204   11.5082   52.6459 H   0  0  0  0  0
   93.9309   10.3573   54.0586 H   0  0  0  0  0
   93.0360    8.6568   52.4674 H   0  0  0  0  0
   91.5547    9.9096   53.9695 H   0  0  0  0  0
   91.4202   11.2162   52.7671 H   0  0  0  0  0
   90.7534    9.6043   52.4088 H   0  0  0  0  0
   92.7902   11.0557   50.6032 H   0  0  0  0  0
   93.8443    9.6411   50.3612 H   0  0  0  0  0
   92.0743    9.4494   50.3233 H   0  0  0  0  0
  1  2  2  0  0  0
  2  3  2  0  0  0
  2  4  1  0  0  0
  2  5  1  0  0  0
  5  6  1  0  0  0
  6  7  4  0  0  0
  6  8  4  0  0  0
  7 17  4  0  0  0
  8  9  4  0  0  0
  9 10  1  0  0  0
  9 16  4  0  0  0
 10 11  2  0  0  0
 10 12  2  0  0  0
 10 13  1  0  0  0
 13 14  1  0  0  0
 14 15  2  0  0  0
 14 18  1  0  0  0
 15 16  1  0  0  0
 16 17  4  0  0  0
 18 19  1  0  0  0
 18 30  2  0  0  0
 19 20  2  0  0  0
 19 21  1  0  0  0
 21 22  1  0  0  0
 21 27  1  0  0  0
 22 23  1  0  0  0
 22 25  1  0  0  0
 23 24  1  0  0  0
 24 26  1  0  0  0
 25 26  1  0  0  0
 27 28  1  0  0  0
 28 29  1  0  0  0
 28 30  1  0  0  0
 28 32  1  0  0  0
 30 31  1  0  0  0
 32 33  1  0  0  0
 33 34  1  0  0  0
 34 35  1  0  0  0
 34 36  1  0  0  0
  4 37  1  0  0  0
  4 38  1  0  0  0
  4 39  1  0  0  0
  5 40  1  0  0  0
  7 41  1  0  0  0
  8 42  1  0  0  0
 13 43  1  0  0  0
 17 44  1  0  0  0
 22 45  1  0  0  0
 23 46  1  0  0  0
 23 47  1  0  0  0
 24 48  1  0  0  0
 24 49  1  0  0  0
 25 50  1  0  0  0
 25 51  1  0  0  0
 26 52  1  0  0  0
 26 53  1  0  0  0
 27 54  1  0  0  0
 27 55  1  0  0  0
 29 56  1  0  0  0
 29 57  1  0  0  0
 29 58  1  0  0  0
 31 59  1  0  0  0
 32 60  1  0  0  0
 32 61  1  0  0  0
 33 62  1  0  0  0
 33 63  1  0  0  0
 34 64  1  0  0  0
 35 65  1  0  0  0
 35 66  1  0  0  0
 35 67  1  0  0  0
 36 68  1  0  0  0
 36 69  1  0  0  0
 36 70  1  0  0  0
M  END
$$$$
