3fn0_ligand
  -I-interpret- 

153157  0  0  0  0  0  0  0  0999 V2000
   66.8600   27.3070   40.6160 N   0  3  0  0  0
   65.8630   28.1890   41.2350 C   0  0  0  0  0
   66.4580   29.1230   42.2840 C   0  0  0  0  0
   65.8470   30.1280   42.6550 O   0  0  0  0  0
   64.7570   27.3640   41.8990 C   0  0  0  0  0
   65.2670   26.1000   42.5070 C   0  0  0  0  0
   65.8170   25.9520   43.7410 C   0  0  0  0  0
   65.2760   24.7970   41.9050 C   0  0  0  0  0
   66.1570   24.6460   43.9520 N   0  0  0  0  0
   65.8480   23.9140   42.8370 C   0  0  0  0  0
   64.8480   24.2930   40.6750 C   0  0  0  0  0
   65.9980   22.5490   42.5870 C   0  0  0  0  0
   65.0110   22.9130   40.4160 C   0  0  0  0  0
   65.5800   22.0710   41.3690 C   0  0  0  0  0
   67.6600   28.7860   42.7880 N   0  0  0  0  0
   68.1870   29.5200   43.9310 C   0  0  0  0  0
   68.7470   30.9120   43.5930 C   0  0  0  0  0
   68.8100   31.7670   44.4630 O   0  0  0  0  0
   69.2650   28.7060   44.6550 C   0  0  0  0  0
   68.6800   27.6460   45.5610 C   0  0  0  0  0
   67.7580   27.9080   46.3870 O   0  0  0  0  0
   69.2240   26.4300   45.4380 N   0  0  0  0  0
   69.1020   31.1360   42.3370 N   0  0  0  0  0
   69.7860   32.3680   41.9330 C   0  0  0  0  0
   69.0220   33.1840   40.9080 C   0  0  0  0  0
   69.2230   34.3830   40.8290 O   0  0  0  0  0
   71.2090   32.0610   41.3880 C   0  0  0  0  0
   71.9980   31.2880   42.3770 C   0  0  0  0  0
   72.2080   29.9370   42.4010 C   0  0  0  0  0
   72.6100   31.8040   43.5420 C   0  0  0  0  0
   72.9170   29.5900   43.5070 N   0  0  0  0  0
   73.1760   30.7210   44.2300 C   0  0  0  0  0
   72.7360   33.0800   44.0750 C   0  0  0  0  0
   73.8640   30.8770   45.4170 C   0  0  0  0  0
   73.4180   33.2300   45.2510 C   0  0  0  0  0
   73.9680   32.1380   45.9150 C   0  0  0  0  0
   68.1410   32.5270   40.1500 N   0  0  0  0  0
   67.3210   33.1570   39.1300 C   0  0  0  0  0
   65.8670   32.7060   39.3810 C   0  0  0  0  0
   65.5980   31.5040   39.5510 O   0  0  0  0  0
   67.7690   32.8080   37.6850 C   0  0  0  0  0
   69.1880   33.2410   37.3710 C   0  0  0  0  0
   69.4790   34.5840   37.1600 C   0  0  0  0  0
   70.2170   32.3310   37.3840 C   0  0  0  0  0
   70.8010   35.0360   36.9360 C   0  0  0  0  0
   71.5320   32.7450   37.1190 C   0  0  0  0  0
   71.8290   34.1070   36.9060 C   0  0  0  0  0
   64.9500   33.6750   39.4110 N   0  0  0  0  0
   63.5420   33.4290   39.8050 C   0  0  0  0  0
   62.7920   32.5060   38.8420 C   0  0  0  0  0
   62.4610   32.8680   37.7180 O   0  0  0  0  0
   62.8140   34.7720   40.0090 C   0  0  0  0  0
   61.4400   34.6210   40.7280 C   0  0  0  0  0
   60.9010   33.5130   40.7190 O   0  0  0  0  0
   60.9790   35.6070   41.3370 O   0  0  0  0  0
   62.5190   31.2980   39.3050 N   0  0  0  0  0
   61.7830   30.3160   38.5260 C   0  0  0  0  0
   60.3530   30.7300   38.1040 C   0  0  0  0  0
   59.7530   30.0760   37.2410 O   0  0  0  0  0
   61.8010   28.9330   39.2270 C   0  0  0  0  0
   61.4960   27.7930   38.2630 C   0  0  0  0  0
   60.7860   28.8590   40.3690 C   0  0  0  0  0
   61.3590   26.4110   38.9950 C   0  0  0  0  0
   59.8170   31.8100   38.6960 N   0  0  0  0  0
   58.4460   32.2520   38.3790 C   0  0  0  0  0
   58.4100   33.4030   37.3600 C   0  0  0  0  0
   57.3510   33.9530   37.0920 O   0  0  0  0  0
   57.7030   32.6960   39.6530 C   0  0  0  0  0
   58.2250   33.9370   40.1370 O   0  0  0  0  0
   57.8460   31.6320   40.7190 C   0  0  0  0  0
   59.5700   33.7780   36.8090 N   0  0  0  0  0
   59.6230   34.6500   35.6150 C   0  0  0  0  0
   59.3870   33.8920   34.3090 C   0  0  0  0  0
   59.4330   32.6610   34.2760 O   0  0  0  0  0
   60.9620   35.3780   35.4750 C   0  0  0  0  0
   61.2690   36.2630   36.6400 C   0  0  0  0  0
   60.4630   36.4060   37.5520 O   0  0  0  0  0
   62.4630   36.8590   36.6330 N   0  0  0  0  0
   59.1840   34.6470   33.2280 N   0  0  0  0  0
   58.9160   34.0770   31.9060 C   0  0  0  0  0
   60.1460   34.0680   30.9900 C   0  0  0  0  0
   60.8630   35.0670   30.8600 O   0  0  0  0  0
   57.7670   34.8330   31.2360 C   0  0  0  0  0
   67.5879   27.8725   40.1793 H   0  0  0  0  0
   67.2749   26.7100   41.3314 H   0  0  0  0  0
   66.4074   26.7279   39.9087 H   0  0  0  0  0
   65.4617   28.7989   40.4257 H   0  0  0  0  0
   64.0318   27.0967   41.1304 H   0  0  0  0  0
   64.3225   27.9672   42.6962 H   0  0  0  0  0
   65.9654   26.7589   44.4586 H   0  0  0  0  0
   64.3979   24.9497   39.9306 H   0  0  0  0  0
   66.4325   21.8843   43.3337 H   0  0  0  0  0
   64.6877   22.5028   39.4593 H   0  0  0  0  0
   65.6959   21.0109   41.1434 H   0  0  0  0  0
   68.1967   28.0240   42.3736 H   0  0  0  0  0
   67.3257   29.6784   44.5800 H   0  0  0  0  0
   69.8465   29.3915   45.2715 H   0  0  0  0  0
   69.8719   28.2056   43.9004 H   0  0  0  0  0
   68.8972   25.6632   46.0259 H   0  0  0  0  0
   69.9656   26.2696   44.7563 H   0  0  0  0  0
   68.8934   30.4308   41.6302 H   0  0  0  0  0
   69.8522   32.9709   42.8386 H   0  0  0  0  0
   71.7201   33.0034   41.1909 H   0  0  0  0  0
   71.1157   31.4716   40.4758 H   0  0  0  0  0
   71.8569   29.2384   41.6416 H   0  0  0  0  0
   72.3017   33.9417   43.5682 H   0  0  0  0  0
   74.3054   30.0246   45.9334 H   0  0  0  0  0
   73.5331   34.2266   45.6773 H   0  0  0  0  0
   74.4944   32.2970   46.8561 H   0  0  0  0  0
   68.0376   31.5228   40.2959 H   0  0  0  0  0
   67.4227   34.2397   39.2049 H   0  0  0  0  0
   67.1059   33.3360   36.9997 H   0  0  0  0  0
   67.7266   31.7237   37.5815 H   0  0  0  0  0
   68.6655   35.3095   37.1673 H   0  0  0  0  0
   70.0115   31.2828   37.6010 H   0  0  0  0  0
   71.0072   36.0963   36.7896 H   0  0  0  0  0
   72.3320   32.0058   37.0774 H   0  0  0  0  0
   72.8548   34.4253   36.7200 H   0  0  0  0  0
   65.2285   34.6217   39.1528 H   0  0  0  0  0
   63.5579   32.8898   40.7522 H   0  0  0  0  0
   62.6266   35.1996   39.0240 H   0  0  0  0  0
   63.4477   35.3999   40.6353 H   0  0  0  0  0
   61.5584   36.3613   41.2074 H   0  0  0  0  0
   62.8359   31.0464   40.2413 H   0  0  0  0  0
   62.3202   30.2483   37.5800 H   0  0  0  0  0
   62.8126   28.8228   39.6178 H   0  0  0  0  0
   62.3219   27.7195   37.5554 H   0  0  0  0  0
   60.5471   28.0106   37.7728 H   0  0  0  0  0
   61.0202   29.6218   41.1115 H   0  0  0  0  0
   59.7842   29.0295   39.9746 H   0  0  0  0  0
   60.8328   27.8732   40.8317 H   0  0  0  0  0
   62.2925   26.1787   39.5076 H   0  0  0  0  0
   60.5479   26.4648   39.7212 H   0  0  0  0  0
   61.1418   25.6334   38.2627 H   0  0  0  0  0
   60.3676   32.3335   39.3766 H   0  0  0  0  0
   57.9499   31.3890   37.9348 H   0  0  0  0  0
   56.6492   32.8349   39.4116 H   0  0  0  0  0
   57.7493   34.1955   40.9298 H   0  0  0  0  0
   57.4191   30.6968   40.3567 H   0  0  0  0  0
   58.9021   31.4868   40.9463 H   0  0  0  0  0
   57.3195   31.9485   41.6194 H   0  0  0  0  0
   60.4433   33.4533   37.2242 H   0  0  0  0  0
   58.8182   35.3667   35.7783 H   0  0  0  0  0
   60.9076   36.0059   34.5857 H   0  0  0  0  0
   61.7461   34.6232   35.4151 H   0  0  0  0  0
   62.7363   37.4625   37.4085 H   0  0  0  0  0
   63.1023   36.7110   35.8521 H   0  0  0  0  0
   59.2168   35.6617   33.3262 H   0  0  0  0  0
   58.6381   33.0348   32.0633 H   0  0  0  0  0
   60.3940   33.1598   30.4407 H   0  0  0  0  0
   56.8715   34.7506   31.8519 H   0  0  0  0  0
   58.0392   35.8828   31.1270 H   0  0  0  0  0
   57.5746   34.4023   30.2534 H   0  0  0  0  0
  1  2  1  0  0  0
  2  3  1  0  0  0
  2  5  1  0  0  0
  3  4  2  0  0  0
  3 15  1  0  0  0
  5  6  1  0  0  0
  6  7  4  0  0  0
  6  8  4  0  0  0
  7  9  4  0  0  0
  8 10  4  0  0  0
  8 11  4  0  0  0
  9 10  4  0  0  0
 10 12  4  0  0  0
 11 13  4  0  0  0
 12 14  4  0  0  0
 13 14  4  0  0  0
 15 16  1  0  0  0
 16 17  1  0  0  0
 16 19  1  0  0  0
 17 18  2  0  0  0
 17 23  1  0  0  0
 19 20  1  0  0  0
 20 21  2  0  0  0
 20 22  1  0  0  0
 23 24  1  0  0  0
 24 25  1  0  0  0
 24 27  1  0  0  0
 25 26  2  0  0  0
 25 37  1  0  0  0
 27 28  1  0  0  0
 28 29  4  0  0  0
 28 30  4  0  0  0
 29 31  4  0  0  0
 30 32  4  0  0  0
 30 33  4  0  0  0
 31 32  4  0  0  0
 32 34  4  0  0  0
 33 35  4  0  0  0
 34 36  4  0  0  0
 35 36  4  0  0  0
 37 38  1  0  0  0
 38 39  1  0  0  0
 38 41  1  0  0  0
 39 40  2  0  0  0
 39 48  1  0  0  0
 41 42  1  0  0  0
 42 43  4  0  0  0
 42 44  4  0  0  0
 43 45  4  0  0  0
 44 46  4  0  0  0
 45 47  4  0  0  0
 46 47  4  0  0  0
 48 49  1  0  0  0
 49 50  1  0  0  0
 49 52  1  0  0  0
 50 51  2  0  0  0
 50 56  1  0  0  0
 52 53  1  0  0  0
 53 54  2  0  0  0
 53 55  1  0  0  0
 56 57  1  0  0  0
 57 58  1  0  0  0
 57 60  1  0  0  0
 58 59  2  0  0  0
 58 64  1  0  0  0
 60 61  1  0  0  0
 60 62  1  0  0  0
 61 63  1  0  0  0
 64 65  1  0  0  0
 65 66  1  0  0  0
 65 68  1  0  0  0
 66 67  2  0  0  0
 66 71  1  0  0  0
 68 69  1  0  0  0
 68 70  1  0  0  0
 71 72  1  0  0  0
 72 73  1  0  0  0
 72 75  1  0  0  0
 73 74  2  0  0  0
 73 79  1  0  0  0
 75 76  1  0  0  0
 76 77  2  0  0  0
 76 78  1  0  0  0
 79 80  1  0  0  0
 80 81  1  0  0  0
 80 83  1  0  0  0
 81 82  2  0  0  0
  1 84  1  0  0  0
  1 85  1  0  0  0
  1 86  1  0  0  0
  2 87  1  0  0  0
  5 88  1  0  0  0
  5 89  1  0  0  0
  7 90  1  0  0  0
 11 91  1  0  0  0
 12 92  1  0  0  0
 13 93  1  0  0  0
 14 94  1  0  0  0
 15 95  1  0  0  0
 16 96  1  0  0  0
 19 97  1  0  0  0
 19 98  1  0  0  0
 22 99  1  0  0  0
 22100  1  0  0  0
 23101  1  0  0  0
 24102  1  0  0  0
 27103  1  0  0  0
 27104  1  0  0  0
 29105  1  0  0  0
 33106  1  0  0  0
 34107  1  0  0  0
 35108  1  0  0  0
 36109  1  0  0  0
 37110  1  0  0  0
 38111  1  0  0  0
 41112  1  0  0  0
 41113  1  0  0  0
 43114  1  0  0  0
 44115  1  0  0  0
 45116  1  0  0  0
 46117  1  0  0  0
 47118  1  0  0  0
 48119  1  0  0  0
 49120  1  0  0  0
 52121  1  0  0  0
 52122  1  0  0  0
 55123  1  0  0  0
 56124  1  0  0  0
 57125  1  0  0  0
 60126  1  0  0  0
 61127  1  0  0  0
 61128  1  0  0  0
 62129  1  0  0  0
 62130  1  0  0  0
 62131  1  0  0  0
 63132  1  0  0  0
 63133  1  0  0  0
 63134  1  0  0  0
 64135  1  0  0  0
 65136  1  0  0  0
 68137  1  0  0  0
 69138  1  0  0  0
 70139  1  0  0  0
 70140  1  0  0  0
 70141  1  0  0  0
 71142  1  0  0  0
 72143  1  0  0  0
 75144  1  0  0  0
 75145  1  0  0  0
 78146  1  0  0  0
 78147  1  0  0  0
 79148  1  0  0  0
 80149  1  0  0  0
 81150  1  0  0  0
 83151  1  0  0  0
 83152  1  0  0  0
 83153  1  0  0  0
M  END
$$$$
