### 
### Created by X-TOOL on Mon Sep 10 21:13:01 2018
### 

@<TRIPOS>MOLECULE
3fn0_ligand
  154   158     1     0     0
SMALL
GAST_HUCK


@<TRIPOS>ATOM
      1 N          66.8600   27.3070   40.6160 N.4       1 TRP         0.2388
      2 CA         65.8630   28.1890   41.2350 C.3       1 TRP         0.0691
      3 C          66.4580   29.1230   42.2840 C.2       1 TRP         0.2281
      4 O          65.8470   30.1280   42.6550 O.2       1 TRP        -0.3906
      5 CB         64.7570   27.3640   41.8990 C.3       1 TRP         0.0245
      6 CG         65.2670   26.1000   42.5070 C.2       1 TRP        -0.0386
      7 CD1        65.8170   25.9520   43.7410 C.2       1 TRP         0.0168
      8 CD2        65.2760   24.7970   41.9050 C.ar      1 TRP        -0.0213
      9 NE1        66.1570   24.6460   43.9520 N.pl3     1 TRP        -0.2890
     10 CE2        65.8480   23.9140   42.8370 C.ar      1 TRP         0.0603
     11 CE3        64.8480   24.2930   40.6750 C.ar      1 TRP        -0.0747
     12 CZ2        65.9980   22.5490   42.5870 C.ar      1 TRP        -0.0443
     13 CZ3        65.0110   22.9130   40.4160 C.ar      1 TRP        -0.0792
     14 CH2        65.5800   22.0710   41.3690 C.ar      1 TRP        -0.0768
     15 N          67.6600   28.7860   42.7880 N.am      1 ASN        -0.2588
     16 CA         68.1870   29.5200   43.9310 C.3       1 ASN         0.1477
     17 C          68.7470   30.9120   43.5930 C.2       1 ASN         0.2063
     18 O          68.8100   31.7670   44.4630 O.2       1 ASN        -0.3942
     19 CB         69.2650   28.7060   44.6550 C.3       1 ASN         0.0773
     20 CG         68.6800   27.6460   45.5610 C.2       1 ASN         0.1780
     21 OD1        67.7580   27.9080   46.3870 O.2       1 ASN        -0.3970
     22 ND2        69.2240   26.4300   45.4380 N.am      1 ASN        -0.3007
     23 N          69.1020   31.1360   42.3370 N.am      1 TRP        -0.2625
     24 CA         69.7860   32.3680   41.9330 C.3       1 TRP         0.1352
     25 C          69.0220   33.1840   40.9080 C.2       1 TRP         0.2053
     26 O          69.2230   34.3830   40.8290 O.2       1 TRP        -0.3942
     27 CB         71.2090   32.0610   41.3880 C.3       1 TRP         0.0042
     28 CG         71.9980   31.2880   42.3770 C.2       1 TRP        -0.0418
     29 CD1        72.2080   29.9370   42.4010 C.2       1 TRP         0.0167
     30 CD2        72.6100   31.8040   43.5420 C.ar      1 TRP        -0.0214
     31 NE1        72.9170   29.5900   43.5070 N.pl3     1 TRP        -0.2890
     32 CE2        73.1760   30.7210   44.2300 C.ar      1 TRP         0.0603
     33 CE3        72.7360   33.0800   44.0750 C.ar      1 TRP        -0.0747
     34 CZ2        73.8640   30.8770   45.4170 C.ar      1 TRP        -0.0443
     35 CZ3        73.4180   33.2300   45.2510 C.ar      1 TRP        -0.0792
     36 CH2        73.9680   32.1380   45.9150 C.ar      1 TRP        -0.0768
     37 N          68.1410   32.5270   40.1500 N.am      1 PHE        -0.2618
     38 CA         67.3210   33.1570   39.1300 C.3       1 PHE         0.1404
     39 C          65.8670   32.7060   39.3810 C.2       1 PHE         0.2060
     40 O          65.5980   31.5040   39.5510 O.2       1 PHE        -0.3942
     41 CB         67.7690   32.8080   37.6850 C.3       1 PHE         0.0214
     42 CG         69.1880   33.2410   37.3710 C.ar      1 PHE        -0.0386
     43 CD1        69.4790   34.5840   37.1600 C.ar      1 PHE        -0.0601
     44 CD2        70.2170   32.3310   37.3840 C.ar      1 PHE        -0.0601
     45 CE1        70.8010   35.0360   36.9360 C.ar      1 PHE        -0.0686
     46 CE2        71.5320   32.7450   37.1190 C.ar      1 PHE        -0.0686
     47 CZ         71.8290   34.1070   36.9060 C.ar      1 PHE        -0.0687
     48 N          64.9500   33.6750   39.4110 N.am      1 ASP        -0.2620
     49 CA         63.5420   33.4290   39.8050 C.3       1 ASP         0.1423
     50 C          62.7920   32.5060   38.8420 C.2       1 ASP         0.2056
     51 O          62.4610   32.8680   37.7180 O.2       1 ASP        -0.3943
     52 CB         62.8140   34.7720   40.0090 C.3       1 ASP         0.0406
     53 CG         61.4400   34.6210   40.7280 C.2       1 ASP         0.0393
     54 OD1        60.9010   33.5130   40.7190 O.co2     1 ASP        -0.5688
     55 OD2        60.9790   35.6070   41.3370 O.co2     1 ASP        -0.5688
     56 N          62.5190   31.2980   39.3050 N.am      1 ILE        -0.2634
     57 CA         61.7830   30.3160   38.5260 C.3       1 ILE         0.1335
     58 C          60.3530   30.7300   38.1040 C.2       1 ILE         0.2042
     59 O          59.7530   30.0760   37.2410 O.2       1 ILE        -0.3944
     60 CB         61.8010   28.9330   39.2270 C.3       1 ILE        -0.0037
     61 CG1        61.4960   27.7930   38.2630 C.3       1 ILE        -0.0491
     62 CG2        60.7860   28.8590   40.3690 C.3       1 ILE        -0.0582
     63 CD1        61.3590   26.4110   38.9950 C.3       1 ILE        -0.0648
     64 N          59.8170   31.8100   38.6960 N.am      1 THR        -0.2613
     65 CA         58.4460   32.2520   38.3790 C.3       1 THR         0.1565
     66 C          58.4100   33.4030   37.3600 C.2       1 THR         0.2066
     67 O          57.3510   33.9530   37.0920 O.2       1 THR        -0.3943
     68 CB         57.7030   32.6960   39.6530 C.3       1 THR         0.0924
     69 OG1        58.2250   33.9370   40.1370 O.3       1 THR        -0.3874
     70 CG2        57.8460   31.6320   40.7190 C.3       1 THR        -0.0346
     71 N          59.5700   33.7780   36.8090 N.am      1 ASN        -0.2615
     72 CA         59.6230   34.6500   35.6150 C.3       1 ASN         0.1476
     73 C          59.3870   33.8920   34.3090 C.2       1 ASN         0.2063
     74 O          59.4330   32.6610   34.2760 O.2       1 ASN        -0.3942
     75 CB         60.9620   35.3780   35.4750 C.3       1 ASN         0.0773
     76 CG         61.2690   36.2630   36.6400 C.2       1 ASN         0.1780
     77 OD1        60.4630   36.4060   37.5520 O.2       1 ASN        -0.3970
     78 ND2        62.4630   36.8590   36.6330 N.am      1 ASN        -0.3007
     79 N          59.1840   34.6470   33.2280 N.am      1 LYS        -0.2651
     80 CA         58.9160   34.0770   31.9060 C.3       1 LYS         0.1100
     81 C          60.1460   34.0680   30.9900 C.2       1 LYS         0.1242
     82 O          60.8630   35.0670   30.8600 O.2       1 LYS        -0.3725
     83 CB         57.7670   34.8330   31.2360 C.3       1 LYS        -0.0257
     84 H1         66.4092   26.7163   39.9348 H         1 TRP         0.2016
     85 H2         67.2889   26.7343   41.3260 H         1 TRP         0.2016
     86 H3         67.5664   27.8647   40.1621 H         1 TRP         0.2016
     87 H4         65.4172   28.8039   40.4393 H         1 TRP         0.1114
     88 H5         64.0033   27.1098   41.1392 H         1 TRP         0.0430
     89 H6         64.2910   27.9713   42.6889 H         1 TRP         0.0430
     90 H7         65.9652   26.7582   44.4580 H         1 TRP         0.0795
     91 H8         66.5790   24.2712   44.8136 H         1 TRP         0.2216
     92 H9         64.4003   24.9461   39.9347 H         1 TRP         0.0540
     93 H10        66.4301   21.8880   43.3295 H         1 TRP         0.0541
     94 H11        64.6895   22.5050   39.4646 H         1 TRP         0.0510
     95 H12        65.6952   21.0167   41.1446 H         1 TRP         0.0530
     96 H13        68.1862   28.0390   42.3817 H         1 ASN         0.1886
     97 H14        67.3494   29.6675   44.6286 H         1 ASN         0.0826
     98 H15        69.8758   29.3906   45.2618 H         1 ASN         0.0551
     99 H16        69.9010   28.2156   43.9033 H         1 ASN         0.0551
    100 H17        68.8920   25.6743   46.0025 H         1 ASN         0.1814
    101 H18        69.9626   26.2768   44.7815 H         1 ASN         0.1814
    102 H19        68.8975   30.4446   41.6440 H         1 TRP         0.1884
    103 H20        69.8939   32.9889   42.8346 H         1 TRP         0.0815
    104 H21        71.7259   33.0086   41.1762 H         1 TRP         0.0397
    105 H22        71.1212   31.4759   40.4607 H         1 TRP         0.0397
    106 H23        71.8572   29.2390   41.6422 H         1 TRP         0.0795
    107 H24        73.2101   28.6351   43.7584 H         1 TRP         0.2216
    108 H25        72.3040   33.9370   43.5709 H         1 TRP         0.0540
    109 H26        74.3030   30.0293   45.9306 H         1 TRP         0.0541
    110 H27        73.5325   34.2211   45.6749 H         1 TRP         0.0510
    111 H28        74.4915   32.2961   46.8509 H         1 TRP         0.0530
    112 H29        68.0396   31.5425   40.2930 H         1 PHE         0.1885
    113 H30        67.3859   34.2485   39.2499 H         1 PHE         0.0823
    114 H31        67.0885   33.3069   36.9793 H         1 PHE         0.0474
    115 H32        67.7001   31.7182   37.5526 H         1 PHE         0.0474
    116 H33        68.6700   35.3055   37.1673 H         1 PHE         0.0557
    117 H34        70.0127   31.2885   37.5999 H         1 PHE         0.0557
    118 H35        71.0061   36.0904   36.7904 H         1 PHE         0.0599
    119 H36        72.3276   32.0099   37.0777 H         1 PHE         0.0599
    120 H37        72.8491   34.4235   36.7210 H         1 PHE         0.0559
    121 H38        65.2231   34.6031   39.1579 H         1 ASP         0.1884
    122 H39        63.5638   32.9171   40.7784 H         1 ASP         0.0819
    123 H40        62.6447   35.2313   39.0239 H         1 ASP         0.0478
    124 H41        63.4554   35.4291   40.6147 H         1 ASP         0.0478
    125 H42        62.8296   31.0514   40.2230 H         1 ILE         0.1883
    126 H43        62.3444   30.1978   37.5875 H         1 ILE         0.0803
    127 H44        62.8084   28.7808   39.6418 H         1 ILE         0.0345
    128 H45        62.3115   27.7241   37.5280 H         1 ILE         0.0267
    129 H46        60.5516   28.0127   37.7435 H         1 ILE         0.0267
    130 H47        60.9796   29.6715   41.0848 H         1 ILE         0.0235
    131 H48        60.8796   27.8897   40.8805 H         1 ILE         0.0235
    132 H49        59.7690   28.9627   39.9630 H         1 ILE         0.0235
    133 H50        61.1398   25.6253   38.2570 H         1 ILE         0.0230
    134 H51        60.5407   26.4639   39.7282 H         1 ILE         0.0230
    135 H52        62.3005   26.1753   39.5127 H         1 ILE         0.0230
    136 H53        60.3568   32.3233   39.3632 H         1 THR         0.1884
    137 H54        57.9111   31.3946   37.9446 H         1 THR         0.0826
    138 H55        56.6368   32.8270   39.4161 H         1 THR         0.0639
    139 H56        59.1475   33.8339   40.3393 H         1 THR         0.2101
    140 H57        57.3150   31.9503   41.6282 H         1 THR         0.0257
    141 H58        58.9114   31.4845   40.9493 H         1 THR         0.0257
    142 H59        57.4155   30.6876   40.3546 H         1 THR         0.0257
    143 H60        60.4261   33.4596   37.2160 H         1 ASN         0.1885
    144 H61        58.8287   35.4028   35.7261 H         1 ASN         0.0826
    145 H62        60.9326   35.9945   34.5645 H         1 ASN         0.0551
    146 H63        61.7613   34.6278   35.3843 H         1 ASN         0.0551
    147 H64        62.7248   37.4628   37.3859 H         1 ASN         0.1814
    148 H65        63.0959   36.7018   35.8749 H         1 ASN         0.1814
    149 H66        59.2161   35.6418   33.3243 H         1 LYS         0.1884
    150 H67        58.6025   33.0327   32.0512 H         1 LYS         0.0787
    151 H68        60.3937   33.1606   30.4412 H         1 LYS         0.1373
    152 H69        57.5718   34.3993   30.2441 H         1 LYS         0.0278
    153 H70        58.0405   35.8927   31.1254 H         1 LYS         0.0278
    154 H71        56.8626   34.7505   31.8566 H         1 LYS         0.0278
@<TRIPOS>BOND
     1    1    2 1  
     2    2    3 1  
     3    2    5 1  
     4    3    4 2  
     5    3   15 am 
     6    5    6 1  
     7    6    7 2  
     8    6    8 1  
     9    7    9 1  
    10    8   10 ar 
    11    8   11 ar 
    12    9   10 1  
    13   10   12 ar 
    14   11   13 ar 
    15   12   14 ar 
    16   13   14 ar 
    17   15   16 1  
    18   16   17 1  
    19   16   19 1  
    20   17   18 2  
    21   17   23 am 
    22   19   20 1  
    23   20   21 2  
    24   20   22 am 
    25   23   24 1  
    26   24   25 1  
    27   24   27 1  
    28   25   26 2  
    29   25   37 am 
    30   27   28 1  
    31   28   29 2  
    32   28   30 1  
    33   29   31 1  
    34   30   32 ar 
    35   30   33 ar 
    36   31   32 1  
    37   32   34 ar 
    38   33   35 ar 
    39   34   36 ar 
    40   35   36 ar 
    41   37   38 1  
    42   38   39 1  
    43   38   41 1  
    44   39   40 2  
    45   39   48 am 
    46   41   42 1  
    47   42   43 ar 
    48   42   44 ar 
    49   43   45 ar 
    50   44   46 ar 
    51   45   47 ar 
    52   46   47 ar 
    53   48   49 1  
    54   49   50 1  
    55   49   52 1  
    56   50   51 2  
    57   50   56 am 
    58   52   53 1  
    59   53   54 ar 
    60   53   55 ar 
    61   56   57 1  
    62   57   58 1  
    63   57   60 1  
    64   58   59 2  
    65   58   64 am 
    66   60   61 1  
    67   60   62 1  
    68   61   63 1  
    69   64   65 1  
    70   65   66 1  
    71   65   68 1  
    72   66   67 2  
    73   66   71 am 
    74   68   69 1  
    75   68   70 1  
    76   71   72 1  
    77   72   73 1  
    78   72   75 1  
    79   73   74 2  
    80   73   79 am 
    81   75   76 1  
    82   76   77 2  
    83   76   78 am 
    84   79   80 1  
    85   80   81 1  
    86   80   83 1  
    87   81   82 2  
    88    1   84 1  
    89    1   85 1  
    90    1   86 1  
    91    2   87 1  
    92    5   88 1  
    93    5   89 1  
    94    7   90 1  
    95    9   91 1  
    96   11   92 1  
    97   12   93 1  
    98   13   94 1  
    99   14   95 1  
   100   15   96 1  
   101   16   97 1  
   102   19   98 1  
   103   19   99 1  
   104   22  100 1  
   105   22  101 1  
   106   23  102 1  
   107   24  103 1  
   108   27  104 1  
   109   27  105 1  
   110   29  106 1  
   111   31  107 1  
   112   33  108 1  
   113   34  109 1  
   114   35  110 1  
   115   36  111 1  
   116   37  112 1  
   117   38  113 1  
   118   41  114 1  
   119   41  115 1  
   120   43  116 1  
   121   44  117 1  
   122   45  118 1  
   123   46  119 1  
   124   47  120 1  
   125   48  121 1  
   126   49  122 1  
   127   52  123 1  
   128   52  124 1  
   129   56  125 1  
   130   57  126 1  
   131   60  127 1  
   132   61  128 1  
   133   61  129 1  
   134   62  130 1  
   135   62  131 1  
   136   62  132 1  
   137   63  133 1  
   138   63  134 1  
   139   63  135 1  
   140   64  136 1  
   141   65  137 1  
   142   68  138 1  
   143   69  139 1  
   144   70  140 1  
   145   70  141 1  
   146   70  142 1  
   147   71  143 1  
   148   72  144 1  
   149   75  145 1  
   150   75  146 1  
   151   78  147 1  
   152   78  148 1  
   153   79  149 1  
   154   80  150 1  
   155   81  151 1  
   156   83  152 1  
   157   83  153 1  
   158   83  154 1  
@<TRIPOS>SUBSTRUCTURE
     1 TRP         1

