4wko_ligand
  -I-interpret- 

 49 51  0  0  0  0  0  0  0  0999 V2000
  -39.7660  -43.6330   17.4330 C   0  0  0  0  0
  -39.9670  -42.2300   17.2750 O   0  0  0  0  0
  -38.5790  -44.0430   16.5820 C   0  0  0  0  0
  -38.8410  -43.9300   15.0770 C   0  0  0  0  0
  -37.7190  -44.6750   14.3600 C   0  0  0  0  0
  -37.9440  -44.8530   12.6160 S   0  0  0  0  0
  -36.6250  -45.9320   12.1770 C   0  0  0  0  0
  -35.2700  -45.2190   12.1260 C   0  0  0  0  0
  -34.1620  -46.2560   12.0980 C   0  0  0  0  0
  -35.0770  -44.4360   10.8450 C   0  0  0  0  0
  -34.0400  -43.4560   10.9550 O   0  0  0  0  0
  -34.6000  -45.4910    9.8710 C   0  0  0  0  0
  -33.6150  -46.2050   10.7180 N   0  3  0  0  0
  -33.2430  -47.5050   10.1520 C   0  0  0  0  0
  -34.1880  -48.6710   10.2950 C   0  0  0  0  0
  -34.0580  -49.7450   11.1860 C   0  0  0  0  0
  -35.0720  -50.6460   11.0070 N   0  0  0  0  0
  -35.8960  -50.2440   10.0250 C   0  0  0  0  0
  -35.3920  -48.9830    9.5070 C   0  0  0  0  0
  -36.0130  -48.3160    8.5040 N   0  0  0  0  0
  -37.1390  -48.8450    7.9660 C   0  0  0  0  0
  -37.6930  -50.0160    8.3940 N   0  0  0  0  0
  -37.1310  -50.7500    9.3910 C   0  0  0  0  0
  -37.6800  -51.9240    9.8130 N   0  0  0  0  0
  -40.6571  -44.1761   17.1182 H   0  0  0  0  0
  -39.5742  -43.8676   18.4800 H   0  0  0  0  0
  -40.7160  -41.9532   17.8079 H   0  0  0  0  0
  -38.3641  -45.0891   16.8003 H   0  0  0  0  0
  -37.7546  -43.3719   16.8231 H   0  0  0  0  0
  -38.8612  -42.8841   14.7707 H   0  0  0  0  0
  -39.8088  -44.3633   14.8246 H   0  0  0  0  0
  -37.6883  -45.6806   14.7794 H   0  0  0  0  0
  -36.8094  -44.0918   14.5039 H   0  0  0  0  0
  -36.8328  -46.3273   11.1827 H   0  0  0  0  0
  -36.5643  -46.7123   12.9357 H   0  0  0  0  0
  -35.2418  -44.5600   12.9938 H   0  0  0  0  0
  -34.5351  -47.2497   12.3460 H   0  0  0  0  0
  -33.3946  -46.0445   12.8426 H   0  0  0  0  0
  -35.9882  -43.9069   10.5660 H   0  0  0  0  0
  -33.9549  -42.9869   10.1218 H   0  0  0  0  0
  -34.1882  -45.0919    8.9440 H   0  0  0  0  0
  -35.3924  -46.1251    9.4735 H   0  0  0  0  0
  -32.7271  -45.7040   10.7504 H   0  0  0  0  0
  -32.3499  -47.8021   10.7018 H   0  0  0  0  0
  -33.1762  -47.3316    9.0780 H   0  0  0  0  0
  -33.2592  -49.8483   11.9204 H   0  0  0  0  0
  -37.6257  -48.3086    7.1515 H   0  0  0  0  0
  -37.2383  -52.4521   10.5656 H   0  0  0  0  0
  -38.5325  -52.2744    9.3762 H   0  0  0  0  0
  1  2  1  0  0  0
  1  3  1  0  0  0
  3  4  1  0  0  0
  4  5  1  0  0  0
  5  6  1  0  0  0
  6  7  1  0  0  0
  7  8  1  0  0  0
  8  9  1  0  0  0
  8 10  1  0  0  0
  9 13  1  0  0  0
 10 11  1  0  0  0
 10 12  1  0  0  0
 12 13  1  0  0  0
 13 14  1  0  0  0
 14 15  1  0  0  0
 15 16  4  0  0  0
 15 19  4  0  0  0
 16 17  4  0  0  0
 17 18  4  0  0  0
 18 19  4  0  0  0
 18 23  4  0  0  0
 19 20  4  0  0  0
 20 21  4  0  0  0
 21 22  4  0  0  0
 22 23  4  0  0  0
 23 24  1  0  0  0
  1 25  1  0  0  0
  1 26  1  0  0  0
  2 27  1  0  0  0
  3 28  1  0  0  0
  3 29  1  0  0  0
  4 30  1  0  0  0
  4 31  1  0  0  0
  5 32  1  0  0  0
  5 33  1  0  0  0
  7 34  1  0  0  0
  7 35  1  0  0  0
  8 36  1  0  0  0
  9 37  1  0  0  0
  9 38  1  0  0  0
 10 39  1  0  0  0
 11 40  1  0  0  0
 12 41  1  0  0  0
 12 42  1  0  0  0
 13 43  1  0  0  0
 14 44  1  0  0  0
 14 45  1  0  0  0
 16 46  1  0  0  0
 21 47  1  0  0  0
 24 48  1  0  0  0
 24 49  1  0  0  0
M  END
$$$$
