4zyq_ligand
  -I-interpret- 

 52 53  0  0  0  0  0  0  0  0999 V2000
  177.1560   18.9770   84.9970 C   0  0  0  0  0
  177.7890   17.6380   84.6190 C   0  0  0  0  0
  178.4290   16.9970   85.8530 C   0  0  0  0  0
  178.8690   17.8610   83.5640 C   0  0  0  0  0
  176.7180   16.7010   84.0500 C   0  0  0  0  0
  176.5980   16.5400   82.8360 O   0  0  0  0  0
  175.9460   16.0940   84.9620 N   0  0  0  0  0
  174.9000   15.1320   84.5790 C   0  0  0  0  0
  174.8270   14.0360   85.6520 C   0  0  0  0  0
  174.5370   14.3020   86.8170 O   0  0  0  0  0
  175.1330   12.8050   85.2200 N   0  0  0  0  0
  175.0990   11.7600   86.1790 O   0  0  0  0  0
  173.6550   15.7410   84.3980 C   0  0  0  0  0
  172.6720   15.0550   83.6930 C   0  0  0  0  0
  171.4280   15.6350   83.4950 C   0  0  0  0  0
  173.3870   17.0100   84.9000 C   0  0  0  0  0
  172.1390   17.5920   84.7010 C   0  0  0  0  0
  171.1590   16.9040   83.9960 C   0  0  0  0  0
  169.9000   17.4650   83.7940 C   0  0  0  0  0
  169.6040   18.7410   84.2600 C   0  0  0  0  0
  168.9240   16.7310   83.1300 C   0  0  0  0  0
  167.6590   17.2650   82.9230 C   0  0  0  0  0
  167.3620   18.5390   83.3850 C   0  0  0  0  0
  168.3340   19.2740   84.0510 C   0  0  0  0  0
  168.0250   20.5470   84.5070 C   0  0  0  0  0
  166.7430   20.8620   84.6610 N   0  0  0  0  0
  169.0310   21.3950   84.7620 N   0  0  0  0  0
  168.6700   22.7150   85.2320 O   0  0  0  0  0
  176.7126   19.4309   84.1107 H   0  0  0  0  0
  176.3833   18.8130   85.7481 H   0  0  0  0  0
  177.9224   19.6386   85.4008 H   0  0  0  0  0
  177.6628   16.8209   86.6080 H   0  0  0  0  0
  178.8883   16.0494   85.5717 H   0  0  0  0  0
  179.1900   17.6659   86.2549 H   0  0  0  0  0
  179.3204   16.9046   83.3001 H   0  0  0  0  0
  178.4217   18.3101   82.6772 H   0  0  0  0  0
  179.6336   18.5271   83.9638 H   0  0  0  0  0
  176.0874   16.3048   85.9499 H   0  0  0  0  0
  175.1643   14.6958   83.6157 H   0  0  0  0  0
  175.3791   12.6274   84.2462 H   0  0  0  0  0
  175.3344   10.9311   85.7558 H   0  0  0  0  0
  172.8793   14.0613   83.2960 H   0  0  0  0  0
  170.6582   15.0941   82.9446 H   0  0  0  0  0
  174.1569   17.5502   85.4509 H   0  0  0  0  0
  171.9305   18.5857   85.0974 H   0  0  0  0  0
  170.3618   19.3214   84.7862 H   0  0  0  0  0
  169.1534   15.7284   82.7690 H   0  0  0  0  0
  166.9005   16.6841   82.3983 H   0  0  0  0  0
  166.3698   18.9613   83.2259 H   0  0  0  0  0
  166.0198   20.1758   84.4456 H   0  0  0  0  0
  170.0052   21.1227   84.6309 H   0  0  0  0  0
  169.4667   23.2298   85.3798 H   0  0  0  0  0
  1  2  1  0  0  0
  2  3  1  0  0  0
  2  4  1  0  0  0
  2  5  1  0  0  0
  5  6  2  0  0  0
  5  7  1  0  0  0
  7  8  1  0  0  0
  8  9  1  0  0  0
  8 13  1  0  0  0
  9 10  2  0  0  0
  9 11  1  0  0  0
 11 12  1  0  0  0
 13 14  4  0  0  0
 13 16  4  0  0  0
 14 15  4  0  0  0
 15 18  4  0  0  0
 16 17  4  0  0  0
 17 18  4  0  0  0
 18 19  1  0  0  0
 19 20  4  0  0  0
 19 21  4  0  0  0
 20 24  4  0  0  0
 21 22  4  0  0  0
 22 23  4  0  0  0
 23 24  4  0  0  0
 24 25  1  0  0  0
 25 26  2  0  0  0
 25 27  1  0  0  0
 27 28  1  0  0  0
  1 29  1  0  0  0
  1 30  1  0  0  0
  1 31  1  0  0  0
  3 32  1  0  0  0
  3 33  1  0  0  0
  3 34  1  0  0  0
  4 35  1  0  0  0
  4 36  1  0  0  0
  4 37  1  0  0  0
  7 38  1  0  0  0
  8 39  1  0  0  0
 11 40  1  0  0  0
 12 41  1  0  0  0
 14 42  1  0  0  0
 15 43  1  0  0  0
 16 44  1  0  0  0
 17 45  1  0  0  0
 20 46  1  0  0  0
 21 47  1  0  0  0
 22 48  1  0  0  0
 23 49  1  0  0  0
 26 50  1  0  0  0
 27 51  1  0  0  0
 28 52  1  0  0  0
M  END
$$$$
