1tyr_ligand
  -I-interpret- 

 50 50  0  0  0  0  0  0  0  0999 V2000
   21.1250   44.8670   56.3000 C   0  0  0  0  0
   21.0640   44.8520   54.7650 C   0  0  0  0  0
   21.8290   43.8200   54.1250 C   0  0  0  0  0
   21.3650   42.4230   54.4980 C   0  0  0  0  0
   21.2650   42.2620   55.9990 C   0  0  0  0  0
   21.1480   43.3550   56.8520 C   0  0  0  0  0
   20.8830   43.2370   58.3190 C   0  0  0  0  0
   21.8190   42.8930   59.4220 C   0  0  0  0  0
   21.6130   42.7170   60.8320 C   0  0  0  0  0
   22.7110   42.3640   61.5560 C   0  0  0  0  0
   22.7780   42.0890   62.9770 C   0  0  0  0  0
   23.9030   41.6130   63.5760 C   0  0  0  0  0
   25.1260   41.2590   62.8690 C   0  0  0  0  0
   26.1860   40.7930   63.5780 C   0  0  0  0  0
   26.9420   41.6530   64.4760 C   0  0  0  0  0
   19.8900   45.6480   56.8120 C   0  0  0  0  0
   22.3920   45.6070   56.7440 C   0  0  0  0  0
   21.4330   40.7950   56.4030 C   0  0  0  0  0
   20.1770   42.8650   61.3760 C   0  0  0  0  0
   25.0830   41.2160   61.2950 C   0  0  0  0  0
   26.6160   41.8320   65.8480 O   0  0  0  0  0
   28.0260   42.5200   64.5280 O   0  0  0  0  0
   21.4818   45.8010   54.4290 H   0  0  0  0  0
   20.0220   44.6761   54.4980 H   0  0  0  0  0
   22.8647   43.9242   54.4483 H   0  0  0  0  0
   21.7073   43.9347   53.0479 H   0  0  0  0  0
   22.0898   41.7028   54.1185 H   0  0  0  0  0
   20.3792   42.2564   54.0639 H   0  0  0  0  0
   19.8547   43.4313   58.6239 H   0  0  0  0  0
   22.8506   42.7478   59.1014 H   0  0  0  0  0
   23.6466   42.2785   61.0032 H   0  0  0  0  0
   21.8943   42.2702   63.5888 H   0  0  0  0  0
   23.8879   41.4881   64.6587 H   0  0  0  0  0
   26.4781   39.7482   63.4719 H   0  0  0  0  0
   19.9239   45.7062   57.8999 H   0  0  0  0  0
   19.8985   46.6541   56.3926 H   0  0  0  0  0
   18.9813   45.1317   56.5026 H   0  0  0  0  0
   22.3892   46.6132   56.3249 H   0  0  0  0  0
   22.4147   45.6653   57.8322 H   0  0  0  0  0
   23.2698   45.0668   56.3895 H   0  0  0  0  0
   22.3458   40.6828   56.9881 H   0  0  0  0  0
   20.5763   40.4837   57.0006 H   0  0  0  0  0
   21.4962   40.1776   55.5069 H   0  0  0  0  0
   19.8479   41.9132   61.7928 H   0  0  0  0  0
   20.1614   43.6285   62.1537 H   0  0  0  0  0
   19.5107   43.1575   60.5644 H   0  0  0  0  0
   25.9150   41.7950   60.8941 H   0  0  0  0  0
   25.1627   40.1822   60.9587 H   0  0  0  0  0
   24.1417   41.6411   60.9468 H   0  0  0  0  0
   25.8481   41.2985   66.0655 H   0  0  0  0  0
  1  2  1  0  0  0
  1  6  1  0  0  0
  1 16  1  0  0  0
  1 17  1  0  0  0
  2  3  1  0  0  0
  3  4  1  0  0  0
  4  5  1  0  0  0
  5  6  2  0  0  0
  5 18  1  0  0  0
  6  7  1  0  0  0
  7  8  2  0  0  0
  8  9  1  0  0  0
  9 10  2  0  0  0
  9 19  1  0  0  0
 10 11  1  0  0  0
 11 12  2  0  0  0
 12 13  1  0  0  0
 13 14  2  0  0  0
 13 20  1  0  0  0
 14 15  1  0  0  0
 15 21  1  0  0  0
 15 22  2  0  0  0
  2 23  1  0  0  0
  2 24  1  0  0  0
  3 25  1  0  0  0
  3 26  1  0  0  0
  4 27  1  0  0  0
  4 28  1  0  0  0
  7 29  1  0  0  0
  8 30  1  0  0  0
 10 31  1  0  0  0
 11 32  1  0  0  0
 12 33  1  0  0  0
 14 34  1  0  0  0
 16 35  1  0  0  0
 16 36  1  0  0  0
 16 37  1  0  0  0
 17 38  1  0  0  0
 17 39  1  0  0  0
 17 40  1  0  0  0
 18 41  1  0  0  0
 18 42  1  0  0  0
 18 43  1  0  0  0
 19 44  1  0  0  0
 19 45  1  0  0  0
 19 46  1  0  0  0
 20 47  1  0  0  0
 20 48  1  0  0  0
 20 49  1  0  0  0
 21 50  1  0  0  0
M  END
$$$$
