4hso_ligand
  -I-interpret- 

 25 25  0  0  0  0  0  0  0  0999 V2000
   -9.5790  -76.7530  -20.0880 N   0  3  0  0  0
  -10.0500  -78.0280  -19.3990 C   0  0  0  0  0
   -9.4040  -79.2800  -19.9860 C   0  0  0  0  0
   -9.3370  -80.3620  -19.3770 O   0  0  0  0  0
  -11.5910  -78.2320  -19.5020 C   0  0  0  0  0
  -12.4230  -77.1450  -18.8620 C   0  0  0  0  0
  -12.5640  -77.0660  -17.4800 C   0  0  0  0  0
  -13.0710  -76.1870  -19.6550 C   0  0  0  0  0
  -13.3270  -76.0580  -16.8930 C   0  0  0  0  0
  -13.8320  -75.1790  -19.0860 C   0  0  0  0  0
  -13.9640  -75.1100  -17.7120 C   0  0  0  0  0
  -14.7110  -74.0730  -17.1860 O   0  0  0  0  0
   -8.9840  -79.2470  -21.1380 O   0  0  0  0  0
   -8.5671  -76.6692  -19.9906 H   0  0  0  0  0
   -9.8244  -76.7920  -21.0773 H   0  0  0  0  0
  -10.0313  -75.9474  -19.6557 H   0  0  0  0  0
   -9.7540  -77.8959  -18.3583 H   0  0  0  0  0
   -9.6956  -80.2532  -18.4932 H   0  0  0  0  0
  -11.8220  -79.1572  -18.9741 H   0  0  0  0  0
  -11.8380  -78.2336  -20.5636 H   0  0  0  0  0
  -12.0704  -77.8034  -16.8470 H   0  0  0  0  0
  -12.9741  -76.2364  -20.7396 H   0  0  0  0  0
  -13.4287  -76.0055  -15.8090 H   0  0  0  0  0
  -14.3253  -74.4424  -19.7201 H   0  0  0  0  0
  -15.0617  -73.5377  -17.9016 H   0  0  0  0  0
  1  2  1  0  0  0
  2  3  1  0  0  0
  2  5  1  0  0  0
  3  4  1  0  0  0
  3 13  2  0  0  0
  5  6  1  0  0  0
  6  7  4  0  0  0
  6  8  4  0  0  0
  7  9  4  0  0  0
  8 10  4  0  0  0
  9 11  4  0  0  0
 10 11  4  0  0  0
 11 12  1  0  0  0
  1 14  1  0  0  0
  1 15  1  0  0  0
  1 16  1  0  0  0
  2 17  1  0  0  0
  4 18  1  0  0  0
  5 19  1  0  0  0
  5 20  1  0  0  0
  7 21  1  0  0  0
  8 22  1  0  0  0
  9 23  1  0  0  0
 10 24  1  0  0  0
 12 25  1  0  0  0
M  END
$$$$
