6d1g_ligand
  -I-interpret- 

 28 29  0  0  0  0  0  0  0  0999 V2000
   49.5960   14.8520   42.9670 C   0  0  0  0  0
   49.6330   13.6940   43.9590 C   0  0  0  0  0
   50.3530   12.5510   43.6670 C   0  0  0  0  0
   50.3750   11.5200   44.5880 C   0  0  0  0  0
   49.6750   11.6250   45.8230 C   0  0  0  0  0
   49.5980   10.6180   46.8640 C   0  0  0  0  0
   50.0990    9.1750   46.6470 C   0  0  0  0  0
   48.8530   10.8560   47.9860 C   0  0  0  0  0
   48.2240   12.0700   48.1740 C   0  0  0  0  0
   48.9740   12.8050   46.0900 C   0  0  0  0  0
   48.9330   13.8280   45.1290 C   0  0  0  0  0
   48.0970    8.6670   44.8410 O   0  0  0  0  0
   47.7800    8.0180   47.3070 O   0  0  0  0  0
   49.3520    6.6810   45.7910 O   0  0  0  0  0
   47.6710   12.3370   49.1370 O   0  0  0  0  0
   48.2690   12.9830   47.2270 O   0  0  0  0  0
   48.7370    8.1140   46.1060 P   0  0  0  0  0
   51.4210   10.0330   43.9450 Br  0  0  0  0  0
   50.6093   15.2165   42.7980 H   0  0  0  0  0
   49.1704   14.5078   42.0244 H   0  0  0  0  0
   48.9820   15.6563   43.3721 H   0  0  0  0  0
   50.8950   12.4637   42.7254 H   0  0  0  0  0
   50.4983    8.7914   47.5859 H   0  0  0  0  0
   50.8742    9.1783   45.8807 H   0  0  0  0  0
   48.7547   10.0766   48.7417 H   0  0  0  0  0
   48.3452   14.7272   45.3136 H   0  0  0  0  0
   48.2523    7.6627   48.0635 H   0  0  0  0  0
   49.7576    6.3264   46.5856 H   0  0  0  0  0
  1  2  1  0  0  0
  2  3  4  0  0  0
  2 11  4  0  0  0
  3  4  4  0  0  0
  4  5  4  0  0  0
  4 18  1  0  0  0
  5  6  1  0  0  0
  5 10  4  0  0  0
  6  7  1  0  0  0
  6  8  2  0  0  0
  7 17  1  0  0  0
  8  9  1  0  0  0
  9 15  2  0  0  0
  9 16  1  0  0  0
 10 11  4  0  0  0
 10 16  1  0  0  0
 17 12  2  0  0  0
 17 13  1  0  0  0
 17 14  1  0  0  0
  1 19  1  0  0  0
  1 20  1  0  0  0
  1 21  1  0  0  0
  3 22  1  0  0  0
  7 23  1  0  0  0
  7 24  1  0  0  0
  8 25  1  0  0  0
 11 26  1  0  0  0
 13 27  1  0  0  0
 14 28  1  0  0  0
M  END
$$$$
