### 
### Created by X-TOOL on Mon Aug  2 16:12:52 2021
### 

@<TRIPOS>MOLECULE
6d1g_ligand
   26    27     1     0     0
SMALL
GAST_HUCK


@<TRIPOS>ATOM
      1 C01        49.5960   14.8520   42.9670 C.3       1 YKG        -0.0301
      2 C02        49.6330   13.6940   43.9590 C.ar      1 YKG        -0.0448
      3 C03        50.3530   12.5510   43.6670 C.ar      1 YKG        -0.0541
      4 C04        50.3750   11.5200   44.5880 C.ar      1 YKG         0.0160
      5 C06        49.6750   11.6250   45.8230 C.ar      1 YKG         0.0364
      6 C07        49.5980   10.6180   46.8640 C.2       1 YKG        -0.0080
      7 C08        50.0990    9.1750   46.6470 C.3       1 YKG         0.0592
      8 C13        48.8530   10.8560   47.9860 C.2       1 YKG         0.0119
      9 C14        48.2240   12.0700   48.1740 C.2       1 YKG         0.2477
     10 C17        48.9740   12.8050   46.0900 C.ar      1 YKG         0.1386
     11 C18        48.9330   13.8280   45.1290 C.ar      1 YKG        -0.0163
     12 O10        48.0970    8.6670   44.8410 O.co2     1 YKG        -0.5604
     13 O11        47.7800    8.0180   47.3070 O.co2     1 YKG        -0.5604
     14 O12        49.3520    6.6810   45.7910 O.co2     1 YKG        -0.5604
     15 O15        47.6710   12.3370   49.1370 O.2       1 YKG        -0.3861
     16 O16        48.2690   12.9830   47.2270 O.3       1 YKG        -0.2145
     17 P09        48.7370    8.1140   46.1060 P.3       1 YKG         0.0731
     18 BR05       51.4210   10.0330   43.9450 Br        1 YKG        -0.0493
     19 H1         50.2004   14.5976   42.0838 H         1 YKG         0.0402
     20 H2         50.0045   15.7557   43.4429 H         1 YKG         0.0402
     21 H3         48.5565   15.0378   42.6588 H         1 YKG         0.0402
     22 H4         50.8920   12.4642   42.7305 H         1 YKG         0.0529
     23 H5         50.5086    8.7869   47.5912 H         1 YKG         0.0655
     24 H6         50.8861    9.1755   45.8786 H         1 YKG         0.0655
     25 H7         48.7548   10.0773   48.7410 H         1 YKG         0.0442
     26 H8         48.3485   14.7222   45.3126 H         1 YKG         0.0528
@<TRIPOS>BOND
     1    1    2 1  
     2    2    3 ar 
     3    2   11 ar 
     4    3    4 ar 
     5    4    5 ar 
     6    4   18 1  
     7    5    6 1  
     8    5   10 ar 
     9    6    7 1  
    10    6    8 2  
    11    7   17 1  
    12    8    9 1  
    13    9   15 2  
    14    9   16 1  
    15   10   11 ar 
    16   10   16 1  
    17   17   12 ar 
    18   17   13 ar 
    19   17   14 ar 
    20    1   19 1  
    21    1   20 1  
    22    1   21 1  
    23    3   22 1  
    24    7   23 1  
    25    7   24 1  
    26    8   25 1  
    27   11   26 1  
@<TRIPOS>SUBSTRUCTURE
     1 YKG         1

