4qyy_ligand
  -I-interpret- 

 64 67  0  0  0  0  0  0  0  0999 V2000
   49.2160   21.7580    8.6400 N   0  0  0  0  0
   43.2270   25.1880    8.4880 C   0  0  0  0  0
   49.0290   13.7500    9.2040 N   0  0  0  0  0
   45.0680   24.3650    9.8290 C   0  0  0  0  0
   45.9080   24.3380    8.7080 C   0  0  0  0  0
   45.3910   24.8170    7.4930 C   0  0  0  0  0
   44.0690   25.2100    7.3840 C   0  0  0  0  0
   49.0980   22.7110    7.5450 C   0  0  0  0  0
   48.5630   15.8860   10.1890 C   0  0  0  0  0
   49.1550   17.2660   10.5240 C   0  0  0  0  0
   49.5300   14.9680    9.4880 C   0  0  0  0  0
   50.9240   12.6760    8.0160 C   0  0  0  0  0
   51.4950   11.5210    7.5020 C   0  0  0  0  0
   48.7190    8.7670    8.2980 Cl  0  0  0  0  0
   49.5850   10.2680    8.2140 C   0  0  0  0  0
   50.8340   10.2990    7.6060 C   0  0  0  0  0
   51.3660    9.1360    7.1560 O   0  0  0  0  0
   49.0000   11.4130    8.7180 C   0  0  0  0  0
   49.6770   12.6290    8.6270 C   0  0  0  0  0
   50.6760   15.3220    9.2120 O   0  0  0  0  0
   47.4230   16.2770    9.2100 C   0  0  0  0  0
   47.4210   17.7860    9.0610 C   0  0  0  0  0
   48.8340   18.1480    9.3430 N   0  3  0  0  0
   49.1300   19.5660    9.7150 C   0  0  0  0  0
   49.1650   20.4250    8.4570 C   0  0  0  0  0
   49.0960   19.9210    7.3390 O   0  0  0  0  0
   49.0340   22.5060    9.8800 C   0  0  0  0  0
   47.5990   22.9770    9.9550 C   0  0  0  0  0
   47.6830   23.2080    7.4870 C   0  0  0  0  0
   47.2330   23.7750    8.7720 N   0  0  0  0  0
   43.7550   24.7920    9.7190 C   0  0  0  0  0
   41.7850   25.5490    8.3460 C   0  0  0  0  0
   41.3160   25.8180    7.2380 O   0  0  0  0  0
   40.9060   25.5470    9.5510 C   0  0  0  0  0
   48.0451   13.6156    9.4369 H   0  0  0  0  0
   45.4519   24.0465   10.7982 H   0  0  0  0  0
   46.0424   24.8801    6.6213 H   0  0  0  0  0
   43.6836   25.5410    6.4196 H   0  0  0  0  0
   49.3583   22.2265    6.6039 H   0  0  0  0  0
   49.7771   23.5478    7.7087 H   0  0  0  0  0
   48.2654   15.3372   11.0825 H   0  0  0  0  0
   50.2300   17.2059   10.6937 H   0  0  0  0  0
   48.7313   17.6665   11.4450 H   0  0  0  0  0
   51.4558   13.6244    7.9402 H   0  0  0  0  0
   52.4680   11.5699    7.0131 H   0  0  0  0  0
   50.7513    8.4180    7.3241 H   0  0  0  0  0
   48.0157   11.3667    9.1839 H   0  0  0  0  0
   46.4629   15.9382    9.5993 H   0  0  0  0  0
   47.5843   15.8055    8.2406 H   0  0  0  0  0
   46.7159   18.2770    9.7317 H   0  0  0  0  0
   47.0880   18.1141    8.0763 H   0  0  0  0  0
   49.3811   18.0267    8.4907 H   0  0  0  0  0
   50.0969   19.6158   10.2157 H   0  0  0  0  0
   48.3538   19.9352   10.3853 H   0  0  0  0  0
   49.7068   23.3634    9.8977 H   0  0  0  0  0
   49.2596   21.8677   10.7343 H   0  0  0  0  0
   47.4851   23.6003   10.8419 H   0  0  0  0  0
   46.9494   22.1028    9.9975 H   0  0  0  0  0
   47.0382   22.3625    7.2472 H   0  0  0  0  0
   47.6327   23.9954    6.7349 H   0  0  0  0  0
   43.1237   24.8194   10.6072 H   0  0  0  0  0
   40.4708   26.5376    9.6834 H   0  0  0  0  0
   40.1103   24.8141    9.4175 H   0  0  0  0  0
   41.4967   25.2879   10.4296 H   0  0  0  0  0
  1  8  1  0  0  0
  1 25  1  0  0  0
 27  1  1  0  0  0
  7  2  4  0  0  0
 31  2  4  0  0  0
  2 32  1  0  0  0
 11  3  1  0  0  0
  3 19  1  0  0  0
  5  4  4  0  0  0
  4 31  4  0  0  0
  5  6  4  0  0  0
 30  5  1  0  0  0
  6  7  4  0  0  0
  8 29  1  0  0  0
 10  9  1  0  0  0
  9 11  1  0  0  0
 21  9  1  0  0  0
 23 10  1  0  0  0
 11 20  2  0  0  0
 12 13  4  0  0  0
 19 12  4  0  0  0
 13 16  4  0  0  0
 15 14  1  0  0  0
 15 16  4  0  0  0
 18 15  4  0  0  0
 16 17  1  0  0  0
 19 18  4  0  0  0
 22 21  1  0  0  0
 23 22  1  0  0  0
 24 23  1  0  0  0
 25 24  1  0  0  0
 25 26  2  0  0  0
 28 27  1  0  0  0
 28 30  1  0  0  0
 29 30  1  0  0  0
 32 33  2  0  0  0
 32 34  1  0  0  0
  3 35  1  0  0  0
  4 36  1  0  0  0
  6 37  1  0  0  0
  7 38  1  0  0  0
  8 39  1  0  0  0
  8 40  1  0  0  0
  9 41  1  0  0  0
 10 42  1  0  0  0
 10 43  1  0  0  0
 12 44  1  0  0  0
 13 45  1  0  0  0
 17 46  1  0  0  0
 18 47  1  0  0  0
 21 48  1  0  0  0
 21 49  1  0  0  0
 22 50  1  0  0  0
 22 51  1  0  0  0
 23 52  1  0  0  0
 24 53  1  0  0  0
 24 54  1  0  0  0
 27 55  1  0  0  0
 27 56  1  0  0  0
 28 57  1  0  0  0
 28 58  1  0  0  0
 29 59  1  0  0  0
 29 60  1  0  0  0
 31 61  1  0  0  0
 34 62  1  0  0  0
 34 63  1  0  0  0
 34 64  1  0  0  0
M  END
$$$$
