3t08_ligand
  -I-interpret- 

 33 33  0  0  0  0  0  0  0  0999 V2000
  -14.6760  -27.5230  -26.4000 C   0  0  0  0  0
  -13.3840  -27.3280  -25.6060 C   0  0  0  0  0
  -13.5120  -26.1960  -24.7450 O   0  0  0  0  0
  -12.1940  -27.1100  -26.5390 C   0  0  0  0  0
  -10.9950  -27.1630  -25.7700 O   0  0  0  0  0
  -12.1430  -28.1460  -27.6650 C   0  0  0  0  0
  -11.7450  -29.4210  -27.1280 O   0  0  0  0  0
  -13.5240  -28.2240  -28.3360 C   0  0  0  0  0
  -14.4970  -28.5720  -27.3510 O   0  0  0  0  0
  -13.6380  -29.2130  -29.4910 C   0  0  0  0  0
  -12.4290  -29.2080  -30.2640 O   0  0  0  0  0
  -15.9820  -28.0010  -25.3310 S   0  0  0  0  0
  -17.4290  -27.4040  -26.1670 C   0  0  0  0  0
  -17.7570  -28.2470  -27.4010 C   0  0  0  0  0
  -18.6010  -27.4200  -25.1900 C   0  0  0  0  0
  -14.9175  -26.5821  -26.8944 H   0  0  0  0  0
  -13.2103  -28.2292  -25.0180 H   0  0  0  0  0
  -14.2585  -26.3264  -24.1556 H   0  0  0  0  0
  -12.3029  -26.1338  -27.0116 H   0  0  0  0  0
  -11.0376  -26.5101  -25.0675 H   0  0  0  0  0
  -11.4097  -27.8553  -28.4172 H   0  0  0  0  0
  -10.8812  -29.3384  -26.7173 H   0  0  0  0  0
  -13.6904  -27.2374  -28.7685 H   0  0  0  0  0
  -14.4726  -28.9234  -30.1295 H   0  0  0  0  0
  -13.8032  -30.2134  -29.0910 H   0  0  0  0  0
  -12.5108  -29.8332  -30.9879 H   0  0  0  0  0
  -17.2399  -26.3875  -26.5121 H   0  0  0  0  0
  -16.9187  -28.2118  -28.0968 H   0  0  0  0  0
  -17.9360  -29.2785  -27.0977 H   0  0  0  0  0
  -18.6491  -27.8491  -27.8846 H   0  0  0  0  0
  -18.7682  -28.4393  -24.8418 H   0  0  0  0  0
  -18.3725  -26.7772  -24.3399 H   0  0  0  0  0
  -19.4965  -27.0549  -25.6928 H   0  0  0  0  0
  1  2  1  0  0  0
  1  9  1  0  0  0
  1 12  1  0  0  0
  2  3  1  0  0  0
  2  4  1  0  0  0
  4  5  1  0  0  0
  4  6  1  0  0  0
  6  7  1  0  0  0
  6  8  1  0  0  0
  8  9  1  0  0  0
  8 10  1  0  0  0
 10 11  1  0  0  0
 12 13  1  0  0  0
 13 14  1  0  0  0
 13 15  1  0  0  0
  1 16  1  0  0  0
  2 17  1  0  0  0
  3 18  1  0  0  0
  4 19  1  0  0  0
  5 20  1  0  0  0
  6 21  1  0  0  0
  7 22  1  0  0  0
  8 23  1  0  0  0
 10 24  1  0  0  0
 10 25  1  0  0  0
 11 26  1  0  0  0
 13 27  1  0  0  0
 14 28  1  0  0  0
 14 29  1  0  0  0
 14 30  1  0  0  0
 15 31  1  0  0  0
 15 32  1  0  0  0
 15 33  1  0  0  0
M  END
$$$$
