### 
### Created by X-TOOL on Mon Sep 10 21:12:55 2018
### 

@<TRIPOS>MOLECULE
2e95_ligand
   56    59     1     0     0
SMALL
GAST_HUCK


@<TRIPOS>ATOM
      1 CAX        22.3000   33.2040   38.4190 C.ar      1 B75        -0.0268
      2 CBG        22.8910   33.7950   39.5310 C.ar      1 B75        -0.0160
      3 CAT        22.1420   34.6210   40.3630 C.ar      1 B75        -0.0540
      4 CAM        22.7180   35.1430   41.5150 C.ar      1 B75        -0.0612
      5 CAL        24.0380   34.8430   41.8310 C.ar      1 B75        -0.0612
      6 CAS        24.7870   34.0230   40.9940 C.ar      1 B75        -0.0540
      7 CBF        24.2110   33.4970   39.8420 C.ar      1 B75        -0.0178
      8 CAU        24.9280   32.6220   39.0330 C.ar      1 B75        -0.0522
      9 CAR        24.3310   32.0270   37.9270 C.ar      1 B75        -0.0340
     10 CBE        23.0040   32.3100   37.6220 C.ar      1 B75         0.1146
     11 SBK        22.0680   31.4480   36.4150 S.o2      1 B75         0.0894
     12 OAC        21.1830   30.4730   37.1350 O.2       1 B75        -0.1446
     13 OAD        21.1880   32.4890   35.7890 O.2       1 B75        -0.1446
     14 NAZ        22.8060   30.6400   35.1990 N.am      1 B75        -0.1872
     15 CBB        24.0820   30.4530   34.8610 C.ar      1 B75         0.0628
     16 CAW        24.3110   29.8380   33.6340 C.ar      1 B75        -0.0385
     17 CAO        25.1640   30.9550   35.5760 C.ar      1 B75        -0.0452
     18 CAK        26.4520   30.8460   35.0600 C.ar      1 B75        -0.0768
     19 CAQ        26.6710   30.2420   33.8250 C.ar      1 B75        -0.0713
     20 CBD        25.5940   29.7390   33.1020 C.ar      1 B75        -0.0358
     21 CBC        25.7680   29.2150   31.8260 C.ar      1 B75        -0.0289
     22 CAV        24.8780   28.2610   31.3380 C.ar      1 B75        -0.0530
     23 CAP        26.7820   29.6920   31.0010 C.ar      1 B75        -0.0611
     24 CAJ        26.9010   29.2280   29.6970 C.ar      1 B75        -0.0677
     25 CAN        26.0040   28.2830   29.2090 C.ar      1 B75        -0.0599
     26 CBA        24.9910   27.8010   30.0310 C.ar      1 B75        -0.0369
     27 CAY        23.9210   26.8630   29.4660 C.3       1 B75         0.0415
     28 CBH        23.9970   25.3970   29.9040 C.3       1 B75         0.2140
     29 PBI        22.4030   24.5940   29.3830 P.3       1 B75         0.1121
     30 OAF        22.4300   24.6490   27.7810 O.co2     1 B75        -0.5593
     31 OAG        22.5080   23.0480   29.8370 O.co2     1 B75        -0.5593
     32 OAA        21.2310   25.2910   29.9550 O.co2     1 B75        -0.5593
     33 PBJ        25.3860   24.4880   29.0670 P.3       1 B75         0.1121
     34 OAH        25.2800   24.8040   27.4930 O.co2     1 B75        -0.5593
     35 OAI        26.7680   25.1170   29.5910 O.co2     1 B75        -0.5593
     36 OAB        25.2650   23.0410   29.3490 O.co2     1 B75        -0.5593
     37 OAE        24.1350   25.2300   31.3150 O.3       1 B75        -0.3579
     38 H1         21.2729   33.4451   38.1702 H         1 B75         0.0643
     39 H2         21.1136   34.8564   40.1138 H         1 B75         0.0624
     40 H3         22.1374   35.7847   42.1678 H         1 B75         0.0618
     41 H4         24.4844   35.2490   42.7315 H         1 B75         0.0618
     42 H5         25.8179   33.7940   41.2388 H         1 B75         0.0624
     43 H6         25.9632   32.4015   39.2671 H         1 B75         0.0624
     44 H7         24.8983   31.3446   37.3044 H         1 B75         0.0637
     45 H8         22.1639   30.1912   34.5774 H         1 B75         0.2161
     46 H9         23.4737   29.4277   33.0811 H         1 B75         0.0482
     47 H10        25.0041   31.4317   36.5363 H         1 B75         0.0485
     48 H11        27.2918   31.2347   35.6246 H         1 B75         0.0574
     49 H12        27.6767   30.1639   33.4282 H         1 B75         0.0481
     50 H13        24.0941   27.8757   31.9800 H         1 B75         0.0560
     51 H14        27.4822   30.4289   31.3775 H         1 B75         0.0567
     52 H15        27.6934   29.6025   29.0591 H         1 B75         0.0600
     53 H16        26.0945   27.9233   28.1904 H         1 B75         0.0559
     54 H17        23.9996   26.8885   28.3691 H         1 B75         0.0483
     55 H18        22.9391   27.2529   29.7725 H         1 B75         0.0483
     56 H19        24.1508   24.3032   31.5230 H         1 B75         0.2134
@<TRIPOS>BOND
     1    1    2 ar 
     2    1   10 ar 
     3    2    3 ar 
     4    2    7 ar 
     5    3    4 ar 
     6    4    5 ar 
     7    5    6 ar 
     8    6    7 ar 
     9    7    8 ar 
    10    8    9 ar 
    11    9   10 ar 
    12   10   11 1  
    13   11   12 2  
    14   11   13 2  
    15   11   14 am 
    16   14   15 1  
    17   15   16 ar 
    18   15   17 ar 
    19   16   20 ar 
    20   17   18 ar 
    21   18   19 ar 
    22   19   20 ar 
    23   20   21 1  
    24   21   22 ar 
    25   21   23 ar 
    26   22   26 ar 
    27   23   24 ar 
    28   24   25 ar 
    29   25   26 ar 
    30   26   27 1  
    31   27   28 1  
    32   28   29 1  
    33   28   33 1  
    34   28   37 1  
    35   29   30 ar 
    36   29   31 ar 
    37   29   32 ar 
    38   33   34 ar 
    39   33   35 ar 
    40   33   36 ar 
    41    1   38 1  
    42    3   39 1  
    43    4   40 1  
    44    5   41 1  
    45    6   42 1  
    46    8   43 1  
    47    9   44 1  
    48   14   45 1  
    49   16   46 1  
    50   17   47 1  
    51   18   48 1  
    52   19   49 1  
    53   22   50 1  
    54   23   51 1  
    55   24   52 1  
    56   25   53 1  
    57   27   54 1  
    58   27   55 1  
    59   37   56 1  
@<TRIPOS>SUBSTRUCTURE
     1 B75         1

