2e95_ligand
  -I-interpret- 

 60 63  0  0  0  0  0  0  0  0999 V2000
   22.3000   33.2040   38.4190 C   0  0  0  0  0
   22.8910   33.7950   39.5310 C   0  0  0  0  0
   22.1420   34.6210   40.3630 C   0  0  0  0  0
   22.7180   35.1430   41.5150 C   0  0  0  0  0
   24.0380   34.8430   41.8310 C   0  0  0  0  0
   24.7870   34.0230   40.9940 C   0  0  0  0  0
   24.2110   33.4970   39.8420 C   0  0  0  0  0
   24.9280   32.6220   39.0330 C   0  0  0  0  0
   24.3310   32.0270   37.9270 C   0  0  0  0  0
   23.0040   32.3100   37.6220 C   0  0  0  0  0
   22.0680   31.4480   36.4150 S   0  0  0  0  0
   21.1830   30.4730   37.1350 O   0  0  0  0  0
   21.1880   32.4890   35.7890 O   0  0  0  0  0
   22.8060   30.6400   35.1990 N   0  0  0  0  0
   24.0820   30.4530   34.8610 C   0  0  0  0  0
   24.3110   29.8380   33.6340 C   0  0  0  0  0
   25.1640   30.9550   35.5760 C   0  0  0  0  0
   26.4520   30.8460   35.0600 C   0  0  0  0  0
   26.6710   30.2420   33.8250 C   0  0  0  0  0
   25.5940   29.7390   33.1020 C   0  0  0  0  0
   25.7680   29.2150   31.8260 C   0  0  0  0  0
   24.8780   28.2610   31.3380 C   0  0  0  0  0
   26.7820   29.6920   31.0010 C   0  0  0  0  0
   26.9010   29.2280   29.6970 C   0  0  0  0  0
   26.0040   28.2830   29.2090 C   0  0  0  0  0
   24.9910   27.8010   30.0310 C   0  0  0  0  0
   23.9210   26.8630   29.4660 C   0  0  0  0  0
   23.9970   25.3970   29.9040 C   0  0  0  0  0
   22.4030   24.5940   29.3830 P   0  0  0  0  0
   22.4300   24.6490   27.7810 O   0  0  0  0  0
   22.5080   23.0480   29.8370 O   0  0  0  0  0
   21.2310   25.2910   29.9550 O   0  0  0  0  0
   25.3860   24.4880   29.0670 P   0  0  0  0  0
   25.2800   24.8040   27.4930 O   0  0  0  0  0
   26.7680   25.1170   29.5910 O   0  0  0  0  0
   25.2650   23.0410   29.3490 O   0  0  0  0  0
   24.1350   25.2300   31.3150 O   0  0  0  0  0
   21.2672   33.4464   38.1688 H   0  0  0  0  0
   21.1079   34.8577   40.1124 H   0  0  0  0  0
   22.1341   35.7883   42.1714 H   0  0  0  0  0
   24.4868   35.2512   42.7365 H   0  0  0  0  0
   25.8236   33.7928   41.2401 H   0  0  0  0  0
   25.9689   32.4003   39.2684 H   0  0  0  0  0
   24.9014   31.3408   37.3010 H   0  0  0  0  0
   22.1511   30.1822   34.5650 H   0  0  0  0  0
   23.4691   29.4254   33.0781 H   0  0  0  0  0
   25.0032   31.4344   36.5416 H   0  0  0  0  0
   27.2964   31.2369   35.6277 H   0  0  0  0  0
   27.6823   30.1635   33.4260 H   0  0  0  0  0
   24.0898   27.8736   31.9835 H   0  0  0  0  0
   27.4860   30.4330   31.3796 H   0  0  0  0  0
   27.6978   29.6046   29.0556 H   0  0  0  0  0
   26.0950   27.9213   28.1848 H   0  0  0  0  0
   24.0602   26.8627   28.3849 H   0  0  0  0  0
   22.9659   27.2386   29.8332 H   0  0  0  0  0
   23.2062   24.1848   27.4590 H   0  0  0  0  0
   23.2844   22.6500   29.4364 H   0  0  0  0  0
   25.3628   25.7499   27.3514 H   0  0  0  0  0
   26.7916   26.0536   29.3819 H   0  0  0  0  0
   24.1767   24.2937   31.5227 H   0  0  0  0  0
  1  2  4  0  0  0
  1 10  4  0  0  0
  2  3  4  0  0  0
  2  7  4  0  0  0
  3  4  4  0  0  0
  4  5  4  0  0  0
  5  6  4  0  0  0
  6  7  4  0  0  0
  7  8  4  0  0  0
  8  9  4  0  0  0
  9 10  4  0  0  0
 10 11  1  0  0  0
 11 12  2  0  0  0
 11 13  2  0  0  0
 11 14  1  0  0  0
 14 15  1  0  0  0
 15 16  4  0  0  0
 15 17  4  0  0  0
 16 20  4  0  0  0
 17 18  4  0  0  0
 18 19  4  0  0  0
 19 20  4  0  0  0
 20 21  1  0  0  0
 21 22  4  0  0  0
 21 23  4  0  0  0
 22 26  4  0  0  0
 23 24  4  0  0  0
 24 25  4  0  0  0
 25 26  4  0  0  0
 26 27  1  0  0  0
 27 28  1  0  0  0
 28 29  1  0  0  0
 28 33  1  0  0  0
 28 37  1  0  0  0
 29 30  1  0  0  0
 29 31  1  0  0  0
 29 32  2  0  0  0
 33 34  1  0  0  0
 33 35  1  0  0  0
 33 36  2  0  0  0
  1 38  1  0  0  0
  3 39  1  0  0  0
  4 40  1  0  0  0
  5 41  1  0  0  0
  6 42  1  0  0  0
  8 43  1  0  0  0
  9 44  1  0  0  0
 14 45  1  0  0  0
 16 46  1  0  0  0
 17 47  1  0  0  0
 18 48  1  0  0  0
 19 49  1  0  0  0
 22 50  1  0  0  0
 23 51  1  0  0  0
 24 52  1  0  0  0
 25 53  1  0  0  0
 27 54  1  0  0  0
 27 55  1  0  0  0
 30 56  1  0  0  0
 31 57  1  0  0  0
 34 58  1  0  0  0
 35 59  1  0  0  0
 37 60  1  0  0  0
M  END
$$$$
