4mwb_ligand
  -I-interpret- 

 37 38  0  0  0  0  0  0  0  0999 V2000
   45.5090   13.8470  -13.0930 O   0  0  0  0  0
   44.2980   13.8770  -12.9100 C   0  0  0  0  0
   43.4770   14.7560  -13.6050 N   0  0  0  0  0
   43.8920   15.7840  -14.5010 C   0  0  0  0  0
   42.9990   16.7000  -15.1420 C   0  0  0  0  0
   43.6420   17.6190  -15.9220 C   0  0  0  0  0
   45.3250   17.3970  -15.8810 S   0  0  0  0  0
   45.2150   16.0630  -14.8360 C   0  0  0  0  0
   43.6800   13.0250  -12.0770 N   0  0  0  0  0
   44.4340   12.1390  -11.1980 C   0  0  0  0  0
   43.5550   11.4750  -10.1710 C   0  0  0  0  0
   43.1270   12.4090   -9.0680 C   0  0  0  0  0
   42.0550   11.8360   -8.2580 N   0  3  0  0  0
   41.7340   12.4450   -6.9970 C   0  0  0  0  0
   40.8320   13.6310   -7.0480 C   0  0  0  0  0
   39.4190   13.6190   -7.0820 C   0  0  0  0  0
   41.2960   14.8890   -7.0770 C   0  0  0  0  0
   42.9070   15.4280   -7.0340 Cl  0  0  0  0  0
   40.0860   16.1040   -7.1530 S   0  0  0  0  0
   38.8930   14.8590   -7.1320 C   0  0  0  0  0
   37.2220   15.2670   -7.1400 Cl  0  0  0  0  0
   42.4725   14.6553  -13.4589 H   0  0  0  0  0
   41.9163   16.6678  -15.0204 H   0  0  0  0  0
   43.1387   18.3959  -16.4975 H   0  0  0  0  0
   46.0722   15.4961  -14.4729 H   0  0  0  0  0
   42.6606   12.9967  -12.0585 H   0  0  0  0  0
   45.1790   12.7361  -10.6721 H   0  0  0  0  0
   44.8888   11.3602  -11.8101 H   0  0  0  0  0
   44.1279   10.6664   -9.7172 H   0  0  0  0  0
   42.6554   11.1277  -10.6792 H   0  0  0  0  0
   42.7593   13.3294   -9.5216 H   0  0  0  0  0
   43.9852   12.5916   -8.4212 H   0  0  0  0  0
   42.3766   10.8972   -8.0223 H   0  0  0  0  0
   41.2127   11.9423   -8.8234 H   0  0  0  0  0
   42.6776   12.7985   -6.5812 H   0  0  0  0  0
   41.2063   11.6865   -6.4188 H   0  0  0  0  0
   38.8209   12.7078   -7.0692 H   0  0  0  0  0
  1  2  2  0  0  0
  2  3  1  0  0  0
  2  9  1  0  0  0
  3  4  1  0  0  0
  4  5  4  0  0  0
  4  8  4  0  0  0
  5  6  4  0  0  0
  6  7  4  0  0  0
  7  8  4  0  0  0
  9 10  1  0  0  0
 10 11  1  0  0  0
 11 12  1  0  0  0
 12 13  1  0  0  0
 13 14  1  0  0  0
 14 15  1  0  0  0
 15 16  4  0  0  0
 15 17  4  0  0  0
 16 20  4  0  0  0
 17 18  1  0  0  0
 17 19  4  0  0  0
 19 20  4  0  0  0
 20 21  1  0  0  0
  3 22  1  0  0  0
  5 23  1  0  0  0
  6 24  1  0  0  0
  8 25  1  0  0  0
  9 26  1  0  0  0
 10 27  1  0  0  0
 10 28  1  0  0  0
 11 29  1  0  0  0
 11 30  1  0  0  0
 12 31  1  0  0  0
 12 32  1  0  0  0
 13 33  1  0  0  0
 13 34  1  0  0  0
 14 35  1  0  0  0
 14 36  1  0  0  0
 16 37  1  0  0  0
M  END
$$$$
