3uok_ligand
  -I-interpret- 

 37 39  0  0  0  0  0  0  0  0999 V2000
   27.0740   12.2140   -9.4670 Cl  0  0  0  0  0
   28.6260   11.9370   -8.8030 C   0  0  0  0  0
   29.4250   13.0480   -8.6150 C   0  0  0  0  0
   30.7020   12.9070   -8.0860 C   0  0  0  0  0
   31.1720   11.6420   -7.7540 C   0  0  0  0  0
   30.3750   10.5270   -7.9510 C   0  0  0  0  0
   29.1000   10.6580   -8.4830 C   0  0  0  0  0
   28.2990    9.4550   -8.6530 N   0  0  0  0  0
   28.3330    8.6050   -9.8220 C   0  0  0  0  0
   27.2360    7.7620  -10.1070 C   0  0  0  0  0
   27.3000    6.9540  -11.2500 C   0  0  0  0  0
   28.3940    7.0020  -12.0470 N   0  0  0  0  0
   29.4020    7.8100  -11.7350 C   0  0  0  0  0
   30.5210    7.7900  -12.6260 N   0  0  0  0  0
   31.8770    8.3120  -12.2340 C   0  0  0  0  0
   32.0670    9.1070  -11.0930 C   0  0  0  0  0
   33.3300    9.5830  -10.7580 C   0  0  0  0  0
   34.4170    9.2720  -11.5750 C   0  0  0  0  0
   35.8190    9.7360  -11.2460 C   0  0  0  0  0
   36.0480   10.6920  -10.4340 O   0  0  0  0  0
   36.7760    9.1120  -11.7610 O   0  0  0  0  0
   34.2260    8.4780  -12.7080 C   0  0  0  0  0
   32.9650    8.0060  -13.0440 C   0  0  0  0  0
   29.3880    8.6190  -10.6520 N   0  0  0  0  0
   26.1400    7.7180   -9.3130 F   0  0  0  0  0
   29.0530   14.0371   -8.8821 H   0  0  0  0  0
   31.3315   13.7835   -7.9323 H   0  0  0  0  0
   32.1724   11.5271   -7.3367 H   0  0  0  0  0
   30.7518    9.5391   -7.6863 H   0  0  0  0  0
   27.6695    9.1932   -7.8943 H   0  0  0  0  0
   26.4723    6.2892  -11.4968 H   0  0  0  0  0
   30.3950    7.4072  -13.5630 H   0  0  0  0  0
   31.2138    9.3545  -10.4614 H   0  0  0  0  0
   33.4692   10.1932   -9.8656 H   0  0  0  0  0
   35.2146   11.0612  -10.1329 H   0  0  0  0  0
   35.0795    8.2255  -13.3372 H   0  0  0  0  0
   32.8281    7.3984  -13.9385 H   0  0  0  0  0
  1  2  1  0  0  0
  2  3  4  0  0  0
  2  7  4  0  0  0
  3  4  4  0  0  0
  4  5  4  0  0  0
  5  6  4  0  0  0
  6  7  4  0  0  0
  7  8  1  0  0  0
  8  9  1  0  0  0
  9 10  4  0  0  0
  9 24  4  0  0  0
 10 11  4  0  0  0
 10 25  1  0  0  0
 11 12  4  0  0  0
 12 13  4  0  0  0
 13 14  1  0  0  0
 13 24  4  0  0  0
 14 15  1  0  0  0
 15 16  4  0  0  0
 15 23  4  0  0  0
 16 17  4  0  0  0
 17 18  4  0  0  0
 18 19  1  0  0  0
 18 22  4  0  0  0
 19 20  1  0  0  0
 19 21  2  0  0  0
 22 23  4  0  0  0
  3 26  1  0  0  0
  4 27  1  0  0  0
  5 28  1  0  0  0
  6 29  1  0  0  0
  8 30  1  0  0  0
 11 31  1  0  0  0
 14 32  1  0  0  0
 16 33  1  0  0  0
 17 34  1  0  0  0
 20 35  1  0  0  0
 22 36  1  0  0  0
 23 37  1  0  0  0
M  END
$$$$
