5hmi_ligand
  -I-interpret- 

 85 89  0  0  0  0  0  0  0  0999 V2000
  -12.8600    0.4540   17.1710 C   0  0  0  0  0
  -12.6000    1.8290   17.8550 C   0  0  0  0  0
  -13.1630    4.0560   18.7670 C   0  0  0  0  0
  -14.1100    4.1480   19.9970 C   0  0  0  0  0
  -18.1770    3.5000   22.3660 C   0  0  0  0  0
  -18.1730    4.7530   22.9980 C   0  0  0  0  0
  -17.3620    5.7880   22.5210 C   0  0  0  0  0
  -15.8860    7.9150   21.4010 C   0  0  0  0  0
  -14.4630    8.5010   21.1960 C   0  0  0  0  0
  -15.9340    2.9020   18.7730 C   0  0  0  0  0
  -15.0010    2.8540   17.5240 C   0  0  0  0  0
  -14.4480   -0.3210   18.9500 C   0  0  0  0  0
  -13.5760   -0.0320   20.0210 C   0  0  0  0  0
  -15.6860   -0.8540   20.7670 C   0  0  0  0  0
  -16.9010   -1.3450   21.5040 C   0  0  0  0  0
  -15.7050   -0.8080   19.4070 C   0  0  0  0  0
  -13.1000    0.6720   15.6230 C   0  0  0  0  0
  -12.2990    1.9210   13.4090 C   0  0  0  0  0
  -13.6530    2.6430   13.3230 C   0  0  0  0  0
  -14.5340   -0.8260   14.2800 C   0  0  0  0  0
  -14.6440   -2.1030   13.4610 C   0  0  0  0  0
  -15.5130   -3.1740   13.7790 C   0  0  0  0  0
  -14.8240   -4.2820   11.7090 C   0  0  0  0  0
  -13.8610   -2.1500   12.2650 C   0  0  0  0  0
  -11.9460   -1.9140   16.6770 C   0  0  0  0  0
  -16.8920   -4.2860   15.4190 F   0  0  0  0  0
  -16.3880   -3.1160   15.0670 C   0  0  0  0  0
  -17.4290   -2.2930   14.9620 F   0  0  0  0  0
  -15.6970   -2.6980   16.1110 F   0  0  0  0  0
  -15.6050   -4.2750   12.8930 C   0  0  0  0  0
  -13.9700   -3.2310   11.4200 N   0  0  0  0  0
  -15.4960   -0.0700   14.3030 O   0  0  0  0  0
  -13.3080   -0.6320   14.9310 N   0  0  0  0  0
  -12.3270   -1.7560   15.1880 C   0  0  0  0  0
  -11.6610   -0.5480   17.3190 C   0  0  0  0  0
  -11.9690    1.4680   14.8610 C   0  0  0  0  0
  -14.1100   -0.1590   17.6330 O   0  0  0  0  0
  -16.5790   -1.9610   22.6040 F   0  0  0  0  0
  -17.7270   -0.3940   21.8500 F   0  0  0  0  0
  -17.6500   -2.2010   20.8540 F   0  0  0  0  0
  -14.2630   -0.3570   21.5190 S   0  0  0  0  0
  -11.4570    2.0370   18.3100 O   0  0  0  0  0
  -13.5670    2.8360   18.0010 N   0  0  0  0  0
  -15.5980    4.1090   19.5960 N   0  0  0  0  0
  -16.5040    4.2960   20.7240 C   0  0  0  0  0
  -16.5320    5.5730   21.3680 C   0  0  0  0  0
  -15.7880    6.6090   20.8340 O   0  0  0  0  0
  -13.5250    7.6880   21.8570 O   0  0  0  0  0
  -17.3500    3.2800   21.2480 C   0  0  0  0  0
  -12.1221    3.9880   19.0834 H   0  0  0  0  0
  -13.2457    4.9483   18.1465 H   0  0  0  0  0
  -13.9204    5.0968   20.4988 H   0  0  0  0  0
  -13.9113    3.2912   20.6409 H   0  0  0  0  0
  -18.8175    2.7007   22.7390 H   0  0  0  0  0
  -18.8075    4.9211   23.8682 H   0  0  0  0  0
  -17.3597    6.7556   23.0229 H   0  0  0  0  0
  -16.6608    8.5199   20.9300 H   0  0  0  0  0
  -16.1851    7.8961   22.4490 H   0  0  0  0  0
  -14.4222    9.5108   21.6045 H   0  0  0  0  0
  -14.2317    8.5328   20.1313 H   0  0  0  0  0
  -15.7908    2.0016   19.3703 H   0  0  0  0  0
  -16.9735    2.9583   18.4501 H   0  0  0  0  0
  -15.1742    3.7272   16.8950 H   0  0  0  0  0
  -15.2100    1.9602   16.9361 H   0  0  0  0  0
  -12.5671    0.3593   19.8906 H   0  0  0  0  0
  -16.5435   -1.0962   18.7730 H   0  0  0  0  0
  -13.9933    1.2954   15.5837 H   0  0  0  0  0
  -11.5228    2.6138   13.0840 H   0  0  0  0  0
  -12.3460    1.0334   12.7781 H   0  0  0  0  0
  -14.4434    1.9713   13.6579 H   0  0  0  0  0
  -13.6326    3.5278   13.9592 H   0  0  0  0  0
  -13.8400    2.9402   12.2911 H   0  0  0  0  0
  -14.8968   -5.1232   11.0197 H   0  0  0  0  0
  -13.1808   -1.3332   12.0237 H   0  0  0  0  0
  -11.0475   -2.5272   16.7453 H   0  0  0  0  0
  -12.7780   -2.3816   17.2036 H   0  0  0  0  0
  -16.2696   -5.1090   13.1188 H   0  0  0  0  0
  -12.8025   -2.6843   14.8715 H   0  0  0  0  0
  -11.4139   -1.5255   14.6391 H   0  0  0  0  0
  -11.4887   -0.7082   18.3833 H   0  0  0  0  0
  -10.7984   -0.1143   16.8131 H   0  0  0  0  0
  -11.1218    0.7869   14.7802 H   0  0  0  0  0
  -11.8043    2.3813   15.4327 H   0  0  0  0  0
  -12.6447    8.0495   21.7308 H   0  0  0  0  0
  -17.3584    2.3008   20.7693 H   0  0  0  0  0
  2  1  1  0  0  0
  1 17  1  0  0  0
  1 35  1  0  0  0
  1 37  1  0  0  0
  2 42  2  0  0  0
 43  2  1  0  0  0
  4  3  1  0  0  0
  3 43  1  0  0  0
 44  4  1  0  0  0
  6  5  4  0  0  0
 49  5  4  0  0  0
  7  6  4  0  0  0
 46  7  4  0  0  0
  8  9  1  0  0  0
 47  8  1  0  0  0
  9 48  1  0  0  0
 10 11  1  0  0  0
 44 10  1  0  0  0
 11 43  1  0  0  0
 12 13  4  0  0  0
 12 16  4  0  0  0
 37 12  1  0  0  0
 13 41  4  0  0  0
 14 15  1  0  0  0
 16 14  4  0  0  0
 14 41  4  0  0  0
 15 38  1  0  0  0
 15 39  1  0  0  0
 15 40  1  0  0  0
 17 33  1  0  0  0
 17 36  1  0  0  0
 18 19  1  0  0  0
 36 18  1  0  0  0
 20 21  1  0  0  0
 20 32  2  0  0  0
 33 20  1  0  0  0
 21 22  4  0  0  0
 21 24  4  0  0  0
 22 27  1  0  0  0
 22 30  4  0  0  0
 30 23  4  0  0  0
 31 23  4  0  0  0
 24 31  4  0  0  0
 25 34  1  0  0  0
 35 25  1  0  0  0
 27 26  1  0  0  0
 27 28  1  0  0  0
 27 29  1  0  0  0
 33 34  1  0  0  0
 45 44  1  0  0  0
 46 45  4  0  0  0
 45 49  4  0  0  0
 46 47  1  0  0  0
  3 50  1  0  0  0
  3 51  1  0  0  0
  4 52  1  0  0  0
  4 53  1  0  0  0
  5 54  1  0  0  0
  6 55  1  0  0  0
  7 56  1  0  0  0
  8 57  1  0  0  0
  8 58  1  0  0  0
  9 59  1  0  0  0
  9 60  1  0  0  0
 10 61  1  0  0  0
 10 62  1  0  0  0
 11 63  1  0  0  0
 11 64  1  0  0  0
 13 65  1  0  0  0
 16 66  1  0  0  0
 17 67  1  0  0  0
 18 68  1  0  0  0
 18 69  1  0  0  0
 19 70  1  0  0  0
 19 71  1  0  0  0
 19 72  1  0  0  0
 23 73  1  0  0  0
 24 74  1  0  0  0
 25 75  1  0  0  0
 25 76  1  0  0  0
 30 77  1  0  0  0
 34 78  1  0  0  0
 34 79  1  0  0  0
 35 80  1  0  0  0
 35 81  1  0  0  0
 36 82  1  0  0  0
 36 83  1  0  0  0
 48 84  1  0  0  0
 49 85  1  0  0  0
M  END
$$$$
