1qhc_ligand
  -I-interpret- 

 77 81  0  0  0  0  0  0  0  0999 V2000
   38.9920   -4.3560   21.6870 P   0  0  0  0  0
   40.0580   -5.3370   22.1640 O   0  0  0  0  0
   39.4970   -3.0000   21.1910 O   0  0  0  0  0
   38.0870   -5.0020   20.5540 O   0  0  0  0  0
   37.0510   -2.8920   23.3060 P   0  0  0  0  0
   36.3860   -2.3420   22.1150 O   0  0  0  0  0
   36.2360   -3.3300   24.4510 O   0  0  0  0  0
   37.9380   -4.1190   22.8500 O   0  0  0  0  0
   39.7220   -9.8380   19.9040 P   0  0  0  0  0
   38.6520  -10.9000   20.1460 O   0  0  0  0  0
   40.9320  -10.3570   19.1340 O   0  0  0  0  0
   40.0870   -9.0700   21.1740 O   0  0  0  0  0
   37.2400   -5.7040   16.3150 N   0  0  0  0  0
   37.5340   -4.3630   16.1460 C   0  0  0  0  0
   38.2830   -3.5700   16.9460 N   0  0  0  0  0
   38.3650   -2.3180   16.4440 C   0  0  0  0  0
   37.8180   -1.8170   15.3130 N   0  0  0  0  0
   37.0770   -2.6390   14.5350 C   0  0  0  0  0
   36.5470   -2.1430   13.4170 N   0  0  0  0  0
   36.9100   -3.9870   14.9570 C   0  0  0  0  0
   36.2250   -5.0600   14.4050 N   0  0  0  0  0
   36.4440   -6.0450   15.2450 C   0  0  0  0  0
   37.3630   -6.1860   20.8110 C   0  0  0  0  0
   37.4940   -7.1150   19.6450 C   0  0  0  0  0
   36.8210   -6.5390   18.4850 O   0  0  0  0  0
   37.6710   -6.6470   17.3620 C   0  0  0  0  0
   39.0800   -6.5310   17.9450 C   0  0  0  0  0
   40.0810   -7.0220   17.0640 O   0  0  0  0  0
   38.9360   -7.3800   19.2100 C   0  0  0  0  0
   39.0320   -8.7660   18.8900 O   0  0  0  0  0
   39.8780    1.8350   22.3930 O   0  0  0  0  0
   40.5620    0.7860   23.1070 C   0  0  0  0  0
   39.5800    0.0470   23.9840 C   0  0  0  0  0
   38.8640    1.0110   24.7940 O   0  0  0  0  0
   37.4750    0.9180   24.5350 C   0  0  0  0  0
   37.3500    0.2620   23.1740 C   0  0  0  0  0
   38.5090   -0.7110   23.2010 C   0  0  0  0  0
   38.1300   -1.8740   23.9250 O   0  0  0  0  0
   40.2490    2.1940   20.8430 P   0  0  0  0  0
   41.3350    3.2710   20.9280 O   0  0  0  0  0
   38.9510    2.7070   20.1950 O   0  0  0  0  0
   40.7550    0.8890   20.2250 O   0  0  0  0  0
   36.9080    2.2720   24.5600 N   0  0  0  0  0
   37.4650    3.3020   23.8020 C   0  0  0  0  0
   35.7660    2.4790   25.3340 C   0  0  0  0  0
   35.2660    1.6160   26.0290 O   0  0  0  0  0
   35.2330    3.7450   25.2410 N   0  0  0  0  0
   35.7040    4.7970   24.4630 C   0  0  0  0  0
   35.0040    5.7950   24.3380 O   0  0  0  0  0
   36.9130    4.5210   23.7240 C   0  0  0  0  0
   38.7504   -2.4627   20.9163 H   0  0  0  0  0
   36.8117   -3.6618   25.1439 H   0  0  0  0  0
   37.9214  -10.5114   20.6326 H   0  0  0  0  0
   39.2843   -8.7726   21.6086 H   0  0  0  0  0
   38.9537   -1.6141   17.0323 H   0  0  0  0  0
   36.7047   -1.1667   13.1673 H   0  0  0  0  0
   35.9838   -2.7398   12.8112 H   0  0  0  0  0
   36.0318   -7.0446   15.1072 H   0  0  0  0  0
   36.3117   -5.9425   20.9648 H   0  0  0  0  0
   37.7597   -6.6673   21.7049 H   0  0  0  0  0
   37.0542   -8.0544   19.9798 H   0  0  0  0  0
   37.6389   -7.5863   16.8099 H   0  0  0  0  0
   39.4062   -5.5072   18.1281 H   0  0  0  0  0
   40.9429   -6.9266   17.4758 H   0  0  0  0  0
   39.6954   -7.1428   19.9550 H   0  0  0  0  0
   41.0047    0.0911   22.3934 H   0  0  0  0  0
   41.3455    1.2213   23.7273 H   0  0  0  0  0
   40.1691   -0.6654   24.5615 H   0  0  0  0  0
   36.9320    0.3295   25.2746 H   0  0  0  0  0
   36.3840   -0.2142   23.0060 H   0  0  0  0  0
   37.3914    0.9673   22.3440 H   0  0  0  0  0
   38.8360   -1.0274   22.2105 H   0  0  0  0  0
   40.9663    4.0653   21.3213 H   0  0  0  0  0
   38.6830    3.5242   20.6216 H   0  0  0  0  0
   38.3855    3.1079   23.2514 H   0  0  0  0  0
   34.4029    3.9315   25.8036 H   0  0  0  0  0
   37.3720    5.2954   23.1093 H   0  0  0  0  0
  1  8  1  0  0  0
  1  4  1  0  0  0
  1  3  1  0  0  0
  1  2  2  0  0  0
  4 23  1  0  0  0
 23 24  1  0  0  0
 24 29  1  0  0  0
 24 25  1  0  0  0
 25 26  1  0  0  0
 26 27  1  0  0  0
 26 13  1  0  0  0
 13 22  4  0  0  0
 13 14  4  0  0  0
 14 20  4  0  0  0
 14 15  4  0  0  0
 15 16  4  0  0  0
 16 17  4  0  0  0
 17 18  4  0  0  0
 18 20  4  0  0  0
 18 19  1  0  0  0
 20 21  4  0  0  0
 21 22  4  0  0  0
 27 29  1  0  0  0
 27 28  1  0  0  0
 29 30  1  0  0  0
 30  9  1  0  0  0
  9 12  1  0  0  0
  9 11  2  0  0  0
  9 10  1  0  0  0
  8  5  1  0  0  0
  5 38  1  0  0  0
  5  7  1  0  0  0
  5  6  2  0  0  0
 38 37  1  0  0  0
 37 36  1  0  0  0
 37 33  1  0  0  0
 33 34  1  0  0  0
 33 32  1  0  0  0
 32 31  1  0  0  0
 31 39  1  0  0  0
 39 42  2  0  0  0
 39 41  1  0  0  0
 39 40  1  0  0  0
 34 35  1  0  0  0
 35 43  1  0  0  0
 35 36  1  0  0  0
 43 45  1  0  0  0
 43 44  1  0  0  0
 44 50  2  0  0  0
 50 48  1  0  0  0
 48 49  2  0  0  0
 48 47  1  0  0  0
 47 45  1  0  0  0
 45 46  2  0  0  0
  3 51  1  0  0  0
  7 52  1  0  0  0
 10 53  1  0  0  0
 12 54  1  0  0  0
 16 55  1  0  0  0
 19 56  1  0  0  0
 19 57  1  0  0  0
 22 58  1  0  0  0
 23 59  1  0  0  0
 23 60  1  0  0  0
 24 61  1  0  0  0
 26 62  1  0  0  0
 27 63  1  0  0  0
 28 64  1  0  0  0
 29 65  1  0  0  0
 32 66  1  0  0  0
 32 67  1  0  0  0
 33 68  1  0  0  0
 35 69  1  0  0  0
 36 70  1  0  0  0
 36 71  1  0  0  0
 37 72  1  0  0  0
 40 73  1  0  0  0
 41 74  1  0  0  0
 44 75  1  0  0  0
 47 76  1  0  0  0
 50 77  1  0  0  0
M  END
$$$$
