1h8l_ligand
  -I-interpret- 

 28 27  0  0  0  0  0  0  0  0999 V2000
    7.0100   32.2560   20.7660 C   0  0  0  0  0
    7.5360   33.2220   19.3330 S   0  0  0  0  0
    9.3180   33.2250   19.5500 C   0  0  0  0  0
    9.9740   32.2230   18.6110 C   0  0  0  0  0
   10.1420   30.9160   19.2300 N   0  0  0  0  0
   10.2990   29.7810   18.5560 C   0  0  0  0  0
   10.2990   29.7750   17.2320 N   0  0  0  0  0
   10.4840   28.6500   19.2140 N   0  0  0  0  0
    5.5250   31.9020   20.6560 C   0  0  0  0  0
    4.9870   31.7710   19.5460 O   0  0  0  0  0
    4.8890   31.7880   21.7140 O   0  0  0  0  0
    7.2940   32.9380   22.1230 C   0  0  0  0  0
    6.3480   34.0760   22.4230 C   0  0  0  0  0
    6.8520   35.1110   22.8660 O   0  0  0  0  0
    5.1100   33.9240   22.3490 O   0  0  0  0  0
    7.6134   31.3484   20.7500 H   0  0  0  0  0
    9.5489   32.9483   20.5787 H   0  0  0  0  0
    9.6993   34.2212   19.3256 H   0  0  0  0  0
   10.9612   32.6022   18.3471 H   0  0  0  0  0
    9.3308   32.1047   17.7390 H   0  0  0  0  0
   10.1390   30.8680   20.2489 H   0  0  0  0  0
   10.4412   28.9009   16.7260 H   0  0  0  0  0
   10.1568   30.6445   16.7181 H   0  0  0  0  0
   10.6257   27.7793   18.7019 H   0  0  0  0  0
    5.6435   31.8956   18.8567 H   0  0  0  0  0
    8.3032   33.3478   22.0831 H   0  0  0  0  0
    7.1680   32.1878   22.9037 H   0  0  0  0  0
    4.9164   33.0589   21.9805 H   0  0  0  0  0
  1  2  1  0  0  0
  1  9  1  0  0  0
  1 12  1  0  0  0
  2  3  1  0  0  0
  3  4  1  0  0  0
  4  5  1  0  0  0
  5  6  1  0  0  0
  6  7  1  0  0  0
  6  8  2  0  0  0
  9 10  1  0  0  0
  9 11  2  0  0  0
 12 13  1  0  0  0
 13 14  2  0  0  0
 13 15  1  0  0  0
  1 16  1  0  0  0
  3 17  1  0  0  0
  3 18  1  0  0  0
  4 19  1  0  0  0
  4 20  1  0  0  0
  5 21  1  0  0  0
  7 22  1  0  0  0
  7 23  1  0  0  0
  8 24  1  0  0  0
 10 25  1  0  0  0
 12 26  1  0  0  0
 12 27  1  0  0  0
 15 28  1  0  0  0
M  END
$$$$
