5g3m_ligand
  -I-interpret- 

 29 30  0  0  0  0  0  0  0  0999 V2000
   -1.7930    0.5230   -4.3420 O   0  0  0  0  0
   -0.8860    0.1600   -3.5890 C   0  0  0  0  0
   -0.3980   -1.0960   -3.7040 N   0  0  0  0  0
    0.2400    3.2470    2.3800 C   0  0  0  0  0
    0.4610    4.0960    1.3120 C   0  0  0  0  0
   -0.2890    5.2530    1.1800 C   0  0  0  0  0
    1.5140    3.7390    0.2970 C   0  0  0  0  0
   -1.2560    5.5430    2.1340 C   0  0  0  0  0
   -1.4750    4.6890    3.2000 C   0  0  0  0  0
   -0.7260    3.5310    3.3250 C   0  0  0  0  0
    0.9300    0.7810   -1.9840 C   0  0  0  0  0
   -0.2980    1.0870   -2.5850 C   0  0  0  0  0
    1.5120    1.6340   -1.0510 C   0  0  0  0  0
    0.8770    2.8120   -0.7190 C   0  0  0  0  0
   -0.3460    3.1320   -1.3090 C   0  0  0  0  0
   -0.9490    2.2830   -2.2330 C   0  0  0  0  0
   -0.7799   -1.7292   -4.4066 H   0  0  0  0  0
    0.3520   -1.4101   -3.0882 H   0  0  0  0  0
    0.8368    2.3402    2.4777 H   0  0  0  0  0
   -0.1227    5.9265    0.3392 H   0  0  0  0  0
    2.3582    3.2487    0.7818 H   0  0  0  0  0
    1.8903    4.6375   -0.1920 H   0  0  0  0  0
   -1.8486    6.4532    2.0417 H   0  0  0  0  0
   -2.2373    4.9276    3.9417 H   0  0  0  0  0
   -0.8970    2.8514    4.1599 H   0  0  0  0  0
    1.4400   -0.1441   -2.2527 H   0  0  0  0  0
    2.4627    1.3728   -0.5862 H   0  0  0  0  0
   -0.8397    4.0661   -1.0410 H   0  0  0  0  0
   -1.9106    2.5411   -2.6767 H   0  0  0  0  0
  2  1  2  0  0  0
  2  3  1  0  0  0
 12  2  1  0  0  0
  5  4  4  0  0  0
  4 10  4  0  0  0
  5  6  4  0  0  0
  7  5  1  0  0  0
  6  8  4  0  0  0
 14  7  1  0  0  0
  8  9  4  0  0  0
 10  9  4  0  0  0
 11 12  4  0  0  0
 13 11  4  0  0  0
 12 16  4  0  0  0
 13 14  4  0  0  0
 14 15  4  0  0  0
 15 16  4  0  0  0
  3 17  1  0  0  0
  3 18  1  0  0  0
  4 19  1  0  0  0
  6 20  1  0  0  0
  7 21  1  0  0  0
  7 22  1  0  0  0
  8 23  1  0  0  0
  9 24  1  0  0  0
 10 25  1  0  0  0
 11 26  1  0  0  0
 13 27  1  0  0  0
 15 28  1  0  0  0
 16 29  1  0  0  0
M  END
$$$$
