3lok_ligand
  -I-interpret- 

 38 40  0  0  0  0  0  0  0  0999 V2000
    6.4360   -8.1200    1.7340 C   0  0  0  0  0
    6.1430   -9.2600    0.7680 C   0  0  0  0  0
    6.2560   -8.7840   -0.6680 C   0  0  0  0  0
    5.3480   -8.1310   -1.1940 O   0  0  0  0  0
    7.3680   -9.1660   -1.3340 N   0  0  0  0  0
    8.1960   -8.5570   -2.2620 C   0  0  0  0  0
    7.8030   -7.7350   -3.3350 C   0  0  0  0  0
    9.5580   -8.8760   -2.1310 C   0  0  0  0  0
   10.5300   -8.3840   -3.0090 C   0  0  0  0  0
   10.1530   -7.5440   -4.0600 C   0  0  0  0  0
    8.7870   -7.2270   -4.2200 C   0  0  0  0  0
    8.4670   -6.3810   -5.3000 C   0  0  0  0  0
    9.4980   -5.9280   -6.1090 N   0  0  0  0  0
   10.7910   -6.2460   -5.9210 C   0  0  0  0  0
   11.1160   -7.0470   -4.9030 N   0  0  0  0  0
    7.1390   -6.0340   -5.4910 N   0  0  0  0  0
    6.6030   -5.2460   -6.4780 C   0  0  0  0  0
    7.1360   -5.1990   -7.7810 C   0  0  0  0  0
    5.4770   -4.4800   -6.1900 C   0  0  0  0  0
    4.9090   -3.6760   -7.1810 C   0  0  0  0  0
    5.4490   -3.6320   -8.4790 C   0  0  0  0  0
    6.5770   -4.3980   -8.7810 C   0  0  0  0  0
    7.3390   -4.3870  -10.5140 Br  0  0  0  0  0
    7.4469   -7.7504    1.5619 H   0  0  0  0  0
    5.7205   -7.3141    1.5707 H   0  0  0  0  0
    6.3497   -8.4823    2.7584 H   0  0  0  0  0
    5.1289   -9.6195    0.9425 H   0  0  0  0  0
    6.8662  -10.0585    0.9337 H   0  0  0  0  0
    7.6633  -10.1142   -1.1013 H   0  0  0  0  0
    6.7511   -7.4912   -3.4841 H   0  0  0  0  0
    9.8685   -9.5301   -1.3163 H   0  0  0  0  0
   11.5771   -8.6549   -2.8736 H   0  0  0  0  0
   11.5604   -5.8568   -6.5878 H   0  0  0  0  0
    6.4772   -6.4117   -4.8129 H   0  0  0  0  0
    8.0106   -5.8054   -8.0166 H   0  0  0  0  0
    5.0390   -4.5075   -5.1923 H   0  0  0  0  0
    4.0326   -3.0726   -6.9445 H   0  0  0  0  0
    4.9905   -3.0047   -9.2435 H   0  0  0  0  0
  1  2  1  0  0  0
  2  3  1  0  0  0
  3  4  2  0  0  0
  3  5  1  0  0  0
  5  6  1  0  0  0
  6  7  4  0  0  0
  6  8  4  0  0  0
  7 11  4  0  0  0
  8  9  4  0  0  0
  9 10  4  0  0  0
 10 11  4  0  0  0
 10 15  4  0  0  0
 11 12  4  0  0  0
 12 13  4  0  0  0
 12 16  1  0  0  0
 13 14  4  0  0  0
 14 15  4  0  0  0
 16 17  1  0  0  0
 17 18  4  0  0  0
 17 19  4  0  0  0
 18 22  4  0  0  0
 19 20  4  0  0  0
 20 21  4  0  0  0
 21 22  4  0  0  0
 22 23  1  0  0  0
  1 24  1  0  0  0
  1 25  1  0  0  0
  1 26  1  0  0  0
  2 27  1  0  0  0
  2 28  1  0  0  0
  5 29  1  0  0  0
  7 30  1  0  0  0
  8 31  1  0  0  0
  9 32  1  0  0  0
 14 33  1  0  0  0
 16 34  1  0  0  0
 18 35  1  0  0  0
 19 36  1  0  0  0
 20 37  1  0  0  0
 21 38  1  0  0  0
M  END
$$$$
