4y63_ligand
  -I-interpret- 

 40 41  0  0  0  0  0  0  0  0999 V2000
   14.4090   19.0660    9.5940 N   0  0  0  0  0
   18.2760   24.6350    6.8260 O   0  0  0  0  0
   17.6930   24.0580    7.7400 C   0  0  0  0  0
   18.2270   24.0970    9.0260 N   0  0  0  0  0
   17.6010   23.4590   10.0910 C   0  0  0  0  0
   18.1180   23.5240   11.2070 O   0  0  0  0  0
   16.4170   22.7660    9.8580 C   0  0  0  0  0
   15.8970   22.7380    8.5620 C   0  0  0  0  0
   16.5530   23.3940    7.4990 N   0  0  0  0  0
   16.0210   23.3900    6.1070 C   0  0  0  0  0
   14.6720   22.8790    6.0880 O   0  0  0  0  0
   16.8520   22.4990    5.1740 C   0  0  0  0  0
   16.8580   23.0410    3.8300 O   0  0  0  0  0
   16.0690   21.2400    5.2220 C   0  0  0  0  0
   16.3440   20.4110    4.0830 O   0  0  0  0  0
   14.6530   21.7930    5.1610 C   0  0  0  0  0
   13.5600   20.7840    5.5350 C   0  0  0  0  0
   13.8520   20.1760    6.8340 N   0  0  0  0  0
   14.5030   19.0070    6.9830 C   0  0  0  0  0
   14.9210   18.3770    6.0080 O   0  0  0  0  0
   14.7880   18.4770    8.4370 C   0  0  0  0  0
   15.5030   17.1450    8.6300 C   0  0  0  0  0
   13.8910   19.9910    9.6460 N   0  0  0  0  0
   13.3490   20.9600    9.6950 N   0  0  0  0  0
   19.0963   24.6047    9.1899 H   0  0  0  0  0
   15.9045   22.2541   10.6725 H   0  0  0  0  0
   14.9688   22.2003    8.3686 H   0  0  0  0  0
   16.0615   24.4226    5.7603 H   0  0  0  0  0
   17.8996   22.3949    5.4563 H   0  0  0  0  0
   17.3812   22.4732    3.2595 H   0  0  0  0  0
   16.2795   20.6078    6.0846 H   0  0  0  0  0
   15.8244   19.6059    4.1417 H   0  0  0  0  0
   14.3997   22.0784    4.1400 H   0  0  0  0  0
   13.5233   20.0020    4.7765 H   0  0  0  0  0
   12.6025   21.3017    5.5919 H   0  0  0  0  0
   13.5448   20.6659    7.6743 H   0  0  0  0  0
   14.7155   19.4213    7.8974 H   0  0  0  0  0
   14.9190   16.3501    8.1662 H   0  0  0  0  0
   16.4880   17.1922    8.1656 H   0  0  0  0  0
   15.6116   16.9434    9.6957 H   0  0  0  0  0
 21  1  1  0  0  0
  1 23  2  0  0  0
  3  2  2  0  0  0
  3  4  1  0  0  0
  9  3  1  0  0  0
  4  5  1  0  0  0
  5  6  2  0  0  0
  7  5  1  0  0  0
  8  7  2  0  0  0
  9  8  1  0  0  0
 10  9  1  0  0  0
 11 10  1  0  0  0
 12 10  1  0  0  0
 16 11  1  0  0  0
 12 13  1  0  0  0
 14 12  1  0  0  0
 14 15  1  0  0  0
 16 14  1  0  0  0
 17 16  1  0  0  0
 18 17  1  0  0  0
 19 18  1  0  0  0
 19 20  2  0  0  0
 19 21  1  0  0  0
 21 22  1  0  0  0
 23 24  3  0  0  0
  4 25  1  0  0  0
  7 26  1  0  0  0
  8 27  1  0  0  0
 10 28  1  0  0  0
 12 29  1  0  0  0
 13 30  1  0  0  0
 14 31  1  0  0  0
 15 32  1  0  0  0
 16 33  1  0  0  0
 17 34  1  0  0  0
 17 35  1  0  0  0
 18 36  1  0  0  0
 21 37  1  0  0  0
 22 38  1  0  0  0
 22 39  1  0  0  0
 22 40  1  0  0  0
M  END
$$$$
