5vee_ligand
  -I-interpret- 

 61 65  0  0  0  0  0  0  0  0999 V2000
  -25.6430   13.9270  -17.2170 C   0  0  0  0  0
  -26.6720   13.8190  -18.1090 C   0  0  0  0  0
  -27.9270   13.4860  -17.6890 C   0  0  0  0  0
  -39.9840   12.8330  -10.6020 C   0  0  0  0  0
  -40.6620   13.6170   -9.4630 C   0  0  0  0  0
  -25.8470   13.6900  -15.8680 C   0  0  0  0  0
  -27.1030   13.3440  -15.4110 C   0  0  0  0  0
  -28.1120   13.2320  -16.3280 C   0  0  0  0  0
  -29.4810   12.8570  -15.8390 C   0  0  0  0  0
  -30.0660   11.6460  -16.2890 C   0  0  0  0  0
  -31.4130   11.3990  -15.7910 C   0  0  0  0  0
  -32.0150   10.2460  -16.2170 C   0  0  0  0  0
  -35.6190   12.2070  -12.7710 C   0  0  0  0  0
  -36.5130   12.9230  -11.9880 C   0  0  0  0  0
  -37.8900   12.6990  -12.0320 C   0  0  0  0  0
  -38.8690   14.9320  -11.3360 C   0  0  0  0  0
  -38.9730   15.4450   -9.9030 C   0  0  0  0  0
  -30.2070   13.8070  -14.8890 C   0  0  0  0  0
  -32.0760   12.2600  -14.9270 C   0  0  0  0  0
  -33.9050   10.7700  -14.9330 C   0  0  0  0  0
  -36.0990   11.2520  -13.6400 C   0  0  0  0  0
  -37.4760   11.0090  -13.6740 C   0  0  0  0  0
  -38.3800   11.7320  -12.8730 C   0  0  0  0  0
  -32.3230   14.3000  -13.4640 C   0  0  0  0  0
  -32.1280   15.8250  -13.5120 C   0  0  0  0  0
  -35.9480   13.8360  -11.1750 F   0  0  0  0  0
  -40.2210   14.9970   -9.2890 N   0  3  0  0  0
  -33.2650    9.9340  -15.7940 N   0  0  0  0  0
  -38.8180   13.4720  -11.2000 N   0  0  0  0  0
  -31.5160   13.4860  -14.4420 N   0  0  0  0  0
  -33.2810   11.8980  -14.5280 N   0  0  0  0  0
  -35.2360   10.4250  -14.4820 N   0  0  0  0  0
  -29.5450   14.9590  -14.4870 O   0  0  0  0  0
  -24.0880   14.3810  -17.9640 Cl  0  0  0  0  0
  -29.1200   13.3890  -19.0090 Cl  0  0  0  0  0
  -26.4886   14.0008  -19.1680 H   0  0  0  0  0
  -40.7252   12.7371  -11.3954 H   0  0  0  0  0
  -39.6347   11.8963  -10.1676 H   0  0  0  0  0
  -40.4107   13.0956   -8.5394 H   0  0  0  0  0
  -41.7226   13.6625   -9.7104 H   0  0  0  0  0
  -25.0165   13.7766  -15.1674 H   0  0  0  0  0
  -27.2852   13.1654  -14.3513 H   0  0  0  0  0
  -29.5490   10.9548  -16.9546 H   0  0  0  0  0
  -31.4885    9.5771  -16.8978 H   0  0  0  0  0
  -34.5483   12.3981  -12.6993 H   0  0  0  0  0
  -37.9913   15.3257  -11.8485 H   0  0  0  0  0
  -39.7103   15.2564  -11.9484 H   0  0  0  0  0
  -38.9550   16.5348   -9.9146 H   0  0  0  0  0
  -38.1344   15.0559   -9.3256 H   0  0  0  0  0
  -31.0436   14.3088  -14.4028 H   0  0  0  0  0
  -37.8605   10.2369  -14.3405 H   0  0  0  0  0
  -39.4496   11.5274  -12.9200 H   0  0  0  0  0
  -33.3687   14.1221  -13.7148 H   0  0  0  0  0
  -31.9993   13.9861  -12.4717 H   0  0  0  0  0
  -31.0842   16.0631  -13.3076 H   0  0  0  0  0
  -32.3991   16.1937  -14.5013 H   0  0  0  0  0
  -32.7630   16.2950  -12.7611 H   0  0  0  0  0
  -40.0607   15.0900   -8.2860 H   0  0  0  0  0
  -40.9442   15.5559   -9.7418 H   0  0  0  0  0
  -35.6061    9.5220  -14.7787 H   0  0  0  0  0
  -30.1103   15.4619  -13.8961 H   0  0  0  0  0
  2  1  4  0  0  0
  6  1  4  0  0  0
  1 34  1  0  0  0
  3  2  4  0  0  0
  8  3  4  0  0  0
  3 35  1  0  0  0
  4  5  1  0  0  0
 29  4  1  0  0  0
  5 27  1  0  0  0
  7  6  4  0  0  0
  8  7  4  0  0  0
  9  8  1  0  0  0
  9 10  2  0  0  0
 18  9  1  0  0  0
 11 10  1  0  0  0
 11 12  4  0  0  0
 19 11  4  0  0  0
 12 28  4  0  0  0
 13 14  4  0  0  0
 21 13  4  0  0  0
 14 15  4  0  0  0
 14 26  1  0  0  0
 23 15  4  0  0  0
 15 29  1  0  0  0
 16 17  1  0  0  0
 29 16  1  0  0  0
 17 27  1  0  0  0
 30 18  1  0  0  0
 18 33  1  0  0  0
 30 19  1  0  0  0
 19 31  4  0  0  0
 20 28  4  0  0  0
 31 20  4  0  0  0
 20 32  1  0  0  0
 21 22  4  0  0  0
 32 21  1  0  0  0
 22 23  4  0  0  0
 24 25  1  0  0  0
 24 30  1  0  0  0
  2 36  1  0  0  0
  4 37  1  0  0  0
  4 38  1  0  0  0
  5 39  1  0  0  0
  5 40  1  0  0  0
  6 41  1  0  0  0
  7 42  1  0  0  0
 10 43  1  0  0  0
 12 44  1  0  0  0
 13 45  1  0  0  0
 16 46  1  0  0  0
 16 47  1  0  0  0
 17 48  1  0  0  0
 17 49  1  0  0  0
 18 50  1  0  0  0
 22 51  1  0  0  0
 23 52  1  0  0  0
 24 53  1  0  0  0
 24 54  1  0  0  0
 25 55  1  0  0  0
 25 56  1  0  0  0
 25 57  1  0  0  0
 27 58  1  0  0  0
 27 59  1  0  0  0
 32 60  1  0  0  0
 33 61  1  0  0  0
M  END
$$$$
