### 
### Created by X-TOOL on Mon Sep 10 21:13:31 2018
### 

@<TRIPOS>MOLECULE
5xup_ligand
  242   242     1     0     0
SMALL
GAST_HUCK


@<TRIPOS>ATOM
      1 N         -75.8080   27.6640   -4.7230 N.4       1 LYS         0.2379
      2 CA        -75.4340   28.5140   -5.8810 C.3       1 LYS         0.0650
      3 C         -73.9380   28.3960   -6.1630 C.2       1 LYS         0.2267
      4 O         -73.2310   27.6080   -5.5270 O.2       1 LYS        -0.3907
      5 CB        -75.8030   29.9770   -5.6040 C.3       1 LYS         0.0080
      6 CG        -75.8190   30.8790   -6.8390 C.3       1 LYS        -0.0410
      7 CD        -75.5070   32.3230   -6.4820 C.3       1 LYS        -0.0123
      8 CE        -76.7130   33.0190   -5.8730 C.3       1 LYS        -0.0354
      9 NZ        -76.3410   34.3480   -5.3290 N.4       1 LYS         0.2185
     10 N         -73.4780   29.1830   -7.1330 N.am      1 ILE        -0.2608
     11 CA        -72.0650   29.3190   -7.4740 C.3       1 ILE         0.1336
     12 C         -71.3200   29.9280   -6.2860 C.2       1 ILE         0.2042
     13 O         -71.6980   30.9910   -5.7780 O.2       1 ILE        -0.3944
     14 CB        -71.8980   30.1890   -8.7420 C.3       1 ILE        -0.0037
     15 CG1       -72.6200   29.5310   -9.9280 C.3       1 ILE        -0.0491
     16 CG2       -70.4260   30.4150   -9.0630 C.3       1 ILE        -0.0582
     17 CD1       -73.3400   30.4970  -10.8460 C.3       1 ILE        -0.0648
     18 N         -70.2790   29.2380   -5.8320 N.am      1 LEU        -0.2637
     19 CA        -69.5300   29.6740   -4.6670 C.3       1 LEU         0.1312
     20 C         -68.1720   30.3000   -5.0170 C.2       1 LEU         0.2039
     21 O         -68.0530   31.5240   -5.0750 O.2       1 LEU        -0.3944
     22 CB        -69.3550   28.5020   -3.6870 C.3       1 LEU        -0.0101
     23 CG        -68.8960   28.7950   -2.2580 C.3       1 LEU        -0.0425
     24 CD1       -69.8750   29.6860   -1.4960 C.3       1 LEU        -0.0625
     25 CD2       -68.6850   27.4720   -1.5350 C.3       1 LEU        -0.0625
     26 N         -67.1640   29.4660   -5.2670 N.am      1 LEU        -0.2637
     27 CA        -65.8290   29.9540   -5.6270 C.3       1 LEU         0.1312
     28 C         -65.5170   29.6560   -7.0870 C.2       1 LEU         0.2040
     29 O         -64.9400   30.4900   -7.7790 O.2       1 LEU        -0.3944
     30 CB        -64.7230   29.3770   -4.7260 C.3       1 LEU        -0.0101
     31 CG        -64.8450   29.5920   -3.2130 C.3       1 LEU        -0.0425
     32 CD1       -63.5650   29.1650   -2.5190 C.3       1 LEU        -0.0625
     33 CD2       -65.1540   31.0440   -2.8800 C.3       1 LEU        -0.0625
     34 N         -65.8980   28.4650   -7.5440 N.am      1 THR        -0.2613
     35 CA        -65.6220   28.0130   -8.9040 C.3       1 THR         0.1567
     36 C         -66.7750   28.4080   -9.8250 C.2       1 THR         0.2090
     37 O         -67.9250   28.0860   -9.5350 O.2       1 THR        -0.3941
     38 CB        -65.4200   26.4850   -8.9220 C.3       1 THR         0.0924
     39 OG1       -64.3930   26.1430   -7.9860 O.3       1 THR        -0.3874
     40 CG2       -65.0290   25.9810  -10.3100 C.3       1 THR        -0.0346
     41 N         -66.4720   29.1220  -10.9310 N.am      1 PRO        -0.2498
     42 CA        -67.5170   29.6020  -11.8380 C.3       1 PRO         0.1338
     43 C         -68.0990   28.4970  -12.6990 C.2       1 PRO         0.2041
     44 O         -67.4490   27.4770  -12.9120 O.2       1 PRO        -0.3944
     45 CB        -66.7730   30.5760  -12.7480 C.3       1 PRO        -0.0104
     46 CG        -65.3710   30.0630  -12.7700 C.3       1 PRO        -0.0281
     47 CD        -65.1260   29.5230  -11.3860 C.3       1 PRO         0.0369
     48 N         -69.3160   28.7170  -13.1900 N.am      1 ARG        -0.2637
     49 CA        -69.8710   27.9080  -14.2660 C.3       1 ARG         0.1311
     50 C         -69.1310   28.2930  -15.5420 C.2       1 ARG         0.2039
     51 O         -68.6420   29.4180  -15.6890 O.2       1 ARG        -0.3944
     52 CB        -71.3550   28.2160  -14.4430 C.3       1 ARG        -0.0092
     53 CG        -72.2420   26.9960  -14.5790 C.3       1 ARG        -0.0156
     54 CD        -73.0980   26.8110  -13.3350 C.3       1 ARG         0.0627
     55 NE        -74.2490   27.7160  -13.3330 N.pl3     1 ARG        -0.2723
     56 CZ        -75.1730   27.7770  -12.3740 C.cat     1 ARG         0.2882
     57 NH1       -76.1770   28.6400  -12.4780 N.pl3     1 ARG        -0.2849
     58 NH2       -75.1010   26.9830  -11.3100 N.pl3     1 ARG        -0.2849
     59 N         -69.0330   27.3570  -16.4670 N.am      1 ARG        -0.2637
     60 CA        -68.4760   27.6660  -17.7710 C.3       1 ARG         0.1311
     61 C         -69.6250   27.8830  -18.7480 C.2       1 ARG         0.2039
     62 O         -70.6040   27.1330  -18.7340 O.2       1 ARG        -0.3944
     63 CB        -67.5530   26.5390  -18.2380 C.3       1 ARG        -0.0092
     64 CG        -66.7600   26.8620  -19.4900 C.3       1 ARG        -0.0156
     65 CD        -66.1190   25.6090  -20.0600 C.3       1 ARG         0.0627
     66 NE        -66.2630   25.5570  -21.5140 N.pl3     1 ARG        -0.2723
     67 CZ        -67.2090   24.8740  -22.1560 C.cat     1 ARG         0.2882
     68 NH1       -68.1070   24.1600  -21.4830 N.pl3     1 ARG        -0.2849
     69 NH2       -67.2520   24.9030  -23.4810 N.pl3     1 ARG        -0.2849
     70 N         -69.5140   28.9250  -19.5690 N.am      1 ARG        -0.2637
     71 CA        -70.5010   29.2160  -20.6120 C.3       1 ARG         0.1311
     72 C         -70.4630   28.1800  -21.7370 C.2       1 ARG         0.2039
     73 O         -69.4650   28.0600  -22.4520 O.2       1 ARG        -0.3944
     74 CB        -70.2760   30.6140  -21.1890 C.3       1 ARG        -0.0092
     75 CG        -70.2860   31.7120  -20.1490 C.3       1 ARG        -0.0156
     76 CD        -70.6960   33.0250  -20.7810 C.3       1 ARG         0.0627
     77 NE        -70.2240   34.1660  -20.0060 N.pl3     1 ARG        -0.2723
     78 CZ        -70.8310   34.6410  -18.9250 C.cat     1 ARG         0.2882
     79 NH1       -71.9360   34.0660  -18.4730 N.pl3     1 ARG        -0.2849
     80 NH2       -70.3260   35.6910  -18.2900 N.pl3     1 ARG        -0.2849
     81 N         -71.5620   27.4500  -21.8990 N.am      1 GLN        -0.2636
     82 CA        -71.6080   26.3270  -22.8290 C.3       1 GLN         0.1330
     83 C         -72.2090   26.6580  -24.1950 C.2       1 GLN         0.2040
     84 O         -72.9660   27.6230  -24.3490 O.2       1 GLN        -0.3944
     85 CB        -72.3600   25.1460  -22.2030 C.3       1 GLN         0.0045
     86 CG        -71.5830   24.4190  -21.1140 C.3       1 GLN         0.0412
     87 CD        -72.1210   23.0280  -20.8250 C.2       1 GLN         0.1737
     88 OE1       -73.2320   22.6750  -21.2290 O.2       1 GLN        -0.3973
     89 NE2       -71.3310   22.2270  -20.1190 N.am      1 GLN        -0.3009
     90 N         -71.8280   25.8470  -25.1800 N.am      1 ARG        -0.2637
     91 CA        -72.5020   25.7580  -26.4720 C.3       1 ARG         0.1310
     92 C         -73.3030   24.4590  -26.4560 C.2       1 ARG         0.2033
     93 O         -72.7490   23.3840  -26.2040 O.2       1 ARG        -0.3944
     94 CB        -71.4910   25.7420  -27.6220 C.3       1 ARG        -0.0092
     95 CG        -70.7800   27.0760  -27.8160 C.3       1 ARG        -0.0156
     96 CD        -69.8770   27.0400  -29.0390 C.3       1 ARG         0.0627
     97 NE        -69.0630   28.2620  -29.0840 N.pl3     1 ARG        -0.2723
     98 CZ        -68.0480   28.4610  -29.9240 C.cat     1 ARG         0.2882
     99 NH1       -67.7230   27.5240  -30.8080 N.pl3     1 ARG        -0.2849
    100 NH2       -67.3570   29.6000  -29.8730 N.pl3     1 ARG        -0.2849
    101 N         -74.6080   24.5670  -26.6990 N.am      1 LEU        -0.2695
    102 CA        -75.5220   23.4230  -26.5790 C.3       1 LEU         0.0946
    103 C         -76.4060   23.2560  -27.8200 C.2       1 LEU         0.0601
    104 O         -76.1040   23.8080  -28.8960 O.co2     1 LEU        -0.5666
    105 CB        -76.3560   23.4980  -25.2750 C.3       1 LEU        -0.0156
    106 CG        -76.6710   24.8310  -24.5730 C.3       1 LEU        -0.0431
    107 CD1       -76.9300   24.6230  -23.0850 C.3       1 LEU        -0.0625
    108 CD2       -75.5710   25.8590  -24.7530 C.3       1 LEU        -0.0625
    109 OXT       -77.4430   22.5650  -27.7750 O.co2     1 LEU        -0.5666
    110 H1        -76.7968   27.7511   -4.5478 H         1 LYS         0.2015
    111 H2        -75.2949   27.9617   -3.9080 H         1 LYS         0.2015
    112 H3        -75.5863   26.7020   -4.9268 H         1 LYS         0.2015
    113 H4        -75.9892   28.1700   -6.7661 H         1 LYS         0.1098
    114 H5        -75.0714   30.3855   -4.8914 H         1 LYS         0.0346
    115 H6        -76.8058   29.9975   -5.1523 H         1 LYS         0.0346
    116 H7        -76.8160   30.8332   -7.3015 H         1 LYS         0.0270
    117 H8        -75.0658   30.5176   -7.5546 H         1 LYS         0.0270
    118 H9        -75.2072   32.8600   -7.3940 H         1 LYS         0.0317
    119 H10       -74.6799   32.3413   -5.7570 H         1 LYS         0.0317
    120 H11       -77.1146   32.3969   -5.0595 H         1 LYS         0.0813
    121 H12       -77.4822   33.1502   -6.6483 H         1 LYS         0.0813
    122 H13       -77.1560   34.7885   -4.9316 H         1 LYS         0.1994
    123 H14       -75.9756   34.9244   -6.0708 H         1 LYS         0.1994
    124 H15       -75.6388   34.2342   -4.6149 H         1 LYS         0.1994
    125 H16       -74.1412   29.7138   -7.6607 H         1 ILE         0.1885
    126 H17       -71.6498   28.3210   -7.6781 H         1 ILE         0.0803
    127 H18       -72.3620   31.1683   -8.5532 H         1 ILE         0.0345
    128 H19       -73.3601   28.8223   -9.5281 H         1 ILE         0.0267
    129 H20       -71.8735   28.9847  -10.5232 H         1 ILE         0.0267
    130 H21       -69.9309   30.8860   -8.2010 H         1 ILE         0.0235
    131 H22       -70.3388   31.0727   -9.9404 H         1 ILE         0.0235
    132 H23       -69.9454   29.4495   -9.2793 H         1 ILE         0.0235
    133 H24       -73.8239   29.9375  -11.6602 H         1 ILE         0.0230
    134 H25       -72.6162   31.2087  -11.2699 H         1 ILE         0.0230
    135 H26       -74.1028   31.0463  -10.2747 H         1 ILE         0.0230
    136 H27       -70.0053   28.3996   -6.3033 H         1 LEU         0.1883
    137 H28       -70.1263   30.4493   -4.1637 H         1 LEU         0.0800
    138 H29       -68.6153   27.8188   -4.1298 H         1 LEU         0.0315
    139 H30       -70.3276   27.9931   -3.6155 H         1 LEU         0.0315
    140 H31       -67.9324   29.3231   -2.3083 H         1 LEU         0.0298
    141 H32       -69.4948   29.8624   -0.4790 H         1 LEU         0.0232
    142 H33       -70.8551   29.1899   -1.4401 H         1 LEU         0.0232
    143 H34       -69.9800   30.6474   -2.0201 H         1 LEU         0.0232
    144 H35       -67.9773   26.8517   -2.1046 H         1 LEU         0.0232
    145 H36       -69.6464   26.9447   -1.4472 H         1 LEU         0.0232
    146 H37       -68.2788   27.6636   -0.5309 H         1 LEU         0.0232
    147 H38       -67.3220   28.4803   -5.2076 H         1 LEU         0.1883
    148 H39       -65.8303   31.0461   -5.4956 H         1 LEU         0.0800
    149 H40       -63.7719   29.8281   -5.0452 H         1 LEU         0.0315
    150 H41       -64.6910   28.2915   -4.9010 H         1 LEU         0.0315
    151 H42       -65.6710   28.9680   -2.8411 H         1 LEU         0.0298
    152 H43       -63.6650   29.3240   -1.4352 H         1 LEU         0.0232
    153 H44       -62.7239   29.7622   -2.9011 H         1 LEU         0.0232
    154 H45       -63.3782   28.0993   -2.7175 H         1 LEU         0.0232
    155 H46       -66.0826   31.3466   -3.3861 H         1 LEU         0.0232
    156 H47       -64.3258   31.6826   -3.2208 H         1 LEU         0.0232
    157 H48       -65.2771   31.1526   -1.7923 H         1 LEU         0.0232
    158 H49       -66.3950   27.8534   -6.9285 H         1 THR         0.1884
    159 H50       -64.7006   28.4967   -9.2605 H         1 THR         0.0826
    160 H51       -66.3606   25.9995   -8.6227 H         1 THR         0.0639
    161 H52       -64.6527   26.4232   -7.1162 H         1 THR         0.2101
    162 H53       -64.8949   24.8896  -10.2794 H         1 THR         0.0257
    163 H54       -64.0877   26.4574  -10.6214 H         1 THR         0.0257
    164 H55       -65.8228   26.2329  -11.0286 H         1 THR         0.0257
    165 H56       -68.3212   30.1014  -11.2778 H         1 PRO         0.0802
    166 H57       -66.8081   31.5963  -12.3384 H         1 PRO         0.0313
    167 H58       -67.2053   30.5719  -13.7595 H         1 PRO         0.0313
    168 H59       -64.6662   30.8765  -12.9969 H         1 PRO         0.0287
    169 H60       -65.2639   29.2652  -13.5197 H         1 PRO         0.0287
    170 H61       -64.4468   28.6582  -11.4156 H         1 PRO         0.0524
    171 H62       -64.7038   30.2986  -10.7301 H         1 PRO         0.0524
    172 H63       -69.8659   29.4601  -12.8087 H         1 ARG         0.1883
    173 H64       -69.7339   26.8385  -14.0484 H         1 ARG         0.0800
    174 H65       -71.4724   28.8278  -15.3496 H         1 ARG         0.0313
    175 H66       -71.6929   28.7895  -13.5673 H         1 ARG         0.0313
    176 H67       -71.6118   26.1054  -14.7191 H         1 ARG         0.0301
    177 H68       -72.8980   27.1223  -15.4529 H         1 ARG         0.0301
    178 H69       -72.4834   27.0133  -12.4455 H         1 ARG         0.0689
    179 H70       -73.4602   25.7729  -13.3021 H         1 ARG         0.0689
    180 H71       -74.3528   28.3548  -14.1343 H         1 ARG         0.2642
    181 H72       -76.8924   28.6894  -11.7386 H         1 ARG         0.2615
    182 H73       -76.2403   29.2600  -13.2981 H         1 ARG         0.2615
    183 H74       -74.3259   26.3105  -11.2207 H         1 ARG         0.2615
    184 H75       -75.8203   27.0403  -10.5750 H         1 ARG         0.2615
    185 H76       -69.3448   26.4279  -16.2680 H         1 ARG         0.1883
    186 H77       -67.8879   28.5929  -17.7007 H         1 ARG         0.0800
    187 H78       -68.1689   25.6502  -18.4397 H         1 ARG         0.0313
    188 H79       -66.8428   26.3169  -17.4279 H         1 ARG         0.0313
    189 H80       -65.9726   27.5886  -19.2408 H         1 ARG         0.0301
    190 H81       -67.4348   27.2962  -20.2424 H         1 ARG         0.0301
    191 H82       -66.6040   24.7254  -19.6195 H         1 ARG         0.0689
    192 H83       -65.0490   25.6053  -19.8050 H         1 ARG         0.0689
    193 H84       -65.5853   26.0857  -22.0816 H         1 ARG         0.2642
    194 H85       -68.8338   23.6360  -21.9910 H         1 ARG         0.2615
    195 H86       -68.0756   24.1311  -20.4539 H         1 ARG         0.2615
    196 H87       -66.5589   25.4544  -24.0068 H         1 ARG         0.2615
    197 H88       -67.9785   24.3741  -23.9844 H         1 ARG         0.2615
    198 H89       -68.7262   29.5329  -19.4700 H         1 ARG         0.1883
    199 H90       -71.4999   29.1865  -20.1524 H         1 ARG         0.0800
    200 H91       -71.0726   30.8204  -21.9189 H         1 ARG         0.0313
    201 H92       -69.3006   30.6266  -21.6973 H         1 ARG         0.0313
    202 H93       -69.2789   31.8145  -19.7187 H         1 ARG         0.0301
    203 H94       -71.0001   31.4528  -19.3534 H         1 ARG         0.0301
    204 H95       -71.7936   33.0644  -20.8414 H         1 ARG         0.0689
    205 H96       -70.2708   33.0815  -21.7939 H         1 ARG         0.0689
    206 H97       -69.3617   34.6351  -20.3180 H         1 ARG         0.2642
    207 H98       -72.4038   34.4377  -17.6340 H         1 ARG         0.2615
    208 H99       -72.3271   33.2474  -18.9607 H         1 ARG         0.2615
    209 H100      -69.4672   36.1399  -18.6391 H         1 ARG         0.2615
    210 H101      -70.7928   36.0571  -17.4480 H         1 ARG         0.2615
    211 H102      -72.3792   27.6767  -21.3691 H         1 GLN         0.1883
    212 H103      -70.5685   26.0116  -23.0021 H         1 GLN         0.0801
    213 H104      -72.5944   24.4247  -22.9997 H         1 GLN         0.0337
    214 H105      -73.2950   25.5253  -21.7651 H         1 GLN         0.0337
    215 H106      -71.6358   25.0136  -20.1901 H         1 GLN         0.0504
    216 H107      -70.5341   24.3292  -21.4329 H         1 GLN         0.0504
    217 H108      -71.6299   21.2990  -19.8968 H         1 GLN         0.1814
    218 H109      -70.4373   22.5520  -19.8097 H         1 GLN         0.1814
    219 H110      -71.0312   25.2630  -25.0252 H         1 ARG         0.1883
    220 H111      -73.1786   26.6158  -26.5996 H         1 ARG         0.0800
    221 H112      -72.0230   25.4912  -28.5515 H         1 ARG         0.0313
    222 H113      -70.7354   24.9706  -27.4123 H         1 ARG         0.0313
    223 H114      -70.1711   27.2918  -26.9257 H         1 ARG         0.0301
    224 H115      -71.5316   27.8684  -27.9472 H         1 ARG         0.0301
    225 H116      -70.4933   26.9766  -29.9479 H         1 ARG         0.0689
    226 H117      -69.2169   26.1619  -28.9815 H         1 ARG         0.0689
    227 H118      -69.2925   29.0163  -28.4212 H         1 ARG         0.2642
    228 H119      -66.9383   27.6784  -31.4571 H         1 ARG         0.2615
    229 H120      -68.2557   26.6432  -30.8443 H         1 ARG         0.2615
    230 H121      -67.6100   30.3256  -29.1872 H         1 ARG         0.2615
    231 H122      -66.5701   29.7544  -30.5194 H         1 ARG         0.2615
    232 H123      -74.9776   25.4552  -26.9719 H         1 LEU         0.1875
    233 H124      -74.8978   22.5200  -26.5091 H         1 LEU         0.0726
    234 H125      -75.8241   22.8812  -24.5357 H         1 LEU         0.0308
    235 H126      -77.3276   23.0370  -25.5062 H         1 LEU         0.0308
    236 H127      -77.5878   25.2352  -25.0269 H         1 LEU         0.0297
    237 H128      -77.1516   25.5913  -22.6126 H         1 LEU         0.0232
    238 H129      -76.0384   24.1816  -22.6158 H         1 LEU         0.0232
    239 H130      -77.7869   23.9461  -22.9531 H         1 LEU         0.0232
    240 H131      -75.3827   26.0104  -25.8261 H         1 LEU         0.0232
    241 H132      -74.6516   25.5013  -24.2664 H         1 LEU         0.0232
    242 H133      -75.8806   26.8110  -24.2972 H         1 LEU         0.0232
@<TRIPOS>BOND
     1    1    2 1  
     2    2    3 1  
     3    2    5 1  
     4    3    4 2  
     5    3   10 am 
     6    5    6 1  
     7    6    7 1  
     8    7    8 1  
     9    8    9 1  
    10   10   11 1  
    11   11   12 1  
    12   11   14 1  
    13   12   13 2  
    14   12   18 am 
    15   14   15 1  
    16   14   16 1  
    17   15   17 1  
    18   18   19 1  
    19   19   20 1  
    20   19   22 1  
    21   20   21 2  
    22   20   26 am 
    23   22   23 1  
    24   23   24 1  
    25   23   25 1  
    26   26   27 1  
    27   27   28 1  
    28   27   30 1  
    29   28   29 2  
    30   28   34 am 
    31   30   31 1  
    32   31   32 1  
    33   31   33 1  
    34   34   35 1  
    35   35   36 1  
    36   35   38 1  
    37   36   37 2  
    38   36   41 am 
    39   38   39 1  
    40   38   40 1  
    41   41   42 1  
    42   41   47 1  
    43   42   43 1  
    44   42   45 1  
    45   43   44 2  
    46   43   48 am 
    47   45   46 1  
    48   46   47 1  
    49   48   49 1  
    50   49   50 1  
    51   49   52 1  
    52   50   51 2  
    53   50   59 am 
    54   52   53 1  
    55   53   54 1  
    56   54   55 1  
    57   55   56 ar 
    58   56   57 ar 
    59   56   58 ar 
    60   59   60 1  
    61   60   61 1  
    62   60   63 1  
    63   61   62 2  
    64   61   70 am 
    65   63   64 1  
    66   64   65 1  
    67   65   66 1  
    68   66   67 ar 
    69   67   68 ar 
    70   67   69 ar 
    71   70   71 1  
    72   71   72 1  
    73   71   74 1  
    74   72   73 2  
    75   72   81 am 
    76   74   75 1  
    77   75   76 1  
    78   76   77 1  
    79   77   78 ar 
    80   78   79 ar 
    81   78   80 ar 
    82   81   82 1  
    83   82   83 1  
    84   82   85 1  
    85   83   84 2  
    86   83   90 am 
    87   85   86 1  
    88   86   87 1  
    89   87   88 2  
    90   87   89 am 
    91   90   91 1  
    92   91   92 1  
    93   91   94 1  
    94   92   93 2  
    95   92  101 am 
    96   94   95 1  
    97   95   96 1  
    98   96   97 1  
    99   97   98 ar 
   100   98   99 ar 
   101   98  100 ar 
   102  101  102 1  
   103  102  103 1  
   104  102  105 1  
   105  103  104 ar 
   106  103  109 ar 
   107  105  106 1  
   108  106  107 1  
   109  106  108 1  
   110    1  110 1  
   111    1  111 1  
   112    1  112 1  
   113    2  113 1  
   114    5  114 1  
   115    5  115 1  
   116    6  116 1  
   117    6  117 1  
   118    7  118 1  
   119    7  119 1  
   120    8  120 1  
   121    8  121 1  
   122    9  122 1  
   123    9  123 1  
   124    9  124 1  
   125   10  125 1  
   126   11  126 1  
   127   14  127 1  
   128   15  128 1  
   129   15  129 1  
   130   16  130 1  
   131   16  131 1  
   132   16  132 1  
   133   17  133 1  
   134   17  134 1  
   135   17  135 1  
   136   18  136 1  
   137   19  137 1  
   138   22  138 1  
   139   22  139 1  
   140   23  140 1  
   141   24  141 1  
   142   24  142 1  
   143   24  143 1  
   144   25  144 1  
   145   25  145 1  
   146   25  146 1  
   147   26  147 1  
   148   27  148 1  
   149   30  149 1  
   150   30  150 1  
   151   31  151 1  
   152   32  152 1  
   153   32  153 1  
   154   32  154 1  
   155   33  155 1  
   156   33  156 1  
   157   33  157 1  
   158   34  158 1  
   159   35  159 1  
   160   38  160 1  
   161   39  161 1  
   162   40  162 1  
   163   40  163 1  
   164   40  164 1  
   165   42  165 1  
   166   45  166 1  
   167   45  167 1  
   168   46  168 1  
   169   46  169 1  
   170   47  170 1  
   171   47  171 1  
   172   48  172 1  
   173   49  173 1  
   174   52  174 1  
   175   52  175 1  
   176   53  176 1  
   177   53  177 1  
   178   54  178 1  
   179   54  179 1  
   180   55  180 1  
   181   57  181 1  
   182   57  182 1  
   183   58  183 1  
   184   58  184 1  
   185   59  185 1  
   186   60  186 1  
   187   63  187 1  
   188   63  188 1  
   189   64  189 1  
   190   64  190 1  
   191   65  191 1  
   192   65  192 1  
   193   66  193 1  
   194   68  194 1  
   195   68  195 1  
   196   69  196 1  
   197   69  197 1  
   198   70  198 1  
   199   71  199 1  
   200   74  200 1  
   201   74  201 1  
   202   75  202 1  
   203   75  203 1  
   204   76  204 1  
   205   76  205 1  
   206   77  206 1  
   207   79  207 1  
   208   79  208 1  
   209   80  209 1  
   210   80  210 1  
   211   81  211 1  
   212   82  212 1  
   213   85  213 1  
   214   85  214 1  
   215   86  215 1  
   216   86  216 1  
   217   89  217 1  
   218   89  218 1  
   219   90  219 1  
   220   91  220 1  
   221   94  221 1  
   222   94  222 1  
   223   95  223 1  
   224   95  224 1  
   225   96  225 1  
   226   96  226 1  
   227   97  227 1  
   228   99  228 1  
   229   99  229 1  
   230  100  230 1  
   231  100  231 1  
   232  101  232 1  
   233  102  233 1  
   234  105  234 1  
   235  105  235 1  
   236  106  236 1  
   237  107  237 1  
   238  107  238 1  
   239  107  239 1  
   240  108  240 1  
   241  108  241 1  
   242  108  242 1  
@<TRIPOS>SUBSTRUCTURE
     1 LYS         1

