5xup_ligand
  -I-interpret- 

239239  0  0  0  0  0  0  0  0999 V2000
  -75.8080   27.6640   -4.7230 N   0  3  0  0  0
  -75.4340   28.5140   -5.8810 C   0  0  0  0  0
  -73.9380   28.3960   -6.1630 C   0  0  0  0  0
  -73.2310   27.6080   -5.5270 O   0  0  0  0  0
  -75.8030   29.9770   -5.6040 C   0  0  0  0  0
  -75.8190   30.8790   -6.8390 C   0  0  0  0  0
  -75.5070   32.3230   -6.4820 C   0  0  0  0  0
  -76.7130   33.0190   -5.8730 C   0  0  0  0  0
  -76.3410   34.3480   -5.3290 N   0  3  0  0  0
  -73.4780   29.1830   -7.1330 N   0  0  0  0  0
  -72.0650   29.3190   -7.4740 C   0  0  0  0  0
  -71.3200   29.9280   -6.2860 C   0  0  0  0  0
  -71.6980   30.9910   -5.7780 O   0  0  0  0  0
  -71.8980   30.1890   -8.7420 C   0  0  0  0  0
  -72.6200   29.5310   -9.9280 C   0  0  0  0  0
  -70.4260   30.4150   -9.0630 C   0  0  0  0  0
  -73.3400   30.4970  -10.8460 C   0  0  0  0  0
  -70.2790   29.2380   -5.8320 N   0  0  0  0  0
  -69.5300   29.6740   -4.6670 C   0  0  0  0  0
  -68.1720   30.3000   -5.0170 C   0  0  0  0  0
  -68.0530   31.5240   -5.0750 O   0  0  0  0  0
  -69.3550   28.5020   -3.6870 C   0  0  0  0  0
  -68.8960   28.7950   -2.2580 C   0  0  0  0  0
  -69.8750   29.6860   -1.4960 C   0  0  0  0  0
  -68.6850   27.4720   -1.5350 C   0  0  0  0  0
  -67.1640   29.4660   -5.2670 N   0  0  0  0  0
  -65.8290   29.9540   -5.6270 C   0  0  0  0  0
  -65.5170   29.6560   -7.0870 C   0  0  0  0  0
  -64.9400   30.4900   -7.7790 O   0  0  0  0  0
  -64.7230   29.3770   -4.7260 C   0  0  0  0  0
  -64.8450   29.5920   -3.2130 C   0  0  0  0  0
  -63.5650   29.1650   -2.5190 C   0  0  0  0  0
  -65.1540   31.0440   -2.8800 C   0  0  0  0  0
  -65.8980   28.4650   -7.5440 N   0  0  0  0  0
  -65.6220   28.0130   -8.9040 C   0  0  0  0  0
  -66.7750   28.4080   -9.8250 C   0  0  0  0  0
  -67.9250   28.0860   -9.5350 O   0  0  0  0  0
  -65.4200   26.4850   -8.9220 C   0  0  0  0  0
  -64.3930   26.1430   -7.9860 O   0  0  0  0  0
  -65.0290   25.9810  -10.3100 C   0  0  0  0  0
  -66.4720   29.1220  -10.9310 N   0  0  0  0  0
  -67.5170   29.6020  -11.8380 C   0  0  0  0  0
  -68.0990   28.4970  -12.6990 C   0  0  0  0  0
  -67.4490   27.4770  -12.9120 O   0  0  0  0  0
  -66.7730   30.5760  -12.7480 C   0  0  0  0  0
  -65.3710   30.0630  -12.7700 C   0  0  0  0  0
  -65.1260   29.5230  -11.3860 C   0  0  0  0  0
  -69.3160   28.7170  -13.1900 N   0  0  0  0  0
  -69.8710   27.9080  -14.2660 C   0  0  0  0  0
  -69.1310   28.2930  -15.5420 C   0  0  0  0  0
  -68.6420   29.4180  -15.6890 O   0  0  0  0  0
  -71.3550   28.2160  -14.4430 C   0  0  0  0  0
  -72.2420   26.9960  -14.5790 C   0  0  0  0  0
  -73.0980   26.8110  -13.3350 C   0  0  0  0  0
  -74.2490   27.7160  -13.3330 N   0  0  0  0  0
  -75.1730   27.7770  -12.3740 C   0  0  0  0  0
  -76.1770   28.6400  -12.4780 N   0  0  0  0  0
  -75.1010   26.9830  -11.3100 N   0  0  0  0  0
  -69.0330   27.3570  -16.4670 N   0  0  0  0  0
  -68.4760   27.6660  -17.7710 C   0  0  0  0  0
  -69.6250   27.8830  -18.7480 C   0  0  0  0  0
  -70.6040   27.1330  -18.7340 O   0  0  0  0  0
  -67.5530   26.5390  -18.2380 C   0  0  0  0  0
  -66.7600   26.8620  -19.4900 C   0  0  0  0  0
  -66.1190   25.6090  -20.0600 C   0  0  0  0  0
  -66.2630   25.5570  -21.5140 N   0  0  0  0  0
  -67.2090   24.8740  -22.1560 C   0  0  0  0  0
  -68.1070   24.1600  -21.4830 N   0  0  0  0  0
  -67.2520   24.9030  -23.4810 N   0  0  0  0  0
  -69.5140   28.9250  -19.5690 N   0  0  0  0  0
  -70.5010   29.2160  -20.6120 C   0  0  0  0  0
  -70.4630   28.1800  -21.7370 C   0  0  0  0  0
  -69.4650   28.0600  -22.4520 O   0  0  0  0  0
  -70.2760   30.6140  -21.1890 C   0  0  0  0  0
  -70.2860   31.7120  -20.1490 C   0  0  0  0  0
  -70.6960   33.0250  -20.7810 C   0  0  0  0  0
  -70.2240   34.1660  -20.0060 N   0  0  0  0  0
  -70.8310   34.6410  -18.9250 C   0  0  0  0  0
  -71.9360   34.0660  -18.4730 N   0  0  0  0  0
  -70.3260   35.6910  -18.2900 N   0  0  0  0  0
  -71.5620   27.4500  -21.8990 N   0  0  0  0  0
  -71.6080   26.3270  -22.8290 C   0  0  0  0  0
  -72.2090   26.6580  -24.1950 C   0  0  0  0  0
  -72.9660   27.6230  -24.3490 O   0  0  0  0  0
  -72.3600   25.1460  -22.2030 C   0  0  0  0  0
  -71.5830   24.4190  -21.1140 C   0  0  0  0  0
  -72.1210   23.0280  -20.8250 C   0  0  0  0  0
  -73.2320   22.6750  -21.2290 O   0  0  0  0  0
  -71.3310   22.2270  -20.1190 N   0  0  0  0  0
  -71.8280   25.8470  -25.1800 N   0  0  0  0  0
  -72.5020   25.7580  -26.4720 C   0  0  0  0  0
  -73.3030   24.4590  -26.4560 C   0  0  0  0  0
  -72.7490   23.3840  -26.2040 O   0  0  0  0  0
  -71.4910   25.7420  -27.6220 C   0  0  0  0  0
  -70.7800   27.0760  -27.8160 C   0  0  0  0  0
  -69.8770   27.0400  -29.0390 C   0  0  0  0  0
  -69.0630   28.2620  -29.0840 N   0  0  0  0  0
  -68.0480   28.4610  -29.9240 C   0  0  0  0  0
  -67.7230   27.5240  -30.8080 N   0  0  0  0  0
  -67.3570   29.6000  -29.8730 N   0  0  0  0  0
  -74.6080   24.5670  -26.6990 N   0  0  0  0  0
  -75.5220   23.4230  -26.5790 C   0  0  0  0  0
  -76.4060   23.2560  -27.8200 C   0  0  0  0  0
  -76.1040   23.8080  -28.8960 O   0  0  0  0  0
  -76.3560   23.4980  -25.2750 C   0  0  0  0  0
  -76.6710   24.8310  -24.5730 C   0  0  0  0  0
  -76.9300   24.6230  -23.0850 C   0  0  0  0  0
  -75.5710   25.8590  -24.7530 C   0  0  0  0  0
  -77.4430   22.5650  -27.7750 O   0  0  0  0  0
  -75.5578   26.6948   -4.9193 H   0  0  0  0  0
  -75.3090   27.9837   -3.8928 H   0  0  0  0  0
  -76.8133   27.7314   -4.5639 H   0  0  0  0  0
  -75.9842   28.1710   -6.7572 H   0  0  0  0  0
  -75.0419   30.3737   -4.9321 H   0  0  0  0  0
  -76.8149   29.9770   -5.1989 H   0  0  0  0  0
  -76.8151   30.8410   -7.2800 H   0  0  0  0  0
  -75.0581   30.5242   -7.5342 H   0  0  0  0  0
  -75.2271   32.8513   -7.3934 H   0  0  0  0  0
  -74.6982   32.3311   -5.7514 H   0  0  0  0  0
  -77.0983   32.4037   -5.0600 H   0  0  0  0  0
  -77.4660   33.1570   -6.6490 H   0  0  0  0  0
  -77.1663   34.7927   -4.9272 H   0  0  0  0  0
  -75.6304   34.2316   -4.6066 H   0  0  0  0  0
  -75.9714   34.9303   -6.0805 H   0  0  0  0  0
  -74.1544   29.7244   -7.6712 H   0  0  0  0  0
  -71.6434   28.3373   -7.6900 H   0  0  0  0  0
  -72.3475   31.1639   -8.5535 H   0  0  0  0  0
  -73.3766   28.8671   -9.5099 H   0  0  0  0  0
  -71.8574   29.0330  -10.5268 H   0  0  0  0  0
  -69.9467   30.9226   -8.2259 H   0  0  0  0  0
  -69.9408   29.4539   -9.2328 H   0  0  0  0  0
  -70.3411   31.0297   -9.9591 H   0  0  0  0  0
  -74.0955   31.0406  -10.2788 H   0  0  0  0  0
  -72.6218   31.2016  -11.2653 H   0  0  0  0  0
  -73.8190   29.9415  -11.6523 H   0  0  0  0  0
  -69.9998   28.3828   -6.3127 H   0  0  0  0  0
  -70.1120   30.4643   -4.1928 H   0  0  0  0  0
  -68.5617   27.8911   -4.1177 H   0  0  0  0  0
  -70.3515   28.0733   -3.5802 H   0  0  0  0  0
  -67.9600   29.3517   -2.3039 H   0  0  0  0  0
  -69.9782   30.6382   -2.0163 H   0  0  0  0  0
  -70.8458   29.1933   -1.4414 H   0  0  0  0  0
  -69.4972   29.8601   -0.4885 H   0  0  0  0  0
  -69.6220   26.9154   -1.5177 H   0  0  0  0  0
  -67.9253   26.8909   -2.0577 H   0  0  0  0  0
  -68.3572   27.6658   -0.5137 H   0  0  0  0  0
  -67.3251   28.4606   -5.2064 H   0  0  0  0  0
  -65.8448   31.0331   -5.4742 H   0  0  0  0  0
  -63.8101   29.8951   -5.0197 H   0  0  0  0  0
  -64.7658   28.2974   -4.8698 H   0  0  0  0  0
  -65.6729   28.9795   -2.8558 H   0  0  0  0  0
  -63.3810   28.1090   -2.7165 H   0  0  0  0  0
  -62.7324   29.7574   -2.8985 H   0  0  0  0  0
  -63.6653   29.3230   -1.4452 H   0  0  0  0  0
  -64.3528   31.6801   -3.2562 H   0  0  0  0  0
  -66.0964   31.3299   -3.3471 H   0  0  0  0  0
  -65.2333   31.1586   -1.7989 H   0  0  0  0  0
  -66.4050   27.8411   -6.9162 H   0  0  0  0  0
  -64.7083   28.4885   -9.2606 H   0  0  0  0  0
  -66.3636   26.0120   -8.6500 H   0  0  0  0  0
  -64.2608   25.1922   -7.9910 H   0  0  0  0  0
  -65.8163   26.2312  -11.0211 H   0  0  0  0  0
  -64.0963   26.4539  -10.6174 H   0  0  0  0  0
  -64.8964   24.8996  -10.2784 H   0  0  0  0  0
  -68.3516   30.0290  -11.2820 H   0  0  0  0  0
  -66.8288   31.6019  -12.3839 H   0  0  0  0  0
  -67.2094   30.6201  -13.7458 H   0  0  0  0  0
  -64.6597   30.8480  -13.0269 H   0  0  0  0  0
  -65.2361   29.2944  -13.5310 H   0  0  0  0  0
  -64.4180   28.6942  -11.3795 H   0  0  0  0  0
  -64.6628   30.2569  -10.7265 H   0  0  0  0  0
  -69.8769   29.4750  -12.8010 H   0  0  0  0  0
  -69.7597   26.8473  -14.0412 H   0  0  0  0  0
  -71.4532   28.7846  -15.3677 H   0  0  0  0  0
  -71.6785   28.7454  -13.5468 H   0  0  0  0  0
  -71.6124   26.1155  -14.7072 H   0  0  0  0  0
  -72.8967   27.1310  -15.4400 H   0  0  0  0  0
  -72.4860   27.0304  -12.4602 H   0  0  0  0  0
  -73.4665   25.7853  -13.3200 H   0  0  0  0  0
  -74.3518   28.3486  -14.1265 H   0  0  0  0  0
  -76.2397   29.2540  -13.2901 H   0  0  0  0  0
  -75.8133   27.0398  -10.5821 H   0  0  0  0  0
  -74.3335   26.3171  -11.2216 H   0  0  0  0  0
  -69.3511   26.4094  -16.2640 H   0  0  0  0  0
  -67.8750   28.5737  -17.7171 H   0  0  0  0  0
  -68.1848   25.6817  -18.4702 H   0  0  0  0  0
  -66.8334   26.3612  -17.4389 H   0  0  0  0  0
  -65.9749   27.5738  -19.2351 H   0  0  0  0  0
  -67.4354   27.2817  -20.2355 H   0  0  0  0  0
  -66.6137   24.7382  -19.6297 H   0  0  0  0  0
  -65.0568   25.6191  -19.8154 H   0  0  0  0  0
  -65.5919   26.0805  -22.0761 H   0  0  0  0  0
  -68.8245   23.6380  -21.9862 H   0  0  0  0  0
  -68.0782   24.1344  -20.4637 H   0  0  0  0  0
  -66.5633   25.4460  -24.0019 H   0  0  0  0  0
  -68.7104   29.5451  -19.4680 H   0  0  0  0  0
  -71.4851   29.1712  -20.1455 H   0  0  0  0  0
  -71.0929   30.8151  -21.8821 H   0  0  0  0  0
  -69.2915   30.6181  -21.6568 H   0  0  0  0  0
  -69.2857   31.8149  -19.7284 H   0  0  0  0  0
  -70.9983   31.4550  -19.3650 H   0  0  0  0  0
  -71.7847   33.0626  -20.8200 H   0  0  0  0  0
  -70.2555   33.0797  -21.7765 H   0  0  0  0  0
  -69.3701   34.6306  -20.3150 H   0  0  0  0  0
  -72.3233   33.2553  -18.9559 H   0  0  0  0  0
  -70.7883   36.0536  -17.4562 H   0  0  0  0  0
  -69.4756   36.1356  -18.6357 H   0  0  0  0  0
  -72.3956   27.6813  -21.3585 H   0  0  0  0  0
  -70.5670   26.0627  -23.0148 H   0  0  0  0  0
  -72.5484   24.4259  -22.9993 H   0  0  0  0  0
  -73.2623   25.5472  -21.7414 H   0  0  0  0  0
  -71.6697   25.0043  -20.1986 H   0  0  0  0  0
  -70.5541   24.3113  -21.4572 H   0  0  0  0  0
  -71.6361   21.2806  -19.8919 H   0  0  0  0  0
  -70.4192   22.5583  -19.8040 H   0  0  0  0  0
  -71.0152   25.2513  -25.0221 H   0  0  0  0  0
  -73.1469   26.6228  -26.6280 H   0  0  0  0  0
  -72.0378   25.5230  -28.5391 H   0  0  0  0  0
  -70.7330   24.9955  -27.3847 H   0  0  0  0  0
  -70.1690   27.2776  -26.9362 H   0  0  0  0  0
  -71.5298   27.8543  -27.9579 H   0  0  0  0  0
  -70.4879   26.9774  -29.9395 H   0  0  0  0  0
  -69.2228   26.1700  -28.9817 H   0  0  0  0  0
  -69.2902   29.0089  -28.4276 H   0  0  0  0  0
  -68.2506   26.6518  -30.8439 H   0  0  0  0  0
  -66.5778   29.7529  -30.5132 H   0  0  0  0  0
  -67.6076   30.3186  -29.1938 H   0  0  0  0  0
  -74.9850   25.4730  -26.9773 H   0  0  0  0  0
  -74.9063   22.5257  -26.5167 H   0  0  0  0  0
  -75.7383   22.9695  -24.5489 H   0  0  0  0  0
  -77.3372   23.1352  -25.5811 H   0  0  0  0  0
  -77.5729   25.2160  -25.0489 H   0  0  0  0  0
  -77.7792   23.9521  -22.9556 H   0  0  0  0  0
  -76.0458   24.1856  -22.6213 H   0  0  0  0  0
  -77.1494   25.5831  -22.6180 H   0  0  0  0  0
  -74.6416   25.4716  -24.3355 H   0  0  0  0  0
  -75.4364   26.0631  -25.8152 H   0  0  0  0  0
  -75.8470   26.7787  -24.2371 H   0  0  0  0  0
  -77.5481   22.2049  -26.8913 H   0  0  0  0  0
  1  2  1  0  0  0
  2  3  1  0  0  0
  2  5  1  0  0  0
  3  4  2  0  0  0
  3 10  1  0  0  0
  5  6  1  0  0  0
  6  7  1  0  0  0
  7  8  1  0  0  0
  8  9  1  0  0  0
 10 11  1  0  0  0
 11 12  1  0  0  0
 11 14  1  0  0  0
 12 13  2  0  0  0
 12 18  1  0  0  0
 14 15  1  0  0  0
 14 16  1  0  0  0
 15 17  1  0  0  0
 18 19  1  0  0  0
 19 20  1  0  0  0
 19 22  1  0  0  0
 20 21  2  0  0  0
 20 26  1  0  0  0
 22 23  1  0  0  0
 23 24  1  0  0  0
 23 25  1  0  0  0
 26 27  1  0  0  0
 27 28  1  0  0  0
 27 30  1  0  0  0
 28 29  2  0  0  0
 28 34  1  0  0  0
 30 31  1  0  0  0
 31 32  1  0  0  0
 31 33  1  0  0  0
 34 35  1  0  0  0
 35 36  1  0  0  0
 35 38  1  0  0  0
 36 37  2  0  0  0
 36 41  1  0  0  0
 38 39  1  0  0  0
 38 40  1  0  0  0
 41 42  1  0  0  0
 41 47  1  0  0  0
 42 43  1  0  0  0
 42 45  1  0  0  0
 43 44  2  0  0  0
 43 48  1  0  0  0
 45 46  1  0  0  0
 46 47  1  0  0  0
 48 49  1  0  0  0
 49 50  1  0  0  0
 49 52  1  0  0  0
 50 51  2  0  0  0
 50 59  1  0  0  0
 52 53  1  0  0  0
 53 54  1  0  0  0
 54 55  1  0  0  0
 55 56  1  0  0  0
 56 57  2  0  0  0
 56 58  1  0  0  0
 59 60  1  0  0  0
 60 61  1  0  0  0
 60 63  1  0  0  0
 61 62  2  0  0  0
 61 70  1  0  0  0
 63 64  1  0  0  0
 64 65  1  0  0  0
 65 66  1  0  0  0
 66 67  1  0  0  0
 67 68  1  0  0  0
 67 69  2  0  0  0
 70 71  1  0  0  0
 71 72  1  0  0  0
 71 74  1  0  0  0
 72 73  2  0  0  0
 72 81  1  0  0  0
 74 75  1  0  0  0
 75 76  1  0  0  0
 76 77  1  0  0  0
 77 78  1  0  0  0
 78 79  2  0  0  0
 78 80  1  0  0  0
 81 82  1  0  0  0
 82 83  1  0  0  0
 82 85  1  0  0  0
 83 84  2  0  0  0
 83 90  1  0  0  0
 85 86  1  0  0  0
 86 87  1  0  0  0
 87 88  2  0  0  0
 87 89  1  0  0  0
 90 91  1  0  0  0
 91 92  1  0  0  0
 91 94  1  0  0  0
 92 93  2  0  0  0
 92101  1  0  0  0
 94 95  1  0  0  0
 95 96  1  0  0  0
 96 97  1  0  0  0
 97 98  1  0  0  0
 98 99  2  0  0  0
 98100  1  0  0  0
101102  1  0  0  0
102103  1  0  0  0
102105  1  0  0  0
103104  2  0  0  0
103109  1  0  0  0
105106  1  0  0  0
106107  1  0  0  0
106108  1  0  0  0
  1110  1  0  0  0
  1111  1  0  0  0
  1112  1  0  0  0
  2113  1  0  0  0
  5114  1  0  0  0
  5115  1  0  0  0
  6116  1  0  0  0
  6117  1  0  0  0
  7118  1  0  0  0
  7119  1  0  0  0
  8120  1  0  0  0
  8121  1  0  0  0
  9122  1  0  0  0
  9123  1  0  0  0
  9124  1  0  0  0
 10125  1  0  0  0
 11126  1  0  0  0
 14127  1  0  0  0
 15128  1  0  0  0
 15129  1  0  0  0
 16130  1  0  0  0
 16131  1  0  0  0
 16132  1  0  0  0
 17133  1  0  0  0
 17134  1  0  0  0
 17135  1  0  0  0
 18136  1  0  0  0
 19137  1  0  0  0
 22138  1  0  0  0
 22139  1  0  0  0
 23140  1  0  0  0
 24141  1  0  0  0
 24142  1  0  0  0
 24143  1  0  0  0
 25144  1  0  0  0
 25145  1  0  0  0
 25146  1  0  0  0
 26147  1  0  0  0
 27148  1  0  0  0
 30149  1  0  0  0
 30150  1  0  0  0
 31151  1  0  0  0
 32152  1  0  0  0
 32153  1  0  0  0
 32154  1  0  0  0
 33155  1  0  0  0
 33156  1  0  0  0
 33157  1  0  0  0
 34158  1  0  0  0
 35159  1  0  0  0
 38160  1  0  0  0
 39161  1  0  0  0
 40162  1  0  0  0
 40163  1  0  0  0
 40164  1  0  0  0
 42165  1  0  0  0
 45166  1  0  0  0
 45167  1  0  0  0
 46168  1  0  0  0
 46169  1  0  0  0
 47170  1  0  0  0
 47171  1  0  0  0
 48172  1  0  0  0
 49173  1  0  0  0
 52174  1  0  0  0
 52175  1  0  0  0
 53176  1  0  0  0
 53177  1  0  0  0
 54178  1  0  0  0
 54179  1  0  0  0
 55180  1  0  0  0
 57181  1  0  0  0
 58182  1  0  0  0
 58183  1  0  0  0
 59184  1  0  0  0
 60185  1  0  0  0
 63186  1  0  0  0
 63187  1  0  0  0
 64188  1  0  0  0
 64189  1  0  0  0
 65190  1  0  0  0
 65191  1  0  0  0
 66192  1  0  0  0
 68193  1  0  0  0
 68194  1  0  0  0
 69195  1  0  0  0
 70196  1  0  0  0
 71197  1  0  0  0
 74198  1  0  0  0
 74199  1  0  0  0
 75200  1  0  0  0
 75201  1  0  0  0
 76202  1  0  0  0
 76203  1  0  0  0
 77204  1  0  0  0
 79205  1  0  0  0
 80206  1  0  0  0
 80207  1  0  0  0
 81208  1  0  0  0
 82209  1  0  0  0
 85210  1  0  0  0
 85211  1  0  0  0
 86212  1  0  0  0
 86213  1  0  0  0
 89214  1  0  0  0
 89215  1  0  0  0
 90216  1  0  0  0
 91217  1  0  0  0
 94218  1  0  0  0
 94219  1  0  0  0
 95220  1  0  0  0
 95221  1  0  0  0
 96222  1  0  0  0
 96223  1  0  0  0
 97224  1  0  0  0
 99225  1  0  0  0
100226  1  0  0  0
100227  1  0  0  0
101228  1  0  0  0
102229  1  0  0  0
105230  1  0  0  0
105231  1  0  0  0
106232  1  0  0  0
107233  1  0  0  0
107234  1  0  0  0
107235  1  0  0  0
108236  1  0  0  0
108237  1  0  0  0
108238  1  0  0  0
109239  1  0  0  0
M  END
$$$$
