### 
### Created by X-TOOL on Sun Sep  9 21:50:04 2018
### 

@<TRIPOS>MOLECULE
1o8b_ligand
   23    23     1     0     0
SMALL
GAST_HUCK


@<TRIPOS>ATOM
      1 C1'        21.7590   19.8370   19.9980 C.3       1 NON         0.1854
      2 O1'        23.1140   20.3290   19.8870 O.3       1 NON        -0.3404
      3 C2'        21.2080   19.9720   18.7340 C.3       1 NON         0.1339
      4 O2'        19.9260   19.7700   18.5840 O.3       1 NON        -0.3841
      5 C3'        21.7520   21.1200   18.2010 C.3       1 NON         0.1144
      6 O3'        21.8190   21.2260   16.8910 O.3       1 NON        -0.3864
      7 C4'        22.9380   21.3460   18.8660 C.3       1 NON         0.1177
      8 C5'        23.2640   22.7320   19.4010 C.3       1 NON         0.1071
      9 O5'        24.6380   22.7810   19.8570 O.3       1 NON        -0.2734
     10 P'         25.3410   24.0820   20.4970 P.3       1 NON         0.2008
     11 O1P'       25.0900   25.2330   19.5990 O.co2     1 NON        -0.5537
     12 O2P'       24.7530   24.3060   21.8770 O.co2     1 NON        -0.5537
     13 O3P'       26.7530   23.6160   20.5740 O.co2     1 NON        -0.5537
     14 O1         21.0990   20.4540   20.9190 O.3       1 NON        -0.3649
     15 H1         21.7821   18.7697   20.2630 H         1 NON         0.0935
     16 H2         21.6482   19.1523   18.1472 H         1 NON         0.0671
     17 H3         19.7136   18.8821   18.8466 H         1 NON         0.2101
     18 H4         21.0739   21.9332   18.4991 H         1 NON         0.0648
     19 H5         22.2120   22.0599   16.6616 H         1 NON         0.2100
     20 H6         23.7161   21.1614   18.1107 H         1 NON         0.0650
     21 H7         22.5936   22.9641   20.2416 H         1 NON         0.0639
     22 H8         23.1198   23.4735   18.6014 H         1 NON         0.0639
     23 H9         21.5318   20.3285   21.7553 H         1 NON         0.2126
@<TRIPOS>BOND
     1    1    2 1  
     2    1    3 1  
     3    1   14 1  
     4    2    7 1  
     5    3    4 1  
     6    3    5 1  
     7    5    6 1  
     8    5    7 1  
     9    7    8 1  
    10    8    9 1  
    11    9   10 1  
    12   10   11 ar 
    13   10   12 ar 
    14   10   13 ar 
    15    1   15 1  
    16    3   16 1  
    17    4   17 1  
    18    5   18 1  
    19    6   19 1  
    20    7   20 1  
    21    8   21 1  
    22    8   22 1  
    23   14   23 1  
@<TRIPOS>SUBSTRUCTURE
     1 NON         1

