1o8b_ligand
  -I-interpret- 

 25 25  0  0  0  0  0  0  0  0999 V2000
   21.7590   19.8370   19.9980 C   0  0  0  0  0
   23.1140   20.3290   19.8870 O   0  0  0  0  0
   21.2080   19.9720   18.7340 C   0  0  0  0  0
   19.9260   19.7700   18.5840 O   0  0  0  0  0
   21.7520   21.1200   18.2010 C   0  0  0  0  0
   21.8190   21.2260   16.8910 O   0  0  0  0  0
   22.9380   21.3460   18.8660 C   0  0  0  0  0
   23.2640   22.7320   19.4010 C   0  0  0  0  0
   24.6380   22.7810   19.8570 O   0  0  0  0  0
   25.3410   24.0820   20.4970 P   0  0  0  0  0
   25.0900   25.2330   19.5990 O   0  0  0  0  0
   24.7530   24.3060   21.8770 O   0  0  0  0  0
   26.7530   23.6160   20.5740 O   0  0  0  0  0
   21.0990   20.4540   20.9190 O   0  0  0  0  0
   21.7272   18.7936   20.3115 H   0  0  0  0  0
   21.4874   19.1115   18.1261 H   0  0  0  0  0
   19.6831   18.9398   19.0004 H   0  0  0  0  0
   21.0424   21.9290   18.3743 H   0  0  0  0  0
   20.9538   21.0537   16.5125 H   0  0  0  0  0
   23.6732   21.2805   18.0640 H   0  0  0  0  0
   22.6020   22.9567   20.2373 H   0  0  0  0  0
   23.1257   23.4636   18.6050 H   0  0  0  0  0
   24.9349   23.5419   22.4290 H   0  0  0  0  0
   26.8107   22.8717   21.1776 H   0  0  0  0  0
   21.5319   20.3205   21.7654 H   0  0  0  0  0
  1  2  1  0  0  0
  1  3  1  0  0  0
  1 14  1  0  0  0
  2  7  1  0  0  0
  3  4  1  0  0  0
  3  5  1  0  0  0
  5  6  1  0  0  0
  5  7  1  0  0  0
  7  8  1  0  0  0
  8  9  1  0  0  0
  9 10  1  0  0  0
 10 11  2  0  0  0
 10 12  1  0  0  0
 10 13  1  0  0  0
  1 15  1  0  0  0
  3 16  1  0  0  0
  4 17  1  0  0  0
  5 18  1  0  0  0
  6 19  1  0  0  0
  7 20  1  0  0  0
  8 21  1  0  0  0
  8 22  1  0  0  0
 12 23  1  0  0  0
 13 24  1  0  0  0
 14 25  1  0  0  0
M  END
$$$$
