6aum_ligand
  -I-interpret- 

 52 54  0  0  0  0  0  0  0  0999 V2000
  -21.6840   -8.2350   12.6390 F   0  0  0  0  0
  -20.7510   -7.6190   11.9410 C   0  0  0  0  0
  -20.1170   -6.7740   12.7410 F   0  0  0  0  0
  -21.3160   -6.9270   10.9690 F   0  0  0  0  0
  -19.8380   -8.5950   11.4160 O   0  0  0  0  0
  -19.1280   -9.2900   12.3490 C   0  0  0  0  0
  -19.6120  -10.4880   12.8460 C   0  0  0  0  0
  -18.8850  -11.1570   13.8160 C   0  0  0  0  0
  -17.9410   -8.7620   12.8380 C   0  0  0  0  0
  -17.2230   -9.4330   13.8130 C   0  0  0  0  0
  -17.6790  -10.6560   14.3100 C   0  0  0  0  0
  -17.1020  -11.3880   15.3080 N   0  0  0  0  0
  -16.1760  -10.9950   16.2010 C   0  0  0  0  0
  -15.5540   -9.9720   16.0820 O   0  0  0  0  0
  -16.0120  -11.7830   17.2730 N   0  0  0  0  0
  -15.1560  -11.5940   18.4450 C   0  0  0  0  0
  -14.3500  -10.3030   18.5800 C   0  0  0  0  0
  -13.6230  -10.2700   19.9200 C   0  0  0  0  0
  -12.6750  -11.4620   20.0290 C   0  0  0  0  0
  -13.4480  -12.7620   19.8270 C   0  0  0  0  0
  -14.1830  -12.7650   18.4940 C   0  0  0  0  0
  -12.0670  -11.5290   21.3090 O   0  0  0  0  0
  -11.2990  -10.5160   21.8020 C   0  0  0  0  0
  -10.1580  -10.0800   21.1260 C   0  0  0  0  0
   -9.3960   -9.0410   21.6680 C   0  0  0  0  0
   -9.7760   -8.4440   22.8830 C   0  0  0  0  0
   -8.9660   -7.3230   23.4790 C   0  0  0  0  0
   -9.4630   -6.5290   24.2680 O   0  0  0  0  0
   -7.6830   -7.1800   23.1540 O   0  0  0  0  0
  -10.9210   -8.8930   23.5510 C   0  0  0  0  0
  -11.6810   -9.9260   23.0070 C   0  0  0  0  0
  -20.5524  -10.8989   12.4788 H   0  0  0  0  0
  -19.2650  -12.1017   14.2051 H   0  0  0  0  0
  -17.5716   -7.8121   12.4515 H   0  0  0  0  0
  -16.2965   -9.0044   14.1950 H   0  0  0  0  0
  -17.4129  -12.3563   15.3863 H   0  0  0  0  0
  -16.5649  -12.6401   17.2717 H   0  0  0  0  0
  -15.8629  -11.5296   19.2722 H   0  0  0  0  0
  -15.0289   -9.4522   18.5227 H   0  0  0  0  0
  -13.6157  -10.2564   17.7758 H   0  0  0  0  0
  -14.3548  -10.3188   20.7264 H   0  0  0  0  0
  -13.0483   -9.3467   19.9937 H   0  0  0  0  0
  -11.9095  -11.3322   19.2639 H   0  0  0  0  0
  -14.1807  -12.8588   20.6282 H   0  0  0  0  0
  -12.7412  -13.5917   19.8361 H   0  0  0  0  0
  -13.4617  -12.6710   17.6822 H   0  0  0  0  0
  -14.7344  -13.6991   18.3863 H   0  0  0  0  0
   -9.8643  -10.5451   20.1850 H   0  0  0  0  0
   -8.5043   -8.6924   21.1470 H   0  0  0  0  0
   -7.4330   -7.8674   22.5323 H   0  0  0  0  0
  -11.2174   -8.4354   24.4948 H   0  0  0  0  0
  -12.5755  -10.2738   23.5237 H   0  0  0  0  0
  1  2  1  0  0  0
  2  3  1  0  0  0
  2  4  1  0  0  0
  2  5  1  0  0  0
  5  6  1  0  0  0
  6  7  4  0  0  0
  6  9  4  0  0  0
  7  8  4  0  0  0
  8 11  4  0  0  0
  9 10  4  0  0  0
 10 11  4  0  0  0
 11 12  1  0  0  0
 12 13  1  0  0  0
 13 14  2  0  0  0
 13 15  1  0  0  0
 15 16  1  0  0  0
 16 17  1  0  0  0
 16 21  1  0  0  0
 17 18  1  0  0  0
 18 19  1  0  0  0
 19 20  1  0  0  0
 19 22  1  0  0  0
 20 21  1  0  0  0
 22 23  1  0  0  0
 23 24  4  0  0  0
 23 31  4  0  0  0
 24 25  4  0  0  0
 25 26  4  0  0  0
 26 27  1  0  0  0
 26 30  4  0  0  0
 27 28  2  0  0  0
 27 29  1  0  0  0
 30 31  4  0  0  0
  7 32  1  0  0  0
  8 33  1  0  0  0
  9 34  1  0  0  0
 10 35  1  0  0  0
 12 36  1  0  0  0
 15 37  1  0  0  0
 16 38  1  0  0  0
 17 39  1  0  0  0
 17 40  1  0  0  0
 18 41  1  0  0  0
 18 42  1  0  0  0
 19 43  1  0  0  0
 20 44  1  0  0  0
 20 45  1  0  0  0
 21 46  1  0  0  0
 21 47  1  0  0  0
 24 48  1  0  0  0
 25 49  1  0  0  0
 29 50  1  0  0  0
 30 51  1  0  0  0
 31 52  1  0  0  0
M  END
$$$$
