2v2v_ligand
  -I-interpret- 

 48 51  0  0  0  0  0  0  0  0999 V2000
   12.8760  -10.0680   14.8980 O   0  0  0  0  0
   12.9820   -9.1330   15.6950 C   0  0  0  0  0
   12.2620   -8.0190   15.4750 N   0  0  0  0  0
   12.3070   -6.9530   16.2930 C   0  0  0  0  0
   11.5750   -5.8730   16.0340 N   0  0  0  0  0
   13.1170   -6.9550   17.4210 C   0  0  0  0  0
   13.8800   -8.0780   17.6990 C   0  0  0  0  0
   13.8280   -9.1900   16.8310 N   0  0  0  0  0
   14.6770  -10.3720   17.1840 C   0  0  0  0  0
   15.1950  -10.0900   18.5380 O   0  0  0  0  0
   15.9030  -10.5500   16.2680 C   0  0  0  0  0
   15.9370  -11.8890   15.7270 O   0  0  0  0  0
   17.0970  -10.2900   17.1890 C   0  0  0  0  0
   18.1130  -11.2630   16.9490 O   0  0  0  0  0
   16.5590  -10.4900   18.5940 C   0  0  0  0  0
   17.2900   -9.4750   19.4790 C   0  0  0  0  0
   16.9700   -9.6620   20.9050 N   0  0  0  0  0
   17.7770  -10.2890   21.7650 C   0  0  0  0  0
   18.8660  -10.7830   21.4700 O   0  0  0  0  0
   17.2430  -10.3490   23.2020 C   0  0  0  0  0
   17.5970  -11.6650   23.9100 C   0  0  0  0  0
   17.3450  -11.9200   25.1940 N   0  0  0  0  0
   17.7790  -13.1430   25.4770 C   0  0  0  0  0
   17.7700  -13.9000   26.6480 C   0  0  0  0  0
   18.3100  -15.1860   26.6420 C   0  0  0  0  0
   18.8570  -15.7090   25.4690 C   0  0  0  0  0
   18.8640  -14.9480   24.3000 C   0  0  0  0  0
   18.3220  -13.6630   24.3080 C   0  0  0  0  0
   18.1930  -12.7300   23.3680 N   0  0  0  0  0
   11.6573   -7.9811   14.6545 H   0  0  0  0  0
   11.6156   -5.0676   16.6586 H   0  0  0  0  0
   13.1521   -6.0860   18.0781 H   0  0  0  0  0
   14.5169   -8.1025   18.5832 H   0  0  0  0  0
   14.0723  -11.2743   17.0937 H   0  0  0  0  0
   15.8945   -9.8794   15.4088 H   0  0  0  0  0
   16.7053  -11.9841   15.1593 H   0  0  0  0  0
   17.5230   -9.2990   17.0321 H   0  0  0  0  0
   18.8590  -11.0948   17.5293 H   0  0  0  0  0
   16.6796  -11.5092   18.9613 H   0  0  0  0  0
   16.9739   -8.4740   19.1853 H   0  0  0  0  0
   18.3628   -9.6156   19.3473 H   0  0  0  0  0
   16.0854   -9.2931   21.2539 H   0  0  0  0  0
   16.1565  -10.2732   23.1592 H   0  0  0  0  0
   17.6989   -9.5334   23.7632 H   0  0  0  0  0
   17.3433  -13.4890   27.5630 H   0  0  0  0  0
   18.3049  -15.7831   27.5539 H   0  0  0  0  0
   19.2794  -16.7138   25.4666 H   0  0  0  0  0
   19.2913  -15.3560   23.3840 H   0  0  0  0  0
  1  2  2  0  0  0
  2  3  1  0  0  0
  2  8  1  0  0  0
  3  4  1  0  0  0
  4  5  2  0  0  0
  4  6  1  0  0  0
  6  7  2  0  0  0
  7  8  1  0  0  0
  8  9  1  0  0  0
  9 10  1  0  0  0
  9 11  1  0  0  0
 10 15  1  0  0  0
 11 12  1  0  0  0
 11 13  1  0  0  0
 13 14  1  0  0  0
 13 15  1  0  0  0
 15 16  1  0  0  0
 16 17  1  0  0  0
 17 18  1  0  0  0
 18 19  2  0  0  0
 18 20  1  0  0  0
 20 21  1  0  0  0
 21 22  4  0  0  0
 21 29  4  0  0  0
 22 23  4  0  0  0
 23 24  4  0  0  0
 23 28  4  0  0  0
 24 25  4  0  0  0
 25 26  4  0  0  0
 26 27  4  0  0  0
 27 28  4  0  0  0
 28 29  4  0  0  0
  3 30  1  0  0  0
  5 31  1  0  0  0
  6 32  1  0  0  0
  7 33  1  0  0  0
  9 34  1  0  0  0
 11 35  1  0  0  0
 12 36  1  0  0  0
 13 37  1  0  0  0
 14 38  1  0  0  0
 15 39  1  0  0  0
 16 40  1  0  0  0
 16 41  1  0  0  0
 17 42  1  0  0  0
 20 43  1  0  0  0
 20 44  1  0  0  0
 24 45  1  0  0  0
 25 46  1  0  0  0
 26 47  1  0  0  0
 27 48  1  0  0  0
M  END
$$$$
