1ele_ligand
  -I-interpret- 

 48 48  0  0  0  0  0  0  0  0999 V2000
   40.8590   23.4540   37.6320 C   0  0  0  0  0
   41.3060   24.6440   38.5650 C   0  0  0  0  0
   40.2220   23.6390   36.5760 O   0  0  0  0  0
   41.9710   24.3170   39.6950 F   0  0  0  0  0
   42.1280   25.5110   37.9410 F   0  0  0  0  0
   40.2340   25.3420   38.9410 F   0  0  0  0  0
   41.1110   22.2030   38.0830 N   0  0  0  0  0
   40.8200   21.0120   37.3320 C   0  0  0  0  0
   39.2950   20.8540   37.3190 C   0  0  0  0  0
   38.6170   21.1530   38.3050 O   0  0  0  0  0
   41.6940   19.9010   38.0520 C   0  0  0  0  0
   41.0330   19.3510   39.2860 C   0  0  0  0  0
   42.0020   18.8020   37.0560 C   0  0  0  0  0
   38.7360   20.5480   36.1290 N   0  0  0  0  0
   37.2910   20.3340   36.0160 C   0  0  0  0  0
   37.0260   18.9830   36.6670 C   0  0  0  0  0
   37.4970   17.9290   36.2080 O   0  0  0  0  0
   36.8060   20.2580   34.5640 C   0  0  0  0  0
   36.3390   19.2080   37.8080 N   0  0  0  0  0
   36.0000   18.2370   38.6900 C   0  0  0  0  0
   35.3850   18.6370   39.8610 C   0  0  0  0  0
   35.0570   17.7240   40.8230 C   0  0  0  0  0
   35.3420   16.3720   40.6360 C   0  0  0  0  0
   35.9500   15.9680   39.4500 C   0  0  0  0  0
   36.2750   16.8880   38.4890 C   0  0  0  0  0
   35.0370   15.3260   41.7800 C   0  0  0  0  0
   35.4180   14.0140   41.6140 F   0  0  0  0  0
   35.6500   15.7270   42.8940 F   0  0  0  0  0
   33.7330   15.3160   42.0820 F   0  0  0  0  0
   41.5306   22.0994   39.0069 H   0  0  0  0  0
   41.0836   20.9847   36.2747 H   0  0  0  0  0
   42.6208   20.3612   38.3946 H   0  0  0  0  0
   40.8667   20.1591   39.9983 H   0  0  0  0  0
   40.0777   18.9013   39.0152 H   0  0  0  0  0
   41.6773   18.5954   39.7356 H   0  0  0  0  0
   41.0694   18.3654   36.6987 H   0  0  0  0  0
   42.5547   19.2203   36.2147 H   0  0  0  0  0
   42.6028   18.0323   37.5404 H   0  0  0  0  0
   39.3252   20.4650   35.3006 H   0  0  0  0  0
   36.7678   21.1683   36.4832 H   0  0  0  0  0
   37.3510   19.4722   34.0409 H   0  0  0  0  0
   35.7395   20.0335   34.5498 H   0  0  0  0  0
   36.9839   21.2144   34.0723 H   0  0  0  0  0
   36.0587   20.1660   38.0181 H   0  0  0  0  0
   35.1593   19.6916   40.0188 H   0  0  0  0  0
   34.5703   18.0540   41.7408 H   0  0  0  0  0
   36.1686   14.9129   39.2856 H   0  0  0  0  0
   36.7506   16.5624   37.5638 H   0  0  0  0  0
  1  3  2  0  0  0
  1  2  1  0  0  0
  2  6  1  0  0  0
  2  5  1  0  0  0
  2  4  1  0  0  0
  9  8  1  0  0  0
  8 11  1  0  0  0
  8  7  1  0  0  0
 11 12  1  0  0  0
 11 13  1  0  0  0
  9 10  2  0  0  0
 16 15  1  0  0  0
 15 18  1  0  0  0
 15 14  1  0  0  0
 16 17  2  0  0  0
 19 20  1  0  0  0
 20 25  4  0  0  0
 20 21  4  0  0  0
 21 22  4  0  0  0
 22 23  4  0  0  0
 23 26  1  0  0  0
 24 23  4  0  0  0
 25 24  4  0  0  0
 26 29  1  0  0  0
 26 28  1  0  0  0
 26 27  1  0  0  0
 14  9  1  0  0  0
  7  1  1  0  0  0
 16 19  1  0  0  0
  7 30  1  0  0  0
  8 31  1  0  0  0
 11 32  1  0  0  0
 12 33  1  0  0  0
 12 34  1  0  0  0
 12 35  1  0  0  0
 13 36  1  0  0  0
 13 37  1  0  0  0
 13 38  1  0  0  0
 14 39  1  0  0  0
 15 40  1  0  0  0
 18 41  1  0  0  0
 18 42  1  0  0  0
 18 43  1  0  0  0
 19 44  1  0  0  0
 21 45  1  0  0  0
 22 46  1  0  0  0
 24 47  1  0  0  0
 25 48  1  0  0  0
M  END
$$$$
