6n0q_ligand
  -I-interpret- 

 49 52  0  0  0  0  0  0  0  0999 V2000
  -22.6260    3.7730   -7.6200 C   0  0  0  0  0
  -22.7770    5.1600   -7.8680 C   0  0  0  0  0
  -21.6370    5.9710   -8.1280 C   0  0  0  0  0
  -18.7220    7.2210   -8.6570 C   0  0  0  0  0
  -23.8000    2.9340   -7.3780 C   0  0  0  0  0
  -23.9640    2.4560   -6.0690 C   0  0  0  0  0
  -25.0570    1.6110   -5.7660 C   0  0  0  0  0
  -25.9610    1.2120   -6.7640 C   0  0  0  0  0
  -25.7970    1.6830   -8.0700 C   0  0  0  0  0
  -24.7450    2.5530   -8.4040 C   0  0  0  0  0
  -24.7060    3.0800   -9.7900 C   0  0  0  0  0
  -25.0710    1.9020   -3.2640 C   0  0  0  0  0
  -25.5750    1.2460   -2.0210 C   0  0  0  0  0
  -25.9290   -0.1290   -1.9630 C   0  0  0  0  0
  -26.4930   -0.6580   -0.7800 C   0  0  0  0  0
  -26.6940    0.1760    0.3370 C   0  0  0  0  0
  -26.3160    1.5390    0.2660 C   0  0  0  0  0
  -25.7600    2.0800   -0.8990 C   0  0  0  0  0
  -26.4900    2.4950    1.4460 C   0  0  0  0  0
  -20.3780    5.3430   -8.1230 C   0  0  0  0  0
  -20.2490    3.9490   -7.8470 C   0  0  0  0  0
  -21.3620    3.1520   -7.5900 C   0  0  0  0  0
  -19.0640    5.8300   -8.3680 N   0  0  0  0  0
  -18.1330    4.7480   -8.2490 C   0  0  0  0  0
  -18.8860    3.6070   -7.9230 N   0  0  0  0  0
  -16.9060    4.7760   -8.4080 O   0  0  0  0  0
  -25.3650    1.2040   -4.4320 N   0  0  0  0  0
  -24.4440    2.9670   -3.2370 O   0  0  0  0  0
  -27.6130    3.2240    1.3990 F   0  0  0  0  0
  -26.5030    1.8700    2.6390 F   0  0  0  0  0
  -25.4940    3.3990    1.5660 F   0  0  0  0  0
  -23.7708    5.6076   -7.8596 H   0  0  0  0  0
  -21.7355    7.0388   -8.3237 H   0  0  0  0  0
  -19.2382    7.5402   -9.5624 H   0  0  0  0  0
  -19.0285    7.8503   -7.8215 H   0  0  0  0  0
  -17.6451    7.3065   -8.8019 H   0  0  0  0  0
  -23.2535    2.7341   -5.2905 H   0  0  0  0  0
  -26.7844    0.5400   -6.5221 H   0  0  0  0  0
  -26.4981    1.3697   -8.8436 H   0  0  0  0  0
  -24.8167    4.1641   -9.7684 H   0  0  0  0  0
  -23.7524    2.8200  -10.2495 H   0  0  0  0  0
  -25.5203    2.6418  -10.3670 H   0  0  0  0  0
  -25.7662   -0.7730   -2.8272 H   0  0  0  0  0
  -26.7722   -1.7105   -0.7321 H   0  0  0  0  0
  -27.1370   -0.2244    1.2489 H   0  0  0  0  0
  -25.4740    3.1311   -0.9385 H   0  0  0  0  0
  -21.2589    2.0886   -7.3740 H   0  0  0  0  0
  -18.5035    2.6746   -7.7657 H   0  0  0  0  0
  -25.8489    0.3126   -4.3244 H   0  0  0  0  0
  2  1  4  0  0  0
  1  5  1  0  0  0
  1 22  4  0  0  0
  3  2  4  0  0  0
 20  3  4  0  0  0
 23  4  1  0  0  0
  5  6  4  0  0  0
  5 10  4  0  0  0
  6  7  4  0  0  0
  7  8  4  0  0  0
  7 27  1  0  0  0
  9  8  4  0  0  0
 10  9  4  0  0  0
 10 11  1  0  0  0
 12 13  1  0  0  0
 27 12  1  0  0  0
 12 28  2  0  0  0
 13 14  4  0  0  0
 13 18  4  0  0  0
 14 15  4  0  0  0
 15 16  4  0  0  0
 17 16  4  0  0  0
 18 17  4  0  0  0
 17 19  1  0  0  0
 19 29  1  0  0  0
 19 30  1  0  0  0
 19 31  1  0  0  0
 20 21  4  0  0  0
 20 23  1  0  0  0
 21 22  4  0  0  0
 21 25  1  0  0  0
 23 24  1  0  0  0
 24 25  1  0  0  0
 24 26  2  0  0  0
  2 32  1  0  0  0
  3 33  1  0  0  0
  4 34  1  0  0  0
  4 35  1  0  0  0
  4 36  1  0  0  0
  6 37  1  0  0  0
  8 38  1  0  0  0
  9 39  1  0  0  0
 11 40  1  0  0  0
 11 41  1  0  0  0
 11 42  1  0  0  0
 14 43  1  0  0  0
 15 44  1  0  0  0
 16 45  1  0  0  0
 18 46  1  0  0  0
 22 47  1  0  0  0
 25 48  1  0  0  0
 27 49  1  0  0  0
M  END
$$$$
