6mku_ligand
  -I-interpret- 

 27 26  0  0  0  0  0  0  0  0999 V2000
   -0.0630   -1.2000  -12.1790 N   0  3  0  0  0
    0.1080   -2.0000  -10.9610 C   0  0  0  0  0
   -0.4070   -1.2140   -9.7670 C   0  0  0  0  0
   -0.7000   -0.0180   -9.9140 O   0  0  0  0  0
    1.5760   -2.3760  -10.7450 C   0  0  0  0  0
    2.5190   -1.1860  -10.8430 C   0  0  0  0  0
    3.8880   -1.4720  -10.2420 C   0  0  0  0  0
    4.8480   -0.4290  -10.5870 N   0  0  0  0  0
    6.1230   -0.4100  -10.1960 C   0  0  0  0  0
    6.5900   -1.3760   -9.4250 N   0  0  0  0  0
    6.9390    0.5760  -10.5760 N   0  0  0  0  0
   -0.5230   -1.7240   -8.6540 O   0  0  0  0  0
   -1.0490   -0.9659  -12.2950 H   0  0  0  0  0
    0.4843   -0.3428  -12.1010 H   0  0  0  0  0
    0.2572   -1.7371  -12.9849 H   0  0  0  0  0
   -0.4611   -2.9232  -11.0704 H   0  0  0  0  0
   -0.5590    0.2347  -10.8294 H   0  0  0  0  0
    1.8544   -3.0838  -11.5258 H   0  0  0  0  0
    1.6673   -2.7885   -9.7402 H   0  0  0  0  0
    2.0750   -0.3599  -10.2875 H   0  0  0  0  0
    2.6582   -0.9548  -11.8991 H   0  0  0  0  0
    4.2494   -2.4207  -10.6389 H   0  0  0  0  0
    3.7897   -1.5074   -9.1570 H   0  0  0  0  0
    4.5203    0.3416  -11.1695 H   0  0  0  0  0
    5.9757   -2.1348   -9.1297 H   0  0  0  0  0
    7.9124    0.5785  -10.2712 H   0  0  0  0  0
    6.5890    1.3268  -11.1712 H   0  0  0  0  0
  1  2  1  0  0  0
  2  3  1  0  0  0
  2  5  1  0  0  0
  3  4  1  0  0  0
  3 12  2  0  0  0
  5  6  1  0  0  0
  6  7  1  0  0  0
  7  8  1  0  0  0
  8  9  1  0  0  0
  9 10  2  0  0  0
  9 11  1  0  0  0
  1 13  1  0  0  0
  1 14  1  0  0  0
  1 15  1  0  0  0
  2 16  1  0  0  0
  4 17  1  0  0  0
  5 18  1  0  0  0
  5 19  1  0  0  0
  6 20  1  0  0  0
  6 21  1  0  0  0
  7 22  1  0  0  0
  7 23  1  0  0  0
  8 24  1  0  0  0
 10 25  1  0  0  0
 11 26  1  0  0  0
 11 27  1  0  0  0
M  END
$$$$
