3v04_ligand
  -I-interpret- 

 38 40  0  0  0  0  0  0  0  0999 V2000
   32.4830  -30.4420  -28.3370 C   0  0  0  0  0
   32.7170  -27.6600  -24.6100 F   0  0  0  0  0
   36.5400  -23.9500  -24.9430 I   0  0  0  0  0
   36.1290  -32.1190  -29.2060 N   0  0  0  0  0
   30.8730  -29.4420  -26.9000 O   0  0  0  0  0
   32.5050  -31.3770  -29.3690 C   0  0  0  0  0
   36.9640  -31.4880  -28.2650 N   0  0  0  0  0
   29.0010  -29.3250  -28.8070 O   0  0  0  0  0
   33.6900  -31.9910  -29.7330 C   0  0  0  0  0
   33.5820  -29.1950  -26.6320 N   0  0  0  0  0
   26.0370  -30.6700  -27.2750 O   0  0  0  0  0
   33.6600  -30.1000  -27.6560 C   0  0  0  0  0
   30.2480  -29.8200  -29.0050 N   0  0  0  0  0
   34.8580  -30.7480  -28.0180 C   0  0  0  0  0
   34.8580  -31.6720  -29.0590 C   0  0  0  0  0
   36.1990  -30.6420  -27.5450 C   0  0  0  0  0
   34.2910  -28.0600  -26.3420 C   0  0  0  0  0
   35.4440  -27.6340  -27.0120 C   0  0  0  0  0
   36.1010  -26.4680  -26.6250 C   0  0  0  0  0
   35.6100  -25.7130  -25.5640 C   0  0  0  0  0
   34.4720  -26.1250  -24.8960 C   0  0  0  0  0
   33.8200  -27.2880  -25.2830 C   0  0  0  0  0
   31.1400  -29.8480  -28.0210 C   0  0  0  0  0
   27.9030  -30.2400  -28.7340 C   0  0  0  0  0
   27.4320  -30.3790  -27.2900 C   0  0  0  0  0
   31.5825  -31.6266  -29.8933 H   0  0  0  0  0
   33.7048  -32.7198  -30.5434 H   0  0  0  0  0
   32.8526  -29.4078  -25.9515 H   0  0  0  0  0
   25.7393  -30.7577  -26.3665 H   0  0  0  0  0
   30.5054  -30.1769  -29.9252 H   0  0  0  0  0
   36.5453  -29.9912  -26.7421 H   0  0  0  0  0
   35.8317  -28.2205  -27.8449 H   0  0  0  0  0
   36.9991  -26.1473  -27.1529 H   0  0  0  0  0
   34.0860  -25.5358  -24.0641 H   0  0  0  0  0
   28.2245  -31.2147  -29.1009 H   0  0  0  0  0
   27.0818  -29.8628  -29.3435 H   0  0  0  0  0
   27.9784  -31.1875  -26.8044 H   0  0  0  0  0
   27.6159  -29.4472  -26.7551 H   0  0  0  0  0
  1  6  4  0  0  0
  1 12  4  0  0  0
 23  1  1  0  0  0
 22  2  1  0  0  0
 20  3  1  0  0  0
  7  4  4  0  0  0
 15  4  4  0  0  0
 23  5  2  0  0  0
  6  9  4  0  0  0
 16  7  4  0  0  0
  8 13  1  0  0  0
 24  8  1  0  0  0
  9 15  4  0  0  0
 12 10  1  0  0  0
 10 17  1  0  0  0
 25 11  1  0  0  0
 12 14  4  0  0  0
 13 23  1  0  0  0
 14 15  4  0  0  0
 14 16  4  0  0  0
 17 18  4  0  0  0
 17 22  4  0  0  0
 18 19  4  0  0  0
 19 20  4  0  0  0
 21 20  4  0  0  0
 22 21  4  0  0  0
 24 25  1  0  0  0
  6 26  1  0  0  0
  9 27  1  0  0  0
 10 28  1  0  0  0
 11 29  1  0  0  0
 13 30  1  0  0  0
 16 31  1  0  0  0
 18 32  1  0  0  0
 19 33  1  0  0  0
 21 34  1  0  0  0
 24 35  1  0  0  0
 24 36  1  0  0  0
 25 37  1  0  0  0
 25 38  1  0  0  0
M  END
$$$$
