5eou_ligand
  -I-interpret- 

 47 49  0  0  0  0  0  0  0  0999 V2000
  364.5130  232.6670  189.2960 P   0  0  0  0  0
  365.7290  232.4090  188.4750 O   0  0  0  0  0
  364.6170  232.2140  190.7080 O   0  0  0  0  0
  363.2450  232.2460  188.6300 O   0  0  0  0  0
  364.2940  235.1310  188.0590 P   0  0  0  0  0
  364.7970  234.2840  186.9260 O   0  0  0  0  0
  362.9210  235.7220  188.0500 O   0  0  0  0  0
  364.4280  234.2530  189.3830 O   0  0  0  0  0
  365.3330  237.6820  187.3860 P   0  0  0  0  0
  366.1930  237.5090  186.1850 O   0  0  0  0  0
  363.9320  238.1600  187.2340 O   0  0  0  0  0
  365.3140  236.3460  188.2680 O   0  0  0  0  0
  366.0680  238.6390  188.4160 O   0  0  0  0  0
  365.4160  239.0240  189.6180 C   0  0  0  0  0
  366.4650  239.1710  190.7020 C   0  0  0  0  0
  367.3700  240.1850  190.2980 O   0  0  0  0  0
  365.8660  239.6350  192.0090 C   0  0  0  0  0
  366.5620  239.0010  193.0760 O   0  0  0  0  0
  366.2020  241.0970  192.0830 C   0  0  0  0  0
  366.4050  241.4780  193.4320 O   0  0  0  0  0
  367.4990  241.1660  191.3170 C   0  0  0  0  0
  367.7280  242.4910  190.7160 N   0  0  0  0  0
  366.9260  243.0960  189.8370 C   0  0  0  0  0
  367.4300  244.2940  189.4690 N   0  0  0  0  0
  368.5830  244.4680  190.1250 C   0  0  0  0  0
  369.6200  245.5190  190.1940 C   0  0  0  0  0
  369.5090  246.6520  189.4700 N   0  0  0  0  0
  370.6710  245.3120  191.0010 N   0  0  0  0  0
  370.7770  244.1880  191.7230 C   0  0  0  0  0
  369.8780  243.1950  191.7120 N   0  0  0  0  0
  368.7730  243.2750  190.9470 C   0  0  0  0  0
  365.5839  232.7281  187.5813 H   0  0  0  0  0
  363.2380  232.5673  187.7254 H   0  0  0  0  0
  365.6942  233.9992  187.1146 H   0  0  0  0  0
  363.5187  238.2164  188.0987 H   0  0  0  0  0
  364.6847  238.2685  189.9053 H   0  0  0  0  0
  364.8926  239.9691  189.4734 H   0  0  0  0  0
  366.9380  238.1993  190.8438 H   0  0  0  0  0
  364.7988  239.4226  192.0725 H   0  0  0  0  0
  366.1908  239.2875  193.9137 H   0  0  0  0  0
  365.4255  241.7529  191.6895 H   0  0  0  0  0
  366.6191  242.4130  193.4705 H   0  0  0  0  0
  368.3489  240.9916  191.9768 H   0  0  0  0  0
  365.9897  242.6791  189.4659 H   0  0  0  0  0
  368.7008  246.7928  188.8639 H   0  0  0  0  0
  370.2333  247.3678  189.5287 H   0  0  0  0  0
  371.6530  244.0742  192.3616 H   0  0  0  0  0
  1  2  1  0  0  0
  1  3  2  0  0  0
  1  4  1  0  0  0
  8  1  1  0  0  0
  5  6  1  0  0  0
  5  7  2  0  0  0
  5  8  1  0  0  0
 12  5  1  0  0  0
  9 10  2  0  0  0
  9 11  1  0  0  0
  9 12  1  0  0  0
  9 13  1  0  0  0
 13 14  1  0  0  0
 14 15  1  0  0  0
 15 16  1  0  0  0
 15 17  1  0  0  0
 16 21  1  0  0  0
 17 18  1  0  0  0
 17 19  1  0  0  0
 19 20  1  0  0  0
 19 21  1  0  0  0
 21 22  1  0  0  0
 22 23  4  0  0  0
 22 31  4  0  0  0
 23 24  4  0  0  0
 24 25  4  0  0  0
 25 26  4  0  0  0
 25 31  4  0  0  0
 26 27  1  0  0  0
 26 28  4  0  0  0
 28 29  4  0  0  0
 29 30  4  0  0  0
 30 31  4  0  0  0
  2 32  1  0  0  0
  4 33  1  0  0  0
  6 34  1  0  0  0
 11 35  1  0  0  0
 14 36  1  0  0  0
 14 37  1  0  0  0
 15 38  1  0  0  0
 17 39  1  0  0  0
 18 40  1  0  0  0
 19 41  1  0  0  0
 20 42  1  0  0  0
 21 43  1  0  0  0
 23 44  1  0  0  0
 27 45  1  0  0  0
 27 46  1  0  0  0
 29 47  1  0  0  0
M  END
$$$$
