### 
### Created by X-TOOL on Mon Sep 10 21:13:29 2018
### 

@<TRIPOS>MOLECULE
5eou_ligand
   43    45     1     0     0
SMALL
GAST_HUCK


@<TRIPOS>ATOM
      1 PG        364.5130  232.6670  189.2960 P.3       1 ATP         0.1879
      2 O1G       365.7290  232.4090  188.4750 O.co2     1 ATP        -0.6091
      3 O2G       364.6170  232.2140  190.7080 O.co2     1 ATP        -0.6091
      4 O3G       363.2450  232.2460  188.6300 O.co2     1 ATP        -0.6091
      5 PB        364.2940  235.1310  188.0590 P.3       1 ATP         0.3553
      6 O1B       364.7970  234.2840  186.9260 O.co2     1 ATP        -0.5652
      7 O2B       362.9210  235.7220  188.0500 O.co2     1 ATP        -0.5652
      8 O3B       364.4280  234.2530  189.3830 O.3       1 ATP        -0.1546
      9 PA        365.3330  237.6820  187.3860 P.3       1 ATP         0.3266
     10 O1A       366.1930  237.5090  186.1850 O.co2     1 ATP        -0.5692
     11 O2A       363.9320  238.1600  187.2340 O.co2     1 ATP        -0.5692
     12 O3A       365.3140  236.3460  188.2680 O.3       1 ATP        -0.1171
     13 O5'       366.0680  238.6390  188.4160 O.3       1 ATP        -0.2441
     14 C5'       365.4160  239.0240  189.6180 C.3       1 ATP         0.1131
     15 C4'       366.4650  239.1710  190.7020 C.3       1 ATP         0.1189
     16 O4'       367.3700  240.1850  190.2980 O.3       1 ATP        -0.3364
     17 C3'       365.8660  239.6350  192.0090 C.3       1 ATP         0.1149
     18 O3'       366.5620  239.0010  193.0760 O.3       1 ATP        -0.3864
     19 C2'       366.2020  241.0970  192.0830 C.3       1 ATP         0.1385
     20 O2'       366.4050  241.4780  193.4320 O.3       1 ATP        -0.3836
     21 C1'       367.4990  241.1660  191.3170 C.3       1 ATP         0.2010
     22 N9        367.7280  242.4910  190.7160 N.pl3     1 ATP        -0.1919
     23 C8        366.9260  243.0960  189.8370 C.2       1 ATP         0.1123
     24 N7        367.4300  244.2940  189.4690 N.2       1 ATP        -0.2958
     25 C5        368.5830  244.4680  190.1250 C.ar      1 ATP         0.1045
     26 C6        369.6200  245.5190  190.1940 C.ar      1 ATP         0.1298
     27 N6        369.5090  246.6520  189.4700 N.pl3     1 ATP        -0.3152
     28 N1        370.6710  245.3120  191.0010 N.ar      1 ATP        -0.2698
     29 C2        370.7770  244.1880  191.7230 C.ar      1 ATP         0.0533
     30 N3        369.8780  243.1950  191.7120 N.ar      1 ATP        -0.2714
     31 C4        368.7730  243.2750  190.9470 C.ar      1 ATP         0.1613
     32 H1        364.6863  238.2539  189.9085 H         1 ATP         0.0648
     33 H2        364.8977  239.9828  189.4695 H         1 ATP         0.0648
     34 H3        366.9874  238.2136  190.8455 H         1 ATP         0.0651
     35 H4        364.7833  239.4476  192.0596 H         1 ATP         0.0648
     36 H5        366.1946  239.2846  193.9050 H         1 ATP         0.2100
     37 H6        365.4218  241.7215  191.6233 H         1 ATP         0.0676
     38 H7        367.1212  240.9726  193.7983 H         1 ATP         0.2101
     39 H8        368.3419  240.9238  191.9810 H         1 ATP         0.0996
     40 H9        365.9906  242.6795  189.4662 H         1 ATP         0.1349
     41 H10       370.2404  247.3748  189.5293 H         1 ATP         0.1820
     42 H11       368.6929  246.7942  188.8580 H         1 ATP         0.1820
     43 H12       371.6481  244.0749  192.3581 H         1 ATP         0.0996
@<TRIPOS>BOND
     1    1    2 ar 
     2    1    3 ar 
     3    1    4 ar 
     4    8    1 1  
     5    5    6 ar 
     6    5    7 ar 
     7    5    8 1  
     8   12    5 1  
     9    9   10 ar 
    10    9   11 ar 
    11    9   12 1  
    12    9   13 1  
    13   13   14 1  
    14   14   15 1  
    15   15   16 1  
    16   15   17 1  
    17   16   21 1  
    18   17   18 1  
    19   17   19 1  
    20   19   20 1  
    21   19   21 1  
    22   21   22 1  
    23   22   23 1  
    24   22   31 1  
    25   23   24 2  
    26   24   25 1  
    27   25   26 ar 
    28   25   31 ar 
    29   26   27 1  
    30   26   28 ar 
    31   28   29 ar 
    32   29   30 ar 
    33   30   31 ar 
    34   14   32 1  
    35   14   33 1  
    36   15   34 1  
    37   17   35 1  
    38   18   36 1  
    39   19   37 1  
    40   20   38 1  
    41   21   39 1  
    42   23   40 1  
    43   27   41 1  
    44   27   42 1  
    45   29   43 1  
@<TRIPOS>SUBSTRUCTURE
     1 ATP         1

