3b4p_ligand
  -I-interpret- 

 33 34  0  0  0  0  0  0  0  0999 V2000
   41.7840    0.0650   92.8670 C   0  0  0  0  0
   42.2500   -1.3750   92.7860 C   0  0  0  0  0
   41.1000   -2.2780   92.2790 C   0  0  0  0  0
   40.5000   -1.8310   91.0180 C   0  0  0  0  0
   40.2170   -0.3180   91.0040 C   0  0  0  0  0
   41.4200    0.5530   91.5720 C   0  0  0  0  0
   40.8630    1.9650   91.6760 N   0  0  0  0  0
   41.5550    2.9200   92.4130 C   0  0  0  0  0
   42.8640    3.1700   92.0240 C   0  0  0  0  0
   43.5890    4.1180   92.6800 C   0  0  0  0  0
   43.0420    4.8160   93.7290 C   0  0  0  0  0
   41.7200    4.6100   94.1170 C   0  0  0  0  0
   40.9560    3.6270   93.4680 C   0  0  0  0  0
   39.5210    3.3710   93.8690 C   0  0  0  0  0
   39.1530    3.8620   94.9270 O   0  0  0  0  0
   38.7870    2.7530   93.1230 O   0  0  0  0  0
   42.5969    0.6767   93.2582 H   0  0  0  0  0
   40.9132    0.1171   93.5205 H   0  0  0  0  0
   42.5562   -1.7084   93.7776 H   0  0  0  0  0
   43.0889   -1.4412   92.0933 H   0  0  0  0  0
   40.3153   -2.2563   93.0352 H   0  0  0  0  0
   41.5207   -3.2680   92.1031 H   0  0  0  0  0
   39.5507   -2.3520   90.8938 H   0  0  0  0  0
   41.2037   -2.0491   90.2147 H   0  0  0  0  0
   39.3513   -0.1391   91.6417 H   0  0  0  0  0
   40.0576   -0.0225   89.9670 H   0  0  0  0  0
   42.3083    0.5128   90.9416 H   0  0  0  0  0
   39.9896    2.2091   91.2092 H   0  0  0  0  0
   43.3081    2.6118   91.1998 H   0  0  0  0  0
   44.6132    4.3249   92.3696 H   0  0  0  0  0
   43.6518    5.5424   94.2662 H   0  0  0  0  0
   41.2826    5.2067   94.9174 H   0  0  0  0  0
   39.8946    4.3013   95.3497 H   0  0  0  0  0
  1  2  1  0  0  0
  1  6  1  0  0  0
  2  3  1  0  0  0
  3  4  1  0  0  0
  4  5  1  0  0  0
  5  6  1  0  0  0
  6  7  1  0  0  0
  7  8  1  0  0  0
  8  9  4  0  0  0
  8 13  4  0  0  0
  9 10  4  0  0  0
 10 11  4  0  0  0
 11 12  4  0  0  0
 12 13  4  0  0  0
 13 14  1  0  0  0
 14 15  1  0  0  0
 14 16  2  0  0  0
  1 17  1  0  0  0
  1 18  1  0  0  0
  2 19  1  0  0  0
  2 20  1  0  0  0
  3 21  1  0  0  0
  3 22  1  0  0  0
  4 23  1  0  0  0
  4 24  1  0  0  0
  5 25  1  0  0  0
  5 26  1  0  0  0
  6 27  1  0  0  0
  7 28  1  0  0  0
  9 29  1  0  0  0
 10 30  1  0  0  0
 11 31  1  0  0  0
 12 32  1  0  0  0
 15 33  1  0  0  0
M  END
$$$$
