### 
### Created by X-TOOL on Mon Aug  2 16:11:00 2021
### 

@<TRIPOS>MOLECULE
6n97_ligand
   92    94     1     0     0
SMALL
GAST_HUCK


@<TRIPOS>ATOM
      1 O33        18.4530   26.1050   14.3320 O.co2     1 KGP        -0.5537
      2 P3         19.6490   26.9700   14.6690 P.3       1 KGP         0.2013
      3 O31        20.2850   27.6130   13.4640 O.co2     1 KGP        -0.5537
      4 O32        19.3180   28.0240   15.6840 O.co2     1 KGP        -0.5537
      5 O3'        20.7970   25.9830   15.2550 O.3       1 KGP        -0.2674
      6 C3'        20.6250   25.2040   16.4320 C.3       1 KGP         0.1487
      7 C2'        21.4110   23.9280   16.2350 C.3       1 KGP         0.1432
      8 O2'        21.3560   23.4020   14.8890 O.3       1 KGP        -0.3832
      9 C1'        22.7870   24.4680   16.5950 C.3       1 KGP         0.2013
     10 N9         23.7000   23.3840   16.9890 N.pl3     1 KGP        -0.1919
     11 C4         24.8380   23.1670   16.3390 C.ar      1 KGP         0.1613
     12 N3         25.4240   23.6960   15.2450 N.ar      1 KGP        -0.2714
     13 C2         26.6040   23.2010   14.8230 C.ar      1 KGP         0.0533
     14 N1         27.2470   22.1620   15.4300 N.ar      1 KGP        -0.2698
     15 C6         26.7410   21.5680   16.5210 C.ar      1 KGP         0.1298
     16 N6         27.3540   20.5390   17.1500 N.pl3     1 KGP        -0.3152
     17 C5         25.4720   22.0520   17.0420 C.ar      1 KGP         0.1045
     18 N7         24.6670   21.6970   18.0660 N.2       1 KGP        -0.2958
     19 C8         23.5870   22.5260   18.0380 C.2       1 KGP         0.1123
     20 O4'        22.6550   25.4380   17.6540 O.3       1 KGP        -0.3360
     21 C4'        21.2790   25.8850   17.6290 C.3       1 KGP         0.1235
     22 C5'        20.5670   25.4570   18.9130 C.3       1 KGP         0.1131
     23 O5'        20.1730   24.1000   18.7380 O.3       1 KGP        -0.2476
     24 P1         18.9090   23.5110   19.4700 P.3       1 KGP         0.2972
     25 O11        18.5860   22.0990   19.0780 O.co2     1 KGP        -0.6127
     26 O12        17.7830   24.4440   19.1250 O.co2     1 KGP        -0.6127
     27 O6         19.1370   23.6550   21.0460 O.3       1 KGP        -0.1319
     28 P2         18.6140   22.5780   22.0780 P.3       1 KGP         0.2971
     29 O21        18.7420   23.2370   23.4190 O.co2     1 KGP        -0.6127
     30 O22        17.2150   22.2020   21.7360 O.co2     1 KGP        -0.6127
     31 O7         19.4760   21.2100   22.0480 O.3       1 KGP        -0.2496
     32 CPB        20.8090   21.2250   22.5330 C.3       1 KGP         0.0936
     33 CPA        21.7010   20.3870   21.6420 C.3       1 KGP         0.0367
     34 CP9        23.1260   20.0890   22.0620 C.3       1 KGP        -0.0528
     35 CP8        21.2150   19.1580   22.4190 C.3       1 KGP        -0.0528
     36 CP7        21.2020   19.7730   20.3470 C.3       1 KGP         0.1510
     37 OP3        21.3370   20.9280   19.5640 O.3       1 KGP        -0.3708
     38 CP6        22.0570   18.6620   19.7840 C.2       1 KGP         0.2057
     39 OP2        21.9230   17.4760   20.1020 O.2       1 KGP        -0.3942
     40 NP2        22.9900   19.0460   18.9370 N.am      1 KGP        -0.2826
     41 CP5        23.9380   18.1200   18.3640 C.3       1 KGP         0.0477
     42 CP4        24.9480   17.6640   19.3990 C.3       1 KGP         0.0574
     43 CP3        25.9510   16.7750   18.7220 C.2       1 KGP         0.1780
     44 OP1        25.5990   15.7940   18.1160 O.2       1 KGP        -0.3970
     45 NP1        27.2130   17.1000   18.7690 N.am      1 KGP        -0.2850
     46 CP2        28.1890   16.3110   18.0860 C.3       1 KGP         0.0510
     47 CP1        28.8190   17.1110   16.9580 C.3       1 KGP         0.0510
     48 N          29.6570   16.2620   16.1610 N.am      1 KGP        -0.2835
     49 CS1        31.0050   15.9320   16.6310 C.2       1 KGP         0.1970
     50 OS1        31.4410   16.4490   17.6540 O.2       1 KGP        -0.3951
     51 CS2        31.7510   14.9340   15.8050 C.3       1 KGP         0.1275
     52 CS3        33.2550   15.0440   15.9720 C.3       1 KGP        -0.0284
     53 SS4        31.3020   13.3840   16.2770 S.o2      1 KGP        -0.1713
     54 O56        31.7260   13.3090   17.6410 O.co2     1 KGP        -0.4821
     55 OS5        29.8680   13.2240   16.2630 O.co2     1 KGP        -0.4821
     56 OS4        31.9630   12.5450   15.3380 O.co2     1 KGP        -0.4821
     57 H1         19.5590   25.0072   16.6187 H         1 KGP         0.0704
     58 H2         21.0851   23.1429   16.9331 H         1 KGP         0.0680
     59 H3         21.7088   24.0443   14.2845 H         1 KGP         0.2101
     60 H4         23.2086   24.9684   15.7108 H         1 KGP         0.0996
     61 H5         27.0678   23.6530   13.9537 H         1 KGP         0.0996
     62 H6         26.9242   20.1164   17.9852 H         1 KGP         0.1820
     63 H7         28.2505   20.1781   16.7936 H         1 KGP         0.1820
     64 H8         22.7602   22.5051   18.7465 H         1 KGP         0.1349
     65 H9         21.2323   26.9789   17.5235 H         1 KGP         0.0654
     66 H10        19.6823   26.0883   19.0828 H         1 KGP         0.0648
     67 H11        21.2500   25.5444   19.7708 H         1 KGP         0.0648
     68 H12        20.8285   20.8159   23.5539 H         1 KGP         0.0628
     69 H13        21.1790   22.2608   22.5459 H         1 KGP         0.0628
     70 H14        23.6134   19.4718   21.2929 H         1 KGP         0.0238
     71 H15        23.1204   19.5460   23.0186 H         1 KGP         0.0238
     72 H16        23.6787   21.0328   22.1792 H         1 KGP         0.0238
     73 H17        20.1234   19.0680   22.3173 H         1 KGP         0.0238
     74 H18        21.4763   19.2691   23.4817 H         1 KGP         0.0238
     75 H19        21.6964   18.2550   22.0154 H         1 KGP         0.0238
     76 H20        20.1615   19.4260   20.4302 H         1 KGP         0.0844
     77 H21        20.7950   21.6195   19.9255 H         1 KGP         0.2133
     78 H22        23.0435   20.0115   18.6823 H         1 KGP         0.1853
     79 H23        24.4689   18.6146   17.5373 H         1 KGP         0.0545
     80 H24        23.3965   17.2431   17.9795 H         1 KGP         0.0545
     81 H25        24.4362   17.1063   20.1972 H         1 KGP         0.0522
     82 H26        25.4578   18.5378   19.8310 H         1 KGP         0.0522
     83 H27        27.4995   17.9064   19.2863 H         1 KGP         0.1851
     84 H28        27.7047   15.4156   17.6692 H         1 KGP         0.0540
     85 H29        28.9719   16.0073   18.7965 H         1 KGP         0.0540
     86 H30        29.4247   17.9248   17.3831 H         1 KGP         0.0540
     87 H31        28.0255   17.5361   16.3259 H         1 KGP         0.0540
     88 H32        29.3236   15.8982   15.2912 H         1 KGP         0.1852
     89 H33        31.4950   15.0894   14.7466 H         1 KGP         0.0743
     90 H34        33.5847   16.0494   15.6711 H         1 KGP         0.0272
     91 H35        33.7501   14.2915   15.3406 H         1 KGP         0.0272
     92 H36        33.5206   14.8710   17.0253 H         1 KGP         0.0272
@<TRIPOS>BOND
     1    1    2 ar 
     2    2    3 ar 
     3    2    4 ar 
     4    2    5 1  
     5    5    6 1  
     6    6    7 1  
     7    6   21 1  
     8    7    8 1  
     9    7    9 1  
    10    9   10 1  
    11    9   20 1  
    12   10   11 1  
    13   10   19 1  
    14   11   12 ar 
    15   11   17 ar 
    16   12   13 ar 
    17   13   14 ar 
    18   14   15 ar 
    19   15   16 1  
    20   15   17 ar 
    21   17   18 1  
    22   18   19 2  
    23   20   21 1  
    24   21   22 1  
    25   22   23 1  
    26   23   24 1  
    27   24   25 ar 
    28   24   26 ar 
    29   24   27 1  
    30   27   28 1  
    31   28   29 ar 
    32   28   30 ar 
    33   28   31 1  
    34   31   32 1  
    35   32   33 1  
    36   33   34 1  
    37   33   35 1  
    38   33   36 1  
    39   36   37 1  
    40   36   38 1  
    41   38   39 2  
    42   38   40 am 
    43   40   41 1  
    44   41   42 1  
    45   42   43 1  
    46   43   44 2  
    47   43   45 am 
    48   45   46 1  
    49   46   47 1  
    50   47   48 1  
    51   48   49 am 
    52   49   50 2  
    53   49   51 1  
    54   51   52 1  
    55   51   53 1  
    56   53   54 ar 
    57   53   55 ar 
    58   53   56 ar 
    59    6   57 1  
    60    7   58 1  
    61    8   59 1  
    62    9   60 1  
    63   13   61 1  
    64   16   62 1  
    65   16   63 1  
    66   19   64 1  
    67   21   65 1  
    68   22   66 1  
    69   22   67 1  
    70   32   68 1  
    71   32   69 1  
    72   34   70 1  
    73   34   71 1  
    74   34   72 1  
    75   35   73 1  
    76   35   74 1  
    77   35   75 1  
    78   36   76 1  
    79   37   77 1  
    80   40   78 1  
    81   41   79 1  
    82   41   80 1  
    83   42   81 1  
    84   42   82 1  
    85   45   83 1  
    86   46   84 1  
    87   46   85 1  
    88   47   86 1  
    89   47   87 1  
    90   48   88 1  
    91   51   89 1  
    92   52   90 1  
    93   52   91 1  
    94   52   92 1  
@<TRIPOS>SUBSTRUCTURE
     1 KGP         1

