6n97_ligand
  -I-interpret- 

 97 99  0  0  0  0  0  0  0  0999 V2000
   18.4530   26.1050   14.3320 O   0  0  0  0  0
   19.6490   26.9700   14.6690 P   0  0  0  0  0
   20.2850   27.6130   13.4640 O   0  0  0  0  0
   19.3180   28.0240   15.6840 O   0  0  0  0  0
   20.7970   25.9830   15.2550 O   0  0  0  0  0
   20.6250   25.2040   16.4320 C   0  0  0  0  0
   21.4110   23.9280   16.2350 C   0  0  0  0  0
   21.3560   23.4020   14.8890 O   0  0  0  0  0
   22.7870   24.4680   16.5950 C   0  0  0  0  0
   23.7000   23.3840   16.9890 N   0  0  0  0  0
   24.8380   23.1670   16.3390 C   0  0  0  0  0
   25.4240   23.6960   15.2450 N   0  0  0  0  0
   26.6040   23.2010   14.8230 C   0  0  0  0  0
   27.2470   22.1620   15.4300 N   0  0  0  0  0
   26.7410   21.5680   16.5210 C   0  0  0  0  0
   27.3540   20.5390   17.1500 N   0  0  0  0  0
   25.4720   22.0520   17.0420 C   0  0  0  0  0
   24.6670   21.6970   18.0660 N   0  0  0  0  0
   23.5870   22.5260   18.0380 C   0  0  0  0  0
   22.6550   25.4380   17.6540 O   0  0  0  0  0
   21.2790   25.8850   17.6290 C   0  0  0  0  0
   20.5670   25.4570   18.9130 C   0  0  0  0  0
   20.1730   24.1000   18.7380 O   0  0  0  0  0
   18.9090   23.5110   19.4700 P   0  0  0  0  0
   18.5860   22.0990   19.0780 O   0  0  0  0  0
   17.7830   24.4440   19.1250 O   0  0  0  0  0
   19.1370   23.6550   21.0460 O   0  0  0  0  0
   18.6140   22.5780   22.0780 P   0  0  0  0  0
   18.7420   23.2370   23.4190 O   0  0  0  0  0
   17.2150   22.2020   21.7360 O   0  0  0  0  0
   19.4760   21.2100   22.0480 O   0  0  0  0  0
   20.8090   21.2250   22.5330 C   0  0  0  0  0
   21.7010   20.3870   21.6420 C   0  0  0  0  0
   23.1260   20.0890   22.0620 C   0  0  0  0  0
   21.2150   19.1580   22.4190 C   0  0  0  0  0
   21.2020   19.7730   20.3470 C   0  0  0  0  0
   21.3370   20.9280   19.5640 O   0  0  0  0  0
   22.0570   18.6620   19.7840 C   0  0  0  0  0
   21.9230   17.4760   20.1020 O   0  0  0  0  0
   22.9900   19.0460   18.9370 N   0  0  0  0  0
   23.9380   18.1200   18.3640 C   0  0  0  0  0
   24.9480   17.6640   19.3990 C   0  0  0  0  0
   25.9510   16.7750   18.7220 C   0  0  0  0  0
   25.5990   15.7940   18.1160 O   0  0  0  0  0
   27.2130   17.1000   18.7690 N   0  0  0  0  0
   28.1890   16.3110   18.0860 C   0  0  0  0  0
   28.8190   17.1110   16.9580 C   0  0  0  0  0
   29.6570   16.2620   16.1610 N   0  0  0  0  0
   31.0050   15.9320   16.6310 C   0  0  0  0  0
   31.4410   16.4490   17.6540 O   0  0  0  0  0
   31.7510   14.9340   15.8050 C   0  0  0  0  0
   33.2550   15.0440   15.9720 C   0  0  0  0  0
   31.3020   13.3840   16.2770 S   0  0  0  0  0
   31.7260   13.3090   17.6410 O   0  0  0  0  0
   29.8680   13.2240   16.2630 O   0  0  0  0  0
   31.9630   12.5450   15.3380 O   0  0  0  0  0
   18.7086   25.4468   13.6816 H   0  0  0  0  0
   20.4960   26.9369   12.8159 H   0  0  0  0  0
   19.5592   25.0542   16.6043 H   0  0  0  0  0
   21.0567   23.0736   16.8116 H   0  0  0  0  0
   20.4713   23.0748   14.7104 H   0  0  0  0  0
   23.2176   24.9490   15.7167 H   0  0  0  0  0
   27.0704   23.6555   13.9489 H   0  0  0  0  0
   28.2418   20.1816   16.7971 H   0  0  0  0  0
   26.9284   20.1205   17.9771 H   0  0  0  0  0
   22.7595   22.5051   18.7471 H   0  0  0  0  0
   21.2199   26.9708   17.5538 H   0  0  0  0  0
   19.6994   26.0892   19.1020 H   0  0  0  0  0
   21.2287   25.5586   19.7732 H   0  0  0  0  0
   18.0176   25.3374   19.3866 H   0  0  0  0  0
   19.6630   23.4544   23.5809 H   0  0  0  0  0
   20.8255   20.8130   23.5420 H   0  0  0  0  0
   21.1745   22.2519   22.5382 H   0  0  0  0  0
   23.6725   21.0249   22.1779 H   0  0  0  0  0
   23.1191   19.5511   23.0100 H   0  0  0  0  0
   23.6079   19.4774   21.2992 H   0  0  0  0  0
   21.4743   19.2695   23.4718 H   0  0  0  0  0
   20.1334   19.0698   22.3172 H   0  0  0  0  0
   21.6930   18.2641   22.0184 H   0  0  0  0  0
   20.2285   19.2887   20.4235 H   0  0  0  0  0
   21.0583   20.7383   18.6652 H   0  0  0  0  0
   23.0445   20.0308   18.6772 H   0  0  0  0  0
   24.4693   18.6205   17.5545 H   0  0  0  0  0
   23.3964   17.2482   17.9969 H   0  0  0  0  0
   24.4443   17.1184   20.1969 H   0  0  0  0  0
   25.4496   18.5271   19.8365 H   0  0  0  0  0
   27.5052   17.9226   19.2966 H   0  0  0  0  0
   27.7042   15.4285   17.6686 H   0  0  0  0  0
   28.9664   16.0178   18.7915 H   0  0  0  0  0
   29.4224   17.9137   17.3819 H   0  0  0  0  0
   28.0308   17.5271   16.3305 H   0  0  0  0  0
   29.3170   15.8909   15.2738 H   0  0  0  0  0
   31.5022   15.1348   14.7629 H   0  0  0  0  0
   33.5810   16.0392   15.6698 H   0  0  0  0  0
   33.5165   14.8762   17.0168 H   0  0  0  0  0
   33.7442   14.2953   15.3489 H   0  0  0  0  0
   29.5509   13.2697   15.3581 H   0  0  0  0  0
  1  2  1  0  0  0
  2  3  1  0  0  0
  2  4  2  0  0  0
  2  5  1  0  0  0
  5  6  1  0  0  0
  6  7  1  0  0  0
  6 21  1  0  0  0
  7  8  1  0  0  0
  7  9  1  0  0  0
  9 10  1  0  0  0
  9 20  1  0  0  0
 10 11  4  0  0  0
 10 19  4  0  0  0
 11 12  4  0  0  0
 11 17  4  0  0  0
 12 13  4  0  0  0
 13 14  4  0  0  0
 14 15  4  0  0  0
 15 16  1  0  0  0
 15 17  4  0  0  0
 17 18  4  0  0  0
 18 19  4  0  0  0
 20 21  1  0  0  0
 21 22  1  0  0  0
 22 23  1  0  0  0
 23 24  1  0  0  0
 24 25  2  0  0  0
 24 26  1  0  0  0
 24 27  1  0  0  0
 27 28  1  0  0  0
 28 29  1  0  0  0
 28 30  2  0  0  0
 28 31  1  0  0  0
 31 32  1  0  0  0
 32 33  1  0  0  0
 33 34  1  0  0  0
 33 35  1  0  0  0
 33 36  1  0  0  0
 36 37  1  0  0  0
 36 38  1  0  0  0
 38 39  2  0  0  0
 38 40  1  0  0  0
 40 41  1  0  0  0
 41 42  1  0  0  0
 42 43  1  0  0  0
 43 44  2  0  0  0
 43 45  1  0  0  0
 45 46  1  0  0  0
 46 47  1  0  0  0
 47 48  1  0  0  0
 48 49  1  0  0  0
 49 50  2  0  0  0
 49 51  1  0  0  0
 51 52  1  0  0  0
 51 53  1  0  0  0
 53 54  2  0  0  0
 53 55  1  0  0  0
 53 56  2  0  0  0
  1 57  1  0  0  0
  3 58  1  0  0  0
  6 59  1  0  0  0
  7 60  1  0  0  0
  8 61  1  0  0  0
  9 62  1  0  0  0
 13 63  1  0  0  0
 16 64  1  0  0  0
 16 65  1  0  0  0
 19 66  1  0  0  0
 21 67  1  0  0  0
 22 68  1  0  0  0
 22 69  1  0  0  0
 26 70  1  0  0  0
 29 71  1  0  0  0
 32 72  1  0  0  0
 32 73  1  0  0  0
 34 74  1  0  0  0
 34 75  1  0  0  0
 34 76  1  0  0  0
 35 77  1  0  0  0
 35 78  1  0  0  0
 35 79  1  0  0  0
 36 80  1  0  0  0
 37 81  1  0  0  0
 40 82  1  0  0  0
 41 83  1  0  0  0
 41 84  1  0  0  0
 42 85  1  0  0  0
 42 86  1  0  0  0
 45 87  1  0  0  0
 46 88  1  0  0  0
 46 89  1  0  0  0
 47 90  1  0  0  0
 47 91  1  0  0  0
 48 92  1  0  0  0
 51 93  1  0  0  0
 52 94  1  0  0  0
 52 95  1  0  0  0
 52 96  1  0  0  0
 55 97  1  0  0  0
M  END
$$$$
