2yoj_ligand
  -I-interpret- 

 50 55  0  0  0  0  0  0  0  0999 V2000
   27.1760   43.3960   43.2830 C   0  0  0  0  0
   27.3960   44.5530   44.0660 C   0  0  0  0  0
   28.5450   45.3490   43.8540 C   0  0  0  0  0
   29.5070   44.9880   42.8840 C   0  0  0  0  0
   29.2670   43.8510   42.0930 C   0  0  0  0  0
   28.1060   43.0980   42.2890 C   0  0  0  0  0
   23.0570   45.5020   46.2340 C   0  0  0  0  0
   24.6080   43.4570   46.7100 C   0  0  0  0  0
   25.4060   42.6370   45.8860 C   0  0  0  0  0
   25.2190   43.0650   44.6190 N   0  0  0  0  0
   24.3510   44.1390   44.5650 C   0  0  0  0  0
   23.9310   44.4110   45.8890 C   0  0  0  0  0
   26.2010   41.4570   47.8250 C   0  0  0  0  0
   26.2030   41.6380   46.4320 C   0  0  0  0  0
   23.9950   44.8790   43.3490 C   0  0  0  0  0
   25.9560   42.5080   43.5020 C   0  0  0  0  0
   23.8590   46.0880   43.2510 O   0  0  0  0  0
   21.7540   45.7180   45.4740 C   0  0  0  0  0
   21.0060   46.8220   45.8560 N   0  0  0  0  0
   21.3630   47.6800   46.8690 C   0  0  0  0  0
   22.4870   47.4920   47.5630 C   0  0  0  0  0
   23.3660   46.3880   47.2280 C   0  0  0  0  0
   21.3800   44.9450   44.5630 O   0  0  0  0  0
   23.8100   44.0660   42.2850 O   0  0  0  0  0
   27.8810   42.0430   41.4990 F   0  0  0  0  0
   28.7840   46.5860   44.6450 C   0  0  0  0  0
   27.9750   46.9860   45.4770 O   0  0  0  0  0
   29.9750   47.2460   44.3460 N   0  0  0  0  0
   30.6880   45.7430   42.6690 N   0  0  0  0  0
   30.8640   46.7950   43.4020 C   0  0  0  0  0
   27.0080   40.5270   48.3400 F   0  0  0  0  0
   25.4020   42.2370   48.6790 C   0  0  0  0  0
   24.6150   43.2300   48.1020 C   0  0  0  0  0
   23.9180   43.9110   49.0250 O   0  0  0  0  0
   25.1470   42.3190   50.0740 C   0  0  0  0  0
   24.2390   43.3360   50.2210 C   0  0  0  0  0
   26.6768   44.8321   44.8360 H   0  0  0  0  0
   29.9854   43.5570   41.3278 H   0  0  0  0  0
   26.8183   41.0065   45.7911 H   0  0  0  0  0
   26.2592   41.4827   43.7138 H   0  0  0  0  0
   25.3348   42.4797   42.6068 H   0  0  0  0  0
   20.7187   48.5259   47.1087 H   0  0  0  0  0
   22.1499   47.2757   48.5767 H   0  0  0  0  0
   23.0817   48.3844   47.3679 H   0  0  0  0  0
   24.2959   46.2617   47.7825 H   0  0  0  0  0
   23.9592   43.1554   42.5498 H   0  0  0  0  0
   30.1961   48.1036   44.8520 H   0  0  0  0  0
   31.7832   47.3632   43.2598 H   0  0  0  0  0
   25.5815   41.7033   50.8616 H   0  0  0  0  0
   23.8229   43.6482   51.1789 H   0  0  0  0  0
  1  2  4  0  0  0
  1  6  4  0  0  0
 16  1  1  0  0  0
  2  3  4  0  0  0
  3  4  4  0  0  0
  3 26  1  0  0  0
  5  4  4  0  0  0
  4 29  1  0  0  0
  6  5  4  0  0  0
  6 25  1  0  0  0
 12  7  1  0  0  0
  7 18  1  0  0  0
  7 22  2  0  0  0
  9  8  4  0  0  0
  8 12  4  0  0  0
  8 33  4  0  0  0
 10  9  4  0  0  0
  9 14  4  0  0  0
 10 11  4  0  0  0
 10 16  1  0  0  0
 11 12  4  0  0  0
 11 15  1  0  0  0
 14 13  4  0  0  0
 13 31  1  0  0  0
 13 32  4  0  0  0
 15 17  2  0  0  0
 15 24  1  0  0  0
 18 19  1  0  0  0
 18 23  2  0  0  0
 19 20  2  0  0  0
 20 21  1  0  0  0
 21 22  1  0  0  0
 26 27  2  0  0  0
 26 28  1  0  0  0
 28 30  1  0  0  0
 29 30  2  0  0  0
 32 33  4  0  0  0
 32 35  4  0  0  0
 33 34  4  0  0  0
 34 36  4  0  0  0
 35 36  4  0  0  0
  2 37  1  0  0  0
  5 38  1  0  0  0
 14 39  1  0  0  0
 16 40  1  0  0  0
 16 41  1  0  0  0
 20 42  1  0  0  0
 21 43  1  0  0  0
 21 44  1  0  0  0
 22 45  1  0  0  0
 24 46  1  0  0  0
 28 47  1  0  0  0
 30 48  1  0  0  0
 35 49  1  0  0  0
 36 50  1  0  0  0
M  END
$$$$
