5os3_ligand
  -I-interpret- 

 28 28  0  0  0  0  0  0  0  0999 V2000
  -11.0690   10.3730  -13.4230 C   0  0  0  0  0
  -10.5530   10.4050  -14.8580 C   0  0  0  0  0
  -12.8400   13.1470  -16.1920 C   0  0  0  0  0
  -12.3590   12.0830  -15.4490 C   0  0  0  0  0
  -10.7750   13.2170  -17.4120 C   0  0  0  0  0
  -10.3010   12.1530  -16.6650 C   0  0  0  0  0
  -11.0810   11.5650  -15.6690 C   0  0  0  0  0
  -12.0480   13.7190  -17.1810 C   0  0  0  0  0
  -11.6430   15.3460  -18.9060 C   0  0  0  0  0
  -12.2520   16.6570  -19.3420 C   0  0  0  0  0
  -12.5140   14.7790  -17.9180 O   0  0  0  0  0
  -10.8900    9.1040  -15.5220 N   0  3  0  0  0
  -12.1496   10.2303  -13.4299 H   0  0  0  0  0
  -10.5960    9.5505  -12.8864 H   0  0  0  0  0
  -10.8288   11.3154  -12.9308 H   0  0  0  0  0
   -9.4734   10.5481  -14.8119 H   0  0  0  0  0
  -13.8401   13.5366  -16.0017 H   0  0  0  0  0
  -12.9896   11.6410  -14.6776 H   0  0  0  0  0
  -10.1469   13.6620  -18.1838 H   0  0  0  0  0
   -9.3000   11.7673  -16.8583 H   0  0  0  0  0
  -10.6471   15.5051  -18.4926 H   0  0  0  0  0
  -11.5372   14.6715  -19.7557 H   0  0  0  0  0
  -13.2410   16.4747  -19.7624 H   0  0  0  0  0
  -12.3382   17.3202  -18.4813 H   0  0  0  0  0
  -11.6149   17.1192  -20.0960 H   0  0  0  0  0
  -10.5264    8.3333  -14.9614 H   0  0  0  0  0
  -11.9030    9.0179  -15.6040 H   0  0  0  0  0
  -10.4691    9.0786  -16.4508 H   0  0  0  0  0
  2  1  1  0  0  0
  7  2  1  0  0  0
  2 12  1  0  0  0
  3  4  4  0  0  0
  8  3  4  0  0  0
  4  7  4  0  0  0
  5  6  4  0  0  0
  8  5  4  0  0  0
  6  7  4  0  0  0
 11  8  1  0  0  0
  9 10  1  0  0  0
  9 11  1  0  0  0
  1 13  1  0  0  0
  1 14  1  0  0  0
  1 15  1  0  0  0
  2 16  1  0  0  0
  3 17  1  0  0  0
  4 18  1  0  0  0
  5 19  1  0  0  0
  6 20  1  0  0  0
  9 21  1  0  0  0
  9 22  1  0  0  0
 10 23  1  0  0  0
 10 24  1  0  0  0
 10 25  1  0  0  0
 12 26  1  0  0  0
 12 27  1  0  0  0
 12 28  1  0  0  0
M  END
$$$$
