6h9x_ligand
  -I-interpret- 

 49 51  0  0  0  0  0  0  0  0999 V2000
  -10.2440  -30.0270   -7.5960 N   0  3  0  0  0
   -9.1050  -30.7990   -7.0800 C   0  0  0  0  0
   -7.8340  -29.9780   -6.8670 C   0  0  0  0  0
   -8.0310  -28.9850   -5.8770 O   0  0  0  0  0
   -9.5680  -31.3790   -5.7600 C   0  0  0  0  0
  -10.5980  -31.0520   -5.1690 O   0  0  0  0  0
   -8.6870  -32.3410   -5.2160 N   0  0  0  0  0
   -8.8110  -32.9260   -3.7400 S   0  0  0  0  0
  -10.0620  -33.5790   -3.5770 O   0  0  0  0  0
   -7.5930  -33.5880   -3.4440 O   0  0  0  0  0
   -8.9420  -31.6680   -2.7610 O   0  0  0  0  0
   -7.9640  -30.5920   -2.8600 C   0  0  0  0  0
   -7.4350  -30.3000   -1.4790 C   0  0  0  0  0
   -8.5080  -29.9220   -0.5910 O   0  0  0  0  0
   -6.7540  -31.4630   -0.7700 C   0  0  0  0  0
   -5.4060  -31.5850   -1.1980 O   0  0  0  0  0
   -6.8250  -31.0310    0.6940 C   0  0  0  0  0
   -5.7750  -30.1180    0.9740 O   0  0  0  0  0
   -8.1610  -30.2670    0.7440 C   0  0  0  0  0
   -9.2690  -31.0210    1.3210 N   0  0  0  0  0
   -9.8940  -32.1020    0.7550 C   0  0  0  0  0
  -10.9010  -32.5660    1.4540 N   0  0  0  0  0
  -10.9500  -31.7270    2.5570 C   0  0  0  0  0
  -11.8410  -31.6440    3.6450 C   0  0  0  0  0
  -12.9110  -32.4330    3.7830 N   0  0  0  0  0
  -11.6320  -30.6650    4.5590 N   0  0  0  0  0
  -10.6190  -29.8080    4.3690 C   0  0  0  0  0
   -9.7260  -29.7780    3.3720 N   0  0  0  0  0
   -9.9440  -30.7730    2.4940 C   0  0  0  0  0
   -9.9917  -29.6082   -8.4912 H   0  0  0  0  0
  -11.0439  -30.6470   -7.7228 H   0  0  0  0  0
  -10.4841  -29.2918   -6.9310 H   0  0  0  0  0
   -8.8279  -31.5553   -7.8144 H   0  0  0  0  0
   -7.5723  -29.4891   -7.8054 H   0  0  0  0  0
   -7.0374  -30.6457   -6.5388 H   0  0  0  0  0
   -7.2202  -28.4841   -5.7620 H   0  0  0  0  0
   -7.9261  -32.6810   -5.8041 H   0  0  0  0  0
   -8.4323  -29.6999   -3.2760 H   0  0  0  0  0
   -7.1468  -30.8905   -3.5167 H   0  0  0  0  0
   -6.7034  -29.5138   -1.6652 H   0  0  0  0  0
   -7.2141  -32.4322   -0.9627 H   0  0  0  0  0
   -4.9921  -32.3215   -0.7421 H   0  0  0  0  0
   -6.7463  -31.8593    1.3982 H   0  0  0  0  0
   -5.8231  -29.8492    1.8943 H   0  0  0  0  0
   -8.0086  -29.4026    1.3903 H   0  0  0  0  0
   -9.5807  -32.5377   -0.1938 H   0  0  0  0  0
  -13.1169  -33.1410    3.0782 H   0  0  0  0  0
  -13.5217  -32.3271    4.5931 H   0  0  0  0  0
  -10.5075  -29.0326    5.1269 H   0  0  0  0  0
  1  2  1  0  0  0
  2  3  1  0  0  0
  2  5  1  0  0  0
  3  4  1  0  0  0
  5  6  2  0  0  0
  5  7  1  0  0  0
  7  8  1  0  0  0
  8  9  2  0  0  0
  8 10  2  0  0  0
  8 11  1  0  0  0
 11 12  1  0  0  0
 12 13  1  0  0  0
 13 14  1  0  0  0
 13 15  1  0  0  0
 14 19  1  0  0  0
 15 16  1  0  0  0
 15 17  1  0  0  0
 17 18  1  0  0  0
 17 19  1  0  0  0
 19 20  1  0  0  0
 20 21  4  0  0  0
 20 29  4  0  0  0
 21 22  4  0  0  0
 22 23  4  0  0  0
 23 24  4  0  0  0
 23 29  4  0  0  0
 24 25  1  0  0  0
 24 26  4  0  0  0
 26 27  4  0  0  0
 27 28  4  0  0  0
 28 29  4  0  0  0
  1 30  1  0  0  0
  1 31  1  0  0  0
  1 32  1  0  0  0
  2 33  1  0  0  0
  3 34  1  0  0  0
  3 35  1  0  0  0
  4 36  1  0  0  0
  7 37  1  0  0  0
 12 38  1  0  0  0
 12 39  1  0  0  0
 13 40  1  0  0  0
 15 41  1  0  0  0
 16 42  1  0  0  0
 17 43  1  0  0  0
 18 44  1  0  0  0
 19 45  1  0  0  0
 21 46  1  0  0  0
 25 47  1  0  0  0
 25 48  1  0  0  0
 27 49  1  0  0  0
M  END
$$$$
