1rgj_ligand
  -I-interpret- 

225230  0  0  0  0  0  0  0  0999 V2000
   -4.5740   -7.4040    7.8750 N   0  3  0  0  0
   -5.1310   -6.0620    7.8990 C   0  0  0  0  0
   -4.9110   -5.3530    6.5620 C   0  0  0  0  0
   -5.5410   -4.3330    6.2850 O   0  0  0  0  0
   -4.3970   -5.2930    8.9980 C   0  0  0  0  0
   -4.9260   -5.5660   10.4080 C   0  0  0  0  0
   -6.2010   -5.2230   10.7340 C   0  0  0  0  0
   -4.1210   -6.1510   11.3360 C   0  0  0  0  0
   -6.6920   -5.4760   12.0430 C   0  0  0  0  0
   -4.6110   -6.4040   12.6440 C   0  0  0  0  0
   -5.8860   -6.0610   12.9700 C   0  0  0  0  0
   -4.0150   -5.9200    5.7680 N   0  0  0  0  0
   -3.7040   -5.3540    4.4650 C   0  0  0  0  0
   -4.4050   -6.1470    3.3600 C   0  0  0  0  0
   -5.1870   -7.0550    3.6430 O   0  0  0  0  0
   -2.1960   -5.3590    4.2090 C   0  0  0  0  0
   -1.4310   -5.8340    5.4460 C   0  0  0  0  0
   -0.1120   -5.0740    5.6010 C   0  0  0  0  0
   -0.2040   -4.1260    6.7330 N   0  0  0  0  0
    0.8650   -3.5600    7.3340 C   0  0  0  0  0
    2.1160   -3.8410    6.9150 N   0  0  0  0  0
    0.6650   -2.7270    8.3390 N   0  0  0  0  0
   -4.1010   -5.7760    2.1260 N   0  0  0  0  0
   -4.6920   -6.4420    0.9770 C   0  0  0  0  0
   -3.7820   -7.5590    0.4620 C   0  0  0  0  0
   -3.9380   -8.0200   -0.6670 O   0  0  0  0  0
   -4.8270   -5.3710   -0.1070 C   0  0  0  0  0
   -5.5540   -4.1060    0.3550 C   0  0  0  0  0
   -6.5850   -4.1970    1.2680 C   0  0  0  0  0
   -5.1760   -2.8740   -0.1410 C   0  0  0  0  0
   -7.2690   -3.0060    1.7020 C   0  0  0  0  0
   -5.8600   -1.6840    0.2940 C   0  0  0  0  0
   -6.8740   -1.8080    1.1940 C   0  0  0  0  0
   -7.5190   -0.6840    1.6050 O   0  0  0  0  0
   -2.8530   -7.9620    1.3170 N   0  0  0  0  0
   -1.9180   -9.0170    0.9620 C   0  0  0  0  0
   -2.1060   -9.4500   -0.4920 C   0  0  0  0  0
   -3.2220   -9.7550   -0.9140 O   0  0  0  0  0
   -2.2450  -10.1970    1.8800 C   0  0  0  0  0
   -1.7950  -10.0010    3.3290 C   0  0  0  0  0
   -2.5500   -9.2320    4.1890 C   0  0  0  0  0
   -0.6310  -10.5950    3.7750 C   0  0  0  0  0
   -2.1250   -9.0480    5.5540 C   0  0  0  0  0
   -0.2060  -10.4120    5.1390 C   0  0  0  0  0
   -0.9740   -9.6470    5.9610 C   0  0  0  0  0
   -0.5720   -9.4750    7.2480 O   0  0  0  0  0
   -1.0000   -9.4660   -1.2200 N   0  0  0  0  0
   -1.0290   -9.8580   -2.6180 C   0  0  0  0  0
   -1.9660  -11.0510   -2.8160 C   0  0  0  0  0
   -2.3940  -11.3310   -3.9360 O   0  0  0  0  0
    0.3780  -10.1770   -3.1290 C   0  0  0  0  0
    0.4040  -10.2530   -4.6560 C   0  0  0  0  0
    0.8310  -11.6440   -5.1290 C   0  0  0  0  0
    1.5180  -12.3660   -4.3920 O   0  0  0  0  0
    0.4220  -11.9690   -6.3090 O   0  0  0  0  0
   -2.2580  -11.7220   -1.7120 N   0  0  0  0  0
   -3.1380  -12.8790   -1.7510 C   0  0  0  0  0
   -4.5300  -12.4620   -2.2300 C   0  0  0  0  0
   -5.0960  -13.0900   -3.1250 O   0  0  0  0  0
   -3.2290  -13.5480   -0.3770 C   0  0  0  0  0
   -3.2690  -12.5920    0.6790 O   0  0  0  0  0
   -5.0420  -11.4060   -1.6150 N   0  0  0  0  0
   -6.3560  -10.8980   -1.9700 C   0  0  0  0  0
   -6.4870   -9.4350   -1.5380 C   0  0  0  0  0
   -5.7270   -8.5820   -1.9930 O   0  0  0  0  0
   -7.4620  -11.7400   -1.3310 C   0  0  0  0  0
   -7.4170  -13.0980   -1.7610 O   0  0  0  0  0
   -7.4550   -9.1920   -0.6680 N   0  0  0  0  0
   -7.6940   -7.8480   -0.1700 C   0  0  0  0  0
   -8.3850   -7.9290    1.1920 C   0  0  0  0  0
   -9.0430   -6.9790    1.6150 O   0  0  0  0  0
   -8.4660   -7.0250   -1.2030 C   0  0  0  0  0
   -7.6250   -6.3680   -2.3000 C   0  0  0  0  0
   -7.6880   -7.1760   -3.5980 C   0  0  0  0  0
   -8.0430   -4.9100   -2.5120 C   0  0  0  0  0
   -8.2110   -9.0710    1.8410 N   0  0  0  0  0
   -8.8100   -9.2880    3.1480 C   0  0  0  0  0
   -7.8790   -8.7740    4.2490 C   0  0  0  0  0
   -6.6580   -8.8620    4.1270 O   0  0  0  0  0
   -9.1450  -10.7640    3.3590 C   0  0  0  0  0
   -9.7310  -11.3810    2.0870 C   0  0  0  0  0
  -10.3490  -12.7510    2.3760 C   0  0  0  0  0
  -11.2400  -12.8620    3.2300 O   0  0  0  0  0
   -9.8690  -13.7230    1.6740 O   0  0  0  0  0
   -8.5090   -8.2340    5.3270 N   0  0  0  0  0
   -7.7520   -7.7070    6.4500 C   0  0  0  0  0
   -7.1790   -8.8390    7.3060 C   0  0  0  0  0
   -7.3480   -8.8460    8.5250 O   0  0  0  0  0
   -8.7310   -6.8260    7.2070 C   0  0  0  0  0
  -10.1160   -7.2590    6.7530 C   0  0  0  0  0
   -9.9520   -8.1140    5.5070 C   0  0  0  0  0
   -6.5150   -9.7680    6.6350 N   0  0  0  0  0
   -5.9170  -10.9020    7.3180 C   0  0  0  0  0
   -5.3420  -11.8440    6.2590 C   0  0  0  0  0
   -5.8220  -12.9650    6.0940 O   0  0  0  0  0
   -6.9300  -11.5840    8.2380 C   0  0  0  0  0
   -6.7540  -11.2420    9.7200 C   0  0  0  0  0
   -7.6280  -10.6370   10.5360 C   0  0  0  0  0
   -5.5930  -11.5130   10.5330 C   0  0  0  0  0
   -7.1160  -10.4980   11.8100 N   0  0  0  0  0
   -5.8390  -11.0470   11.8080 C   0  0  0  0  0
   -4.3750  -12.1310   10.2010 C   0  0  0  0  0
   -4.9150  -11.1520   12.8550 C   0  0  0  0  0
   -3.4610  -12.2260   11.2580 C   0  0  0  0  0
   -3.6940  -11.7630   12.5470 C   0  0  0  0  0
   -4.3230  -11.3550    5.5670 N   0  0  0  0  0
   -3.6790  -12.1400    4.5270 C   0  0  0  0  0
   -4.7490  -12.8270    3.6770 C   0  0  0  0  0
   -4.8480  -14.0540    3.6680 O   0  0  0  0  0
   -2.7860  -13.2260    5.1310 C   0  0  0  0  0
   -3.4500  -14.0830    6.2110 C   0  0  0  0  0
   -3.2360  -13.8730    7.4140 O   0  0  0  0  0
   -4.2260  -15.0130    5.7680 O   0  0  0  0  0
   -5.5230  -12.0080    2.9800 N   0  0  0  0  0
   -6.5820  -12.5210    2.1290 C   0  0  0  0  0
   -7.5750  -13.3150    2.9780 C   0  0  0  0  0
   -7.3030  -13.6160    4.1400 O   0  0  0  0  0
   -6.0200  -13.4580    1.0570 C   0  0  0  0  0
   -6.8050  -14.7560    0.8590 C   0  0  0  0  0
   -6.9930  -15.5390    1.8020 O   0  0  0  0  0
   -7.2380  -14.9530   -0.3410 O   0  0  0  0  0
   -8.7419  -13.6834    2.4569 O   0  0  0  0  0
   -4.7340   -7.8534    8.7766 H   0  0  0  0  0
   -5.0266   -7.9456    7.1386 H   0  0  0  0  0
   -3.5717   -7.3516    7.6930 H   0  0  0  0  0
   -6.2045   -6.1079    8.0824 H   0  0  0  0  0
   -4.5388   -4.2307    8.7994 H   0  0  0  0  0
   -3.3552   -5.6127    8.9759 H   0  0  0  0  0
   -6.8462   -4.7540    9.9911 H   0  0  0  0  0
   -3.0990   -6.4256   11.0748 H   0  0  0  0  0
   -7.7140   -5.2016   12.3045 H   0  0  0  0  0
   -3.9657   -6.8730   13.3868 H   0  0  0  0  0
   -6.2624   -6.2548   13.9744 H   0  0  0  0  0
   -3.5359   -6.7665    6.0752 H   0  0  0  0  0
   -4.0592   -4.3235    4.4577 H   0  0  0  0  0
   -1.8786   -4.3439    3.9702 H   0  0  0  0  0
   -1.9837   -6.0392    3.3842 H   0  0  0  0  0
   -1.2116   -6.8959    5.3348 H   0  0  0  0  0
   -2.0450   -5.6519    6.3280 H   0  0  0  0  0
    0.0922   -4.5198    4.6849 H   0  0  0  0  0
    0.6912   -5.7853    5.7935 H   0  0  0  0  0
   -1.1320   -3.8849    7.0811 H   0  0  0  0  0
    2.9171   -3.4088    7.3752 H   0  0  0  0  0
    2.2608   -4.4856    6.1379 H   0  0  0  0  0
   -0.2845   -2.5206    8.6491 H   0  0  0  0  0
   -3.4421   -5.0113    1.9793 H   0  0  0  0  0
   -5.6488   -6.8907    1.2439 H   0  0  0  0  0
   -5.4137   -5.8034   -0.9175 H   0  0  0  0  0
   -3.8187   -5.0765   -0.3979 H   0  0  0  0  0
   -6.8815   -5.1697    1.6605 H   0  0  0  0  0
   -4.3608   -2.8024   -0.8610 H   0  0  0  0  0
   -8.0854   -3.0637    2.4219 H   0  0  0  0  0
   -5.5722   -0.7049   -0.0890 H   0  0  0  0  0
   -8.2043   -0.9215    2.2339 H   0  0  0  0  0
   -2.7932   -7.5258    2.2371 H   0  0  0  0  0
   -0.8901   -8.6723    1.0743 H   0  0  0  0  0
   -1.7142  -11.0660    1.4912 H   0  0  0  0  0
   -3.3293  -10.3080    1.8902 H   0  0  0  0  0
   -3.4686   -8.7630    3.8365 H   0  0  0  0  0
   -0.0338  -11.2024    3.0949 H   0  0  0  0  0
   -2.7127   -8.4426    6.2441 H   0  0  0  0  0
    0.7102  -10.8759    5.5043 H   0  0  0  0  0
   -1.2041   -8.9176    7.7077 H   0  0  0  0  0
   -0.1136   -9.1987   -0.7920 H   0  0  0  0  0
   -1.4104   -9.0196   -3.2009 H   0  0  0  0  0
    0.6853  -11.1421   -2.7261 H   0  0  0  0  0
    1.0542   -9.3849   -2.8073 H   0  0  0  0  0
    1.1201   -9.5214   -5.0302 H   0  0  0  0  0
   -0.5978  -10.0478   -5.0333 H   0  0  0  0  0
   -0.0908  -11.2466   -6.6789 H   0  0  0  0  0
   -1.8599  -11.4229   -0.8218 H   0  0  0  0  0
   -2.7208  -13.6024   -2.4515 H   0  0  0  0  0
   -2.3444  -14.1701   -0.2410 H   0  0  0  0  0
   -4.1478  -14.1334   -0.3425 H   0  0  0  0  0
   -3.3257  -13.0493    1.5212 H   0  0  0  0  0
   -4.5056  -10.9428   -0.8814 H   0  0  0  0  0
   -6.4660  -10.9616   -3.0526 H   0  0  0  0  0
   -8.4234  -11.3207   -1.6278 H   0  0  0  0  0
   -7.3230  -11.7205   -0.2501 H   0  0  0  0  0
   -8.1248  -13.5899   -1.3384 H   0  0  0  0  0
   -8.0420   -9.9600   -0.3423 H   0  0  0  0  0
   -6.7504   -7.3239   -0.0182 H   0  0  0  0  0
   -8.9421   -6.2127   -0.6539 H   0  0  0  0  0
   -9.1389   -7.7189   -1.7068 H   0  0  0  0  0
   -6.5846   -6.3616   -1.9749 H   0  0  0  0  0
   -7.3053   -8.1806   -3.4180 H   0  0  0  0  0
   -8.7220   -7.2351   -3.9378 H   0  0  0  0  0
   -7.0814   -6.6858   -4.3595 H   0  0  0  0  0
   -9.0921   -4.8731   -2.8054 H   0  0  0  0  0
   -7.9041   -4.3550   -1.5842 H   0  0  0  0  0
   -7.4292   -4.4678   -3.2968 H   0  0  0  0  0
   -7.6485   -9.8089    1.4174 H   0  0  0  0  0
   -9.7436   -8.7275    3.1964 H   0  0  0  0  0
   -9.8819  -10.8444    4.1581 H   0  0  0  0  0
   -8.2296  -11.2969    3.6164 H   0  0  0  0  0
   -8.9303  -11.5054    1.3579 H   0  0  0  0  0
  -10.5089  -10.7203    1.7043 H   0  0  0  0  0
   -9.1912  -13.3857    1.0837 H   0  0  0  0  0
   -6.8809   -7.1318    6.1363 H   0  0  0  0  0
   -8.5575   -5.7704    6.9978 H   0  0  0  0  0
   -8.6140   -6.9390    8.2848 H   0  0  0  0  0
  -10.6106   -7.8286    7.5397 H   0  0  0  0  0
  -10.7319   -6.3867    6.5343 H   0  0  0  0  0
  -10.4304   -9.0873    5.6160 H   0  0  0  0  0
  -10.4339   -7.6642    4.6390 H   0  0  0  0  0
   -6.4221   -9.6859    5.6226 H   0  0  0  0  0
   -5.1062  -10.5754    7.9692 H   0  0  0  0  0
   -6.7873  -12.6597    8.1352 H   0  0  0  0  0
   -7.9202  -11.2380    7.9416 H   0  0  0  0  0
   -8.6182  -10.2976   10.2319 H   0  0  0  0  0
   -4.1590  -12.5064    9.2007 H   0  0  0  0  0
   -5.1346  -10.7783   13.8551 H   0  0  0  0  0
   -2.4989  -12.6964   11.0550 H   0  0  0  0  0
   -2.9290  -11.8751   13.3153 H   0  0  0  0  0
   -3.9856  -10.4135    5.7673 H   0  0  0  0  0
   -3.0705  -11.4665    3.9235 H   0  0  0  0  0
   -1.9476  -12.7160    5.6054 H   0  0  0  0  0
   -2.5154  -13.8991    4.3175 H   0  0  0  0  0
   -4.2388  -14.9874    4.8084 H   0  0  0  0  0
   -5.3726  -11.0011    3.0422 H   0  0  0  0  0
   -7.0691  -11.6727    1.6483 H   0  0  0  0  0
   -5.0183  -13.7416    1.3799 H   0  0  0  0  0
   -6.0622  -12.9168    0.1118 H   0  0  0  0  0
   -6.9741  -14.2184   -0.8998 H   0  0  0  0  0
   -8.7983  -13.3734    1.5501 H   0  0  0  0  0
  2  1  1  0  0  0
  2  5  1  0  0  0
  3  2  1  0  0  0
  3  4  2  0  0  0
  5  6  1  0  0  0
  6  7  4  0  0  0
  6  8  4  0  0  0
  8 10  4  0  0  0
 10 11  4  0  0  0
  9 11  4  0  0  0
  7  9  4  0  0  0
 13 12  1  0  0  0
 13 16  1  0  0  0
 14 13  1  0  0  0
 14 15  2  0  0  0
 16 17  1  0  0  0
 17 18  1  0  0  0
 18 19  1  0  0  0
 19 20  1  0  0  0
 20 22  2  0  0  0
 20 21  1  0  0  0
 12  3  1  0  0  0
 24 23  1  0  0  0
 24 27  1  0  0  0
 25 24  1  0  0  0
 25 26  2  0  0  0
 27 28  1  0  0  0
 28 29  4  0  0  0
 28 30  4  0  0  0
 30 32  4  0  0  0
 32 33  4  0  0  0
 33 34  1  0  0  0
 31 33  4  0  0  0
 29 31  4  0  0  0
 23 14  1  0  0  0
 36 35  1  0  0  0
 36 39  1  0  0  0
 37 36  1  0  0  0
 37 38  2  0  0  0
 39 40  1  0  0  0
 40 41  4  0  0  0
 40 42  4  0  0  0
 42 44  4  0  0  0
 44 45  4  0  0  0
 45 46  1  0  0  0
 43 45  4  0  0  0
 41 43  4  0  0  0
 35 25  1  0  0  0
 48 47  1  0  0  0
 48 51  1  0  0  0
 49 48  1  0  0  0
 49 50  2  0  0  0
 51 52  1  0  0  0
 52 53  1  0  0  0
 53 55  1  0  0  0
 53 54  2  0  0  0
 47 37  1  0  0  0
 57 56  1  0  0  0
 57 60  1  0  0  0
 58 57  1  0  0  0
 58 59  2  0  0  0
 60 61  1  0  0  0
 56 49  1  0  0  0
 63 62  1  0  0  0
 63 66  1  0  0  0
 64 63  1  0  0  0
 64 65  2  0  0  0
 66 67  1  0  0  0
 62 58  1  0  0  0
 69 68  1  0  0  0
 69 72  1  0  0  0
 70 69  1  0  0  0
 70 71  2  0  0  0
 72 73  1  0  0  0
 73 74  1  0  0  0
 73 75  1  0  0  0
 68 64  1  0  0  0
 77 76  1  0  0  0
 77 80  1  0  0  0
 78 77  1  0  0  0
 78 79  2  0  0  0
 80 81  1  0  0  0
 81 82  1  0  0  0
 82 84  1  0  0  0
 82 83  2  0  0  0
 76 70  1  0  0  0
 87 86  1  0  0  0
 86 89  1  0  0  0
 86 85  1  0  0  0
 85 91  1  0  0  0
 91 90  1  0  0  0
 89 90  1  0  0  0
 87 88  2  0  0  0
 85 78  1  0  0  0
 93 92  1  0  0  0
 93 96  1  0  0  0
 94 93  1  0  0  0
 94 95  2  0  0  0
 96 97  1  0  0  0
 97 98  4  0  0  0
 97 99  4  0  0  0
 99102  4  0  0  0
 99101  4  0  0  0
101103  4  0  0  0
101100  4  0  0  0
 98100  4  0  0  0
103105  4  0  0  0
104105  4  0  0  0
102104  4  0  0  0
 92 87  1  0  0  0
107106  1  0  0  0
107110  1  0  0  0
108107  1  0  0  0
108109  2  0  0  0
110111  1  0  0  0
111112  2  0  0  0
111113  1  0  0  0
106 94  1  0  0  0
114115  1  0  0  0
115118  1  0  0  0
115116  1  0  0  0
116117  2  0  0  0
118119  1  0  0  0
119120  2  0  0  0
119121  1  0  0  0
108114  1  0  0  0
116122  1  0  0  0
  1123  1  0  0  0
  1124  1  0  0  0
  1125  1  0  0  0
  2126  1  0  0  0
  5127  1  0  0  0
  5128  1  0  0  0
  7129  1  0  0  0
  8130  1  0  0  0
  9131  1  0  0  0
 10132  1  0  0  0
 11133  1  0  0  0
 12134  1  0  0  0
 13135  1  0  0  0
 16136  1  0  0  0
 16137  1  0  0  0
 17138  1  0  0  0
 17139  1  0  0  0
 18140  1  0  0  0
 18141  1  0  0  0
 19142  1  0  0  0
 21143  1  0  0  0
 21144  1  0  0  0
 22145  1  0  0  0
 23146  1  0  0  0
 24147  1  0  0  0
 27148  1  0  0  0
 27149  1  0  0  0
 29150  1  0  0  0
 30151  1  0  0  0
 31152  1  0  0  0
 32153  1  0  0  0
 34154  1  0  0  0
 35155  1  0  0  0
 36156  1  0  0  0
 39157  1  0  0  0
 39158  1  0  0  0
 41159  1  0  0  0
 42160  1  0  0  0
 43161  1  0  0  0
 44162  1  0  0  0
 46163  1  0  0  0
 47164  1  0  0  0
 48165  1  0  0  0
 51166  1  0  0  0
 51167  1  0  0  0
 52168  1  0  0  0
 52169  1  0  0  0
 55170  1  0  0  0
 56171  1  0  0  0
 57172  1  0  0  0
 60173  1  0  0  0
 60174  1  0  0  0
 61175  1  0  0  0
 62176  1  0  0  0
 63177  1  0  0  0
 66178  1  0  0  0
 66179  1  0  0  0
 67180  1  0  0  0
 68181  1  0  0  0
 69182  1  0  0  0
 72183  1  0  0  0
 72184  1  0  0  0
 73185  1  0  0  0
 74186  1  0  0  0
 74187  1  0  0  0
 74188  1  0  0  0
 75189  1  0  0  0
 75190  1  0  0  0
 75191  1  0  0  0
 76192  1  0  0  0
 77193  1  0  0  0
 80194  1  0  0  0
 80195  1  0  0  0
 81196  1  0  0  0
 81197  1  0  0  0
 84198  1  0  0  0
 86199  1  0  0  0
 89200  1  0  0  0
 89201  1  0  0  0
 90202  1  0  0  0
 90203  1  0  0  0
 91204  1  0  0  0
 91205  1  0  0  0
 92206  1  0  0  0
 93207  1  0  0  0
 96208  1  0  0  0
 96209  1  0  0  0
 98210  1  0  0  0
102211  1  0  0  0
103212  1  0  0  0
104213  1  0  0  0
105214  1  0  0  0
106215  1  0  0  0
107216  1  0  0  0
110217  1  0  0  0
110218  1  0  0  0
113219  1  0  0  0
114220  1  0  0  0
115221  1  0  0  0
118222  1  0  0  0
118223  1  0  0  0
121224  1  0  0  0
122225  1  0  0  0
M  END
$$$$
