### 
### Created by X-TOOL on Mon Sep 10 21:12:51 2018
### 

@<TRIPOS>MOLECULE
1rgj_ligand
  223   228     1     0     0
SMALL
GAST_HUCK


@<TRIPOS>ATOM
      1 N          -4.5740   -7.4040    7.8750 N.4       1 PHE         0.2394
      2 CA         -5.1310   -6.0620    7.8990 C.3       1 PHE         0.0744
      3 C          -4.9110   -5.3530    6.5620 C.2       1 PHE         0.2288
      4 O          -5.5410   -4.3330    6.2850 O.2       1 PHE        -0.3905
      5 CB         -4.3970   -5.2930    8.9980 C.3       1 PHE         0.0416
      6 CG         -4.9260   -5.5660   10.4080 C.ar      1 PHE        -0.0353
      7 CD1        -6.2010   -5.2230   10.7340 C.ar      1 PHE        -0.0600
      8 CD2        -4.1210   -6.1510   11.3360 C.ar      1 PHE        -0.0600
      9 CE1        -6.6920   -5.4760   12.0430 C.ar      1 PHE        -0.0686
     10 CE2        -4.6110   -6.4040   12.6440 C.ar      1 PHE        -0.0686
     11 CZ         -5.8860   -6.0610   12.9700 C.ar      1 PHE        -0.0687
     12 H1         -4.7316   -7.8491    8.7655 H         1 PHE         0.2017
     13 H2         -3.5835   -7.3535    7.6953 H         1 PHE         0.2017
     14 H3         -5.0206   -7.9402    7.1477 H         1 PHE         0.2017
     15 H4         -6.2080   -6.1070    8.1182 H         1 PHE         0.1122
     16 H5         -4.4972   -4.2169    8.7933 H         1 PHE         0.0507
     17 H6         -3.3342   -5.5748    8.9667 H         1 PHE         0.0507
     18 H7         -6.8426   -4.7566    9.9952 H         1 PHE         0.0557
     19 H8         -3.1046   -6.4241   11.0762 H         1 PHE         0.0557
     20 H9         -7.7083   -5.2031   12.3031 H         1 PHE         0.0599
     21 N          -4.0150   -5.9200    5.7680 N.am      1 ARG        -0.2609
     22 CA         -3.7040   -5.3540    4.4650 C.3       1 ARG         0.1312
     23 C          -4.4050   -6.1470    3.3600 C.2       1 ARG         0.2040
     24 O          -5.1870   -7.0550    3.6430 O.2       1 ARG        -0.3944
     25 CB         -2.1960   -5.3590    4.2090 C.3       1 ARG        -0.0092
     26 CG         -1.4310   -5.8340    5.4460 C.3       1 ARG        -0.0156
     27 CD         -0.1120   -5.0740    5.6010 C.3       1 ARG         0.0627
     28 NE         -0.2040   -4.1260    6.7330 N.pl3     1 ARG        -0.2723
     29 CZ          0.8650   -3.5600    7.3340 C.cat     1 ARG         0.2882
     30 NH1         2.1160   -3.8410    6.9150 N.pl3     1 ARG        -0.2849
     31 NH2         0.6650   -2.7270    8.3390 N.pl3     1 ARG        -0.2849
     32 H10        -3.9692   -6.8704   13.3827 H         1 PHE         0.0599
     33 H11        -6.2603   -6.2538   13.9689 H         1 PHE         0.0559
     34 H12        -3.5453   -6.7499    6.0692 H         1 ARG         0.1885
     35 H13        -4.0634   -4.3147    4.4405 H         1 ARG         0.0800
     36 H14        -1.8710   -4.3393    3.9548 H         1 ARG         0.0313
     37 H15        -1.9760   -6.0342    3.3689 H         1 ARG         0.0313
     38 H16        -1.2173   -6.9084    5.3461 H         1 ARG         0.0301
     39 H17        -2.0506   -5.6648    6.3390 H         1 ARG         0.0301
     40 H18         0.0985   -4.5173    4.6759 H         1 ARG         0.0689
     41 H19         0.7009   -5.7903    5.7910 H         1 ARG         0.0689
     42 H20        -1.1411   -3.8826    7.0845 H         1 ARG         0.2642
     43 H21         2.9250   -3.4044    7.3796 H         1 ARG         0.2615
     44 H22         2.2623   -4.4921    6.1304 H         1 ARG         0.2615
     45 N          -4.1010   -5.7760    2.1260 N.am      1 TYR        -0.2621
     46 CA         -4.6920   -6.4420    0.9770 C.3       1 TYR         0.1390
     47 C          -3.7820   -7.5590    0.4620 C.2       1 TYR         0.2058
     48 O          -3.9380   -8.0200   -0.6670 O.2       1 TYR        -0.3942
     49 CB         -4.8270   -5.3710   -0.1070 C.3       1 TYR         0.0163
     50 CG         -5.5540   -4.1060    0.3550 C.ar      1 TYR        -0.0493
     51 CD1        -6.5850   -4.1970    1.2680 C.ar      1 TYR        -0.0685
     52 CD2        -5.1760   -2.8740   -0.1410 C.ar      1 TYR        -0.0685
     53 CE1        -7.2690   -3.0060    1.7020 C.ar      1 TYR        -0.0398
     54 CE2        -5.8600   -1.6840    0.2940 C.ar      1 TYR        -0.0398
     55 CZ         -6.8740   -1.8080    1.1940 C.ar      1 TYR         0.0805
     56 OH         -7.5190   -0.6840    1.6050 O.3       1 TYR        -0.3376
     57 H23        -0.2939   -2.5184    8.6520 H         1 ARG         0.2615
     58 H24         1.4679   -2.2858    8.8098 H         1 ARG         0.2615
     59 H25        -3.4551   -5.0263    1.9822 H         1 TYR         0.1885
     60 H26        -5.6764   -6.8565    1.2401 H         1 TYR         0.0821
     61 H27        -5.3851   -5.8018   -0.9513 H         1 TYR         0.0453
     62 H28        -3.8179   -5.0876   -0.4409 H         1 TYR         0.0453
     63 H29        -6.8799   -5.1644    1.6583 H         1 TYR         0.0530
     64 H30        -4.3653   -2.8028   -0.8570 H         1 TYR         0.0530
     65 H31        -8.0809   -3.0634    2.4179 H         1 TYR         0.0525
     66 N          -2.8530   -7.9620    1.3170 N.am      1 TYR        -0.2620
     67 CA         -1.9180   -9.0170    0.9620 C.3       1 TYR         0.1390
     68 C          -2.1060   -9.4500   -0.4920 C.2       1 TYR         0.2057
     69 O          -3.2220   -9.7550   -0.9140 O.2       1 TYR        -0.3942
     70 CB         -2.2450  -10.1970    1.8800 C.3       1 TYR         0.0163
     71 CG         -1.7950  -10.0010    3.3290 C.ar      1 TYR        -0.0493
     72 CD1        -2.5500   -9.2320    4.1890 C.ar      1 TYR        -0.0685
     73 CD2        -0.6310  -10.5950    3.7750 C.ar      1 TYR        -0.0685
     74 CE1        -2.1250   -9.0480    5.5540 C.ar      1 TYR        -0.0398
     75 CE2        -0.2060  -10.4120    5.1390 C.ar      1 TYR        -0.0398
     76 CZ         -0.9740   -9.6470    5.9610 C.ar      1 TYR         0.0805
     77 OH         -0.5720   -9.4750    7.2480 O.3       1 TYR        -0.3376
     78 H32        -5.5738   -0.7103   -0.0869 H         1 TYR         0.0525
     79 H33        -6.8974   -0.0970    2.0190 H         1 TYR         0.2458
     80 H34        -2.7944   -7.5343    2.2190 H         1 TYR         0.1885
     81 H35        -0.8831   -8.6782    1.1173 H         1 TYR         0.0821
     82 H36        -1.7476  -11.0935    1.4816 H         1 TYR         0.0453
     83 H37        -3.3345  -10.3487    1.8737 H         1 TYR         0.0453
     84 H38        -3.4636   -8.7656    3.8385 H         1 TYR         0.0530
     85 H39        -0.0371  -11.1990    3.0986 H         1 TYR         0.0530
     86 H40        -2.7095   -8.4460    6.2403 H         1 TYR         0.0525
     87 N          -1.0000   -9.4660   -1.2200 N.am      1 GLU        -0.2635
     88 CA         -1.0290   -9.8580   -2.6180 C.3       1 GLU         0.1325
     89 C          -1.9660  -11.0510   -2.8160 C.2       1 GLU         0.2041
     90 O          -2.3940  -11.3310   -3.9360 O.2       1 GLU        -0.3944
     91 CB          0.3780  -10.1770   -3.1290 C.3       1 GLU        -0.0008
     92 CG          0.4040  -10.2530   -4.6560 C.3       1 GLU         0.0044
     93 CD          0.8310  -11.6440   -5.1290 C.2       1 GLU         0.0350
     94 OE1         1.5180  -12.3660   -4.3920 O.co2     1 GLU        -0.5690
     95 OE2         0.4220  -11.9690   -6.3090 O.co2     1 GLU        -0.5690
     96 H41         0.7051  -10.8734    5.5023 H         1 TYR         0.0525
     97 H42        -1.1976   -8.9234    7.7030 H         1 TYR         0.2458
     98 H43        -0.1309   -9.2040   -0.8004 H         1 GLU         0.1883
     99 H44        -1.4207   -9.0129   -3.2032 H         1 GLU         0.0801
    100 H45         0.6999  -11.1441   -2.7155 H         1 GLU         0.0330
    101 H46         1.0686   -9.3880   -2.7966 H         1 GLU         0.0330
    102 N          -2.2580  -11.7220   -1.7120 N.am      1 SER        -0.2616
    103 CA         -3.1380  -12.8790   -1.7510 C.3       1 SER         0.1539
    104 C          -4.5300  -12.4620   -2.2300 C.2       1 SER         0.2062
    105 O          -5.0960  -13.0900   -3.1250 O.2       1 SER        -0.3943
    106 CB         -3.2290  -13.5480   -0.3770 C.3       1 SER         0.0843
    107 OG         -3.2690  -12.5920    0.6790 O.3       1 SER        -0.3903
    108 H47         1.1158   -9.5080   -5.0411 H         1 GLU         0.0433
    109 H48        -0.6017  -10.0342   -5.0442 H         1 GLU         0.0433
    110 H49        -1.8677  -11.4288   -0.8392 H         1 SER         0.1884
    111 H50        -2.7246  -13.6068   -2.4648 H         1 SER         0.0823
    112 H51        -2.3503  -14.1948   -0.2377 H         1 SER         0.0606
    113 N          -5.0420  -11.4060   -1.6150 N.am      1 SER        -0.2615
    114 CA         -6.3560  -10.8980   -1.9700 C.3       1 SER         0.1539
    115 C          -6.4870   -9.4350   -1.5380 C.2       1 SER         0.2062
    116 O          -5.7270   -8.5820   -1.9930 O.2       1 SER        -0.3943
    117 CB         -7.4620  -11.7400   -1.3310 C.3       1 SER         0.0843
    118 OG         -7.4170  -13.0980   -1.7610 O.3       1 SER        -0.3903
    119 H52        -4.1433  -14.1583   -0.3387 H         1 SER         0.0606
    120 H53        -3.3251  -13.0445    1.5123 H         1 SER         0.2097
    121 H54        -4.5162  -10.9519   -0.8958 H         1 SER         0.1884
    122 H55        -6.4662  -10.9521   -3.0631 H         1 SER         0.0823
    123 H56        -8.4374  -11.3127   -1.6066 H         1 SER         0.0606
    124 N          -7.4550   -9.1920   -0.6680 N.am      1 LEU        -0.2636
    125 CA         -7.6940   -7.8480   -0.1700 C.3       1 LEU         0.1312
    126 C          -8.3850   -7.9290    1.1920 C.2       1 LEU         0.2039
    127 O          -9.0430   -6.9790    1.6150 O.2       1 LEU        -0.3944
    128 CB         -8.4660   -7.0250   -1.2030 C.3       1 LEU        -0.0101
    129 CG         -7.6250   -6.3680   -2.3000 C.3       1 LEU        -0.0425
    130 CD1        -7.6880   -7.1760   -3.5980 C.3       1 LEU        -0.0625
    131 CD2        -8.0430   -4.9100   -2.5120 C.3       1 LEU        -0.0625
    132 H57        -7.3442  -11.7099   -0.2378 H         1 SER         0.0606
    133 H58        -6.5796  -13.4772   -1.5216 H         1 SER         0.2097
    134 H59        -8.0305   -9.9449   -0.3487 H         1 LEU         0.1883
    135 H60        -6.7207   -7.3579   -0.0204 H         1 LEU         0.0800
    136 H61        -9.0016   -6.2280   -0.6665 H         1 LEU         0.0315
    137 H62        -9.1929   -7.6918   -1.6898 H         1 LEU         0.0315
    138 H63        -6.5781   -6.3660   -1.9624 H         1 LEU         0.0298
    139 H64        -7.0762   -6.6822   -4.3673 H         1 LEU         0.0232
    140 H65        -8.7310   -7.2364   -3.9421 H         1 LEU         0.0232
    141 H66        -7.3020   -8.1901   -3.4177 H         1 LEU         0.0232
    142 H67        -7.9829   -4.3687   -1.5563 H         1 LEU         0.0232
    143 N          -8.2110   -9.0710    1.8410 N.am      1 GLU        -0.2636
    144 CA         -8.8100   -9.2880    3.1480 C.3       1 GLU         0.1327
    145 C          -7.8790   -8.7740    4.2490 C.2       1 GLU         0.2065
    146 O          -6.6580   -8.8620    4.1270 O.2       1 GLU        -0.3942
    147 CB         -9.1450  -10.7640    3.3590 C.3       1 GLU        -0.0008
    148 CG         -9.7310  -11.3810    2.0870 C.3       1 GLU         0.0044
    149 CD        -10.3490  -12.7510    2.3760 C.2       1 GLU         0.0350
    150 OE1       -11.2400  -12.8620    3.2300 O.co2     1 GLU        -0.5690
    151 OE2        -9.8690  -13.7230    1.6740 O.co2     1 GLU        -0.5690
    152 H68        -9.0760   -4.8757   -2.8884 H         1 LEU         0.0232
    153 H69        -7.3703   -4.4383   -3.2435 H         1 LEU         0.0232
    154 H70        -7.6595   -9.7944    1.4257 H         1 GLU         0.1883
    155 H71        -9.7479   -8.7152    3.1957 H         1 GLU         0.0801
    156 H72        -9.8792  -10.8534    4.1732 H         1 GLU         0.0330
    157 H73        -8.2273  -11.3057    3.6316 H         1 GLU         0.0330
    158 N          -8.5090   -8.2340    5.3270 N.am      1 PRO        -0.2498
    159 CA         -7.7520   -7.7070    6.4500 C.3       1 PRO         0.1338
    160 C          -7.1790   -8.8390    7.3060 C.2       1 PRO         0.2042
    161 O          -7.3480   -8.8460    8.5250 O.2       1 PRO        -0.3944
    162 CB         -8.7310   -6.8260    7.2070 C.3       1 PRO        -0.0104
    163 CG        -10.1160   -7.2590    6.7530 C.3       1 PRO        -0.0281
    164 CD         -9.9520   -8.1140    5.5070 C.3       1 PRO         0.0369
    165 H74        -8.9302  -11.4977    1.3419 H         1 GLU         0.0433
    166 H75       -10.5084  -10.7127    1.6882 H         1 GLU         0.0433
    167 H76        -6.9156   -7.0942    6.0827 H         1 PRO         0.0802
    168 H77        -8.5615   -5.7671    6.9622 H         1 PRO         0.0313
    169 H78        -8.6199   -6.9740    8.2913 H         1 PRO         0.0313
    170 H79       -10.6036   -7.8442    7.5466 H         1 PRO         0.0287
    171 H80       -10.7272   -6.3742    6.5216 H         1 PRO         0.0287
    172 N          -6.5150   -9.7680    6.6350 N.am      1 TRP        -0.2627
    173 CA         -5.9170  -10.9020    7.3180 C.3       1 TRP         0.1352
    174 C          -5.3420  -11.8440    6.2590 C.2       1 TRP         0.2052
    175 O          -5.8220  -12.9650    6.0940 O.2       1 TRP        -0.3942
    176 CB         -6.9300  -11.5840    8.2380 C.3       1 TRP         0.0042
    177 CG         -6.7540  -11.2420    9.7200 C.2       1 TRP        -0.0418
    178 CD1        -7.6280  -10.6370   10.5360 C.2       1 TRP         0.0167
    179 CD2        -5.5930  -11.5130   10.5330 C.ar      1 TRP        -0.0214
    180 NE1        -7.1160  -10.4980   11.8100 N.pl3     1 TRP        -0.2890
    181 CE2        -5.8390  -11.0470   11.8080 C.ar      1 TRP         0.0603
    182 CE3        -4.3750  -12.1310   10.2010 C.ar      1 TRP        -0.0747
    183 CZ2        -4.9150  -11.1520   12.8550 C.ar      1 TRP        -0.0443
    184 CZ3        -3.4610  -12.2260   11.2580 C.ar      1 TRP        -0.0792
    185 CH2        -3.6940  -11.7630   12.5470 C.ar      1 TRP        -0.0768
    186 H81       -10.4083   -9.1041    5.6533 H         1 PRO         0.0524
    187 H82       -10.4120   -7.6232    4.6366 H         1 PRO         0.0524
    188 H83        -6.4239   -9.6875    5.6424 H         1 TRP         0.1884
    189 H84        -5.0881  -10.5394    7.9436 H         1 TRP         0.0815
    190 H85        -6.8267  -12.6727    8.1196 H         1 TRP         0.0397
    191 H86        -7.9398  -11.2758    7.9295 H         1 TRP         0.0397
    192 H87        -8.6173  -10.2979   10.2322 H         1 TRP         0.0795
    193 H88        -7.5927  -10.0666   12.6147 H         1 TRP         0.2216
    194 H89        -4.1602  -12.5043    9.2062 H         1 TRP         0.0540
    195 H90        -5.1334  -10.7804   13.8496 H         1 TRP         0.0541
    196 N          -4.3230  -11.3550    5.5670 N.am      1 ASP        -0.2621
    197 CA         -3.6790  -12.1400    4.5270 C.3       1 ASP         0.1423
    198 C          -4.7490  -12.8270    3.6770 C.2       1 ASP         0.2058
    199 O          -4.8480  -14.0540    3.6680 O.2       1 ASP        -0.3942
    200 CB         -2.7860  -13.2260    5.1310 C.3       1 ASP         0.0406
    201 CG         -3.4500  -14.0830    6.2110 C.2       1 ASP         0.0393
    202 OD1        -3.2360  -13.8730    7.4140 O.co2     1 ASP        -0.5688
    203 OD2        -4.2260  -15.0130    5.7680 O.co2     1 ASP        -0.5688
    204 H91        -2.5042  -12.6938   11.0561 H         1 TRP         0.0510
    205 H92        -2.9332  -11.8745   13.3111 H         1 TRP         0.0530
    206 H93        -3.9922  -10.4320    5.7633 H         1 ASP         0.1884
    207 H94        -3.0713  -11.4751    3.8957 H         1 ASP         0.0819
    208 N          -5.5230  -12.0080    2.9800 N.am      1 ASP        -0.2608
    209 CA         -6.5820  -12.5210    2.1290 C.3       1 ASP         0.1534
    210 C          -7.5750  -13.3150    2.9780 C.2       1 ASP         0.2588
    211 O          -7.3030  -13.6160    4.1400 O.2       1 ASP        -0.3679
    212 CB         -6.0200  -13.4580    1.0570 C.3       1 ASP         0.0420
    213 CG         -6.8050  -14.7560    0.8590 C.2       1 ASP         0.0394
    214 OD1        -6.9930  -15.5390    1.8020 O.co2     1 ASP        -0.5688
    215 OD2        -7.2380  -14.9530   -0.3410 O.co2     1 ASP        -0.5688
    216 H95        -1.9073  -12.7366    5.5763 H         1 ASP         0.0478
    217 H96        -2.4619  -13.8924    4.3181 H         1 ASP         0.0478
    218 H97        -5.3755  -11.0208    3.0410 H         1 ASP         0.1886
    219 H98        -7.0969  -11.6780    1.6450 H         1 ASP         0.0835
    220 O1         -8.7419  -13.6834    2.4569 O.3       1 ASP        -0.2909
    221 H99        -4.9901  -13.7215    1.3396 H         1 ASP         0.0480
    222 H100       -6.0103  -12.9155    0.1002 H         1 ASP         0.0480
    223 H101       -9.4487  -13.3050    2.9666 H         1 ASP         0.2540
@<TRIPOS>BOND
     1    2    1 1  
     2    2    5 1  
     3    3    2 1  
     4    3    4 2  
     5    5    6 1  
     6    6    7 ar 
     7    6    8 ar 
     8    8   10 ar 
     9   10   11 ar 
    10    9   11 ar 
    11    7    9 ar 
    12    1   12 1  
    13    1   13 1  
    14    1   14 1  
    15    2   15 1  
    16    5   16 1  
    17    5   17 1  
    18    7   18 1  
    19    8   19 1  
    20    9   20 1  
    21   22   21 1  
    22   22   25 1  
    23   23   22 1  
    24   23   24 2  
    25   25   26 1  
    26   26   27 1  
    27   27   28 1  
    28   28   29 ar 
    29   29   31 ar 
    30   29   30 ar 
    31   10   32 1  
    32   11   33 1  
    33   21   34 1  
    34   22   35 1  
    35   25   36 1  
    36   25   37 1  
    37   26   38 1  
    38   26   39 1  
    39   27   40 1  
    40   27   41 1  
    41   28   42 1  
    42   30   43 1  
    43   30   44 1  
    44   21    3 am 
    45   46   45 1  
    46   46   49 1  
    47   47   46 1  
    48   47   48 2  
    49   49   50 1  
    50   50   51 ar 
    51   50   52 ar 
    52   52   54 ar 
    53   54   55 ar 
    54   55   56 1  
    55   53   55 ar 
    56   51   53 ar 
    57   31   57 1  
    58   31   58 1  
    59   45   59 1  
    60   46   60 1  
    61   49   61 1  
    62   49   62 1  
    63   51   63 1  
    64   52   64 1  
    65   53   65 1  
    66   45   23 am 
    67   67   66 1  
    68   67   70 1  
    69   68   67 1  
    70   68   69 2  
    71   70   71 1  
    72   71   72 ar 
    73   71   73 ar 
    74   73   75 ar 
    75   75   76 ar 
    76   76   77 1  
    77   74   76 ar 
    78   72   74 ar 
    79   54   78 1  
    80   56   79 1  
    81   66   80 1  
    82   67   81 1  
    83   70   82 1  
    84   70   83 1  
    85   72   84 1  
    86   73   85 1  
    87   74   86 1  
    88   66   47 am 
    89   88   87 1  
    90   88   91 1  
    91   89   88 1  
    92   89   90 2  
    93   91   92 1  
    94   92   93 1  
    95   93   95 ar 
    96   93   94 ar 
    97   75   96 1  
    98   77   97 1  
    99   87   98 1  
   100   88   99 1  
   101   91  100 1  
   102   91  101 1  
   103   87   68 am 
   104  103  102 1  
   105  103  106 1  
   106  104  103 1  
   107  104  105 2  
   108  106  107 1  
   109   92  108 1  
   110   92  109 1  
   111  102  110 1  
   112  103  111 1  
   113  106  112 1  
   114  102   89 am 
   115  114  113 1  
   116  114  117 1  
   117  115  114 1  
   118  115  116 2  
   119  117  118 1  
   120  106  119 1  
   121  107  120 1  
   122  113  121 1  
   123  114  122 1  
   124  117  123 1  
   125  113  104 am 
   126  125  124 1  
   127  125  128 1  
   128  126  125 1  
   129  126  127 2  
   130  128  129 1  
   131  129  130 1  
   132  129  131 1  
   133  117  132 1  
   134  118  133 1  
   135  124  134 1  
   136  125  135 1  
   137  128  136 1  
   138  128  137 1  
   139  129  138 1  
   140  130  139 1  
   141  130  140 1  
   142  130  141 1  
   143  131  142 1  
   144  124  115 am 
   145  144  143 1  
   146  144  147 1  
   147  145  144 1  
   148  145  146 2  
   149  147  148 1  
   150  148  149 1  
   151  149  151 ar 
   152  149  150 ar 
   153  131  152 1  
   154  131  153 1  
   155  143  154 1  
   156  144  155 1  
   157  147  156 1  
   158  147  157 1  
   159  143  126 am 
   160  160  159 1  
   161  159  162 1  
   162  159  158 1  
   163  158  164 1  
   164  164  163 1  
   165  162  163 1  
   166  160  161 2  
   167  148  165 1  
   168  148  166 1  
   169  159  167 1  
   170  162  168 1  
   171  162  169 1  
   172  163  170 1  
   173  163  171 1  
   174  158  145 am 
   175  173  172 1  
   176  173  176 1  
   177  174  173 1  
   178  174  175 2  
   179  176  177 1  
   180  177  178 2  
   181  177  179 1  
   182  179  182 ar 
   183  179  181 ar 
   184  181  183 ar 
   185  181  180 1  
   186  178  180 1  
   187  183  185 ar 
   188  184  185 ar 
   189  182  184 ar 
   190  164  186 1  
   191  164  187 1  
   192  172  188 1  
   193  173  189 1  
   194  176  190 1  
   195  176  191 1  
   196  178  192 1  
   197  180  193 1  
   198  182  194 1  
   199  183  195 1  
   200  172  160 am 
   201  197  196 1  
   202  197  200 1  
   203  198  197 1  
   204  198  199 2  
   205  200  201 1  
   206  201  202 ar 
   207  201  203 ar 
   208  184  204 1  
   209  185  205 1  
   210  196  206 1  
   211  197  207 1  
   212  196  174 am 
   213  208  209 1  
   214  209  212 1  
   215  209  210 1  
   216  210  211 2  
   217  212  213 1  
   218  213  214 ar 
   219  213  215 ar 
   220  200  216 1  
   221  200  217 1  
   222  208  218 1  
   223  209  219 1  
   224  198  208 am 
   225  210  220 1  
   226  212  221 1  
   227  212  222 1  
   228  220  223 1  
@<TRIPOS>SUBSTRUCTURE
     1 PHE         1

