6iqg_ligand
  -I-interpret- 

202206  0  0  0  0  0  0  0  0999 V2000
    3.7000  -18.4100   26.2510 N   0  3  0  0  0
    3.3960  -16.9690   26.4560 C   0  0  0  0  0
    3.4330  -16.0130   25.2130 C   0  0  0  0  0
    4.2530  -16.1540   24.2970 O   0  0  0  0  0
    4.3300  -16.4060   27.5290 C   0  0  0  0  0
    5.7120  -16.1070   26.9990 C   0  0  0  0  0
    6.5090  -17.0390   26.7930 O   0  0  0  0  0
    6.0130  -14.9350   26.7950 O   0  0  0  0  0
    2.5450  -15.0180   25.2340 N   0  0  0  0  0
    2.2530  -14.2240   24.0570 C   0  0  0  0  0
    2.3400  -12.7330   24.2800 C   0  0  0  0  0
    2.3880  -12.2790   25.4300 O   0  0  0  0  0
    0.8730  -14.5760   23.5400 C   0  0  0  0  0
    0.9470  -16.1210   22.7030 S   0  0  0  0  0
    2.3720  -11.9830   23.1660 N   0  0  0  0  0
    2.3690  -10.5170   23.1720 C   0  0  0  0  0
    1.2210   -9.8960   22.3500 C   0  0  0  0  0
    0.8010  -10.4300   21.3070 O   0  0  0  0  0
    3.6810  -10.0160   22.6820 C   0  0  0  0  0
    0.7280   -8.7530   22.8350 N   0  0  0  0  0
   -0.3360   -8.0050   22.1530 C   0  0  0  0  0
   -0.1270   -6.4900   22.0030 C   0  0  0  0  0
    0.7450   -5.8990   22.6130 O   0  0  0  0  0
   -1.6230   -8.1680   22.8850 C   0  0  0  0  0
   -2.1180   -9.5370   23.0210 C   0  0  0  0  0
   -1.5710  -10.4120   23.9600 C   0  0  0  0  0
   -3.1830   -9.9540   22.2630 C   0  0  0  0  0
   -2.0540  -11.6910   24.1030 C   0  0  0  0  0
   -3.6820  -11.2270   22.4000 C   0  0  0  0  0
   -3.1230  -12.0840   23.3250 C   0  0  0  0  0
   -3.6640  -13.3200   23.4320 O   0  0  0  0  0
   -0.9860   -5.8570   21.2300 N   0  0  0  0  0
   -0.8170   -4.4540   20.9650 C   0  0  0  0  0
   -2.1260   -3.8870   20.4780 C   0  0  0  0  0
   -2.5870   -4.2620   19.3850 O   0  0  0  0  0
    0.2830   -4.2370   19.9390 C   0  0  0  0  0
    0.5870   -2.7970   19.6480 C   0  0  0  0  0
    1.2190   -1.9740   20.5590 N   0  0  0  0  0
    0.3760   -2.0460   18.5340 C   0  0  0  0  0
    1.3760   -0.7770   20.0210 C   0  0  0  0  0
    0.8620   -0.7890   18.8000 N   0  0  0  0  0
   -2.7130   -3.0020   21.3070 N   0  0  0  0  0
   -4.0490   -2.4320   21.1000 C   0  0  0  0  0
   -5.0980   -3.5310   20.8630 C   0  0  0  0  0
   -6.0250   -3.3360   20.0720 O   0  0  0  0  0
   -4.0490   -1.4280   19.9220 C   0  0  0  0  0
   -3.2940   -0.1040   20.1940 C   0  0  0  0  0
   -1.8180   -0.3450   20.3280 C   0  0  0  0  0
   -0.9860    0.7030   20.9340 N   0  0  0  0  0
   -0.6660    1.8720   20.3710 C   0  0  0  0  0
   -1.1840    2.2370   19.2010 N   0  0  0  0  0
    0.1430    2.7000   21.0240 N   0  0  0  0  0
   -4.9580   -4.6750   21.5500 N   0  0  0  0  0
   -5.6550   -5.8820   21.1440 C   0  0  0  0  0
   -4.7510   -6.4990   20.1050 C   0  0  0  0  0
   -3.5570   -6.6180   20.3590 O   0  0  0  0  0
   -5.2700   -6.8290   18.9260 N   0  0  0  0  0
   -4.5070   -7.5670   17.9020 C   0  0  0  0  0
   -3.3220   -8.4330   18.4640 C   0  0  0  0  0
   -2.5150   -7.9780   19.2750 O   0  0  0  0  0
   -4.0120   -6.5820   16.8320 C   0  0  0  0  0
   -5.1480   -5.8270   16.1010 C   0  0  0  0  0
   -4.6640   -4.7840   15.0450 C   0  0  0  0  0
   -3.6280   -5.0030   14.3480 O   0  0  0  0  0
   -5.3490   -3.7380   14.9090 O   0  0  0  0  0
   -3.2260   -9.6930   18.0480 N   0  0  0  0  0
   -2.1290  -10.5320   18.4990 C   0  0  0  0  0
   -0.8710  -10.1420   17.7260 C   0  0  0  0  0
   -0.9000   -9.9370   16.5140 O   0  0  0  0  0
   -2.4480  -12.0360   18.3070 C   0  0  0  0  0
   -1.4440  -13.1330   18.7410 C   0  0  0  0  0
   -1.2760  -13.2070   20.2610 C   0  0  0  0  0
   -1.7860  -14.4910   18.1830 C   0  0  0  0  0
    0.2350  -10.0380   18.4440 N   0  0  0  0  0
    1.5070   -9.8150   17.8040 C   0  0  0  0  0
    2.1790  -11.1280   17.4590 C   0  0  0  0  0
    2.3380  -11.4670   16.2760 O   0  0  0  0  0
    2.4430   -9.0220   18.6990 C   0  0  0  0  0
    3.7320   -8.7660   17.9690 C   0  0  0  0  0
    1.7940   -7.7060   19.1050 C   0  0  0  0  0
    2.5600  -11.8620   18.5100 N   0  0  0  0  0
    3.3850  -13.0790   18.3820 C   0  0  0  0  0
    3.4500  -13.9380   19.6640 C   0  0  0  0  0
    3.2480  -13.4290   20.7800 O   0  0  0  0  0
    4.7880  -12.6670   18.0080 C   0  0  0  0  0
    5.6240  -13.6670   17.3420 C   0  0  0  0  0
    6.6110  -14.4270   17.9050 C   0  0  0  0  0
    5.6300  -13.9610   15.9560 C   0  0  0  0  0
    7.2100  -15.2020   16.9530 N   0  0  0  0  0
    6.6290  -14.9300   15.7400 C   0  0  0  0  0
    4.8840  -13.5030   14.8660 C   0  0  0  0  0
    6.8990  -15.4520   14.4730 C   0  0  0  0  0
    5.1590  -14.0190   13.6140 C   0  0  0  0  0
    6.1590  -14.9860   13.4290 C   0  0  0  0  0
    3.7670  -15.2280   19.5120 N   0  0  0  0  0
    4.0140  -16.0980   20.6710 C   0  0  0  0  0
    5.2910  -16.9470   20.5250 C   0  0  0  0  0
    5.8480  -17.0730   19.4180 O   0  0  0  0  0
    2.8040  -17.0070   20.9190 C   0  0  0  0  0
    1.1550  -16.2390   20.6810 S   0  0  0  0  0
    5.7370  -17.5250   21.6500 N   0  0  0  0  0
    6.7900  -18.5680   21.6800 C   0  0  0  0  0
    6.6290  -19.5900   22.8420 C   0  0  0  0  0
    6.4530  -20.8200   22.6460 O   0  0  0  0  0
    8.1630  -17.9160   21.7710 C   0  0  0  0  0
    8.0350  -16.7220   22.5410 O   0  0  0  0  0
    8.6840  -17.5550   20.3930 C   0  0  0  0  0
    6.6640  -19.2530   24.0530 O   0  0  0  0  0
    3.0790  -18.7889   25.5360 H   0  0  0  0  0
    4.6692  -18.5123   25.9501 H   0  0  0  0  0
    3.5596  -18.9138   27.1267 H   0  0  0  0  0
    2.3445  -16.9795   26.7431 H   0  0  0  0  0
    4.4274  -17.1551   28.3148 H   0  0  0  0  0
    3.9004  -15.4716   27.8902 H   0  0  0  0  0
    6.0875  -17.8733   27.0119 H   0  0  0  0  0
    2.0565  -14.8095   26.1048 H   0  0  0  0  0
    3.0234  -14.4690   23.3259 H   0  0  0  0  0
    0.5316  -13.8027   22.8518 H   0  0  0  0  0
    0.1758  -14.6450   24.3750 H   0  0  0  0  0
    2.4000  -12.4605   22.2651 H   0  0  0  0  0
    2.2025  -10.2068   24.2036 H   0  0  0  0  0
    4.4744  -10.3808   23.3343 H   0  0  0  0  0
    3.8495  -10.3753   21.6668 H   0  0  0  0  0
    3.6771   -8.9260   22.6871 H   0  0  0  0  0
    1.1038   -8.3870   23.7097 H   0  0  0  0  0
   -0.3319   -8.4337   21.1509 H   0  0  0  0  0
   -2.3731   -7.6287   22.3066 H   0  0  0  0  0
   -1.4457   -7.8060   23.8977 H   0  0  0  0  0
   -0.7476  -10.0761   24.5902 H   0  0  0  0  0
   -3.6370   -9.2698   21.5462 H   0  0  0  0  0
   -1.6017  -12.3801   24.8162 H   0  0  0  0  0
   -4.5156  -11.5580   21.7806 H   0  0  0  0  0
   -4.3928  -13.4038   22.8127 H   0  0  0  0  0
   -1.7711   -6.3625   20.8195 H   0  0  0  0  0
   -0.5222   -3.9403   21.8801 H   0  0  0  0  0
   -0.0579   -4.6859   19.0061 H   0  0  0  0  0
    1.1919   -4.6787   20.3475 H   0  0  0  0  0
   -0.0901   -2.3783   17.6064 H   0  0  0  0  0
    1.8500    0.0785   20.5023 H   0  0  0  0  0
   -2.1936   -2.7084   22.1343 H   0  0  0  0  0
   -4.3177   -1.8971   22.0109 H   0  0  0  0  0
   -5.0895   -1.1646   19.7319 H   0  0  0  0  0
   -3.5401   -1.9165   19.0911 H   0  0  0  0  0
   -3.6645    0.3253   21.1249 H   0  0  0  0  0
   -3.4634    0.5738   19.3573 H   0  0  0  0  0
   -1.4523   -0.4422   19.3058 H   0  0  0  0  0
   -1.7297   -1.2004   20.9978 H   0  0  0  0  0
   -0.6196    0.5222   21.8686 H   0  0  0  0  0
   -0.9600    3.1507   18.8069 H   0  0  0  0  0
   -1.8051    1.6031   18.6982 H   0  0  0  0  0
    0.5089    2.4390   21.9396 H   0  0  0  0  0
   -4.3523   -4.6970   22.3704 H   0  0  0  0  0
   -6.6494   -5.6705   20.7510 H   0  0  0  0  0
   -5.8368   -6.5541   21.9827 H   0  0  0  0  0
   -6.2329   -6.5614   18.7219 H   0  0  0  0  0
   -5.1935   -8.2924   17.4655 H   0  0  0  0  0
   -3.4732   -7.1616   16.0824 H   0  0  0  0  0
   -3.3994   -5.8354   17.3373 H   0  0  0  0  0
   -5.7025   -5.2757   16.8604 H   0  0  0  0  0
   -5.7316   -6.5748   15.5640 H   0  0  0  0  0
   -3.2478   -5.8481   14.5987 H   0  0  0  0  0
   -3.9256  -10.0717   17.4096 H   0  0  0  0  0
   -1.9733  -10.3756   19.5664 H   0  0  0  0  0
   -2.5136  -12.1539   17.2254 H   0  0  0  0  0
   -3.3133  -12.2043   18.9482 H   0  0  0  0  0
   -0.4878  -12.8318   18.3131 H   0  0  0  0  0
   -0.9089  -12.2500   20.6317 H   0  0  0  0  0
   -2.2383  -13.4313   20.7211 H   0  0  0  0  0
   -0.5616  -13.9922   20.5085 H   0  0  0  0  0
   -2.7753  -14.7871   18.5318 H   0  0  0  0  0
   -1.7816  -14.4465   17.0939 H   0  0  0  0  0
   -1.0475  -15.2179   18.5212 H   0  0  0  0  0
    0.1873  -10.1163   19.4599 H   0  0  0  0  0
    1.3064   -9.2506   16.8933 H   0  0  0  0  0
    2.6501   -9.5950   19.6028 H   0  0  0  0  0
    4.1954   -9.7174   17.7079 H   0  0  0  0  0
    3.5274   -8.1988   17.0610 H   0  0  0  0  0
    4.4046   -8.1968   18.6107 H   0  0  0  0  0
    1.5725   -7.1210   18.2124 H   0  0  0  0  0
    0.8699   -7.9098   19.6460 H   0  0  0  0  0
    2.4766   -7.1484   19.7463 H   0  0  0  0  0
    2.2673  -11.5676   19.4417 H   0  0  0  0  0
    2.9137  -13.6974   17.6180 H   0  0  0  0  0
    5.2904  -12.4403   18.9484 H   0  0  0  0  0
    4.6763  -11.8515   17.2935 H   0  0  0  0  0
    6.8810  -14.4161   18.9610 H   0  0  0  0  0
    4.1025  -12.7552   15.0008 H   0  0  0  0  0
    7.6735  -16.2046   14.3252 H   0  0  0  0  0
    4.5885  -13.6684   12.7540 H   0  0  0  0  0
    6.3476  -15.3727   12.4275 H   0  0  0  0  0
    3.8390  -15.6168   18.5718 H   0  0  0  0  0
    4.1661  -15.4421   21.5282 H   0  0  0  0  0
    2.8544  -17.3030   21.9668 H   0  0  0  0  0
    2.8733  -17.8133   20.1889 H   0  0  0  0  0
    5.3279  -17.2298   22.5365 H   0  0  0  0  0
    6.6862  -19.1289   20.7512 H   0  0  0  0  0
    6.4386  -20.9936   21.7019 H   0  0  0  0  0
    8.8617  -18.6135   22.2330 H   0  0  0  0  0
    8.8916  -16.2942   22.6108 H   0  0  0  0  0
    8.7640  -18.4582   19.7881 H   0  0  0  0  0
    7.9952  -16.8572   19.9169 H   0  0  0  0  0
    9.6658  -17.0911   20.4872 H   0  0  0  0  0
  1  2  1  0  0  0
  2  3  1  0  0  0
  2  5  1  0  0  0
  3  4  2  0  0  0
  3  9  1  0  0  0
  5  6  1  0  0  0
  6  7  1  0  0  0
  6  8  2  0  0  0
  9 10  1  0  0  0
 10 11  1  0  0  0
 10 13  1  0  0  0
 11 12  2  0  0  0
 11 15  1  0  0  0
 13 14  1  0  0  0
 14100  1  0  0  0
 15 16  1  0  0  0
 16 17  1  0  0  0
 16 19  1  0  0  0
 17 18  2  0  0  0
 17 20  1  0  0  0
 20 21  1  0  0  0
 21 22  1  0  0  0
 21 24  1  0  0  0
 22 23  2  0  0  0
 22 32  1  0  0  0
 24 25  1  0  0  0
 25 26  4  0  0  0
 25 27  4  0  0  0
 26 28  4  0  0  0
 27 29  4  0  0  0
 28 30  4  0  0  0
 29 30  4  0  0  0
 30 31  1  0  0  0
 32 33  1  0  0  0
 33 34  1  0  0  0
 33 36  1  0  0  0
 34 35  2  0  0  0
 34 42  1  0  0  0
 36 37  1  0  0  0
 37 38  4  0  0  0
 37 39  4  0  0  0
 38 40  4  0  0  0
 39 41  4  0  0  0
 40 41  4  0  0  0
 42 43  1  0  0  0
 43 44  1  0  0  0
 43 46  1  0  0  0
 44 45  2  0  0  0
 44 53  1  0  0  0
 46 47  1  0  0  0
 47 48  1  0  0  0
 48 49  1  0  0  0
 49 50  1  0  0  0
 50 51  1  0  0  0
 50 52  2  0  0  0
 53 54  1  0  0  0
 54 55  1  0  0  0
 55 56  2  0  0  0
 55 57  1  0  0  0
 57 58  1  0  0  0
 58 59  1  0  0  0
 58 61  1  0  0  0
 59 60  2  0  0  0
 59 66  1  0  0  0
 61 62  1  0  0  0
 62 63  1  0  0  0
 63 64  1  0  0  0
 63 65  2  0  0  0
 66 67  1  0  0  0
 67 68  1  0  0  0
 67 70  1  0  0  0
 68 69  2  0  0  0
 68 74  1  0  0  0
 70 71  1  0  0  0
 71 72  1  0  0  0
 71 73  1  0  0  0
 74 75  1  0  0  0
 75 76  1  0  0  0
 75 78  1  0  0  0
 76 77  2  0  0  0
 76 81  1  0  0  0
 78 79  1  0  0  0
 78 80  1  0  0  0
 81 82  1  0  0  0
 82 83  1  0  0  0
 82 85  1  0  0  0
 83 84  2  0  0  0
 83 95  1  0  0  0
 85 86  1  0  0  0
 86 87  4  0  0  0
 86 88  4  0  0  0
 87 89  4  0  0  0
 88 90  4  0  0  0
 88 91  4  0  0  0
 89 90  4  0  0  0
 90 92  4  0  0  0
 91 93  4  0  0  0
 92 94  4  0  0  0
 93 94  4  0  0  0
 95 96  1  0  0  0
 96 97  1  0  0  0
 96 99  1  0  0  0
 97 98  2  0  0  0
 97101  1  0  0  0
 99100  1  0  0  0
101102  1  0  0  0
102103  1  0  0  0
102105  1  0  0  0
103104  1  0  0  0
103108  2  0  0  0
105106  1  0  0  0
105107  1  0  0  0
  1109  1  0  0  0
  1110  1  0  0  0
  1111  1  0  0  0
  2112  1  0  0  0
  5113  1  0  0  0
  5114  1  0  0  0
  7115  1  0  0  0
  9116  1  0  0  0
 10117  1  0  0  0
 13118  1  0  0  0
 13119  1  0  0  0
 15120  1  0  0  0
 16121  1  0  0  0
 19122  1  0  0  0
 19123  1  0  0  0
 19124  1  0  0  0
 20125  1  0  0  0
 21126  1  0  0  0
 24127  1  0  0  0
 24128  1  0  0  0
 26129  1  0  0  0
 27130  1  0  0  0
 28131  1  0  0  0
 29132  1  0  0  0
 31133  1  0  0  0
 32134  1  0  0  0
 33135  1  0  0  0
 36136  1  0  0  0
 36137  1  0  0  0
 39138  1  0  0  0
 40139  1  0  0  0
 42140  1  0  0  0
 43141  1  0  0  0
 46142  1  0  0  0
 46143  1  0  0  0
 47144  1  0  0  0
 47145  1  0  0  0
 48146  1  0  0  0
 48147  1  0  0  0
 49148  1  0  0  0
 51149  1  0  0  0
 51150  1  0  0  0
 52151  1  0  0  0
 53152  1  0  0  0
 54153  1  0  0  0
 54154  1  0  0  0
 57155  1  0  0  0
 58156  1  0  0  0
 61157  1  0  0  0
 61158  1  0  0  0
 62159  1  0  0  0
 62160  1  0  0  0
 64161  1  0  0  0
 66162  1  0  0  0
 67163  1  0  0  0
 70164  1  0  0  0
 70165  1  0  0  0
 71166  1  0  0  0
 72167  1  0  0  0
 72168  1  0  0  0
 72169  1  0  0  0
 73170  1  0  0  0
 73171  1  0  0  0
 73172  1  0  0  0
 74173  1  0  0  0
 75174  1  0  0  0
 78175  1  0  0  0
 79176  1  0  0  0
 79177  1  0  0  0
 79178  1  0  0  0
 80179  1  0  0  0
 80180  1  0  0  0
 80181  1  0  0  0
 81182  1  0  0  0
 82183  1  0  0  0
 85184  1  0  0  0
 85185  1  0  0  0
 87186  1  0  0  0
 91187  1  0  0  0
 92188  1  0  0  0
 93189  1  0  0  0
 94190  1  0  0  0
 95191  1  0  0  0
 96192  1  0  0  0
 99193  1  0  0  0
 99194  1  0  0  0
101195  1  0  0  0
102196  1  0  0  0
104197  1  0  0  0
105198  1  0  0  0
106199  1  0  0  0
107200  1  0  0  0
107201  1  0  0  0
107202  1  0  0  0
M  END
$$$$
