### 
### Created by X-TOOL on Mon Aug  2 16:11:44 2021
### 

@<TRIPOS>MOLECULE
6iqg_ligand
  202   206     1     0     0
SMALL
GAST_HUCK


@<TRIPOS>ATOM
      1 N           3.7000  -18.4100   26.2510 N.4       1 ASP         0.2391
      2 CA          3.3960  -16.9690   26.4560 C.3       1 ASP         0.0764
      3 C           3.4330  -16.0130   25.2130 C.2       1 ASP         0.2284
      4 O           4.2530  -16.1540   24.2970 O.2       1 ASP        -0.3906
      5 CB          4.3300  -16.4060   27.5290 C.3       1 ASP         0.0607
      6 CG          5.7120  -16.1070   26.9990 C.2       1 ASP         0.0425
      7 OD1         6.5090  -17.0390   26.7930 O.co2     1 ASP        -0.5686
      8 OD2         6.0130  -14.9350   26.7950 O.co2     1 ASP        -0.5686
      9 N           2.5450  -15.0180   25.2340 N.am      1 ASP        -0.2601
     10 CA          2.2530  -14.2240   24.0570 C.3       1 ASP         0.1408
     11 C           2.3400  -12.7330   24.2800 C.2       1 ASP         0.2047
     12 O           2.3880  -12.2790   25.4300 O.2       1 ASP        -0.3944
     13 CB          0.8730  -14.5760   23.5400 C.3       1 ASP         0.0443
     14 SG          0.9470  -16.1210   22.7030 S.3       1 ASP        -0.0882
     15 N           2.3720  -11.9830   23.1660 N.am      1 ASP        -0.2640
     16 CA          2.3690  -10.5170   23.1720 C.3       1 ASP         0.1282
     17 C           1.2210   -9.8960   22.3500 C.2       1 ASP         0.2037
     18 O           0.8010  -10.4300   21.3070 O.2       1 ASP        -0.3944
     19 CB          3.6810  -10.0160   22.6820 C.3       1 ASP        -0.0244
     20 N           0.7280   -8.7530   22.8350 N.am      1 ASP        -0.2621
     21 CA         -0.3360   -8.0050   22.1530 C.3       1 ASP         0.1390
     22 C          -0.1270   -6.4900   22.0030 C.2       1 ASP         0.2058
     23 O           0.7450   -5.8990   22.6130 O.2       1 ASP        -0.3942
     24 CB         -1.6230   -8.1680   22.8850 C.3       1 ASP         0.0163
     25 CG         -2.1180   -9.5370   23.0210 C.ar      1 ASP        -0.0493
     26 CD1        -1.5710  -10.4120   23.9600 C.ar      1 ASP        -0.0685
     27 CD2        -3.1830   -9.9540   22.2630 C.ar      1 ASP        -0.0685
     28 CE1        -2.0540  -11.6910   24.1030 C.ar      1 ASP        -0.0398
     29 CE2        -3.6820  -11.2270   22.4000 C.ar      1 ASP        -0.0398
     30 CZ         -3.1230  -12.0840   23.3250 C.ar      1 ASP         0.0805
     31 OH         -3.6640  -13.3200   23.4320 O.3       1 ASP        -0.3376
     32 N          -0.9860   -5.8570   21.2300 N.am      1 ASP        -0.2623
     33 CA         -0.8170   -4.4540   20.9650 C.3       1 ASP         0.1369
     34 C          -2.1260   -3.8870   20.4780 C.2       1 ASP         0.2054
     35 O          -2.5870   -4.2620   19.3850 O.2       1 ASP        -0.3942
     36 CB          0.2830   -4.2370   19.9390 C.3       1 ASP         0.0145
     37 CG          0.5870   -2.7970   19.6480 C.2       1 ASP        -0.0027
     38 ND1         1.2190   -1.9740   20.5590 N.2       1 ASP        -0.3252
     39 CD2         0.3760   -2.0460   18.5340 C.2       1 ASP         0.0291
     40 CE1         1.3760   -0.7770   20.0210 C.2       1 ASP         0.0907
     41 NE2         0.8620   -0.7890   18.8000 N.pl3     1 ASP        -0.2752
     42 N          -2.7130   -3.0020   21.3070 N.am      1 ASP        -0.2636
     43 CA         -4.0490   -2.4320   21.1000 C.3       1 ASP         0.1311
     44 C          -5.0980   -3.5310   20.8630 C.2       1 ASP         0.2037
     45 O          -6.0250   -3.3360   20.0720 O.2       1 ASP        -0.3944
     46 CB         -4.0490   -1.4280   19.9220 C.3       1 ASP        -0.0092
     47 CG         -3.2940   -0.1040   20.1940 C.3       1 ASP        -0.0156
     48 CD         -1.8180   -0.3450   20.3280 C.3       1 ASP         0.0627
     49 NE         -0.9860    0.7030   20.9340 N.pl3     1 ASP        -0.2723
     50 CZ         -0.6660    1.8720   20.3710 C.cat     1 ASP         0.2882
     51 NH1        -1.1840    2.2370   19.2010 N.pl3     1 ASP        -0.2849
     52 NH2         0.1430    2.7000   21.0240 N.pl3     1 ASP        -0.2849
     53 N          -4.9580   -4.6750   21.5500 N.am      1 ASP        -0.2664
     54 CA         -5.6550   -5.8820   21.1440 C.3       1 ASP         0.1201
     55 C          -4.7510   -6.4990   20.1050 C.2       1 ASP         0.2007
     56 O          -3.5570   -6.6180   20.3590 O.2       1 ASP        -0.3947
     57 N          -5.2700   -6.8290   18.9260 N.am      1 ASP        -0.2639
     58 CA         -4.5070   -7.5670   17.9020 C.3       1 ASP         0.1324
     59 C          -3.3220   -8.4330   18.4640 C.2       1 ASP         0.2040
     60 O          -2.5150   -7.9780   19.2750 O.2       1 ASP        -0.3944
     61 CB         -4.0120   -6.5820   16.8320 C.3       1 ASP        -0.0008
     62 CG         -5.1480   -5.8270   16.1010 C.3       1 ASP         0.0044
     63 CD         -4.6640   -4.7840   15.0450 C.2       1 ASP         0.0350
     64 OE1        -3.6280   -5.0030   14.3480 O.co2     1 ASP        -0.5690
     65 OE2        -5.3490   -3.7380   14.9090 O.co2     1 ASP        -0.5690
     66 N          -3.2260   -9.6930   18.0480 N.am      1 ASP        -0.2637
     67 CA         -2.1290  -10.5320   18.4990 C.3       1 ASP         0.1312
     68 C          -0.8710  -10.1420   17.7260 C.2       1 ASP         0.2039
     69 O          -0.9000   -9.9370   16.5140 O.2       1 ASP        -0.3944
     70 CB         -2.4480  -12.0360   18.3070 C.3       1 ASP        -0.0101
     71 CG         -1.4440  -13.1330   18.7410 C.3       1 ASP        -0.0425
     72 CD1        -1.2760  -13.2070   20.2610 C.3       1 ASP        -0.0625
     73 CD2        -1.7860  -14.4910   18.1830 C.3       1 ASP        -0.0625
     74 N           0.2350  -10.0380   18.4440 N.am      1 ASP        -0.2635
     75 CA          1.5070   -9.8150   17.8040 C.3       1 ASP         0.1333
     76 C           2.1790  -11.1280   17.4590 C.2       1 ASP         0.2042
     77 O           2.3380  -11.4670   16.2760 O.2       1 ASP        -0.3944
     78 CB          2.4430   -9.0220   18.6990 C.3       1 ASP        -0.0063
     79 CG1         3.7320   -8.7660   17.9690 C.3       1 ASP        -0.0584
     80 CG2         1.7940   -7.7060   19.1050 C.3       1 ASP        -0.0584
     81 N           2.5600  -11.8620   18.5100 N.am      1 ASP        -0.2627
     82 CA          3.3850  -13.0790   18.3820 C.3       1 ASP         0.1352
     83 C           3.4500  -13.9380   19.6640 C.2       1 ASP         0.2052
     84 O           3.2480  -13.4290   20.7800 O.2       1 ASP        -0.3942
     85 CB          4.7880  -12.6670   18.0080 C.3       1 ASP         0.0042
     86 CG          5.6240  -13.6670   17.3420 C.2       1 ASP        -0.0418
     87 CD1         6.6110  -14.4270   17.9050 C.2       1 ASP         0.0167
     88 CD2         5.6300  -13.9610   15.9560 C.ar      1 ASP        -0.0214
     89 NE1         7.2100  -15.2020   16.9530 N.pl3     1 ASP        -0.2890
     90 CE2         6.6290  -14.9300   15.7400 C.ar      1 ASP         0.0603
     91 CE3         4.8840  -13.5030   14.8660 C.ar      1 ASP        -0.0747
     92 CZ2         6.8990  -15.4520   14.4730 C.ar      1 ASP        -0.0443
     93 CZ3         5.1590  -14.0190   13.6140 C.ar      1 ASP        -0.0792
     94 CH2         6.1590  -14.9860   13.4290 C.ar      1 ASP        -0.0768
     95 N           3.7670  -15.2280   19.5120 N.am      1 ASP        -0.2628
     96 CA          4.0140  -16.0980   20.6710 C.3       1 ASP         0.1406
     97 C           5.2910  -16.9470   20.5250 C.2       1 ASP         0.2043
     98 O           5.8480  -17.0730   19.4180 O.2       1 ASP        -0.3944
     99 CB          2.8040  -17.0070   20.9190 C.3       1 ASP         0.0443
    100 SG          1.1550  -16.2390   20.6810 S.3       1 ASP        -0.0882
    101 N           5.7370  -17.5250   21.6500 N.am      1 ASP        -0.2669
    102 CA          6.7900  -18.5680   21.6800 C.3       1 ASP         0.1198
    103 C           6.6290  -19.5900   22.8420 C.2       1 ASP         0.0626
    104 O           6.4530  -20.8200   22.6460 O.co2     1 ASP        -0.5665
    105 CB          8.1630  -17.9160   21.7710 C.3       1 ASP         0.0869
    106 OG1         8.0350  -16.7220   22.5410 O.3       1 ASP        -0.3880
    107 CG2         8.6840  -17.5550   20.3930 C.3       1 ASP        -0.0352
    108 OXT         6.6640  -19.2530   24.0530 O.co2     1 ASP        -0.5665
    109 H1          3.6379  -18.8952   27.1324 H         1 ASP         0.2016
    110 H2          4.6317  -18.5072   25.8789 H         1 ASP         0.2016
    111 H3          3.0365  -18.8045   25.6028 H         1 ASP         0.2016
    112 H4          2.3675  -16.9275   26.8439 H         1 ASP         0.1117
    113 H5          4.4164  -17.1419   28.3420 H         1 ASP         0.0512
    114 H6          3.8946  -15.4753   27.9216 H         1 ASP         0.0512
    115 H7          2.0661  -14.8136   26.0877 H         1 ASP         0.1885
    116 H8          2.9924  -14.4882   23.2866 H         1 ASP         0.0808
    117 H9          0.5308  -13.7962   22.8437 H         1 ASP         0.0432
    118 H10         0.1710  -14.6478   24.3838 H         1 ASP         0.0432
    119 H11         2.3994  -12.4511   22.2827 H         1 ASP         0.1883
    120 H12         2.2425  -10.1895   24.2144 H         1 ASP         0.0797
    121 H13         3.6784   -8.9160   22.6867 H         1 ASP         0.0277
    122 H14         3.8523  -10.3779   21.6575 H         1 ASP         0.0277
    123 H15         4.4826  -10.3835   23.3395 H         1 ASP         0.0277
    124 H16         1.0964   -8.3941   23.6926 H         1 ASP         0.1885
    125 H17        -0.4362   -8.4331   21.1447 H         1 ASP         0.0821
    126 H18        -2.3887   -7.5855   22.3518 H         1 ASP         0.0453
    127 H19        -1.4883   -7.7576   23.8966 H         1 ASP         0.0453
    128 H20        -0.7521  -10.0779   24.5868 H         1 ASP         0.0530
    129 H21        -3.6345   -9.2735   21.5501 H         1 ASP         0.0530
    130 H22        -1.6042  -12.3763   24.8123 H         1 ASP         0.0525
    131 H23        -4.5110  -11.5561   21.7840 H         1 ASP         0.0525
    132 H24        -3.1968  -13.8125   24.0965 H         1 ASP         0.2458
    133 H25        -1.7557   -6.3525   20.8275 H         1 ASP         0.1885
    134 H26        -0.5328   -3.9448   21.8977 H         1 ASP         0.0817
    135 H27        -0.0233   -4.7201   18.9994 H         1 ASP         0.0420
    136 H28         1.2011   -4.7130   20.3137 H         1 ASP         0.0420
    137 H29        -0.0897   -2.3780   17.6073 H         1 ASP         0.0729
    138 H30         1.8495    0.0777   20.5018 H         1 ASP         0.1199
    139 H31         0.8317    0.0136   18.1551 H         1 ASP         0.2361
    140 H32        -2.2038   -2.7142   22.1181 H         1 ASP         0.1883
    141 H33        -4.3282   -1.8865   22.0135 H         1 ASP         0.0800
    142 H34        -5.0941   -1.1823   19.6824 H         1 ASP         0.0313
    143 H35        -3.5795   -1.9173   19.0559 H         1 ASP         0.0313
    144 H36        -3.6720    0.3409   21.1263 H         1 ASP         0.0301
    145 H37        -3.4710    0.5894   19.3586 H         1 ASP         0.0301
    146 H38        -1.4259   -0.5255   19.3163 H         1 ASP         0.0689
    147 H39        -1.6917   -1.2520   20.9375 H         1 ASP         0.0689
    148 H40        -0.6160    0.5204   21.8777 H         1 ASP         0.2642
    149 H41        -0.9251    3.1421   18.7830 H         1 ASP         0.2615
    150 H42        -1.8439    1.6145   18.7133 H         1 ASP         0.2615
    151 H43         0.5451    2.4194   21.9298 H         1 ASP         0.2615
    152 H44         0.3679    3.6222   20.6242 H         1 ASP         0.2615
    153 H45        -4.3642   -4.6965   22.3543 H         1 ASP         0.1881
    154 H46        -6.6370   -5.6390   20.7120 H         1 ASP         0.0763
    155 H47        -5.7883   -6.5618   21.9984 H         1 ASP         0.0763
    156 H48        -6.2140   -6.5667   18.7259 H         1 ASP         0.1883
    157 H49        -5.2068   -8.2645   17.4184 H         1 ASP         0.0801
    158 H50        -3.4332   -7.1445   16.0846 H         1 ASP         0.0330
    159 H51        -3.3607   -5.8409   17.3183 H         1 ASP         0.0330
    160 H52        -5.7483   -5.2974   16.8554 H         1 ASP         0.0433
    161 H53        -5.7768   -6.5687   15.5867 H         1 ASP         0.0433
    162 H54        -3.9119  -10.0642   17.4221 H         1 ASP         0.1883
    163 H55        -1.9604  -10.3485   19.5704 H         1 ASP         0.0800
    164 H56        -2.6231  -12.1823   17.2309 H         1 ASP         0.0315
    165 H57        -3.3791  -12.2299   18.8597 H         1 ASP         0.0315
    166 H58        -0.4675  -12.8492   18.3216 H         1 ASP         0.0298
    167 H59        -0.5552  -13.9991   20.5121 H         1 ASP         0.0232
    168 H60        -2.2465  -13.4334   20.7266 H         1 ASP         0.0232
    169 H61        -0.9055  -12.2417   20.6364 H         1 ASP         0.0232
    170 H62        -1.9030  -14.4200   17.0915 H         1 ASP         0.0232
    171 H63        -2.7265  -14.8450   18.6303 H         1 ASP         0.0232
    172 H64        -0.9780  -15.1989   18.4198 H         1 ASP         0.0232
    173 H65         0.1882  -10.1148   19.4400 H         1 ASP         0.1883
    174 H66         1.3341   -9.2477   16.8776 H         1 ASP         0.0802
    175 H67         2.6548   -9.6080   19.6055 H         1 ASP         0.0343
    176 H68         4.4117   -8.1916   18.6156 H         1 ASP         0.0234
    177 H69         3.5269   -8.1936   17.0524 H         1 ASP         0.0234
    178 H70         4.2007   -9.7255   17.7050 H         1 ASP         0.0234
    179 H71         0.8532   -7.9100   19.6373 H         1 ASP         0.0234
    180 H72         1.5843   -7.1079   18.2060 H         1 ASP         0.0234
    181 H73         2.4755   -7.1493   19.7651 H         1 ASP         0.0234
    182 H74         2.2731  -11.5733   19.4234 H         1 ASP         0.1884
    183 H75         2.9611  -13.6973   17.5770 H         1 ASP         0.0815
    184 H76         5.3029  -12.3684   18.9331 H         1 ASP         0.0397
    185 H77         4.7101  -11.8000   17.3355 H         1 ASP         0.0397
    186 H78         6.8807  -14.4161   18.9600 H         1 ASP         0.0795
    187 H79         7.9701  -15.8772   17.1179 H         1 ASP         0.2216
    188 H80         4.1068  -12.7593   15.0001 H         1 ASP         0.0540
    189 H81         7.6692  -16.2005   14.3260 H         1 ASP         0.0541
    190 H82         4.5916  -13.6703   12.7587 H         1 ASP         0.0510
    191 H83         6.3466  -15.3706   12.4330 H         1 ASP         0.0530
    192 H84         3.8376  -15.6092   18.5902 H         1 ASP         0.1884
    193 H85         4.1431  -15.4508   21.5510 H         1 ASP         0.0808
    194 H86         2.8607  -17.3662   21.9572 H         1 ASP         0.0432
    195 H87         2.8791  -17.8617   20.2307 H         1 ASP         0.0432
    196 H88         5.3359  -17.2356   22.5191 H         1 ASP         0.1876
    197 H89         6.7314  -19.1260   20.7338 H         1 ASP         0.0752
    198 H90         8.8671  -18.6056   22.2595 H         1 ASP         0.0632
    199 H91         7.4209  -16.1358   22.1146 H         1 ASP         0.2100
    200 H92         9.6749  -17.0867   20.4868 H         1 ASP         0.0256
    201 H93         7.9897  -16.8507   19.9114 H         1 ASP         0.0256
    202 H94         8.7653  -18.4657   19.7815 H         1 ASP         0.0256
@<TRIPOS>BOND
     1    1    2 1  
     2    2    3 1  
     3    2    5 1  
     4    3    4 2  
     5    3    9 am 
     6    5    6 1  
     7    6    7 ar 
     8    6    8 ar 
     9    9   10 1  
    10   10   11 1  
    11   10   13 1  
    12   11   12 2  
    13   11   15 am 
    14   13   14 1  
    15   14  100 1  
    16   15   16 1  
    17   16   17 1  
    18   16   19 1  
    19   17   18 2  
    20   17   20 am 
    21   20   21 1  
    22   21   22 1  
    23   21   24 1  
    24   22   23 2  
    25   22   32 am 
    26   24   25 1  
    27   25   26 ar 
    28   25   27 ar 
    29   26   28 ar 
    30   27   29 ar 
    31   28   30 ar 
    32   29   30 ar 
    33   30   31 1  
    34   32   33 1  
    35   33   34 1  
    36   33   36 1  
    37   34   35 2  
    38   34   42 am 
    39   36   37 1  
    40   37   38 1  
    41   37   39 2  
    42   38   40 2  
    43   39   41 1  
    44   40   41 1  
    45   42   43 1  
    46   43   44 1  
    47   43   46 1  
    48   44   45 2  
    49   44   53 am 
    50   46   47 1  
    51   47   48 1  
    52   48   49 1  
    53   49   50 ar 
    54   50   51 ar 
    55   50   52 ar 
    56   53   54 1  
    57   54   55 1  
    58   55   56 2  
    59   55   57 am 
    60   57   58 1  
    61   58   59 1  
    62   58   61 1  
    63   59   60 2  
    64   59   66 am 
    65   61   62 1  
    66   62   63 1  
    67   63   64 ar 
    68   63   65 ar 
    69   66   67 1  
    70   67   68 1  
    71   67   70 1  
    72   68   69 2  
    73   68   74 am 
    74   70   71 1  
    75   71   72 1  
    76   71   73 1  
    77   74   75 1  
    78   75   76 1  
    79   75   78 1  
    80   76   77 2  
    81   76   81 am 
    82   78   79 1  
    83   78   80 1  
    84   81   82 1  
    85   82   83 1  
    86   82   85 1  
    87   83   84 2  
    88   83   95 am 
    89   85   86 1  
    90   86   87 2  
    91   86   88 1  
    92   87   89 1  
    93   88   90 ar 
    94   88   91 ar 
    95   89   90 1  
    96   90   92 ar 
    97   91   93 ar 
    98   92   94 ar 
    99   93   94 ar 
   100   95   96 1  
   101   96   97 1  
   102   96   99 1  
   103   97   98 2  
   104   97  101 am 
   105   99  100 1  
   106  101  102 1  
   107  102  103 1  
   108  102  105 1  
   109  103  104 ar 
   110  103  108 ar 
   111  105  106 1  
   112  105  107 1  
   113    1  109 1  
   114    1  110 1  
   115    1  111 1  
   116    2  112 1  
   117    5  113 1  
   118    5  114 1  
   119    9  115 1  
   120   10  116 1  
   121   13  117 1  
   122   13  118 1  
   123   15  119 1  
   124   16  120 1  
   125   19  121 1  
   126   19  122 1  
   127   19  123 1  
   128   20  124 1  
   129   21  125 1  
   130   24  126 1  
   131   24  127 1  
   132   26  128 1  
   133   27  129 1  
   134   28  130 1  
   135   29  131 1  
   136   31  132 1  
   137   32  133 1  
   138   33  134 1  
   139   36  135 1  
   140   36  136 1  
   141   39  137 1  
   142   40  138 1  
   143   41  139 1  
   144   42  140 1  
   145   43  141 1  
   146   46  142 1  
   147   46  143 1  
   148   47  144 1  
   149   47  145 1  
   150   48  146 1  
   151   48  147 1  
   152   49  148 1  
   153   51  149 1  
   154   51  150 1  
   155   52  151 1  
   156   52  152 1  
   157   53  153 1  
   158   54  154 1  
   159   54  155 1  
   160   57  156 1  
   161   58  157 1  
   162   61  158 1  
   163   61  159 1  
   164   62  160 1  
   165   62  161 1  
   166   66  162 1  
   167   67  163 1  
   168   70  164 1  
   169   70  165 1  
   170   71  166 1  
   171   72  167 1  
   172   72  168 1  
   173   72  169 1  
   174   73  170 1  
   175   73  171 1  
   176   73  172 1  
   177   74  173 1  
   178   75  174 1  
   179   78  175 1  
   180   79  176 1  
   181   79  177 1  
   182   79  178 1  
   183   80  179 1  
   184   80  180 1  
   185   80  181 1  
   186   81  182 1  
   187   82  183 1  
   188   85  184 1  
   189   85  185 1  
   190   87  186 1  
   191   89  187 1  
   192   91  188 1  
   193   92  189 1  
   194   93  190 1  
   195   94  191 1  
   196   95  192 1  
   197   96  193 1  
   198   99  194 1  
   199   99  195 1  
   200  101  196 1  
   201  102  197 1  
   202  105  198 1  
   203  106  199 1  
   204  107  200 1  
   205  107  201 1  
   206  107  202 1  
@<TRIPOS>SUBSTRUCTURE
     1 ASP         1

