1dy4_ligand
  -I-interpret- 

 39 41  0  0  0  0  0  0  0  0999 V2000
   24.3160   54.8910   90.5540 C   0  0  0  0  0
   23.9770   54.1950   91.7520 C   0  0  0  0  0
   22.6480   53.7560   92.0320 C   0  0  0  0  0
   21.6110   54.0220   91.0850 C   0  0  0  0  0
   20.8780   54.9610   88.9690 C   0  0  0  0  0
   21.1500   55.6570   87.7500 C   0  0  0  0  0
   22.4810   56.0950   87.4710 C   0  0  0  0  0
   23.5190   55.8280   88.4210 C   0  0  0  0  0
   23.2560   55.1400   89.6330 C   0  0  0  0  0
   21.9120   54.7070   89.8930 C   0  0  0  0  0
   25.5940   55.3310   90.2450 O   0  0  0  0  0
   26.4520   55.8300   91.2610 C   0  0  0  0  0
   27.6980   56.4180   90.5970 C   0  0  0  0  0
   28.4170   55.3760   89.9660 O   0  0  0  0  0
   27.3520   57.4830   89.5430 C   0  0  0  0  0
   28.3890   58.4990   89.5320 N   0  3  0  0  0
   28.3430   59.3960   88.3940 C   0  0  0  0  0
   29.2470   58.8190   87.2860 C   0  0  0  0  0
   28.8230   60.8130   88.7670 C   0  0  0  0  0
   24.7617   53.9909   92.4805 H   0  0  0  0  0
   22.4265   53.2241   92.9573 H   0  0  0  0  0
   20.5905   53.6954   91.2853 H   0  0  0  0  0
   19.8641   54.6244   89.1854 H   0  0  0  0  0
   20.3476   55.8521   87.0386 H   0  0  0  0  0
   22.7039   56.6263   86.5457 H   0  0  0  0  0
   24.5346   56.1613   88.2076 H   0  0  0  0  0
   26.7358   55.0241   91.9378 H   0  0  0  0  0
   25.9386   56.5998   91.8371 H   0  0  0  0  0
   28.2915   56.8967   91.3759 H   0  0  0  0  0
   29.2011   55.7380   89.5467 H   0  0  0  0  0
   26.3937   57.9413   89.7872 H   0  0  0  0  0
   27.2865   57.0167   88.5599 H   0  0  0  0  0
   29.2836   58.0108   89.4903 H   0  0  0  0  0
   28.2553   59.0699   90.3666 H   0  0  0  0  0
   27.3114   59.4780   88.0517 H   0  0  0  0  0
   29.4588   58.3117   86.3448 H   0  0  0  0  0
   29.8576   58.0559   86.8033 H   0  0  0  0  0
   29.1003   61.6172   89.4484 H   0  0  0  0  0
   28.7016   61.8730   88.9899 H   0  0  0  0  0
  2  1  4  0  0  0
  1  9  4  0  0  0
  1 11  1  0  0  0
  3  2  4  0  0  0
  4  3  4  0  0  0
 10  4  4  0  0  0
  5  6  4  0  0  0
 10  5  4  0  0  0
  6  7  4  0  0  0
  7  8  4  0  0  0
  9  8  4  0  0  0
  9 10  4  0  0  0
 11 12  1  0  0  0
 12 13  1  0  0  0
 13 14  1  0  0  0
 13 15  1  0  0  0
 15 16  1  0  0  0
 16 17  1  0  0  0
 17 18  1  0  0  0
 17 19  1  0  0  0
 18 19  1  0  0  0
  2 20  1  0  0  0
  3 21  1  0  0  0
  4 22  1  0  0  0
  5 23  1  0  0  0
  6 24  1  0  0  0
  7 25  1  0  0  0
  8 26  1  0  0  0
 12 27  1  0  0  0
 12 28  1  0  0  0
 13 29  1  0  0  0
 14 30  1  0  0  0
 15 31  1  0  0  0
 15 32  1  0  0  0
 16 33  1  0  0  0
 16 34  1  0  0  0
 17 35  1  0  0  0
 18 36  1  0  0  0
 18 37  1  0  0  0
 19 38  1  0  0  0
 19 39  1  0  0  0
M  END
$$$$
