6g2f_ligand
  -I-interpret- 

 39 42  0  0  0  0  0  0  0  0999 V2000
   -0.3980    8.5000  -19.6290 C   0  0  0  0  0
   -1.3910    9.5140  -19.6250 C   0  0  0  0  0
   -0.9720   10.8720  -19.6730 C   0  0  0  0  0
   -3.1500   11.6300  -19.7240 C   0  0  0  0  0
   -2.8000    9.2730  -19.6580 C   0  0  0  0  0
   -4.5160    7.5830  -21.9110 C   0  0  0  0  0
   -3.7020    8.0600  -22.9860 C   0  0  0  0  0
   -7.1100    7.1400  -21.8880 C   0  0  0  0  0
    0.9290    8.8150  -19.6100 C   0  0  0  0  0
   -3.3580    7.9040  -19.6190 C   0  0  0  0  0
   -4.1010    7.2050  -20.5510 C   0  0  0  0  0
   -3.9780    5.9430  -18.8310 C   0  0  0  0  0
   -2.6550    7.3280  -17.2140 C   0  0  0  0  0
   -5.7860    7.5460  -22.4220 C   0  0  0  0  0
    1.3010   10.1430  -19.5980 C   0  0  0  0  0
   -2.2320    8.3250  -23.0130 C   0  0  0  0  0
    0.4110   11.1710  -19.6370 C   0  0  0  0  0
   -3.6660   10.3420  -19.7250 C   0  0  0  0  0
    2.6300   10.4260  -19.5210 F   0  0  0  0  0
   -4.4650    5.9650  -20.0510 N   0  0  0  0  0
   -3.2740    7.0580  -18.5080 N   0  0  0  0  0
   -4.4200    8.3130  -24.0420 N   0  0  0  0  0
   -1.8590   11.9240  -19.6800 N   0  0  0  0  0
   -5.7610    7.9700  -23.6990 O   0  0  0  0  0
   -0.7006    7.4530  -19.6475 H   0  0  0  0  0
   -3.8570   12.4587  -19.7621 H   0  0  0  0  0
   -7.0756    6.0910  -21.5939 H   0  0  0  0  0
   -7.3545    7.7539  -21.0211 H   0  0  0  0  0
   -7.8688    7.2780  -22.6582 H   0  0  0  0  0
    1.6841    8.0289  -19.6044 H   0  0  0  0  0
   -4.1251    5.1096  -18.1441 H   0  0  0  0  0
   -1.5962    7.5439  -17.3571 H   0  0  0  0  0
   -3.1428    8.1860  -16.7513 H   0  0  0  0  0
   -2.7654    6.4551  -16.5707 H   0  0  0  0  0
   -1.9866    9.0808  -22.2670 H   0  0  0  0  0
   -1.6939    7.4038  -22.7894 H   0  0  0  0  0
   -1.9468    8.6830  -24.0022 H   0  0  0  0  0
    0.7562   12.2049  -19.6405 H   0  0  0  0  0
   -4.7423   10.1783  -19.7781 H   0  0  0  0  0
  2  1  4  0  0  0
  1  9  4  0  0  0
  2  3  4  0  0  0
  5  2  4  0  0  0
  3 17  4  0  0  0
  3 23  4  0  0  0
 18  4  4  0  0  0
  4 23  4  0  0  0
 10  5  1  0  0  0
  5 18  4  0  0  0
  6  7  4  0  0  0
 11  6  1  0  0  0
  6 14  4  0  0  0
  7 16  1  0  0  0
  7 22  4  0  0  0
 14  8  1  0  0  0
  9 15  4  0  0  0
 10 11  4  0  0  0
 10 21  4  0  0  0
 11 20  4  0  0  0
 20 12  4  0  0  0
 12 21  4  0  0  0
 21 13  1  0  0  0
 14 24  4  0  0  0
 15 17  4  0  0  0
 15 19  1  0  0  0
 22 24  4  0  0  0
  1 25  1  0  0  0
  4 26  1  0  0  0
  8 27  1  0  0  0
  8 28  1  0  0  0
  8 29  1  0  0  0
  9 30  1  0  0  0
 12 31  1  0  0  0
 13 32  1  0  0  0
 13 33  1  0  0  0
 13 34  1  0  0  0
 16 35  1  0  0  0
 16 36  1  0  0  0
 16 37  1  0  0  0
 17 38  1  0  0  0
 18 39  1  0  0  0
M  END
$$$$
