### 
### Created by X-TOOL on Mon Sep 10 21:12:49 2018
### 

@<TRIPOS>MOLECULE
1okw_ligand
  110   110     1     0     0
SMALL
GAST_HUCK


@<TRIPOS>ATOM
      1 C          35.5100   19.3700   -1.9170 C.2       1 ACE         0.1751
      2 O          34.3100   19.1800   -2.0380 O.2       1 ACE        -0.3972
      3 CH3        36.3720   18.1580   -2.0620 C.3       1 ACE         0.0258
      4 N          36.1070   20.5510   -1.7210 N.am      1 ARG        -0.2658
      5 CA         37.4220   20.6150   -1.1050 C.3       1 ARG         0.1310
      6 C          37.5810   21.6800   -0.0610 C.2       1 ARG         0.2039
      7 O          37.1700   22.8020   -0.2830 O.2       1 ARG        -0.3944
      8 CB         38.5330   20.8320   -2.1050 C.3       1 ARG        -0.0092
      9 CG         38.3680   21.4670   -3.2610 C.3       1 ARG        -0.0156
     10 CD         39.4690   22.4350   -3.6180 C.3       1 ARG         0.0627
     11 NE         40.2390   22.1440   -4.8170 N.pl3     1 ARG        -0.2723
     12 CZ         40.6930   23.1050   -5.6380 C.cat     1 ARG         0.2882
     13 NH1        40.1100   23.2290   -6.8300 N.pl3     1 ARG        -0.2849
     14 NH2        41.6340   24.0000   -5.2840 N.pl3     1 ARG        -0.2849
     15 N          38.2780   21.3360    1.0210 N.am      1 ARG        -0.2637
     16 CA         39.0200   22.2890    1.8320 C.3       1 ARG         0.1311
     17 C          40.1910   22.8440    1.0930 C.2       1 ARG         0.2039
     18 O          40.9560   22.0670    0.5500 O.2       1 ARG        -0.3944
     19 CB         39.5680   21.6030    3.0610 C.3       1 ARG        -0.0092
     20 CG         40.3470   22.3350    4.1230 C.3       1 ARG        -0.0156
     21 CD         40.5640   21.3920    5.3070 C.3       1 ARG         0.0627
     22 NE         39.3200   20.6450    5.4660 N.pl3     1 ARG        -0.2723
     23 CZ         38.4790   20.5840    6.5100 C.cat     1 ARG         0.2882
     24 NH1        38.8290   21.1000    7.6910 N.pl3     1 ARG        -0.2849
     25 NH2        37.2730   20.0200    6.3730 N.pl3     1 ARG        -0.2849
     26 N          40.3180   24.1690    1.1210 N.am      1 LEU        -0.2637
     27 CA         41.4470   24.8850    0.5510 C.3       1 LEU         0.1312
     28 C          42.5690   25.0150    1.5200 C.2       1 LEU         0.2040
     29 O          42.4330   25.6500    2.5430 O.2       1 LEU        -0.3944
     30 CB         41.0050   26.2810    0.1210 C.3       1 LEU        -0.0101
     31 CG         40.0010   26.1850   -1.0270 C.3       1 LEU        -0.0425
     32 CD1        40.4660   25.2180   -2.1070 C.3       1 LEU        -0.0625
     33 CD2        39.7140   27.5330   -1.6790 C.3       1 LEU        -0.0625
     34 N          43.7090   24.4440    1.1820 N.am      1 ASN        -0.2616
     35 CA         44.7350   24.3430    2.1960 C.3       1 ASN         0.1476
     36 C          45.6710   25.4940    2.0590 C.2       1 ASN         0.2064
     37 O          46.4710   25.5110    1.1430 O.2       1 ASN        -0.3942
     38 CB         45.4490   23.0270    1.9020 C.3       1 ASN         0.0773
     39 CG         46.2720   22.6000    3.0980 C.2       1 ASN         0.1780
     40 OD1        46.2270   21.4410    3.4930 O.2       1 ASN        -0.3970
     41 ND2        47.0220   23.5450    3.6620 N.am      1 ASN        -0.3007
     42 N          45.6020   26.4630    2.9580 N.am      1 FCL        -0.2618
     43 CA         46.4310   27.6250    2.6670 C.3       1 FCL         0.1401
     44 C          47.7650   27.6950    3.3670 C.2       1 FCL         0.2012
     45 O          48.6920   28.2220    2.7770 O.2       1 FCL        -0.3946
     46 CB         45.5350   28.8120    3.0020 C.3       1 FCL         0.0214
     47 CG         44.8020   29.1500    1.7350 C.ar      1 FCL        -0.0381
     48 CD1        43.4370   29.3800    1.7080 C.ar      1 FCL        -0.0463
     49 CD2        45.5430   29.1290    0.5660 C.ar      1 FCL        -0.0600
     50 CE1        42.8310   29.6380    0.4860 C.ar      1 FCL         0.0338
     51 CE2        44.9260   29.4020   -0.6440 C.ar      1 FCL        -0.0680
     52 CL1        41.0730   29.9580    0.4030 Cl        1 FCL        -0.0725
     53 CZ         43.5630   29.6430   -0.6880 C.ar      1 FCL        -0.0548
     54 N          47.9250   27.1820    4.5880 N.am      1 NH2        -0.2988
     55 H1         37.4273   18.4414   -1.9356 H         1 ACE         0.0467
     56 H2         36.2266   17.7221   -3.0614 H         1 ACE         0.0467
     57 H3         36.0967   17.4184   -1.2957 H         1 ACE         0.0467
     58 H4         35.6464   21.3938   -1.9996 H         1 ARG         0.1882
     59 H5         37.5852   19.6422   -0.6183 H         1 ARG         0.0800
     60 H6         38.9042   19.8294   -2.3636 H         1 ARG         0.0313
     61 H7         39.3168   21.3859   -1.5675 H         1 ARG         0.0313
     62 H8         37.4231   22.0280   -3.2107 H         1 ARG         0.0301
     63 H9         38.3045   20.7126   -4.0590 H         1 ARG         0.0301
     64 H10        40.1712   22.4662   -2.7718 H         1 ARG         0.0689
     65 H11        39.0101   23.4259   -3.7504 H         1 ARG         0.0689
     66 H12        40.4445   21.1610   -5.0458 H         1 ARG         0.2642
     67 H13        40.4306   23.9544   -7.4871 H         1 ARG         0.2615
     68 H14        39.3388   22.5994   -7.0941 H         1 ARG         0.2615
     69 H15        42.0982   23.9241   -4.3677 H         1 ARG         0.2615
     70 H16        41.8899   24.7608   -5.9295 H         1 ARG         0.2615
     71 H17        38.2919   20.3728    1.2896 H         1 ARG         0.1883
     72 H18        38.3475   23.1079    2.1273 H         1 ARG         0.0800
     73 H19        40.2295   20.8043    2.6944 H         1 ARG         0.0313
     74 H20        38.7023   21.1564    3.5719 H         1 ARG         0.0313
     75 H21        39.7827   23.2198    4.4527 H         1 ARG         0.0301
     76 H22        41.3197   22.6505    3.7177 H         1 ARG         0.0301
     77 H23        40.7819   21.9681    6.2184 H         1 ARG         0.0689
     78 H24        41.3975   20.7048    5.0994 H         1 ARG         0.0689
     79 H25        39.0454   20.0774    4.6516 H         1 ARG         0.2642
     80 H26        38.1786   21.0497    8.4881 H         1 ARG         0.2615
     81 H27        39.7493   21.5483    7.8048 H         1 ARG         0.2615
     82 H28        36.9920   19.6187    5.4669 H         1 ARG         0.2615
     83 H29        36.6258   19.9872    7.1736 H         1 ARG         0.2615
     84 H30        39.5947   24.7024    1.5596 H         1 LEU         0.1883
     85 H31        41.8038   24.3315   -0.3301 H         1 LEU         0.0800
     86 H32        41.8831   26.8543   -0.2110 H         1 LEU         0.0315
     87 H33        40.5344   26.7922    0.9738 H         1 LEU         0.0315
     88 H34        39.0587   25.8035   -0.6068 H         1 LEU         0.0298
     89 H35        39.7168   25.1791   -2.9115 H         1 LEU         0.0232
     90 H36        40.5899   24.2151   -1.6726 H         1 LEU         0.0232
     91 H37        41.4272   25.5612   -2.5174 H         1 LEU         0.0232
     92 H38        39.3761   28.2463   -0.9128 H         1 LEU         0.0232
     93 H39        38.9286   27.4126   -2.4397 H         1 LEU         0.0232
     94 H40        40.6302   27.9127   -2.1548 H         1 LEU         0.0232
     95 H41        43.8584   24.0934    0.2575 H         1 ASN         0.1885
     96 H42        44.2967   24.3330    3.2048 H         1 ASN         0.0826
     97 H43        46.1114   23.1591    1.0338 H         1 ASN         0.0551
     98 H44        44.7024   22.2506    1.6789 H         1 ASN         0.0551
     99 H45        47.5888   23.3258    4.4562 H         1 ASN         0.1814
    100 H46        47.0184   24.4738    3.2913 H         1 ASN         0.1814
    101 H47        45.0259   26.4022    3.7731 H         1 FCL         0.1885
    102 H48        46.6438   27.6313    1.5878 H         1 FCL         0.0823
    103 H49        46.1422   29.6678    3.3318 H         1 FCL         0.0473
    104 H50        44.8223   28.5408    3.7948 H         1 FCL         0.0473
    105 H51        42.8539   29.3591    2.6216 H         1 FCL         0.0562
    106 H52        46.6020   28.8998    0.5972 H         1 FCL         0.0558
    107 H53        45.5104   29.4270   -1.5567 H         1 FCL         0.0599
    108 H54        43.0730   29.8343   -1.6358 H         1 FCL         0.0565
    109 H55        48.8153   27.2356    5.0401 H         1 NH2         0.1815
    110 H56        47.1546   26.7438    5.0511 H         1 NH2         0.1815
@<TRIPOS>BOND
     1    1    2 2  
     2    1    3 1  
     3    5    4 1  
     4    5    8 1  
     5    6    5 1  
     6    6    7 2  
     7    8    9 1  
     8    9   10 1  
     9   10   11 1  
    10   11   12 ar 
    11   12   14 ar 
    12   12   13 ar 
    13    4    1 am 
    14   16   15 1  
    15   16   19 1  
    16   17   16 1  
    17   17   18 2  
    18   19   20 1  
    19   20   21 1  
    20   21   22 1  
    21   22   23 ar 
    22   23   25 ar 
    23   23   24 ar 
    24   15    6 am 
    25   27   26 1  
    26   27   30 1  
    27   28   27 1  
    28   28   29 2  
    29   30   31 1  
    30   31   32 1  
    31   31   33 1  
    32   26   17 am 
    33   34   35 1  
    34   35   38 1  
    35   35   36 1  
    36   36   37 2  
    37   38   39 1  
    38   39   41 am 
    39   39   40 2  
    40   28   34 am 
    41   36   42 am 
    42   42   43 1  
    43   43   44 1  
    44   43   46 1  
    45   44   45 2  
    46   44   54 am 
    47   46   47 1  
    48   47   48 ar 
    49   47   49 ar 
    50   48   50 ar 
    51   49   51 ar 
    52   50   53 ar 
    53   50   52 1  
    54   51   53 ar 
    55    3   55 1  
    56    3   56 1  
    57    3   57 1  
    58    4   58 1  
    59    5   59 1  
    60    8   60 1  
    61    8   61 1  
    62    9   62 1  
    63    9   63 1  
    64   10   64 1  
    65   10   65 1  
    66   11   66 1  
    67   13   67 1  
    68   13   68 1  
    69   14   69 1  
    70   14   70 1  
    71   15   71 1  
    72   16   72 1  
    73   19   73 1  
    74   19   74 1  
    75   20   75 1  
    76   20   76 1  
    77   21   77 1  
    78   21   78 1  
    79   22   79 1  
    80   24   80 1  
    81   24   81 1  
    82   25   82 1  
    83   25   83 1  
    84   26   84 1  
    85   27   85 1  
    86   30   86 1  
    87   30   87 1  
    88   31   88 1  
    89   32   89 1  
    90   32   90 1  
    91   32   91 1  
    92   33   92 1  
    93   33   93 1  
    94   33   94 1  
    95   34   95 1  
    96   35   96 1  
    97   38   97 1  
    98   38   98 1  
    99   41   99 1  
   100   41  100 1  
   101   42  101 1  
   102   43  102 1  
   103   46  103 1  
   104   46  104 1  
   105   48  105 1  
   106   49  106 1  
   107   51  107 1  
   108   53  108 1  
   109   54  109 1  
   110   54  110 1  
@<TRIPOS>SUBSTRUCTURE
     1 ACE         1

