1okw_ligand
  -I-interpret- 

108108  0  0  0  0  0  0  0  0999 V2000
   35.5100   19.3700   -1.9170 C   0  0  0  0  0
   34.3100   19.1800   -2.0380 O   0  0  0  0  0
   36.3720   18.1580   -2.0620 C   0  0  0  0  0
   36.1070   20.5510   -1.7210 N   0  0  0  0  0
   37.4220   20.6150   -1.1050 C   0  0  0  0  0
   37.5810   21.6800   -0.0610 C   0  0  0  0  0
   37.1700   22.8020   -0.2830 O   0  0  0  0  0
   38.5330   20.8320   -2.1050 C   0  0  0  0  0
   38.3680   21.4670   -3.2610 C   0  0  0  0  0
   39.4690   22.4350   -3.6180 C   0  0  0  0  0
   40.2390   22.1440   -4.8170 N   0  0  0  0  0
   40.6930   23.1050   -5.6380 C   0  0  0  0  0
   40.1100   23.2290   -6.8300 N   0  0  0  0  0
   41.6340   24.0000   -5.2840 N   0  0  0  0  0
   38.2780   21.3360    1.0210 N   0  0  0  0  0
   39.0200   22.2890    1.8320 C   0  0  0  0  0
   40.1910   22.8440    1.0930 C   0  0  0  0  0
   40.9560   22.0670    0.5500 O   0  0  0  0  0
   39.5680   21.6030    3.0610 C   0  0  0  0  0
   40.3470   22.3350    4.1230 C   0  0  0  0  0
   40.5640   21.3920    5.3070 C   0  0  0  0  0
   39.3200   20.6450    5.4660 N   0  0  0  0  0
   38.4790   20.5840    6.5100 C   0  0  0  0  0
   38.8290   21.1000    7.6910 N   0  0  0  0  0
   37.2730   20.0200    6.3730 N   0  0  0  0  0
   40.3180   24.1690    1.1210 N   0  0  0  0  0
   41.4470   24.8850    0.5510 C   0  0  0  0  0
   42.5690   25.0150    1.5200 C   0  0  0  0  0
   42.4330   25.6500    2.5430 O   0  0  0  0  0
   41.0050   26.2810    0.1210 C   0  0  0  0  0
   40.0010   26.1850   -1.0270 C   0  0  0  0  0
   40.4660   25.2180   -2.1070 C   0  0  0  0  0
   39.7140   27.5330   -1.6790 C   0  0  0  0  0
   43.7090   24.4440    1.1820 N   0  0  0  0  0
   44.7350   24.3430    2.1960 C   0  0  0  0  0
   45.6710   25.4940    2.0590 C   0  0  0  0  0
   46.4710   25.5110    1.1430 O   0  0  0  0  0
   45.4490   23.0270    1.9020 C   0  0  0  0  0
   46.2720   22.6000    3.0980 C   0  0  0  0  0
   46.2270   21.4410    3.4930 O   0  0  0  0  0
   47.0220   23.5450    3.6620 N   0  0  0  0  0
   45.6020   26.4630    2.9580 N   0  0  0  0  0
   46.4310   27.6250    2.6670 C   0  0  0  0  0
   47.7650   27.6950    3.3670 C   0  0  0  0  0
   48.6920   28.2220    2.7770 O   0  0  0  0  0
   45.5350   28.8120    3.0020 C   0  0  0  0  0
   44.8020   29.1500    1.7350 C   0  0  0  0  0
   43.4370   29.3800    1.7080 C   0  0  0  0  0
   45.5430   29.1290    0.5660 C   0  0  0  0  0
   42.8310   29.6380    0.4860 C   0  0  0  0  0
   44.9260   29.4020   -0.6440 C   0  0  0  0  0
   41.0730   29.9580    0.4030 Cl  0  0  0  0  0
   43.5630   29.6430   -0.6880 C   0  0  0  0  0
   47.9250   27.1820    4.5880 N   0  0  0  0  0
   36.0982   17.4260   -1.3022 H   0  0  0  0  0
   36.2270   17.7270   -3.0526 H   0  0  0  0  0
   37.4174   18.4401   -1.9365 H   0  0  0  0  0
   35.6372   21.4106   -2.0052 H   0  0  0  0  0
   37.4984   19.6353   -0.6334 H   0  0  0  0  0
   38.7809   19.8176   -2.4175 H   0  0  0  0  0
   39.2221   21.4822   -1.5661 H   0  0  0  0  0
   37.4517   22.0507   -3.1720 H   0  0  0  0  0
   38.3536   20.7048   -4.0400 H   0  0  0  0  0
   40.1787   22.3973   -2.7915 H   0  0  0  0  0
   38.9776   23.3901   -3.8038 H   0  0  0  0  0
   40.4425   21.1705   -5.0436 H   0  0  0  0  0
   39.3463   22.6055   -7.0915 H   0  0  0  0  0
   41.8874   24.7534   -5.9232 H   0  0  0  0  0
   42.0937   23.9248   -4.3766 H   0  0  0  0  0
   38.2921   20.3536    1.2950 H   0  0  0  0  0
   38.3274   23.0896    2.0917 H   0  0  0  0  0
   40.2973   20.9032    2.6530 H   0  0  0  0  0
   38.6706   21.2783    3.5877 H   0  0  0  0  0
   39.7939   23.2164    4.4474 H   0  0  0  0  0
   41.3090   22.6553    3.7228 H   0  0  0  0  0
   40.8071   21.9478    6.2126 H   0  0  0  0  0
   41.4045   20.7218    5.1267 H   0  0  0  0  0
   39.0481   20.0829    4.6595 H   0  0  0  0  0
   39.7404   21.5439    7.8037 H   0  0  0  0  0
   36.6321   19.9875    7.1659 H   0  0  0  0  0
   36.9948   19.6226    5.4757 H   0  0  0  0  0
   39.5803   24.7131    1.5684 H   0  0  0  0  0
   41.7989   24.3114   -0.3065 H   0  0  0  0  0
   41.8763   26.8447   -0.2126 H   0  0  0  0  0
   40.5342   26.7829    0.9663 H   0  0  0  0  0
   39.0832   25.8154   -0.5697 H   0  0  0  0  0
   41.4184   25.5591   -2.5127 H   0  0  0  0  0
   40.5884   24.2247   -1.6753 H   0  0  0  0  0
   39.7229   25.1803   -2.9035 H   0  0  0  0  0
   39.3036   28.2152   -0.9345 H   0  0  0  0  0
   40.6397   27.9454   -2.0804 H   0  0  0  0  0
   38.9943   27.3987   -2.4865 H   0  0  0  0  0
   43.8614   24.0864    0.2390 H   0  0  0  0  0
   44.3371   24.3637    3.2106 H   0  0  0  0  0
   46.1089   23.1629    1.0452 H   0  0  0  0  0
   44.7064   22.2585    1.6874 H   0  0  0  0  0
   47.6024   23.3207    4.4702 H   0  0  0  0  0
   47.0160   24.4930    3.2857 H   0  0  0  0  0
   45.0144   26.4010    3.7894 H   0  0  0  0  0
   46.7518   27.5927    1.6258 H   0  0  0  0  0
   46.1205   29.6601    3.3570 H   0  0  0  0  0
   44.8407   28.5674    3.8059 H   0  0  0  0  0
   42.8507   29.3589    2.6266 H   0  0  0  0  0
   46.6079   28.8985    0.5974 H   0  0  0  0  0
   45.5136   29.4271   -1.5617 H   0  0  0  0  0
   43.0703   29.8353   -1.6411 H   0  0  0  0  0
   48.8360   27.2267    5.0446 H   0  0  0  0  0
   47.1363   26.7451    5.0650 H   0  0  0  0  0
  1  2  2  0  0  0
  1  3  1  0  0  0
  5  4  1  0  0  0
  5  8  1  0  0  0
  6  5  1  0  0  0
  6  7  2  0  0  0
  8  9  1  0  0  0
  9 10  1  0  0  0
 10 11  1  0  0  0
 11 12  1  0  0  0
 12 14  1  0  0  0
 12 13  2  0  0  0
  4  1  1  0  0  0
 16 15  1  0  0  0
 16 19  1  0  0  0
 17 16  1  0  0  0
 17 18  2  0  0  0
 19 20  1  0  0  0
 20 21  1  0  0  0
 21 22  1  0  0  0
 22 23  1  0  0  0
 23 25  1  0  0  0
 23 24  2  0  0  0
 15  6  1  0  0  0
 27 26  1  0  0  0
 27 30  1  0  0  0
 28 27  1  0  0  0
 28 29  2  0  0  0
 30 31  1  0  0  0
 31 32  1  0  0  0
 31 33  1  0  0  0
 26 17  1  0  0  0
 34 35  1  0  0  0
 35 38  1  0  0  0
 35 36  1  0  0  0
 36 37  2  0  0  0
 38 39  1  0  0  0
 39 41  1  0  0  0
 39 40  2  0  0  0
 28 34  1  0  0  0
 36 42  1  0  0  0
 42 43  1  0  0  0
 43 44  1  0  0  0
 43 46  1  0  0  0
 44 45  2  0  0  0
 44 54  1  0  0  0
 46 47  1  0  0  0
 47 48  4  0  0  0
 47 49  4  0  0  0
 48 50  4  0  0  0
 49 51  4  0  0  0
 50 53  4  0  0  0
 50 52  1  0  0  0
 51 53  4  0  0  0
  3 55  1  0  0  0
  3 56  1  0  0  0
  3 57  1  0  0  0
  4 58  1  0  0  0
  5 59  1  0  0  0
  8 60  1  0  0  0
  8 61  1  0  0  0
  9 62  1  0  0  0
  9 63  1  0  0  0
 10 64  1  0  0  0
 10 65  1  0  0  0
 11 66  1  0  0  0
 13 67  1  0  0  0
 14 68  1  0  0  0
 14 69  1  0  0  0
 15 70  1  0  0  0
 16 71  1  0  0  0
 19 72  1  0  0  0
 19 73  1  0  0  0
 20 74  1  0  0  0
 20 75  1  0  0  0
 21 76  1  0  0  0
 21 77  1  0  0  0
 22 78  1  0  0  0
 24 79  1  0  0  0
 25 80  1  0  0  0
 25 81  1  0  0  0
 26 82  1  0  0  0
 27 83  1  0  0  0
 30 84  1  0  0  0
 30 85  1  0  0  0
 31 86  1  0  0  0
 32 87  1  0  0  0
 32 88  1  0  0  0
 32 89  1  0  0  0
 33 90  1  0  0  0
 33 91  1  0  0  0
 33 92  1  0  0  0
 34 93  1  0  0  0
 35 94  1  0  0  0
 38 95  1  0  0  0
 38 96  1  0  0  0
 41 97  1  0  0  0
 41 98  1  0  0  0
 42 99  1  0  0  0
 43100  1  0  0  0
 46101  1  0  0  0
 46102  1  0  0  0
 48103  1  0  0  0
 49104  1  0  0  0
 51105  1  0  0  0
 53106  1  0  0  0
 54107  1  0  0  0
 54108  1  0  0  0
M  END
$$$$
