### 
### Created by X-TOOL on Mon Sep 10 21:13:07 2018
### 

@<TRIPOS>MOLECULE
3zy2_ligand
   40    42     1     0     0
SMALL
GAST_HUCK


@<TRIPOS>ATOM
      1 PB          7.9590  -15.0370   19.2750 P.3       1 GDP         0.2069
      2 O1B         8.5030  -14.8420   20.6420 O.co2     1 GDP        -0.5891
      3 O2B         7.6150  -16.3670   18.5320 O.co2     1 GDP        -0.5891
      4 O3B         7.5350  -13.6530   18.4880 O.co2     1 GDP        -0.5891
      5 O3A         9.6090  -14.8690   18.8200 O.3       1 GDP        -0.1548
      6 PA         10.1930  -14.1980   17.3510 P.3       1 GDP         0.3276
      7 O1A        11.7970  -14.4320   17.9920 O.co2     1 GDP        -0.5556
      8 O2A         9.8100  -14.6300   16.1540 O.co2     1 GDP        -0.5556
      9 O5'         9.4460  -12.6330   17.8090 O.3       1 GDP        -0.2436
     10 C5'        10.2560  -12.4300   18.7940 C.3       1 GDP         0.1132
     11 C4'        10.9370  -11.2980   19.0490 C.3       1 GDP         0.1189
     12 O4'        10.8500  -10.2070   19.8740 O.3       1 GDP        -0.3363
     13 C3'        12.2440  -11.7660   19.0670 C.3       1 GDP         0.1150
     14 O3'        13.3430  -11.9710   17.7380 O.3       1 GDP        -0.3864
     15 C2'        13.5990  -10.1450   19.6590 C.3       1 GDP         0.1387
     16 O2'        13.6760   -9.4240   18.5110 O.3       1 GDP        -0.3836
     17 C1'        12.4300   -9.7870   20.5600 C.3       1 GDP         0.1992
     18 N9         12.5740  -10.4940   21.6230 N.pl3     1 GDP        -0.2101
     19 C8         11.4550  -11.7910   22.2540 C.2       1 GDP         0.0957
     20 N7         12.3030  -11.9130   23.2250 N.2       1 GDP        -0.3235
     21 C5         13.4010  -11.3290   23.5030 C.2       1 GDP         0.0926
     22 C6         14.7620  -11.1480   24.5690 C.2       1 GDP         0.2135
     23 O6         14.6190  -11.9020   25.4150 O.2       1 GDP        -0.4091
     24 N1         15.3660  -10.3730   24.1290 N.am      1 GDP        -0.1839
     25 C2         15.5280   -9.5520   23.2100 C.2       1 GDP         0.2340
     26 N2         16.2200   -8.8710   22.9820 N.pl3     1 GDP        -0.2807
     27 N3         14.5400   -9.3480   21.9980 N.2       1 GDP        -0.2765
     28 C4         13.5060  -10.3150   22.2800 C.2       1 GDP         0.1159
     29 H          11.0249  -13.2107   18.6977 H         1 GDP         0.0648
     30 H           9.6580  -12.6139   19.6987 H         1 GDP         0.0648
     31 H          10.8119  -10.7837   18.0847 H         1 GDP         0.0651
     32 H          12.2514  -12.6507   19.7206 H         1 GDP         0.0648
     33 H          13.4875  -11.1323   17.3158 H         1 GDP         0.2100
     34 H          14.5705  -10.3526   20.1313 H         1 GDP         0.0676
     35 H          13.7654   -8.5022   18.7227 H         1 GDP         0.2101
     36 H          12.4562   -8.7122   20.7925 H         1 GDP         0.0998
     37 H          10.5135  -12.2486   21.9538 H         1 GDP         0.1179
     38 H          16.1545  -10.2644   24.7344 H         1 GDP         0.2515
     39 H          16.1176   -8.2970   22.1329 H         1 GDP         0.1897
     40 H          17.0371   -8.7416   23.5956 H         1 GDP         0.1897
@<TRIPOS>BOND
     1    1    2 ar 
     2    1    3 ar 
     3    1    4 ar 
     4    5    1 1  
     5    6    5 1  
     6    6    7 ar 
     7    6    8 ar 
     8    9    6 1  
     9   10    9 1  
    10   11   10 1  
    11   12   11 1  
    12   11   13 1  
    13   13   14 1  
    14   15   16 1  
    15   17   15 1  
    16   17   18 1  
    17   18   28 1  
    18   20   19 2  
    19   21   20 1  
    20   21   22 1  
    21   28   21 2  
    22   22   23 2  
    23   22   24 am 
    24   25   24 am 
    25   25   26 1  
    26   27   25 2  
    27   28   27 1  
    28   12   17 1  
    29   15   13 1  
    30   19   18 1  
    31   10   29 1  
    32   10   30 1  
    33   11   31 1  
    34   13   32 1  
    35   14   33 1  
    36   15   34 1  
    37   16   35 1  
    38   17   36 1  
    39   19   37 1  
    40   24   38 1  
    41   26   39 1  
    42   26   40 1  
@<TRIPOS>SUBSTRUCTURE
     1 GDP         1

