### 
### Created by X-TOOL on Wed Jan  1 15:39:36 2020
### 

@<TRIPOS>MOLECULE
5yyz_ligand
  123   124     1     0     0
SMALL
GAST_HUCK


@<TRIPOS>ATOM
      1 N          42.9890   12.8310   47.1630 N.4       1 ILE         0.2381
      2 CA         41.5580   13.0780   46.9950 C.3       1 ILE         0.0676
      3 C          40.8440   12.8360   48.3240 C.2       1 ILE         0.2270
      4 O          40.9990   11.7860   48.9510 O.2       1 ILE        -0.3907
      5 CB         40.9590   12.2090   45.8530 C.3       1 ILE         0.0164
      6 CG1        39.4910   12.5650   45.6080 C.3       1 ILE        -0.0460
      7 CG2        41.1240   10.7160   46.1330 C.3       1 ILE        -0.0551
      8 CD1        39.2840   13.9650   45.0810 C.3       1 ILE        -0.0647
      9 N          40.0770   13.8240   48.7660 N.am      1 GLN        -0.2609
     10 CA         39.4780   13.7070   50.0880 C.3       1 GLN         0.1333
     11 C          38.2300   12.8380   50.0410 C.2       1 GLN         0.2065
     12 O          37.5570   12.7610   49.0090 O.2       1 GLN        -0.3942
     13 CB         39.1070   15.0780   50.6380 C.3       1 GLN         0.0045
     14 CG         40.2930   15.9500   50.9410 C.3       1 GLN         0.0412
     15 CD         41.0300   15.5160   52.2130 C.2       1 GLN         0.1737
     16 OE1        40.7500   14.4630   52.7790 O.2       1 GLN        -0.3973
     17 NE2        41.9900   16.3200   52.6450 N.am      1 GLN        -0.3009
     18 N          37.8890   12.1770   51.1560 N.am      1 PRO        -0.2498
     19 CA         36.6350   11.4180   51.1820 C.3       1 PRO         0.1338
     20 C          35.4380   12.3220   50.9200 C.2       1 PRO         0.2042
     21 O          35.4330   13.4590   51.3970 O.2       1 PRO        -0.3944
     22 CB         36.5790   10.8410   52.6010 C.3       1 PRO        -0.0104
     23 CG         37.8910   11.1300   53.2280 C.3       1 PRO        -0.0281
     24 CD         38.5930   12.1750   52.4510 C.3       1 PRO         0.0369
     25 N          34.4690   11.8340   50.1470 N.am      1 TPO        -0.2611
     26 CA         33.2520   12.5790   49.8470 C.3       1 TPO         0.1612
     27 CB         32.4010   11.7960   48.8620 C.3       1 TPO         0.1262
     28 CG2        31.2170   12.6340   48.3690 C.3       1 TPO        -0.0298
     29 OG1        33.2120   11.5150   47.7310 O.3       1 TPO        -0.2685
     30 P          33.3980    9.9280   47.5060 P.3       1 TPO         0.2014
     31 O1P        32.1000    9.2660   47.1660 O.co2     1 TPO        -0.5537
     32 O2P        34.4720    9.7760   46.3160 O.co2     1 TPO        -0.5537
     33 O3P        34.0130    9.2330   48.8110 O.co2     1 TPO        -0.5537
     34 C          32.4760   12.8160   51.1240 C.2       1 TPO         0.2068
     35 O          32.3630   11.9120   51.9500 O.2       1 TPO        -0.3943
     36 N          31.9600   14.0280   51.2980 N.am      1 GLN        -0.2635
     37 CA         31.1990   14.3560   52.5030 C.3       1 GLN         0.1330
     38 C          29.7170   14.1110   52.2760 C.2       1 GLN         0.2042
     39 O          29.2570   14.1310   51.1390 O.2       1 GLN        -0.3944
     40 CB         31.4190   15.8080   52.9070 C.3       1 GLN         0.0045
     41 CG         32.8570   16.1540   53.2400 C.3       1 GLN         0.0412
     42 CD         32.9980   17.5360   53.8490 C.2       1 GLN         0.1737
     43 OE1        34.0570   17.8930   54.3610 O.2       1 GLN        -0.3973
     44 NE2        31.9270   18.3210   53.7980 N.am      1 GLN        -0.3009
     45 N          28.9790   13.8980   53.3620 N.am      1 PHE        -0.2619
     46 CA         27.5350   13.7370   53.2740 C.3       1 PHE         0.1404
     47 C          26.8510   15.0810   53.0620 C.2       1 PHE         0.2054
     48 O          27.3790   16.1430   53.4040 O.2       1 PHE        -0.3942
     49 CB         26.9780   13.0840   54.5380 C.3       1 PHE         0.0214
     50 CG         27.5710   11.7440   54.8340 C.ar      1 PHE        -0.0386
     51 CD1        27.3370   10.6670   53.9890 C.ar      1 PHE        -0.0601
     52 CD2        28.3600   11.5550   55.9570 C.ar      1 PHE        -0.0601
     53 CE1        27.8870    9.4260   54.2570 C.ar      1 PHE        -0.0686
     54 CE2        28.9110   10.3190   56.2320 C.ar      1 PHE        -0.0686
     55 CZ         28.6740    9.2520   55.3770 C.ar      1 PHE        -0.0687
     56 N          25.6490   15.0170   52.4970 N.am      1 VAL        -0.2691
     57 CA         24.8380   16.2000   52.2670 C.3       1 VAL         0.0967
     58 C          23.9680   16.4830   53.4840 C.2       1 VAL         0.0603
     59 O          24.3870   17.1760   54.4120 O.co2     1 VAL        -0.5666
     60 CB         23.9770   16.0360   51.0040 C.3       1 VAL        -0.0118
     61 CG1        24.7870   16.3610   49.7600 C.3       1 VAL        -0.0590
     62 CG2        23.4300   14.6170   50.9190 C.3       1 VAL        -0.0590
     63 OXT        22.8280   16.0250   53.5650 O.co2     1 VAL        -0.5666
     64 H1         43.3443   13.4085   47.9088 H         1 ILE         0.2015
     65 H2         43.4713   13.0540   46.3065 H         1 ILE         0.2015
     66 H3         43.1381   11.8602   47.3897 H         1 ILE         0.2015
     67 H4         41.4213   14.1341   46.7194 H         1 ILE         0.1101
     68 H5         41.5171   12.4378   44.9331 H         1 ILE         0.0378
     69 H6         38.9471   12.4684   46.5592 H         1 ILE         0.0269
     70 H7         39.0791   11.8544   44.8763 H         1 ILE         0.0269
     71 H8         42.1868   10.4905   46.3048 H         1 ILE         0.0236
     72 H9         40.7616   10.1387   45.2696 H         1 ILE         0.0236
     73 H10        40.5425   10.4440   47.0262 H         1 ILE         0.0236
     74 H11        38.2093   14.1451   44.9310 H         1 ILE         0.0230
     75 H12        39.8119   14.0778   44.1226 H         1 ILE         0.0230
     76 H13        39.6799   14.6918   45.8055 H         1 ILE         0.0230
     77 H14        39.9134   14.6335   48.2022 H         1 GLN         0.1885
     78 H15        40.2107   13.2402   50.7627 H         1 GLN         0.0801
     79 H16        38.5344   14.9361   51.5664 H         1 GLN         0.0337
     80 H17        38.4794   15.5918   49.8950 H         1 GLN         0.0337
     81 H18        39.9457   16.9857   51.0704 H         1 GLN         0.0504
     82 H19        40.9927   15.9010   50.0937 H         1 GLN         0.0504
     83 H20        42.5041   16.0865   53.4703 H         1 GLN         0.1814
     84 H21        42.2007   17.1605   52.1458 H         1 GLN         0.1814
     85 H22        36.6535   10.6119   50.4337 H         1 PRO         0.0802
     86 H23        36.4077    9.7551   52.5627 H         1 PRO         0.0313
     87 H24        35.7710   11.3197   53.1737 H         1 PRO         0.0313
     88 H25        38.4996   10.2138   53.2425 H         1 PRO         0.0287
     89 H26        37.7347   11.4828   54.2581 H         1 PRO         0.0287
     90 H27        38.5092   13.1543   52.9449 H         1 PRO         0.0524
     91 H28        39.6550   11.9200   52.3201 H         1 PRO         0.0524
     92 H29        34.5807   10.9201   49.7568 H         1 TPO         0.1884
     93 H30        33.5206   13.5482   49.4016 H         1 TPO         0.0830
     94 H31        32.0407   10.8670   49.3280 H         1 TPO         0.0695
     95 H32        30.6199   12.0430   47.6589 H         1 TPO         0.0260
     96 H33        31.5915   13.5392   47.8686 H         1 TPO         0.0260
     97 H34        30.5894   12.9215   49.2254 H         1 TPO         0.0260
     98 H35        32.0940   14.7261   50.5947 H         1 GLN         0.1883
     99 H36        31.5440   13.7068   53.3212 H         1 GLN         0.0801
    100 H37        30.8010   16.0161   53.7929 H         1 GLN         0.0337
    101 H38        31.0946   16.4498   52.0746 H         1 GLN         0.0337
    102 H39        33.4522   16.1138   52.3158 H         1 GLN         0.0504
    103 H40        33.2411   15.4126   53.9561 H         1 GLN         0.0504
    104 H41        31.9637   19.2426   54.1844 H         1 GLN         0.1814
    105 H42        31.0843   17.9901   53.3733 H         1 GLN         0.1814
    106 H43        29.4246   13.8475   54.2558 H         1 PHE         0.1885
    107 H44        27.3110   13.0880   52.4146 H         1 PHE         0.0823
    108 H45        25.8914   12.9636   54.4167 H         1 PHE         0.0474
    109 H46        27.1803   13.7491   55.3904 H         1 PHE         0.0474
    110 H47        26.7168   10.8001   53.1100 H         1 PHE         0.0557
    111 H48        28.5468   12.3864   56.6271 H         1 PHE         0.0557
    112 H49        27.7002    8.5929   53.5891 H         1 PHE         0.0599
    113 H50        29.5270   10.1826   57.1134 H         1 PHE         0.0599
    114 H51        29.1074    8.2813   55.5891 H         1 PHE         0.0559
    115 H52        25.2914   14.1248   52.2212 H         1 VAL         0.1876
    116 H53        25.5106   17.0570   52.1153 H         1 VAL         0.0729
    117 H54        23.1306   16.7360   51.0639 H         1 VAL         0.0336
    118 H55        24.1547   16.2381   48.8683 H         1 VAL         0.0234
    119 H56        25.6486   15.6802   49.6952 H         1 VAL         0.0234
    120 H57        25.1440   17.4000   49.8159 H         1 VAL         0.0234
    121 H58        22.8463   14.3942   51.8243 H         1 VAL         0.0234
    122 H59        24.2655   13.9062   50.8374 H         1 VAL         0.0234
    123 H60        22.7831   14.5258   50.0340 H         1 VAL         0.0234
@<TRIPOS>BOND
     1    1    2 1  
     2    2    3 1  
     3    2    5 1  
     4    3    4 2  
     5    3    9 am 
     6    5    6 1  
     7    5    7 1  
     8    6    8 1  
     9    9   10 1  
    10   10   11 1  
    11   10   13 1  
    12   11   12 2  
    13   11   18 am 
    14   13   14 1  
    15   14   15 1  
    16   15   16 2  
    17   15   17 am 
    18   18   19 1  
    19   18   24 1  
    20   19   20 1  
    21   19   22 1  
    22   20   21 2  
    23   20   25 am 
    24   22   23 1  
    25   23   24 1  
    26   25   26 1  
    27   26   27 1  
    28   26   34 1  
    29   27   28 1  
    30   27   29 1  
    31   29   30 1  
    32   30   31 ar 
    33   30   32 ar 
    34   30   33 ar 
    35   34   35 2  
    36   34   36 am 
    37   36   37 1  
    38   37   38 1  
    39   37   40 1  
    40   38   39 2  
    41   38   45 am 
    42   40   41 1  
    43   41   42 1  
    44   42   43 2  
    45   42   44 am 
    46   45   46 1  
    47   46   47 1  
    48   46   49 1  
    49   47   48 2  
    50   47   56 am 
    51   49   50 1  
    52   50   51 ar 
    53   50   52 ar 
    54   51   53 ar 
    55   52   54 ar 
    56   53   55 ar 
    57   54   55 ar 
    58   56   57 1  
    59   57   58 1  
    60   57   60 1  
    61   58   59 ar 
    62   58   63 ar 
    63   60   61 1  
    64   60   62 1  
    65    1   64 1  
    66    1   65 1  
    67    1   66 1  
    68    2   67 1  
    69    5   68 1  
    70    6   69 1  
    71    6   70 1  
    72    7   71 1  
    73    7   72 1  
    74    7   73 1  
    75    8   74 1  
    76    8   75 1  
    77    8   76 1  
    78    9   77 1  
    79   10   78 1  
    80   13   79 1  
    81   13   80 1  
    82   14   81 1  
    83   14   82 1  
    84   17   83 1  
    85   17   84 1  
    86   19   85 1  
    87   22   86 1  
    88   22   87 1  
    89   23   88 1  
    90   23   89 1  
    91   24   90 1  
    92   24   91 1  
    93   25   92 1  
    94   26   93 1  
    95   27   94 1  
    96   28   95 1  
    97   28   96 1  
    98   28   97 1  
    99   36   98 1  
   100   37   99 1  
   101   40  100 1  
   102   40  101 1  
   103   41  102 1  
   104   41  103 1  
   105   44  104 1  
   106   44  105 1  
   107   45  106 1  
   108   46  107 1  
   109   49  108 1  
   110   49  109 1  
   111   51  110 1  
   112   52  111 1  
   113   53  112 1  
   114   54  113 1  
   115   55  114 1  
   116   56  115 1  
   117   57  116 1  
   118   60  117 1  
   119   61  118 1  
   120   61  119 1  
   121   61  120 1  
   122   62  121 1  
   123   62  122 1  
   124   62  123 1  
@<TRIPOS>SUBSTRUCTURE
     1 ILE         1

