5yyz_ligand
  -I-interpret- 

126127  0  0  0  0  0  0  0  0999 V2000
   42.9890   12.8310   47.1630 N   0  3  0  0  0
   41.5580   13.0780   46.9950 C   0  0  0  0  0
   40.8440   12.8360   48.3240 C   0  0  0  0  0
   40.9990   11.7860   48.9510 O   0  0  0  0  0
   40.9590   12.2090   45.8530 C   0  0  0  0  0
   39.4910   12.5650   45.6080 C   0  0  0  0  0
   41.1240   10.7160   46.1330 C   0  0  0  0  0
   39.2840   13.9650   45.0810 C   0  0  0  0  0
   40.0770   13.8240   48.7660 N   0  0  0  0  0
   39.4780   13.7070   50.0880 C   0  0  0  0  0
   38.2300   12.8380   50.0410 C   0  0  0  0  0
   37.5570   12.7610   49.0090 O   0  0  0  0  0
   39.1070   15.0780   50.6380 C   0  0  0  0  0
   40.2930   15.9500   50.9410 C   0  0  0  0  0
   41.0300   15.5160   52.2130 C   0  0  0  0  0
   40.7500   14.4630   52.7790 O   0  0  0  0  0
   41.9900   16.3200   52.6450 N   0  0  0  0  0
   37.8890   12.1770   51.1560 N   0  0  0  0  0
   36.6350   11.4180   51.1820 C   0  0  0  0  0
   35.4380   12.3220   50.9200 C   0  0  0  0  0
   35.4330   13.4590   51.3970 O   0  0  0  0  0
   36.5790   10.8410   52.6010 C   0  0  0  0  0
   37.8910   11.1300   53.2280 C   0  0  0  0  0
   38.5930   12.1750   52.4510 C   0  0  0  0  0
   34.4690   11.8340   50.1470 N   0  0  0  0  0
   33.2520   12.5790   49.8470 C   0  0  0  0  0
   32.4010   11.7960   48.8620 C   0  0  0  0  0
   31.2170   12.6340   48.3690 C   0  0  0  0  0
   33.2120   11.5150   47.7310 O   0  0  0  0  0
   33.3980    9.9280   47.5060 P   0  0  0  0  0
   32.1000    9.2660   47.1660 O   0  0  0  0  0
   34.4720    9.7760   46.3160 O   0  0  0  0  0
   34.0130    9.2330   48.8110 O   0  0  0  0  0
   32.4760   12.8160   51.1240 C   0  0  0  0  0
   32.3630   11.9120   51.9500 O   0  0  0  0  0
   31.9600   14.0280   51.2980 N   0  0  0  0  0
   31.1990   14.3560   52.5030 C   0  0  0  0  0
   29.7170   14.1110   52.2760 C   0  0  0  0  0
   29.2570   14.1310   51.1390 O   0  0  0  0  0
   31.4190   15.8080   52.9070 C   0  0  0  0  0
   32.8570   16.1540   53.2400 C   0  0  0  0  0
   32.9980   17.5360   53.8490 C   0  0  0  0  0
   34.0570   17.8930   54.3610 O   0  0  0  0  0
   31.9270   18.3210   53.7980 N   0  0  0  0  0
   28.9790   13.8980   53.3620 N   0  0  0  0  0
   27.5350   13.7370   53.2740 C   0  0  0  0  0
   26.8510   15.0810   53.0620 C   0  0  0  0  0
   27.3790   16.1430   53.4040 O   0  0  0  0  0
   26.9780   13.0840   54.5380 C   0  0  0  0  0
   27.5710   11.7440   54.8340 C   0  0  0  0  0
   27.3370   10.6670   53.9890 C   0  0  0  0  0
   28.3600   11.5550   55.9570 C   0  0  0  0  0
   27.8870    9.4260   54.2570 C   0  0  0  0  0
   28.9110   10.3190   56.2320 C   0  0  0  0  0
   28.6740    9.2520   55.3770 C   0  0  0  0  0
   25.6490   15.0170   52.4970 N   0  0  0  0  0
   24.8380   16.2000   52.2670 C   0  0  0  0  0
   23.9680   16.4830   53.4840 C   0  0  0  0  0
   24.3870   17.1760   54.4120 O   0  0  0  0  0
   23.9770   16.0360   51.0040 C   0  0  0  0  0
   24.7870   16.3610   49.7600 C   0  0  0  0  0
   23.4300   14.6170   50.9190 C   0  0  0  0  0
   22.8280   16.0250   53.5650 O   0  0  0  0  0
   43.3474   13.4159   47.9179 H   0  0  0  0  0
   43.1386   11.8484   47.3923 H   0  0  0  0  0
   43.4759   13.0570   46.2957 H   0  0  0  0  0
   41.4098   14.1172   46.7014 H   0  0  0  0  0
   41.5182   12.4317   44.9442 H   0  0  0  0  0
   38.9758   12.4986   46.5663 H   0  0  0  0  0
   39.1100   11.8745   44.8556 H   0  0  0  0  0
   40.5473   10.4477   47.0182 H   0  0  0  0  0
   40.7645   10.1452   45.2768 H   0  0  0  0  0
   42.1775   10.4938   46.3030 H   0  0  0  0  0
   39.6768   14.6842   45.7998 H   0  0  0  0  0
   39.8076   14.0755   44.1314 H   0  0  0  0  0
   38.2188   14.1423   44.9328 H   0  0  0  0  0
   39.9101   14.6497   48.1909 H   0  0  0  0  0
   40.2167   13.2436   50.7420 H   0  0  0  0  0
   38.5721   14.9192   51.5744 H   0  0  0  0  0
   38.5162   15.5856   49.8755 H   0  0  0  0  0
   39.9328   16.9677   51.0914 H   0  0  0  0  0
   40.9892   15.8733   50.1059 H   0  0  0  0  0
   42.5270   16.0725   53.4761 H   0  0  0  0  0
   42.1922   17.1866   52.1465 H   0  0  0  0  0
   36.6007   10.6481   50.4111 H   0  0  0  0  0
   36.3866    9.7684   52.5777 H   0  0  0  0  0
   35.7670   11.2908   53.1723 H   0  0  0  0  0
   38.4939   10.2220   53.2411 H   0  0  0  0  0
   37.7354   11.4805   54.2483 H   0  0  0  0  0
   38.5654   13.1480   52.9416 H   0  0  0  0  0
   39.6584   11.9705   52.3456 H   0  0  0  0  0
   34.5830   10.9018   49.7490 H   0  0  0  0  0
   33.5153   13.5394   49.4038 H   0  0  0  0  0
   32.0278   10.8962   49.3511 H   0  0  0  0  0
   30.5960   12.9182   49.2185 H   0  0  0  0  0
   31.5894   13.5306   47.8734 H   0  0  0  0  0
   30.6262   12.0473   47.6655 H   0  0  0  0  0
   35.2901   10.2109   46.5674 H   0  0  0  0  0
   34.8464    9.6541   49.0338 H   0  0  0  0  0
   32.0967   14.7401   50.5806 H   0  0  0  0  0
   31.5520   13.7109   53.3076 H   0  0  0  0  0
   30.8311   15.9820   53.8082 H   0  0  0  0  0
   31.1305   16.4243   52.0555 H   0  0  0  0  0
   33.4298   16.1358   52.3128 H   0  0  0  0  0
   33.2167   15.4278   53.9689 H   0  0  0  0  0
   31.9640   19.2605   54.1935 H   0  0  0  0  0
   31.0679   17.9841   53.3634 H   0  0  0  0  0
   29.4336   13.8465   54.2737 H   0  0  0  0  0
   27.3315   13.0913   52.4197 H   0  0  0  0  0
   25.9082   12.9405   54.3862 H   0  0  0  0  0
   27.2180   13.7387   55.3758 H   0  0  0  0  0
   26.7133   10.8008   53.1051 H   0  0  0  0  0
   28.5479   12.3910   56.6308 H   0  0  0  0  0
   27.6992    8.5883   53.5854 H   0  0  0  0  0
   29.5305   10.1819   57.1183 H   0  0  0  0  0
   29.1098    8.2759   55.5903 H   0  0  0  0  0
   25.2843   14.1069   52.2157 H   0  0  0  0  0
   25.5012   17.0506   52.1095 H   0  0  0  0  0
   25.2819   17.4633   54.2166 H   0  0  0  0  0
   23.1406   16.7324   51.0643 H   0  0  0  0  0
   25.1401   17.3907   49.8167 H   0  0  0  0  0
   25.6404   15.6858   49.6970 H   0  0  0  0  0
   24.1594   16.2388   48.8772 H   0  0  0  0  0
   24.2595   13.9110   50.8795 H   0  0  0  0  0
   22.8179   14.4117   51.7973 H   0  0  0  0  0
   22.8225   14.5164   50.0196 H   0  0  0  0  0
  1  2  1  0  0  0
  2  3  1  0  0  0
  2  5  1  0  0  0
  3  4  2  0  0  0
  3  9  1  0  0  0
  5  6  1  0  0  0
  5  7  1  0  0  0
  6  8  1  0  0  0
  9 10  1  0  0  0
 10 11  1  0  0  0
 10 13  1  0  0  0
 11 12  2  0  0  0
 11 18  1  0  0  0
 13 14  1  0  0  0
 14 15  1  0  0  0
 15 16  2  0  0  0
 15 17  1  0  0  0
 18 19  1  0  0  0
 18 24  1  0  0  0
 19 20  1  0  0  0
 19 22  1  0  0  0
 20 21  2  0  0  0
 20 25  1  0  0  0
 22 23  1  0  0  0
 23 24  1  0  0  0
 25 26  1  0  0  0
 26 27  1  0  0  0
 26 34  1  0  0  0
 27 28  1  0  0  0
 27 29  1  0  0  0
 29 30  1  0  0  0
 30 31  2  0  0  0
 30 32  1  0  0  0
 30 33  1  0  0  0
 34 35  2  0  0  0
 34 36  1  0  0  0
 36 37  1  0  0  0
 37 38  1  0  0  0
 37 40  1  0  0  0
 38 39  2  0  0  0
 38 45  1  0  0  0
 40 41  1  0  0  0
 41 42  1  0  0  0
 42 43  2  0  0  0
 42 44  1  0  0  0
 45 46  1  0  0  0
 46 47  1  0  0  0
 46 49  1  0  0  0
 47 48  2  0  0  0
 47 56  1  0  0  0
 49 50  1  0  0  0
 50 51  4  0  0  0
 50 52  4  0  0  0
 51 53  4  0  0  0
 52 54  4  0  0  0
 53 55  4  0  0  0
 54 55  4  0  0  0
 56 57  1  0  0  0
 57 58  1  0  0  0
 57 60  1  0  0  0
 58 59  1  0  0  0
 58 63  2  0  0  0
 60 61  1  0  0  0
 60 62  1  0  0  0
  1 64  1  0  0  0
  1 65  1  0  0  0
  1 66  1  0  0  0
  2 67  1  0  0  0
  5 68  1  0  0  0
  6 69  1  0  0  0
  6 70  1  0  0  0
  7 71  1  0  0  0
  7 72  1  0  0  0
  7 73  1  0  0  0
  8 74  1  0  0  0
  8 75  1  0  0  0
  8 76  1  0  0  0
  9 77  1  0  0  0
 10 78  1  0  0  0
 13 79  1  0  0  0
 13 80  1  0  0  0
 14 81  1  0  0  0
 14 82  1  0  0  0
 17 83  1  0  0  0
 17 84  1  0  0  0
 19 85  1  0  0  0
 22 86  1  0  0  0
 22 87  1  0  0  0
 23 88  1  0  0  0
 23 89  1  0  0  0
 24 90  1  0  0  0
 24 91  1  0  0  0
 25 92  1  0  0  0
 26 93  1  0  0  0
 27 94  1  0  0  0
 28 95  1  0  0  0
 28 96  1  0  0  0
 28 97  1  0  0  0
 32 98  1  0  0  0
 33 99  1  0  0  0
 36100  1  0  0  0
 37101  1  0  0  0
 40102  1  0  0  0
 40103  1  0  0  0
 41104  1  0  0  0
 41105  1  0  0  0
 44106  1  0  0  0
 44107  1  0  0  0
 45108  1  0  0  0
 46109  1  0  0  0
 49110  1  0  0  0
 49111  1  0  0  0
 51112  1  0  0  0
 52113  1  0  0  0
 53114  1  0  0  0
 54115  1  0  0  0
 55116  1  0  0  0
 56117  1  0  0  0
 57118  1  0  0  0
 59119  1  0  0  0
 60120  1  0  0  0
 61121  1  0  0  0
 61122  1  0  0  0
 61123  1  0  0  0
 62124  1  0  0  0
 62125  1  0  0  0
 62126  1  0  0  0
M  END
$$$$
