2izl_ligand
  -I-interpret- 

 33 34  0  0  0  0  0  0  0  0999 V2000
   29.2980   14.3270   -9.8890 C   0  0  0  0  0
   28.0900   14.1070   -9.8120 O   0  0  0  0  0
   30.0100   13.9020  -10.7890 O   0  0  0  0  0
   29.9750   15.2140   -8.8110 C   0  0  0  0  0
   31.4330   14.8050   -8.4620 C   0  0  0  0  0
   31.4760   13.4260   -7.7710 C   0  0  0  0  0
   32.8560   13.2180   -7.1340 C   0  0  0  0  0
   32.8280   11.9210   -6.2780 C   0  0  0  0  0
   32.0850   12.0150   -4.6360 S   0  0  0  0  0
   32.8850   10.4480   -4.1980 C   0  0  0  0  0
   34.2070   10.2490   -4.9770 C   0  0  0  0  0
   35.3210   10.7870   -4.1460 N   0  0  0  0  0
   35.8070   11.8830   -4.6390 C   0  0  0  0  0
   36.7610   12.5430   -4.0600 N   0  0  0  0  0
   35.2340   12.2360   -5.7600 N   0  0  0  0  0
   34.2240   11.2500   -6.2010 C   0  0  0  0  0
   27.7370   14.5362   -9.0292 H   0  0  0  0  0
   29.3878   15.1109   -7.8985 H   0  0  0  0  0
   30.0151   16.2272   -9.2110 H   0  0  0  0  0
   31.8492   15.5480   -7.7817 H   0  0  0  0  0
   32.0091   14.7493   -9.3856 H   0  0  0  0  0
   31.2937   12.6438   -8.5079 H   0  0  0  0  0
   30.7082   13.3819   -6.9986 H   0  0  0  0  0
   33.1010   14.0709   -6.5010 H   0  0  0  0  0
   33.6112   13.1269   -7.9147 H   0  0  0  0  0
   32.1322   11.2975   -6.8395 H   0  0  0  0  0
   32.2084    9.6321   -4.4521 H   0  0  0  0  0
   33.1113   10.4621   -3.1318 H   0  0  0  0  0
   34.2971    9.1966   -5.2461 H   0  0  0  0  0
   35.6605   10.3456   -3.2914 H   0  0  0  0  0
   37.1570   12.2035   -3.1835 H   0  0  0  0  0
   35.4573   13.0906   -6.2701 H   0  0  0  0  0
   34.4406   10.8067   -7.1729 H   0  0  0  0  0
  1  4  1  0  0  0
  1  3  2  0  0  0
  1  2  1  0  0  0
  4  5  1  0  0  0
  5  6  1  0  0  0
  6  7  1  0  0  0
  7  8  1  0  0  0
  8 16  1  0  0  0
  8  9  1  0  0  0
  9 10  1  0  0  0
 10 11  1  0  0  0
 11 16  1  0  0  0
 11 12  1  0  0  0
 12 13  1  0  0  0
 13 15  1  0  0  0
 13 14  2  0  0  0
 15 16  1  0  0  0
  2 17  1  0  0  0
  4 18  1  0  0  0
  4 19  1  0  0  0
  5 20  1  0  0  0
  5 21  1  0  0  0
  6 22  1  0  0  0
  6 23  1  0  0  0
  7 24  1  0  0  0
  7 25  1  0  0  0
  8 26  1  0  0  0
 10 27  1  0  0  0
 10 28  1  0  0  0
 11 29  1  0  0  0
 12 30  1  0  0  0
 14 31  1  0  0  0
 15 32  1  0  0  0
 16 33  1  0  0  0
M  END
$$$$
