5em8_ligand
  -I-interpret- 

 60 63  0  0  0  0  0  0  0  0999 V2000
  -52.9050   -0.2090  -14.1220 C   0  0  0  0  0
  -50.4370    0.0140  -14.4630 C   0  0  0  0  0
  -52.8400    0.6210  -18.9590 C   0  0  0  0  0
  -50.2630   -0.0370  -12.9320 C   0  0  0  0  0
  -52.0880    0.5140  -16.2410 C   0  0  0  0  0
  -51.4460   -0.3010  -17.1950 C   0  0  0  0  0
  -51.8120   -0.2420  -18.5380 C   0  0  0  0  0
  -53.4830    1.4170  -18.0100 C   0  0  0  0  0
  -53.1100    1.3700  -16.6750 C   0  0  0  0  0
  -51.3930   -0.7790  -12.3310 N   0  3  0  0  0
  -52.6870   -0.1300  -12.6050 C   0  0  0  0  0
  -51.2050   -1.0500  -10.8970 C   0  0  0  0  0
  -51.8030    0.4690  -14.8500 N   0  0  0  0  0
  -53.3190    0.7390  -20.2830 N   0  0  0  0  0
  -53.0060    0.0410  -21.4100 C   0  0  0  0  0
  -52.1740   -0.8470  -21.3460 O   0  0  0  0  0
  -53.7160    0.3280  -22.6990 C   0  0  0  0  0
  -53.3650   -0.3260  -23.9390 C   0  0  0  0  0
  -54.1050    0.0010  -25.1120 C   0  0  0  0  0
  -55.1410    0.8720  -25.0830 C   0  0  0  0  0
  -55.4720    1.5000  -23.9240 N   0  0  0  0  0
  -54.8160    1.2720  -22.7550 C   0  0  0  0  0
  -55.2030    1.9120  -21.7810 O   0  0  0  0  0
  -52.3010   -1.2250  -24.0500 N   0  0  0  0  0
  -52.3330   -2.5000  -24.6640 C   0  0  0  0  0
  -52.6550   -2.6320  -26.0290 C   0  0  0  0  0
  -52.6990   -3.8830  -26.6370 C   0  0  0  0  0
  -52.3640   -5.0200  -25.9010 C   0  0  0  0  0
  -52.0260   -4.9140  -24.5510 C   0  0  0  0  0
  -51.9740   -3.6580  -23.9260 C   0  0  0  0  0
  -51.6040   -3.5820  -22.6030 O   0  0  0  0  0
  -50.2090   -3.4370  -22.2690 C   0  0  0  0  0
  -53.8447    0.2856  -14.3679 H   0  0  0  0  0
  -52.9292   -1.2574  -14.4191 H   0  0  0  0  0
  -50.2854   -0.9903  -14.8587 H   0  0  0  0  0
  -49.7129    0.7217  -14.8668 H   0  0  0  0  0
  -50.2428    0.9779  -12.5349 H   0  0  0  0  0
  -49.3276   -0.5412  -12.6895 H   0  0  0  0  0
  -50.6566   -0.9831  -16.8794 H   0  0  0  0  0
  -51.2985   -0.8686  -19.2672 H   0  0  0  0  0
  -54.2875    2.0832  -18.3215 H   0  0  0  0  0
  -53.6190    2.0080  -15.9525 H   0  0  0  0  0
  -51.4090   -1.6896  -12.7904 H   0  0  0  0  0
  -53.4941   -0.6297  -12.0693 H   0  0  0  0  0
  -52.6823    0.9059  -12.2659 H   0  0  0  0  0
  -51.2398   -0.1116  -10.3436 H   0  0  0  0  0
  -51.9985   -1.7098  -10.5462 H   0  0  0  0  0
  -50.2379   -1.5286  -10.7427 H   0  0  0  0  0
  -54.0171    1.4704  -20.4176 H   0  0  0  0  0
  -53.8293   -0.4630  -26.0590 H   0  0  0  0  0
  -55.7108    1.0700  -25.9909 H   0  0  0  0  0
  -56.2425    2.1683  -23.9314 H   0  0  0  0  0
  -51.4105   -0.9327  -23.6476 H   0  0  0  0  0
  -52.8729   -1.7410  -26.6178 H   0  0  0  0  0
  -52.9936   -3.9741  -27.6825 H   0  0  0  0  0
  -52.3663   -5.9974  -26.3835 H   0  0  0  0  0
  -51.8007   -5.8132  -23.9776 H   0  0  0  0  0
  -49.6530   -4.2900  -22.6580 H   0  0  0  0  0
  -49.8243   -2.5183  -22.7119 H   0  0  0  0  0
  -50.0988   -3.3934  -21.1855 H   0  0  0  0  0
  1 11  1  0  0  0
 13  1  1  0  0  0
  2  4  1  0  0  0
 13  2  1  0  0  0
  7  3  4  0  0  0
  3  8  4  0  0  0
  3 14  1  0  0  0
  4 10  1  0  0  0
  6  5  4  0  0  0
  5  9  4  0  0  0
  5 13  1  0  0  0
  6  7  4  0  0  0
  8  9  4  0  0  0
 10 11  1  0  0  0
 10 12  1  0  0  0
 14 15  1  0  0  0
 15 16  2  0  0  0
 15 17  1  0  0  0
 17 18  2  0  0  0
 17 22  1  0  0  0
 18 19  1  0  0  0
 18 24  1  0  0  0
 19 20  2  0  0  0
 20 21  1  0  0  0
 21 22  1  0  0  0
 22 23  2  0  0  0
 24 25  1  0  0  0
 25 26  4  0  0  0
 25 30  4  0  0  0
 26 27  4  0  0  0
 27 28  4  0  0  0
 28 29  4  0  0  0
 29 30  4  0  0  0
 30 31  1  0  0  0
 31 32  1  0  0  0
  1 33  1  0  0  0
  1 34  1  0  0  0
  2 35  1  0  0  0
  2 36  1  0  0  0
  4 37  1  0  0  0
  4 38  1  0  0  0
  6 39  1  0  0  0
  7 40  1  0  0  0
  8 41  1  0  0  0
  9 42  1  0  0  0
 10 43  1  0  0  0
 11 44  1  0  0  0
 11 45  1  0  0  0
 12 46  1  0  0  0
 12 47  1  0  0  0
 12 48  1  0  0  0
 14 49  1  0  0  0
 19 50  1  0  0  0
 20 51  1  0  0  0
 21 52  1  0  0  0
 24 53  1  0  0  0
 26 54  1  0  0  0
 27 55  1  0  0  0
 28 56  1  0  0  0
 29 57  1  0  0  0
 32 58  1  0  0  0
 32 59  1  0  0  0
 32 60  1  0  0  0
M  END
$$$$
