4ark_ligand
  -I-interpret- 

 43 44  0  0  0  0  0  0  0  0999 V2000
   34.2470   27.2390   42.4370 C   0  0  0  0  0
   35.2130   26.4380   41.8890 C   0  0  0  0  0
   36.5180   26.5040   42.3200 C   0  0  0  0  0
   36.9050   27.3750   43.3090 C   0  0  0  0  0
   35.9320   28.1770   43.8510 C   0  0  0  0  0
   34.6270   28.1040   43.4200 C   0  0  0  0  0
   32.8850   27.2240   42.0410 N   0  0  0  0  0
   32.2050   26.4880   41.0410 C   0  0  0  0  0
   31.2730   27.1030   40.2430 C   0  0  0  0  0
   30.6100   26.4140   39.2760 C   0  0  0  0  0
   30.8500   25.0860   39.0840 C   0  0  0  0  0
   31.7640   24.4570   39.8710 C   0  0  0  0  0
   32.4350   25.1510   40.8420 C   0  0  0  0  0
   30.9430   28.5120   40.3680 C   0  0  0  0  0
   30.2560   29.1460   39.3820 N   0  0  0  0  0
   31.2810   29.1190   41.3220 O   0  0  0  0  0
   28.3960   27.5670   36.5940 C   0  0  0  0  0
   29.3830   28.1670   35.6070 C   0  0  0  0  0
   28.6780   29.1740   34.7170 C   0  0  0  0  0
   29.9010   27.1470   34.7840 O   0  0  0  0  0
   28.0870   30.1510   35.5470 O   0  0  0  0  0
   38.8510   27.4480   43.9280 I   0  0  0  0  0
   29.1050   26.4970   37.4050 C   0  0  0  0  0
   33.7260   28.8830   43.9510 F   0  0  0  0  0
   32.0010   23.1840   39.6830 F   0  0  0  0  0
   29.7130   27.0790   38.5310 O   0  0  0  0  0
   34.9439   25.7370   41.0989 H   0  0  0  0  0
   37.2622   25.8497   41.8659 H   0  0  0  0  0
   36.1975   28.8843   44.6367 H   0  0  0  0  0
   32.2880   27.8577   42.5725 H   0  0  0  0  0
   30.3163   24.5350   38.3096 H   0  0  0  0  0
   33.1630   24.6328   41.4662 H   0  0  0  0  0
   30.0366   30.1382   39.4701 H   0  0  0  0  0
   29.9597   28.6297   38.5537 H   0  0  0  0  0
   27.5564   27.1271   36.0558 H   0  0  0  0  0
   28.0185   28.3446   37.2581 H   0  0  0  0  0
   30.1826   28.6545   36.1648 H   0  0  0  0  0
   27.9150   28.6776   34.1175 H   0  0  0  0  0
   29.3910   29.6393   34.0364 H   0  0  0  0  0
   30.5246   27.5263   34.1604 H   0  0  0  0  0
   27.6344   30.7999   35.0032 H   0  0  0  0  0
   29.8680   26.0228   36.7877 H   0  0  0  0  0
   28.3796   25.7518   37.7314 H   0  0  0  0  0
  1  2  4  0  0  0
  1  6  4  0  0  0
  7  1  1  0  0  0
  2  3  4  0  0  0
  3  4  4  0  0  0
  5  4  4  0  0  0
  4 22  1  0  0  0
  6  5  4  0  0  0
  6 24  1  0  0  0
  8  7  1  0  0  0
  9  8  4  0  0  0
  8 13  4  0  0  0
 10  9  4  0  0  0
  9 14  1  0  0  0
 10 11  4  0  0  0
 26 10  1  0  0  0
 11 12  4  0  0  0
 12 13  4  0  0  0
 12 25  1  0  0  0
 14 15  1  0  0  0
 14 16  2  0  0  0
 17 18  1  0  0  0
 23 17  1  0  0  0
 18 19  1  0  0  0
 18 20  1  0  0  0
 19 21  1  0  0  0
 23 26  1  0  0  0
  2 27  1  0  0  0
  3 28  1  0  0  0
  5 29  1  0  0  0
  7 30  1  0  0  0
 11 31  1  0  0  0
 13 32  1  0  0  0
 15 33  1  0  0  0
 15 34  1  0  0  0
 17 35  1  0  0  0
 17 36  1  0  0  0
 18 37  1  0  0  0
 19 38  1  0  0  0
 19 39  1  0  0  0
 20 40  1  0  0  0
 21 41  1  0  0  0
 23 42  1  0  0  0
 23 43  1  0  0  0
M  END
$$$$
