2k1q_ligand
  -I-interpret- 

 86 86  0  0  0  0  0  0  0  0999 V2000
   13.2170   -8.6690   -3.9190 C   0  0  0  0  0
   12.4550   -9.5590   -4.2380 O   0  0  0  0  0
   14.2050   -8.9370   -3.2190 O   0  0  0  0  0
   15.2530   -9.1030   -3.8860 C   0  0  0  0  0
   15.3930  -10.5750   -4.2990 C   0  0  0  0  0
   16.4290  -10.6950   -5.4190 C   0  0  0  0  0
   15.8510  -11.4010   -3.0940 C   0  0  0  0  0
   12.9800   -7.4270   -4.2400 N   0  0  0  0  0
   13.0590   -6.3830   -3.1770 C   0  0  0  0  0
   11.7780   -5.5430   -3.1650 C   0  0  0  0  0
   11.3360   -5.0560   -4.1890 O   0  0  0  0  0
   14.2670   -5.5230   -3.5590 C   0  0  0  0  0
   14.4660   -4.4210   -2.5140 C   0  0  0  0  0
   15.6730   -3.5630   -2.8980 C   0  0  0  0  0
   15.8900   -3.3760   -4.0840 O   0  0  0  0  0
   16.3600   -3.1070   -2.0000 O   0  0  0  0  0
   11.1820   -5.3730   -2.0120 N   0  0  0  0  0
    9.9280   -4.5650   -1.9220 C   0  0  0  0  0
   10.2570   -3.0710   -1.9650 C   0  0  0  0  0
   11.2550   -2.6320   -1.4250 O   0  0  0  0  0
    9.3070   -4.9390   -0.5750 C   0  0  0  0  0
    8.4690   -6.2080   -0.7360 C   0  0  0  0  0
    9.3890   -7.3930   -1.0410 C   0  0  0  0  0
    7.7030   -6.4800    0.5610 C   0  0  0  0  0
    9.4240   -2.2900   -2.6040 N   0  0  0  0  0
    9.6800   -0.8210   -2.6900 C   0  0  0  0  0
    9.9860   -0.5560   -4.1640 C   0  0  0  0  0
   11.3370   -1.1760   -4.5230 C   0  0  0  0  0
   11.9450   -0.5000   -5.5200 F   0  0  0  0  0
   11.2050   -2.4620   -4.9120 F   0  0  0  0  0
    8.4410   -0.0370   -2.2490 C   0  0  0  0  0
    8.2060    1.0680   -2.7010 O   0  0  0  0  0
    7.6520   -0.5980   -1.3680 N   0  0  0  0  0
    6.4280    0.1170   -0.8920 C   0  0  0  0  0
    6.8390    0.7790    0.4280 C   0  0  0  0  0
    8.0270    1.6870    0.1960 C   0  0  0  0  0
    9.3450    1.1770    0.3430 C   0  0  0  0  0
    9.5560   -0.2640    0.7390 Cl  0  0  0  0  0
    7.8280    3.0430   -0.1770 C   0  0  0  0  0
   10.4620    2.0240    0.1170 C   0  0  0  0  0
    8.9460    3.8920   -0.4030 C   0  0  0  0  0
   10.2680    3.3850   -0.2560 C   0  0  0  0  0
   11.3650    4.2140   -0.4770 C   0  0  0  0  0
   11.1580    5.3750   -0.7960 O   0  0  0  0  0
   12.4840    3.7440   -0.3310 O   0  0  0  0  0
   16.1115   -8.8208   -3.2766 H   0  0  0  0  0
   15.2065   -8.4844   -4.7823 H   0  0  0  0  0
   14.4306  -10.9458   -4.6516 H   0  0  0  0  0
   17.3900  -10.3221   -5.0647 H   0  0  0  0  0
   16.5284  -11.7408   -5.7097 H   0  0  0  0  0
   16.1039  -10.1072   -6.2774 H   0  0  0  0  0
   15.9513  -12.4457   -3.3882 H   0  0  0  0  0
   16.8129  -11.0271   -2.7432 H   0  0  0  0  0
   15.1137  -11.3162   -2.2956 H   0  0  0  0  0
   12.7450   -7.1743   -5.1999 H   0  0  0  0  0
   13.1638   -6.8116   -2.1803 H   0  0  0  0  0
   14.0938   -5.0691   -4.5348 H   0  0  0  0  0
   15.1585   -6.1489   -3.5988 H   0  0  0  0  0
   14.6391   -4.8740   -1.5378 H   0  0  0  0  0
   13.5746   -3.7951   -2.4729 H   0  0  0  0  0
   15.2232   -3.8288   -4.6054 H   0  0  0  0  0
   11.5755   -5.7942   -1.1705 H   0  0  0  0  0
    9.2496   -4.7650   -2.7513 H   0  0  0  0  0
    8.6707   -4.1244   -0.2291 H   0  0  0  0  0
   10.0981   -5.1156    0.1537 H   0  0  0  0  0
    7.7632   -6.0753   -1.5560 H   0  0  0  0  0
    9.9357   -7.1988   -1.9638 H   0  0  0  0  0
   10.0941   -7.5246   -0.2202 H   0  0  0  0  0
    8.7899   -8.2964   -1.1554 H   0  0  0  0  0
    8.4113   -6.6123    1.3789 H   0  0  0  0  0
    7.0483   -5.6361    0.7786 H   0  0  0  0  0
    7.1058   -7.3846    0.4459 H   0  0  0  0  0
    8.5948   -2.6868   -3.0461 H   0  0  0  0  0
   10.4983   -0.5084   -2.0413 H   0  0  0  0  0
   10.0210    0.5191   -4.3405 H   0  0  0  0  0
    9.2063   -1.0002   -4.7827 H   0  0  0  0  0
   11.9429   -1.1233   -3.6184 H   0  0  0  0  0
    7.8727   -1.5254   -1.0052 H   0  0  0  0  0
    5.5898   -0.5664   -0.7559 H   0  0  0  0  0
    6.0817    0.8508   -1.6198 H   0  0  0  0  0
    7.1093    0.0081    1.1496 H   0  0  0  0  0
    6.0052    1.3666    0.8121 H   0  0  0  0  0
    6.8166    3.4334   -0.2902 H   0  0  0  0  0
   11.4724    1.6310    0.2294 H   0  0  0  0  0
    8.7906    4.9322   -0.6891 H   0  0  0  0  0
   12.4116    2.8200   -0.0810 H   0  0  0  0  0
  1  2  2  0  0  0
  1  3  1  0  0  0
  1  8  1  0  0  0
  3  4  1  0  0  0
  4  5  1  0  0  0
  5  6  1  0  0  0
  5  7  1  0  0  0
  8  9  1  0  0  0
  9 10  1  0  0  0
  9 12  1  0  0  0
 10 11  2  0  0  0
 10 17  1  0  0  0
 12 13  1  0  0  0
 13 14  1  0  0  0
 14 15  1  0  0  0
 14 16  2  0  0  0
 17 18  1  0  0  0
 18 19  1  0  0  0
 18 21  1  0  0  0
 19 20  2  0  0  0
 19 25  1  0  0  0
 21 22  1  0  0  0
 22 23  1  0  0  0
 22 24  1  0  0  0
 25 26  1  0  0  0
 26 27  1  0  0  0
 26 31  1  0  0  0
 27 28  1  0  0  0
 28 29  1  0  0  0
 28 30  1  0  0  0
 31 32  2  0  0  0
 31 33  1  0  0  0
 33 34  1  0  0  0
 34 35  1  0  0  0
 35 36  1  0  0  0
 36 37  4  0  0  0
 36 39  4  0  0  0
 37 38  1  0  0  0
 37 40  4  0  0  0
 39 41  4  0  0  0
 40 42  4  0  0  0
 41 42  4  0  0  0
 42 43  1  0  0  0
 43 44  2  0  0  0
 43 45  1  0  0  0
  4 46  1  0  0  0
  4 47  1  0  0  0
  5 48  1  0  0  0
  6 49  1  0  0  0
  6 50  1  0  0  0
  6 51  1  0  0  0
  7 52  1  0  0  0
  7 53  1  0  0  0
  7 54  1  0  0  0
  8 55  1  0  0  0
  9 56  1  0  0  0
 12 57  1  0  0  0
 12 58  1  0  0  0
 13 59  1  0  0  0
 13 60  1  0  0  0
 15 61  1  0  0  0
 17 62  1  0  0  0
 18 63  1  0  0  0
 21 64  1  0  0  0
 21 65  1  0  0  0
 22 66  1  0  0  0
 23 67  1  0  0  0
 23 68  1  0  0  0
 23 69  1  0  0  0
 24 70  1  0  0  0
 24 71  1  0  0  0
 24 72  1  0  0  0
 25 73  1  0  0  0
 26 74  1  0  0  0
 27 75  1  0  0  0
 27 76  1  0  0  0
 28 77  1  0  0  0
 33 78  1  0  0  0
 34 79  1  0  0  0
 34 80  1  0  0  0
 35 81  1  0  0  0
 35 82  1  0  0  0
 39 83  1  0  0  0
 40 84  1  0  0  0
 41 85  1  0  0  0
 45 86  1  0  0  0
M  END
$$$$
