6er4_ligand
  -I-interpret- 

 82 84  0  0  0  0  0  0  0  0999 V2000
   57.6400    7.5540   28.4090 C   0  0  0  0  0
   57.1890    8.0130   29.7850 C   0  0  0  0  0
   57.0000    9.5350   29.9080 C   0  0  0  0  0
   55.7570    9.9870   29.1590 C   0  0  0  0  0
   54.5160    9.2030   29.6120 C   0  0  0  0  0
   54.8170    7.7120   29.3950 C   0  0  0  0  0
   53.7220    6.7370   29.8180 C   0  0  0  0  0
   54.1920    5.2920   29.7120 C   0  0  0  0  0
   53.0010    4.3630   29.8150 C   0  0  0  0  0
   52.1900    9.8610   29.3820 C   0  0  0  0  0
   51.1520   10.4640   28.4910 C   0  0  0  0  0
   53.3480    9.6380   28.8390 N   0  0  0  0  0
   58.4570    8.2560   27.7570 O   0  0  0  0  0
   57.2140    6.4550   27.9710 O   0  0  0  0  0
   58.1540    7.6250   30.7500 O   0  0  0  0  0
   55.5980   11.3680   29.4850 O   0  0  0  0  0
   55.9790    7.3600   30.1790 O   0  0  0  0  0
   53.3040    7.0030   31.1520 O   0  0  0  0  0
   54.8950    5.0430   28.4740 O   0  0  0  0  0
   53.4420    3.0240   30.0140 O   0  0  0  0  0
   51.9500    9.5420   30.5560 O   0  0  0  0  0
   62.1050    6.5900   30.7870 C   0  0  0  0  0
   62.5630    5.1350   30.8590 C   0  0  0  0  0
   61.6450    4.2620   30.0110 C   0  0  0  0  0
   60.2000    4.4830   30.4330 C   0  0  0  0  0
   59.8810    5.9760   30.3970 C   0  0  0  0  0
   58.4650    6.2230   30.8560 C   0  0  0  0  0
   62.9380    7.3350   31.6530 O   0  0  0  0  0
   63.8840    5.0340   30.3320 O   0  0  0  0  0
   61.9970    2.8960   30.1450 O   0  0  0  0  0
   59.9890    4.0440   31.7800 O   0  0  0  0  0
   60.7860    6.7090   31.2550 O   0  0  0  0  0
   62.9180   10.8820   32.7060 C   0  0  0  0  0
   62.8390    9.3610   32.8550 C   0  0  0  0  0
   62.8510    8.7510   31.4560 C   0  0  0  0  0
   64.1000    9.2560   30.7220 C   0  0  0  0  0
   64.2040    8.7160   29.2850 C   0  0  0  0  0
   64.1620   11.2680   31.9140 C   0  0  0  0  0
   64.1770   12.6780   31.7010 O   0  0  0  0  0
   62.9920   11.4240   34.0420 O   0  0  0  0  0
   61.6530    9.0260   33.5850 O   0  0  0  0  0
   63.9900   10.6760   30.6250 O   0  0  0  0  0
   62.9660    8.8700   28.5630 O   0  0  0  0  0
   57.8694   10.0329   29.4787 H   0  0  0  0  0
   56.8880    9.7912   30.9615 H   0  0  0  0  0
   55.8640    9.8188   28.0874 H   0  0  0  0  0
   54.2897    9.3814   30.6632 H   0  0  0  0  0
   54.9399    7.6133   28.3165 H   0  0  0  0  0
   52.8807    6.8781   29.1395 H   0  0  0  0  0
   54.8861    5.1064   30.5317 H   0  0  0  0  0
   52.4242    4.4166   28.8917 H   0  0  0  0  0
   52.3827    4.6657   30.6601 H   0  0  0  0  0
   50.3171    9.7710   28.3871 H   0  0  0  0  0
   50.7984   11.3980   28.9276 H   0  0  0  0  0
   51.5864   10.6611   27.5109 H   0  0  0  0  0
   53.4497    9.7709   27.8328 H   0  0  0  0  0
   58.6607    9.0520   28.2535 H   0  0  0  0  0
   56.3752   11.8543   29.2004 H   0  0  0  0  0
   53.0080    7.9139   31.2178 H   0  0  0  0  0
   55.1741    4.1249   28.4449 H   0  0  0  0  0
   52.6801    2.4435   30.0779 H   0  0  0  0  0
   62.1568    6.9438   29.7573 H   0  0  0  0  0
   62.5370    4.8049   31.8975 H   0  0  0  0  0
   61.7569    4.5399   28.9630 H   0  0  0  0  0
   59.5649    3.9203   29.7488 H   0  0  0  0  0
   59.9970    6.3190   29.3689 H   0  0  0  0  0
   57.7789    5.6538   30.2288 H   0  0  0  0  0
   58.3636    5.9094   31.8950 H   0  0  0  0  0
   64.1757    4.1204   30.3755 H   0  0  0  0  0
   61.4101    2.3611   29.6055 H   0  0  0  0  0
   59.0725    4.1928   32.0240 H   0  0  0  0  0
   62.0512   11.2702   32.1712 H   0  0  0  0  0
   63.6874    8.9632   33.4118 H   0  0  0  0  0
   61.9700    9.0150   30.8710 H   0  0  0  0  0
   64.9755    8.9216   31.2785 H   0  0  0  0  0
   64.4408    7.6532   29.3352 H   0  0  0  0  0
   64.9770    9.2798   28.7628 H   0  0  0  0  0
   65.0671   10.9540   32.4340 H   0  0  0  0  0
   64.9617   12.9168   31.2021 H   0  0  0  0  0
   63.0433   12.3815   33.9953 H   0  0  0  0  0
   61.5970    8.0726   33.6822 H   0  0  0  0  0
   63.0700    8.5229   27.6740 H   0  0  0  0  0
  2  1  1  0  0  0
  1 13  1  0  0  0
  1 14  2  0  0  0
  2  3  1  0  0  0
 15  2  1  0  0  0
  2 17  1  0  0  0
  3  4  1  0  0  0
  4  5  1  0  0  0
  4 16  1  0  0  0
  6  5  1  0  0  0
  5 12  1  0  0  0
  6  7  1  0  0  0
 17  6  1  0  0  0
  7  8  1  0  0  0
  7 18  1  0  0  0
  8  9  1  0  0  0
  8 19  1  0  0  0
  9 20  1  0  0  0
 10 11  1  0  0  0
 12 10  1  0  0  0
 10 21  2  0  0  0
 27 15  1  0  0  0
 22 23  1  0  0  0
 28 22  1  0  0  0
 22 32  1  0  0  0
 23 24  1  0  0  0
 23 29  1  0  0  0
 24 25  1  0  0  0
 24 30  1  0  0  0
 26 25  1  0  0  0
 25 31  1  0  0  0
 26 27  1  0  0  0
 32 26  1  0  0  0
 35 28  1  0  0  0
 34 33  1  0  0  0
 33 38  1  0  0  0
 33 40  1  0  0  0
 34 35  1  0  0  0
 34 41  1  0  0  0
 35 36  1  0  0  0
 36 37  1  0  0  0
 36 42  1  0  0  0
 37 43  1  0  0  0
 38 39  1  0  0  0
 38 42  1  0  0  0
  3 44  1  0  0  0
  3 45  1  0  0  0
  4 46  1  0  0  0
  5 47  1  0  0  0
  6 48  1  0  0  0
  7 49  1  0  0  0
  8 50  1  0  0  0
  9 51  1  0  0  0
  9 52  1  0  0  0
 11 53  1  0  0  0
 11 54  1  0  0  0
 11 55  1  0  0  0
 12 56  1  0  0  0
 13 57  1  0  0  0
 16 58  1  0  0  0
 18 59  1  0  0  0
 19 60  1  0  0  0
 20 61  1  0  0  0
 22 62  1  0  0  0
 23 63  1  0  0  0
 24 64  1  0  0  0
 25 65  1  0  0  0
 26 66  1  0  0  0
 27 67  1  0  0  0
 27 68  1  0  0  0
 29 69  1  0  0  0
 30 70  1  0  0  0
 31 71  1  0  0  0
 33 72  1  0  0  0
 34 73  1  0  0  0
 35 74  1  0  0  0
 36 75  1  0  0  0
 37 76  1  0  0  0
 37 77  1  0  0  0
 38 78  1  0  0  0
 39 79  1  0  0  0
 40 80  1  0  0  0
 41 81  1  0  0  0
 43 82  1  0  0  0
M  END
$$$$
