1rmz_ligand
  -I-interpret- 

 41 41  0  0  0  0  0  0  0  0999 V2000
    5.6860   25.7730    5.1030 C   0  0  0  0  0
    4.8190   24.5880    5.4310 C   0  0  0  0  0
    5.3440   23.2220    5.0390 C   0  0  0  0  0
    6.7490   22.9920    4.6070 C   0  0  0  0  0
    7.5880   24.1570    4.3210 C   0  0  0  0  0
    6.9710   25.5300    4.3710 C   0  0  0  0  0
    4.8060   22.0520    5.6080 O   0  0  0  0  0
    3.4810   22.1230    6.1270 C   0  0  0  0  0
    8.0310   26.8030    4.1980 S   0  0  0  0  0
    9.4750   26.2970    4.2240 O   0  0  0  0  0
    7.7140   27.9250    5.2210 O   0  0  0  0  0
    7.8730   27.1890    2.6870 N   0  0  0  0  0
    6.7760   28.0630    2.2290 C   0  0  0  0  0
    8.7190   26.5180    1.6770 C   0  0  0  0  0
    7.8710   25.3180    1.2280 C   0  0  0  0  0
    8.5430   24.1350    0.8100 N   0  0  0  0  0
    7.8450   23.1190    0.5040 O   0  0  0  0  0
    6.8870   25.5300    0.2820 O   0  0  0  0  0
    7.2480   29.3240    1.4730 C   0  0  0  0  0
    7.6240   30.4300    2.4390 C   0  0  0  0  0
    6.2040   29.8250    0.4700 C   0  0  0  0  0
    5.3875   26.7813    5.3901 H   0  0  0  0  0
    3.8564   24.7069    5.9283 H   0  0  0  0  0
    7.1438   21.9811    4.5060 H   0  0  0  0  0
    8.6427   24.0327    4.0757 H   0  0  0  0  0
    3.4412   22.8733    6.9167 H   0  0  0  0  0
    2.7932   22.3983    5.3274 H   0  0  0  0  0
    3.1985   21.1515    6.5325 H   0  0  0  0  0
    6.2408   28.4006    3.1165 H   0  0  0  0  0
    6.1676   27.4809    1.5368 H   0  0  0  0  0
    9.6857   26.2157    2.0798 H   0  0  0  0  0
    8.9776   27.1769    0.8481 H   0  0  0  0  0
    9.5612   24.1039    0.7574 H   0  0  0  0  0
    8.4254   22.4003    0.2429 H   0  0  0  0  0
    8.1340   29.0363    0.9070 H   0  0  0  0  0
    6.7571   30.6906    3.0462 H   0  0  0  0  0
    8.4320   30.0871    3.0852 H   0  0  0  0  0
    7.9523   31.3048    1.8777 H   0  0  0  0  0
    6.0043   29.0450   -0.2647 H   0  0  0  0  0
    5.2834   30.0723    0.9987 H   0  0  0  0  0
    6.5841   30.7130   -0.0351 H   0  0  0  0  0
  1  2  4  0  0  0
  1  6  4  0  0  0
  2  3  4  0  0  0
  3  4  4  0  0  0
  3  7  1  0  0  0
  4  5  4  0  0  0
  5  6  4  0  0  0
  6  9  1  0  0  0
  7  8  1  0  0  0
  9 10  2  0  0  0
  9 11  2  0  0  0
  9 12  1  0  0  0
 12 13  1  0  0  0
 12 14  1  0  0  0
 13 19  1  0  0  0
 14 15  1  0  0  0
 15 16  1  0  0  0
 15 18  2  0  0  0
 16 17  1  0  0  0
 19 20  1  0  0  0
 19 21  1  0  0  0
  1 22  1  0  0  0
  2 23  1  0  0  0
  4 24  1  0  0  0
  5 25  1  0  0  0
  8 26  1  0  0  0
  8 27  1  0  0  0
  8 28  1  0  0  0
 13 29  1  0  0  0
 13 30  1  0  0  0
 14 31  1  0  0  0
 14 32  1  0  0  0
 16 33  1  0  0  0
 17 34  1  0  0  0
 19 35  1  0  0  0
 20 36  1  0  0  0
 20 37  1  0  0  0
 20 38  1  0  0  0
 21 39  1  0  0  0
 21 40  1  0  0  0
 21 41  1  0  0  0
M  END
$$$$
