3sdg_ligand
  -I-interpret- 

 39 41  0  0  0  0  0  0  0  0999 V2000
   14.0650   28.5710    0.9380 O   0  0  0  0  0
   13.8150   28.9810    2.0640 C   0  0  0  0  0
   14.8510   29.7920    2.8360 C   0  0  0  0  0
   16.3980   29.5300    2.5510 C   0  0  0  0  0
   16.9280   30.5910    1.6060 C   0  0  0  0  0
   16.1720   30.4340    0.5310 F   0  0  0  0  0
   18.1230   30.4250    1.1110 F   0  0  0  0  0
   16.8250   31.8100    2.1510 F   0  0  0  0  0
   12.6610   28.6460    2.6630 N   0  0  0  0  0
   12.4580   29.1150    4.0870 C   0  0  0  0  0
   11.0010   29.0190    4.5730 C   0  0  0  0  0
   10.4150   27.7030    4.0390 C   0  0  0  0  0
   10.3440   27.7780    2.5100 C   0  0  0  0  0
   11.7700   27.6770    2.0200 C   0  0  0  0  0
    9.0500   27.6030    4.4950 C   0  0  0  0  0
    7.9160   27.7350    3.7770 N   0  0  0  0  0
    6.9550   27.6500    4.6620 C   0  0  0  0  0
    7.4170   27.4490    5.8890 N   0  0  0  0  0
    8.8120   27.4440    5.7070 O   0  0  0  0  0
    5.6070   27.7120    4.2260 C   0  0  0  0  0
    4.2780   27.6730    5.2680 S   0  0  0  0  0
    3.0490   27.8340    4.0360 C   0  0  0  0  0
    3.7960   27.9580    2.8600 C   0  0  0  0  0
    5.1810   27.8860    2.9690 N   0  0  0  0  0
   14.7051   29.5162    3.8804 H   0  0  0  0  0
   14.6797   30.8264    2.5380 H   0  0  0  0  0
   16.5212   28.5466    2.0972 H   0  0  0  0  0
   16.9512   29.5717    3.4892 H   0  0  0  0  0
   12.7444   30.1660    4.1262 H   0  0  0  0  0
   13.0573   28.4699    4.7295 H   0  0  0  0  0
   10.4228   29.8674    4.2069 H   0  0  0  0  0
   10.9630   29.0363    5.6622 H   0  0  0  0  0
   11.0271   26.8655    4.3736 H   0  0  0  0  0
    9.8793   28.7078    2.1820 H   0  0  0  0  0
    9.7297   26.9744    2.1039 H   0  0  0  0  0
   12.1351   26.6781    2.2587 H   0  0  0  0  0
   11.7705   27.8821    0.9495 H   0  0  0  0  0
    1.9655   27.8370    4.1549 H   0  0  0  0  0
    3.3114   28.1054    1.8949 H   0  0  0  0  0
  1  2  2  0  0  0
  2  3  1  0  0  0
  2  9  1  0  0  0
  3  4  1  0  0  0
  4  5  1  0  0  0
  5  6  1  0  0  0
  5  7  1  0  0  0
  5  8  1  0  0  0
  9 10  1  0  0  0
  9 14  1  0  0  0
 10 11  1  0  0  0
 11 12  1  0  0  0
 12 13  1  0  0  0
 12 15  1  0  0  0
 13 14  1  0  0  0
 15 16  4  0  0  0
 15 19  4  0  0  0
 16 17  4  0  0  0
 17 18  4  0  0  0
 17 20  1  0  0  0
 18 19  4  0  0  0
 20 21  4  0  0  0
 20 24  4  0  0  0
 21 22  4  0  0  0
 22 23  4  0  0  0
 23 24  4  0  0  0
  3 25  1  0  0  0
  3 26  1  0  0  0
  4 27  1  0  0  0
  4 28  1  0  0  0
 10 29  1  0  0  0
 10 30  1  0  0  0
 11 31  1  0  0  0
 11 32  1  0  0  0
 12 33  1  0  0  0
 13 34  1  0  0  0
 13 35  1  0  0  0
 14 36  1  0  0  0
 14 37  1  0  0  0
 22 38  1  0  0  0
 23 39  1  0  0  0
M  END
$$$$
