6oe0_ligand
  -I-interpret- 

 49 51  0  0  0  0  0  0  0  0999 V2000
   -0.8690    4.5530   84.6360 C   0  0  0  0  0
   -3.0880    5.4230   84.7410 C   0  0  0  0  0
   -1.2450    3.4370   85.3920 C   0  0  0  0  0
   -3.4390    4.3300   85.4910 C   0  0  0  0  0
   -1.7990    5.5240   84.3010 C   0  0  0  0  0
   -2.5460    3.3530   85.8150 C   0  0  0  0  0
   -2.9040    9.7500   80.2880 C   0  0  0  0  0
   -2.2750    7.6860   79.5460 C   0  0  0  0  0
   -2.1950    7.3680   82.6120 C   0  0  0  0  0
   -6.3420   10.9600   77.5430 C   0  0  0  0  0
   -5.1880   11.7160   76.9550 C   0  0  0  0  0
   -5.9120    9.5580   77.8950 C   0  0  0  0  0
   -3.9870   11.8900   77.8500 C   0  0  0  0  0
   -5.0710    9.4710   79.1530 C   0  0  0  0  0
   -3.1210   10.6670   78.0170 C   0  0  0  0  0
   -3.5870    9.5920   78.9810 C   0  0  0  0  0
   -1.3860    8.3680   81.7560 C   0  0  0  0  0
   -3.1390    8.2600   78.6460 N   0  0  0  0  0
   -2.0850    8.6600   80.5160 N   0  0  0  0  0
   -2.4930    0.5520   86.1130 N   0  0  0  0  0
   -1.3900    6.6450   83.4910 N   0  0  0  0  0
   -3.0210   10.7410   80.9960 O   0  0  0  0  0
   -1.7420    6.5800   79.4490 O   0  0  0  0  0
   -3.4100    7.2720   82.4720 O   0  0  0  0  0
   -2.6700    2.0400   88.1180 O   0  0  0  0  0
   -4.5650    2.0490   86.6550 O   0  0  0  0  0
   -3.1030    1.9590   86.7580 S   0  0  0  0  0
    0.1649    4.6594   84.3077 H   0  0  0  0  0
   -3.8209    6.1935   84.5015 H   0  0  0  0  0
   -0.5241    2.6571   85.6373 H   0  0  0  0  0
   -4.4676    4.2396   85.8400 H   0  0  0  0  0
   -7.1511   10.9153   76.8140 H   0  0  0  0  0
   -6.6825   11.4685   78.4450 H   0  0  0  0  0
   -5.5570   12.7187   76.7394 H   0  0  0  0  0
   -4.8484   11.1370   76.0962 H   0  0  0  0  0
   -5.3013    9.1897   77.0707 H   0  0  0  0  0
   -6.8167    8.9756   78.0690 H   0  0  0  0  0
   -4.3703   12.1371   78.8400 H   0  0  0  0  0
   -3.3616   12.6528   77.3862 H   0  0  0  0  0
   -5.2455    8.4759   79.5623 H   0  0  0  0  0
   -5.3710   10.3155   79.7734 H   0  0  0  0  0
   -2.1787   11.0329   78.4248 H   0  0  0  0  0
   -3.1025   10.1893   77.0374 H   0  0  0  0  0
   -0.4166    7.9288   81.5206 H   0  0  0  0  0
   -1.2604    9.2937   82.3177 H   0  0  0  0  0
   -3.4434    7.7791   77.7995 H   0  0  0  0  0
   -1.9210   -0.0666   86.6879 H   0  0  0  0  0
   -2.6910    0.3080   85.1426 H   0  0  0  0  0
   -0.4160    6.9376   83.5689 H   0  0  0  0  0
  1  3  4  0  0  0
  5  1  4  0  0  0
  2  4  4  0  0  0
  5  2  4  0  0  0
  3  6  4  0  0  0
  4  6  4  0  0  0
 21  5  1  0  0  0
  6 27  1  0  0  0
  7 16  1  0  0  0
 19  7  1  0  0  0
  7 22  2  0  0  0
  8 18  1  0  0  0
 19  8  1  0  0  0
  8 23  2  0  0  0
 17  9  1  0  0  0
  9 21  1  0  0  0
  9 24  2  0  0  0
 11 10  1  0  0  0
 12 10  1  0  0  0
 13 11  1  0  0  0
 14 12  1  0  0  0
 15 13  1  0  0  0
 16 14  1  0  0  0
 16 15  1  0  0  0
 18 16  1  0  0  0
 17 19  1  0  0  0
 27 20  1  0  0  0
 27 25  2  0  0  0
 27 26  2  0  0  0
  1 28  1  0  0  0
  2 29  1  0  0  0
  3 30  1  0  0  0
  4 31  1  0  0  0
 10 32  1  0  0  0
 10 33  1  0  0  0
 11 34  1  0  0  0
 11 35  1  0  0  0
 12 36  1  0  0  0
 12 37  1  0  0  0
 13 38  1  0  0  0
 13 39  1  0  0  0
 14 40  1  0  0  0
 14 41  1  0  0  0
 15 42  1  0  0  0
 15 43  1  0  0  0
 17 44  1  0  0  0
 17 45  1  0  0  0
 18 46  1  0  0  0
 20 47  1  0  0  0
 20 48  1  0  0  0
 21 49  1  0  0  0
M  END
$$$$
