6hhr_ligand
  -I-interpret- 

 31 33  0  0  0  0  0  0  0  0999 V2000
   64.5570   32.5020   27.0680 C   0  0  0  0  0
   63.2990   32.8280   26.5580 C   0  0  0  0  0
   63.2070   33.6090   25.4090 C   0  0  0  0  0
   64.2610   34.9760   23.6210 C   0  0  0  0  0
   64.4860   36.7690   22.3550 C   0  0  0  0  0
   65.7010   36.8360   24.4810 C   0  0  0  0  0
   67.0730   36.9160   24.2230 C   0  0  0  0  0
   67.9280   37.5050   25.1560 C   0  0  0  0  0
   67.4160   38.0080   26.3520 C   0  0  0  0  0
   66.0500   37.9280   26.6120 C   0  0  0  0  0
   64.3790   34.0650   24.7770 C   0  0  0  0  0
   65.6450   33.7490   25.3130 C   0  0  0  0  0
   65.7250   32.9650   26.4530 C   0  0  0  0  0
   63.5310   34.7800   22.5570 N   0  0  0  0  0
   63.6780   35.8990   21.7290 N   0  0  0  0  0
   64.8540   36.2270   23.5310 N   0  0  0  0  0
   65.1940   37.3420   25.6800 C   0  0  0  0  0
   64.9770   38.2910   21.7600 S   0  0  0  0  0
   67.5510   36.4190   23.0590 F   0  0  0  0  0
   61.9880   33.9160   24.8920 O   0  0  0  0  0
   64.6490   31.7490   28.1880 O   0  0  0  0  0
   62.3960   32.4739   27.0553 H   0  0  0  0  0
   68.9962   37.5719   24.9498 H   0  0  0  0  0
   68.0845   38.4634   27.0827 H   0  0  0  0  0
   65.6495   38.3240   27.5452 H   0  0  0  0  0
   66.5523   34.1182   24.8348 H   0  0  0  0  0
   66.6987   32.7090   26.8707 H   0  0  0  0  0
   63.2479   36.0299   20.8134 H   0  0  0  0  0
   64.1259   37.2787   25.8879 H   0  0  0  0  0
   62.1016   34.4564   24.1067 H   0  0  0  0  0
   65.5740   31.6145   28.4067 H   0  0  0  0  0
  2  1  4  0  0  0
  1 13  4  0  0  0
  1 21  1  0  0  0
  3  2  4  0  0  0
 11  3  4  0  0  0
  3 20  1  0  0  0
  4 11  1  0  0  0
  4 14  2  0  0  0
 16  4  1  0  0  0
  5 15  1  0  0  0
 16  5  1  0  0  0
  5 18  2  0  0  0
  6  7  4  0  0  0
  6 16  1  0  0  0
  6 17  4  0  0  0
  7  8  4  0  0  0
  7 19  1  0  0  0
  8  9  4  0  0  0
  9 10  4  0  0  0
 10 17  4  0  0  0
 11 12  4  0  0  0
 12 13  4  0  0  0
 14 15  1  0  0  0
  2 22  1  0  0  0
  8 23  1  0  0  0
  9 24  1  0  0  0
 10 25  1  0  0  0
 12 26  1  0  0  0
 13 27  1  0  0  0
 15 28  1  0  0  0
 17 29  1  0  0  0
 20 30  1  0  0  0
 21 31  1  0  0  0
M  END
$$$$
