5oy3_ligand
  -I-interpret- 

269269  0  0  0  0  0  0  0  0999 V2000
  113.6040  -28.1210   15.4980 N   0  3  0  0  0
  113.3880  -26.7610   15.9760 C   0  0  0  0  0
  112.7820  -26.8160   17.3790 C   0  0  0  0  0
  112.2750  -27.8550   17.8000 O   0  0  0  0  0
  112.4660  -25.9850   15.0230 C   0  0  0  0  0
  112.9760  -25.8190   13.5840 C   0  0  0  0  0
  111.9130  -25.2080   12.6420 C   0  0  0  0  0
  110.5640  -25.2530   13.2200 N   0  0  0  0  0
  109.7190  -24.2230   13.3090 C   0  0  0  0  0
  110.0410  -23.0170   12.8280 N   0  0  0  0  0
  108.5240  -24.4150   13.8770 N   0  0  0  0  0
  112.8500  -25.6930   18.0930 N   0  0  0  0  0
  112.1780  -25.5590   19.3800 C   0  0  0  0  0
  110.6720  -25.3790   19.2120 C   0  0  0  0  0
  110.2110  -24.6130   18.3590 O   0  0  0  0  0
  112.7510  -24.3730   20.1330 C   0  0  0  0  0
  114.2400  -24.4710   20.2940 C   0  0  0  0  0
  114.7710  -23.4060   21.2200 C   0  0  0  0  0
  116.3140  -23.3680   21.1910 C   0  0  0  0  0
  116.9550  -24.7170   20.9980 N   0  3  0  0  0
  109.9080  -26.1010   20.0370 N   0  0  0  0  0
  108.4530  -25.9970   20.0670 C   0  0  0  0  0
  108.0540  -24.8430   20.9840 C   0  0  0  0  0
  108.1860  -24.9290   22.2090 O   0  0  0  0  0
  107.8150  -27.3080   20.5180 C   0  0  0  0  0
  106.2970  -27.1800   20.7260 C   0  0  0  0  0
  105.6110  -28.5050   20.9040 C   0  0  0  0  0
  106.2440  -29.5280   21.2190 O   0  0  0  0  0
  104.3030  -28.5070   20.6880 N   0  0  0  0  0
  107.5630  -23.7680   20.3780 N   0  0  0  0  0
  107.2220  -22.5330   21.0640 C   0  0  0  0  0
  105.7150  -22.5020   21.3370 C   0  0  0  0  0
  104.9150  -22.6590   20.4110 O   0  0  0  0  0
  107.6410  -21.3370   20.2070 C   0  0  0  0  0
  109.1120  -21.3030   19.7920 C   0  0  0  0  0
  109.3560  -20.1680   18.8370 C   0  0  0  0  0
  110.0300  -21.1900   21.0130 C   0  0  0  0  0
  105.3330  -22.2870   22.5980 N   0  0  0  0  0
  103.9410  -22.4300   23.0270 C   0  0  0  0  0
  103.1920  -21.1010   22.9140 C   0  0  0  0  0
  103.7620  -20.0350   23.1610 O   0  0  0  0  0
  103.8810  -22.9330   24.4720 C   0  0  0  0  0
  104.5770  -24.2960   24.7290 C   0  0  0  0  0
  104.1970  -25.6490   23.5790 S   0  0  0  0  0
  102.5160  -26.0870   24.0580 C   0  0  0  0  0
  101.8990  -21.1760   22.5530 N   0  0  0  0  0
  101.0300  -20.0070   22.3770 C   0  0  0  0  0
   99.6890  -20.2220   23.0660 C   0  0  0  0  0
   99.1600  -21.3290   23.0500 O   0  0  0  0  0
  100.7280  -19.7500   20.8880 C   0  0  0  0  0
  100.3400  -20.9890   20.2660 O   0  0  0  0  0
  101.9070  -19.1870   20.1610 C   0  0  0  0  0
   99.1160  -19.1590   23.6300 N   0  0  0  0  0
   97.7220  -19.1940   24.0730 C   0  0  0  0  0
   96.7900  -19.0710   22.8690 C   0  0  0  0  0
   97.0220  -18.2630   21.9660 O   0  0  0  0  0
   97.4610  -18.0730   25.0750 C   0  0  0  0  0
   98.3480  -18.1390   26.2950 C   0  0  0  0  0
   98.0030  -17.0400   27.2680 C   0  0  0  0  0
   99.2480  -16.6430   28.0370 C   0  0  0  0  0
   99.0080  -15.6300   29.1210 N   0  3  0  0  0
   95.7530  -19.9000   22.8330 N   0  0  0  0  0
   94.7870  -19.8130   21.7520 C   0  0  0  0  0
   93.9450  -18.5750   21.9640 C   0  0  0  0  0
   93.6290  -18.2090   23.0980 O   0  0  0  0  0
   93.9080  -21.0650   21.6890 C   0  0  0  0  0
   93.6660  -17.8800   20.8730 N   0  0  0  0  0
   92.9050  -16.6370   20.8840 C   0  0  0  0  0
   91.4880  -16.9420   20.4470 C   0  0  0  0  0
   91.2910  -17.6080   19.4220 O   0  0  0  0  0
   93.5320  -15.6230   19.9290 C   0  0  0  0  0
   90.5070  -16.4480   21.2060 N   0  0  0  0  0
   89.1100  -16.7340   20.9080 C   0  0  0  0  0
   88.2040  -15.5870   21.3500 C   0  0  0  0  0
   88.2620  -15.1470   22.5010 O   0  0  0  0  0
   88.6820  -18.0460   21.5860 C   0  0  0  0  0
   87.1860  -18.3350   21.5200 C   0  0  0  0  0
   86.8360  -19.7610   21.9410 C   0  0  0  0  0
   85.3830  -19.9340   21.8850 N   0  0  0  0  0
   84.5450  -19.6870   22.8950 C   0  0  0  0  0
   84.9770  -19.2880   24.0770 N   0  0  0  0  0
   83.2490  -19.8490   22.7280 N   0  0  0  0  0
   87.3550  -15.1250   20.4330 N   0  0  0  0  0
   86.2560  -14.2350   20.7990 C   0  0  0  0  0
   85.2890  -14.9330   21.7460 C   0  0  0  0  0
   84.8470  -16.0450   21.4810 O   0  0  0  0  0
   85.4870  -13.7910   19.5550 C   0  0  0  0  0
   84.3450  -12.7690   19.8740 C   0  0  0  0  0
   83.4250  -12.5550   18.6660 C   0  0  0  0  0
   84.2320  -12.0640   17.4680 C   0  0  0  0  0
   83.3210  -11.8500   16.3220 N   0  3  0  0  0
   84.9090  -14.2440   22.8160 N   0  0  0  0  0
   83.9390  -14.7540   23.7710 C   0  0  0  0  0
   83.2290  -13.5680   24.4280 C   0  0  0  0  0
   83.8670  -12.5790   24.8080 O   0  0  0  0  0
   84.6360  -15.6220   24.8080 C   0  0  0  0  0
   83.7070  -16.1110   25.7500 O   0  0  0  0  0
   81.9070  -13.6450   24.5370 N   0  0  0  0  0
   81.1690  -12.5570   25.1520 C   0  0  0  0  0
   81.6450  -12.3020   26.5840 C   0  0  0  0  0
   82.1780  -13.1920   27.2590 O   0  0  0  0  0
   79.6810  -12.8750   25.1960 C   0  0  0  0  0
   81.3850  -11.1120   27.0970 N   0  0  0  0  0
   81.7010  -10.8410   28.4960 C   0  0  0  0  0
   80.8200  -11.6490   29.4480 C   0  0  0  0  0
   79.7080  -12.0890   29.1120 O   0  0  0  0  0
   81.4570   -9.3290   28.6220 C   0  0  0  0  0
   80.6380   -8.9560   27.4830 C   0  0  0  0  0
   80.8800   -9.9180   26.4000 C   0  0  0  0  0
   81.3630  -11.8740   30.6400 N   0  0  0  0  0
   80.7010  -12.6520   31.6850 C   0  0  0  0  0
   80.8910  -11.9680   33.0310 C   0  0  0  0  0
   81.9820  -11.4710   33.3450 O   0  0  0  0  0
   81.2530  -14.0680   31.7750 C   0  0  0  0  0
   79.8200  -11.9550   33.8160 N   0  0  0  0  0
   79.8000  -11.3790   35.1510 C   0  0  0  0  0
   79.8820  -12.4290   36.2590 C   0  0  0  0  0
   80.2960  -12.1180   37.3840 O   0  0  0  0  0
   78.5050  -10.5760   35.3250 C   0  0  0  0  0
   77.3910  -11.4540   35.1480 O   0  0  0  0  0
   78.4080   -9.4860   34.3210 C   0  0  0  0  0
   79.4480  -13.6520   35.9820 N   0  0  0  0  0
   79.5910  -14.7510   36.9260 C   0  0  0  0  0
   79.7860  -16.0670   36.1770 C   0  0  0  0  0
   79.9550  -16.0560   34.9450 O   0  0  0  0  0
   79.7740  -17.1410   36.8040 O   0  0  0  0  0
  114.2178  -28.6145   16.1462 H   0  0  0  0  0
  112.7085  -28.6059   15.4399 H   0  0  0  0  0
  114.0363  -28.0909   14.5746 H   0  0  0  0  0
  114.3438  -26.2382   16.0107 H   0  0  0  0  0
  112.3751  -24.9797   15.4345 H   0  0  0  0  0
  111.5408  -26.5575   14.9568 H   0  0  0  0  0
  113.2324  -26.8076   13.2033 H   0  0  0  0  0
  113.8309  -25.1433   13.6074 H   0  0  0  0  0
  111.9051  -25.7886   11.7195 H   0  0  0  0  0
  112.1730  -24.1633   12.4713 H   0  0  0  0  0
  110.2443  -26.1499   13.5857 H   0  0  0  0  0
  109.3756  -22.2469   12.8951 H   0  0  0  0  0
  110.9520  -22.8676   12.3941 H   0  0  0  0  0
  108.2709  -25.3365   14.2335 H   0  0  0  0  0
  113.3868  -24.9056   17.7293 H   0  0  0  0  0
  112.3465  -26.4765   19.9439 H   0  0  0  0  0
  112.3026  -24.3526   21.1263 H   0  0  0  0  0
  112.5297  -23.4702   19.5637 H   0  0  0  0  0
  114.7012  -24.3370   19.3155 H   0  0  0  0  0
  114.4763  -25.4461   20.7200 H   0  0  0  0  0
  114.4455  -23.6312   22.2356 H   0  0  0  0  0
  114.3909  -22.4377   20.8943 H   0  0  0  0  0
  116.6467  -22.9865   22.1563 H   0  0  0  0  0
  116.6068  -22.7463   20.3449 H   0  0  0  0  0
  117.9695  -24.6119   20.9895 H   0  0  0  0  0
  116.6823  -25.3343   21.7629 H   0  0  0  0  0
  116.6458  -25.1153   20.1113 H   0  0  0  0  0
  110.3626  -26.7545   20.6747 H   0  0  0  0  0
  108.0873  -25.7962   19.0600 H   0  0  0  0  0
  108.2632  -27.5911   21.4704 H   0  0  0  0  0
  107.9873  -28.0520   19.7402 H   0  0  0  0  0
  105.8799  -26.7087   19.8361 H   0  0  0  0  0
  106.1355  -26.5994   21.6343 H   0  0  0  0  0
  103.7725  -29.3735   20.7783 H   0  0  0  0  0
  103.8271  -27.6420   20.4315 H   0  0  0  0  0
  107.4163  -23.8119   19.3696 H   0  0  0  0  0
  107.7514  -22.4798   22.0153 H   0  0  0  0  0
  107.4703  -20.4474   20.8134 H   0  0  0  0  0
  107.0614  -21.3987   19.2859 H   0  0  0  0  0
  109.3453  -22.2410   19.2881 H   0  0  0  0  0
  108.7374  -20.3021   17.9496 H   0  0  0  0  0
  109.0995  -19.2258   19.3213 H   0  0  0  0  0
  110.4075  -20.1560   18.5500 H   0  0  0  0  0
  109.7999  -20.2729   21.5553 H   0  0  0  0  0
  109.8721  -22.0488   21.6654 H   0  0  0  0  0
  111.0690  -21.1682   20.6841 H   0  0  0  0  0
  106.0350  -22.0138   23.2857 H   0  0  0  0  0
  103.4606  -23.1558   22.3709 H   0  0  0  0  0
  102.8265  -23.0710   24.7110 H   0  0  0  0  0
  104.4039  -22.1957   25.0811 H   0  0  0  0  0
  104.2255  -24.6291   25.7055 H   0  0  0  0  0
  105.6455  -24.1081   24.6233 H   0  0  0  0  0
  102.5067  -26.3984   25.1025 H   0  0  0  0  0
  101.8658  -25.2216   23.9297 H   0  0  0  0  0
  102.1622  -26.9050   23.4305 H   0  0  0  0  0
  101.4986  -22.1002   22.3920 H   0  0  0  0  0
  101.5620  -19.1598   22.8098 H   0  0  0  0  0
   99.9229  -19.0172   20.8339 H   0  0  0  0  0
  100.1507  -20.8342   19.3377 H   0  0  0  0  0
  102.1949  -18.2397   20.6169 H   0  0  0  0  0
  102.7388  -19.8887   20.2220 H   0  0  0  0  0
  101.6437  -19.0236   19.1160 H   0  0  0  0  0
   99.6595  -18.3050   23.7552 H   0  0  0  0  0
   97.5272  -20.1464   24.5661 H   0  0  0  0  0
   96.4295  -18.1693   25.4137 H   0  0  0  0  0
   97.6658  -17.1284   24.5712 H   0  0  0  0  0
   99.3852  -18.0187   25.9823 H   0  0  0  0  0
   98.2005  -19.1014   26.7851 H   0  0  0  0  0
   97.2418  -17.3938   27.9633 H   0  0  0  0  0
   97.6198  -16.1772   26.7232 H   0  0  0  0  0
   99.9362  -16.1915   27.3225 H   0  0  0  0  0
   99.6289  -17.5438   28.5182 H   0  0  0  0  0
   99.8898  -15.4178   29.5877 H   0  0  0  0  0
   98.6258  -14.7782   28.7101 H   0  0  0  0  0
   98.3461  -16.0089   29.7983 H   0  0  0  0  0
   95.6348  -20.5993   23.5661 H   0  0  0  0  0
   95.3130  -19.7465   20.7996 H   0  0  0  0  0
   94.5361  -21.9404   21.5239 H   0  0  0  0  0
   93.3679  -21.1759   22.6293 H   0  0  0  0  0
   93.1964  -20.9669   20.8692 H   0  0  0  0  0
   94.0014  -18.2330   19.9767 H   0  0  0  0  0
   92.9087  -16.2117   21.8876 H   0  0  0  0  0
   94.5559  -15.4169   20.2410 H   0  0  0  0  0
   93.5339  -16.0308   18.9182 H   0  0  0  0  0
   92.9520  -14.7003   19.9488 H   0  0  0  0  0
   90.7393  -15.8611   22.0072 H   0  0  0  0  0
   89.0092  -16.8428   19.8281 H   0  0  0  0  0
   88.9434  -17.9595   22.6406 H   0  0  0  0  0
   89.1864  -18.8560   21.0592 H   0  0  0  0  0
   86.8677  -18.2060   20.4855 H   0  0  0  0  0
   86.6849  -17.6530   22.2069 H   0  0  0  0  0
   87.1878  -19.9402   22.9570 H   0  0  0  0  0
   87.3160  -20.4706   21.2671 H   0  0  0  0  0
   84.9809  -20.2681   21.0091 H   0  0  0  0  0
   84.3123  -19.1140   24.8308 H   0  0  0  0  0
   85.9755  -19.1538   24.2364 H   0  0  0  0  0
   82.8861  -20.1628   21.8279 H   0  0  0  0  0
   87.4746  -15.3978   19.4575 H   0  0  0  0  0
   86.6877  -13.3653   21.2943 H   0  0  0  0  0
   85.0272  -14.6761   19.1155 H   0  0  0  0  0
   86.1936  -13.3009   18.8852 H   0  0  0  0  0
   84.8007  -11.8134   20.1333 H   0  0  0  0  0
   83.7481  -13.1651   20.6955 H   0  0  0  0  0
   82.6725  -11.8081   18.9190 H   0  0  0  0  0
   82.9469  -13.5006   18.4102 H   0  0  0  0  0
   84.9836  -12.8079   17.2037 H   0  0  0  0  0
   84.7282  -11.1269   17.7206 H   0  0  0  0  0
   83.8578  -11.5216   15.5192 H   0  0  0  0  0
   82.8594  -12.7288   16.0874 H   0  0  0  0  0
   82.6200  -11.1526   16.5721 H   0  0  0  0  0
   85.3136  -13.3211   22.9738 H   0  0  0  0  0
   83.2000  -15.3743   23.2639 H   0  0  0  0  0
   85.3831  -15.0216   25.3271 H   0  0  0  0  0
   85.1061  -16.4664   24.3039 H   0  0  0  0  0
   84.1638  -16.6556   26.3953 H   0  0  0  0  0
   81.4122  -14.4664   24.1894 H   0  0  0  0  0
   81.3462  -11.6689   24.5454 H   0  0  0  0  0
   79.3122  -13.0228   24.1810 H   0  0  0  0  0
   79.5219  -13.7830   25.7776 H   0  0  0  0  0
   79.1472  -12.0461   25.6608 H   0  0  0  0  0
   82.7169  -11.1287   28.7666 H   0  0  0  0  0
   82.3974   -8.7778   28.6278 H   0  0  0  0  0
   80.9585   -9.0878   29.5609 H   0  0  0  0  0
   80.8969   -7.9503   27.1520 H   0  0  0  0  0
   79.5845   -8.9677   27.7625 H   0  0  0  0  0
   79.9804  -10.1253   25.8205 H   0  0  0  0  0
   81.5852   -9.5405   25.6596 H   0  0  0  0  0
   82.2857  -11.4852   30.8347 H   0  0  0  0  0
   79.6433  -12.7102   31.4280 H   0  0  0  0  0
   81.1022  -14.5766   30.8228 H   0  0  0  0  0
   82.3183  -14.0275   32.0020 H   0  0  0  0  0
   80.7323  -14.6101   32.5644 H   0  0  0  0  0
   78.9603  -12.3740   33.4614 H   0  0  0  0  0
   80.6815  -10.7443   35.2416 H   0  0  0  0  0
   78.5053  -10.1352   36.3219 H   0  0  0  0  0
   76.5751  -10.9596   35.2552 H   0  0  0  0  0
   79.2548   -8.8097   34.4378 H   0  0  0  0  0
   78.4193   -9.9147   33.3189 H   0  0  0  0  0
   77.4789   -8.9363   34.4720 H   0  0  0  0  0
   79.0014  -13.8271   35.0818 H   0  0  0  0  0
   78.6898  -14.8174   37.5356 H   0  0  0  0  0
   80.4600  -14.5679   37.5580 H   0  0  0  0  0
   79.6332  -16.9640   37.7370 H   0  0  0  0  0
  1  2  1  0  0  0
  2  3  1  0  0  0
  2  5  1  0  0  0
  3  4  2  0  0  0
  3 12  1  0  0  0
  5  6  1  0  0  0
  6  7  1  0  0  0
  7  8  1  0  0  0
  8  9  1  0  0  0
  9 10  1  0  0  0
  9 11  2  0  0  0
 12 13  1  0  0  0
 13 14  1  0  0  0
 13 16  1  0  0  0
 14 15  2  0  0  0
 14 21  1  0  0  0
 16 17  1  0  0  0
 17 18  1  0  0  0
 18 19  1  0  0  0
 19 20  1  0  0  0
 21 22  1  0  0  0
 22 23  1  0  0  0
 22 25  1  0  0  0
 23 24  2  0  0  0
 23 30  1  0  0  0
 25 26  1  0  0  0
 26 27  1  0  0  0
 27 28  2  0  0  0
 27 29  1  0  0  0
 30 31  1  0  0  0
 31 32  1  0  0  0
 31 34  1  0  0  0
 32 33  2  0  0  0
 32 38  1  0  0  0
 34 35  1  0  0  0
 35 36  1  0  0  0
 35 37  1  0  0  0
 38 39  1  0  0  0
 39 40  1  0  0  0
 39 42  1  0  0  0
 40 41  2  0  0  0
 40 46  1  0  0  0
 42 43  1  0  0  0
 43 44  1  0  0  0
 44 45  1  0  0  0
 46 47  1  0  0  0
 47 48  1  0  0  0
 47 50  1  0  0  0
 48 49  2  0  0  0
 48 53  1  0  0  0
 50 51  1  0  0  0
 50 52  1  0  0  0
 53 54  1  0  0  0
 54 55  1  0  0  0
 54 57  1  0  0  0
 55 56  2  0  0  0
 55 62  1  0  0  0
 57 58  1  0  0  0
 58 59  1  0  0  0
 59 60  1  0  0  0
 60 61  1  0  0  0
 62 63  1  0  0  0
 63 64  1  0  0  0
 63 66  1  0  0  0
 64 65  2  0  0  0
 64 67  1  0  0  0
 67 68  1  0  0  0
 68 69  1  0  0  0
 68 71  1  0  0  0
 69 70  2  0  0  0
 69 72  1  0  0  0
 72 73  1  0  0  0
 73 74  1  0  0  0
 73 76  1  0  0  0
 74 75  2  0  0  0
 74 83  1  0  0  0
 76 77  1  0  0  0
 77 78  1  0  0  0
 78 79  1  0  0  0
 79 80  1  0  0  0
 80 81  1  0  0  0
 80 82  2  0  0  0
 83 84  1  0  0  0
 84 85  1  0  0  0
 84 87  1  0  0  0
 85 86  2  0  0  0
 85 92  1  0  0  0
 87 88  1  0  0  0
 88 89  1  0  0  0
 89 90  1  0  0  0
 90 91  1  0  0  0
 92 93  1  0  0  0
 93 94  1  0  0  0
 93 96  1  0  0  0
 94 95  2  0  0  0
 94 98  1  0  0  0
 96 97  1  0  0  0
 98 99  1  0  0  0
 99100  1  0  0  0
 99102  1  0  0  0
100101  2  0  0  0
100103  1  0  0  0
103104  1  0  0  0
103109  1  0  0  0
104105  1  0  0  0
104107  1  0  0  0
105106  2  0  0  0
105110  1  0  0  0
107108  1  0  0  0
108109  1  0  0  0
110111  1  0  0  0
111112  1  0  0  0
111114  1  0  0  0
112113  2  0  0  0
112115  1  0  0  0
115116  1  0  0  0
116117  1  0  0  0
116119  1  0  0  0
117118  2  0  0  0
117122  1  0  0  0
119120  1  0  0  0
119121  1  0  0  0
122123  1  0  0  0
123124  1  0  0  0
124125  2  0  0  0
124126  1  0  0  0
  1127  1  0  0  0
  1128  1  0  0  0
  1129  1  0  0  0
  2130  1  0  0  0
  5131  1  0  0  0
  5132  1  0  0  0
  6133  1  0  0  0
  6134  1  0  0  0
  7135  1  0  0  0
  7136  1  0  0  0
  8137  1  0  0  0
 10138  1  0  0  0
 10139  1  0  0  0
 11140  1  0  0  0
 12141  1  0  0  0
 13142  1  0  0  0
 16143  1  0  0  0
 16144  1  0  0  0
 17145  1  0  0  0
 17146  1  0  0  0
 18147  1  0  0  0
 18148  1  0  0  0
 19149  1  0  0  0
 19150  1  0  0  0
 20151  1  0  0  0
 20152  1  0  0  0
 20153  1  0  0  0
 21154  1  0  0  0
 22155  1  0  0  0
 25156  1  0  0  0
 25157  1  0  0  0
 26158  1  0  0  0
 26159  1  0  0  0
 29160  1  0  0  0
 29161  1  0  0  0
 30162  1  0  0  0
 31163  1  0  0  0
 34164  1  0  0  0
 34165  1  0  0  0
 35166  1  0  0  0
 36167  1  0  0  0
 36168  1  0  0  0
 36169  1  0  0  0
 37170  1  0  0  0
 37171  1  0  0  0
 37172  1  0  0  0
 38173  1  0  0  0
 39174  1  0  0  0
 42175  1  0  0  0
 42176  1  0  0  0
 43177  1  0  0  0
 43178  1  0  0  0
 45179  1  0  0  0
 45180  1  0  0  0
 45181  1  0  0  0
 46182  1  0  0  0
 47183  1  0  0  0
 50184  1  0  0  0
 51185  1  0  0  0
 52186  1  0  0  0
 52187  1  0  0  0
 52188  1  0  0  0
 53189  1  0  0  0
 54190  1  0  0  0
 57191  1  0  0  0
 57192  1  0  0  0
 58193  1  0  0  0
 58194  1  0  0  0
 59195  1  0  0  0
 59196  1  0  0  0
 60197  1  0  0  0
 60198  1  0  0  0
 61199  1  0  0  0
 61200  1  0  0  0
 61201  1  0  0  0
 62202  1  0  0  0
 63203  1  0  0  0
 66204  1  0  0  0
 66205  1  0  0  0
 66206  1  0  0  0
 67207  1  0  0  0
 68208  1  0  0  0
 71209  1  0  0  0
 71210  1  0  0  0
 71211  1  0  0  0
 72212  1  0  0  0
 73213  1  0  0  0
 76214  1  0  0  0
 76215  1  0  0  0
 77216  1  0  0  0
 77217  1  0  0  0
 78218  1  0  0  0
 78219  1  0  0  0
 79220  1  0  0  0
 81221  1  0  0  0
 81222  1  0  0  0
 82223  1  0  0  0
 83224  1  0  0  0
 84225  1  0  0  0
 87226  1  0  0  0
 87227  1  0  0  0
 88228  1  0  0  0
 88229  1  0  0  0
 89230  1  0  0  0
 89231  1  0  0  0
 90232  1  0  0  0
 90233  1  0  0  0
 91234  1  0  0  0
 91235  1  0  0  0
 91236  1  0  0  0
 92237  1  0  0  0
 93238  1  0  0  0
 96239  1  0  0  0
 96240  1  0  0  0
 97241  1  0  0  0
 98242  1  0  0  0
 99243  1  0  0  0
102244  1  0  0  0
102245  1  0  0  0
102246  1  0  0  0
104247  1  0  0  0
107248  1  0  0  0
107249  1  0  0  0
108250  1  0  0  0
108251  1  0  0  0
109252  1  0  0  0
109253  1  0  0  0
110254  1  0  0  0
111255  1  0  0  0
114256  1  0  0  0
114257  1  0  0  0
114258  1  0  0  0
115259  1  0  0  0
116260  1  0  0  0
119261  1  0  0  0
120262  1  0  0  0
121263  1  0  0  0
121264  1  0  0  0
121265  1  0  0  0
122266  1  0  0  0
123267  1  0  0  0
123268  1  0  0  0
126269  1  0  0  0
M  END
$$$$
