### 
### Created by X-TOOL on Fri Nov  2 10:19:51 2018
### 

@<TRIPOS>MOLECULE
5oy3_ligand
  270   270     1     0     0
SMALL
GAST_HUCK


@<TRIPOS>ATOM
      1 N         113.6040  -28.1210   15.4980 N.4       1 ARG         0.2379
      2 CA        113.3880  -26.7610   15.9760 C.3       1 ARG         0.0651
      3 C         112.7820  -26.8160   17.3790 C.2       1 ARG         0.2267
      4 O         112.2750  -27.8550   17.8000 O.2       1 ARG        -0.3907
      5 CB        112.4660  -25.9850   15.0230 C.3       1 ARG         0.0110
      6 CG        112.9760  -25.8190   13.5840 C.3       1 ARG        -0.0125
      7 CD        111.9130  -25.2080   12.6420 C.3       1 ARG         0.0629
      8 NE        110.5640  -25.2530   13.2200 N.pl3     1 ARG        -0.2723
      9 CZ        109.7190  -24.2230   13.3090 C.cat     1 ARG         0.2882
     10 NH1       110.0410  -23.0170   12.8280 N.pl3     1 ARG        -0.2849
     11 NH2       108.5240  -24.4150   13.8770 N.pl3     1 ARG        -0.2849
     12 N         112.8500  -25.6930   18.0930 N.am      1 ARG        -0.2610
     13 CA        112.1780  -25.5590   19.3800 C.3       1 ARG         0.1311
     14 C         110.6720  -25.3790   19.2120 C.2       1 ARG         0.2039
     15 O         110.2110  -24.6130   18.3590 O.2       1 ARG        -0.3944
     16 CB        112.7510  -24.3730   20.1330 C.3       1 ARG        -0.0122
     17 CG        114.2400  -24.4710   20.2940 C.3       1 ARG        -0.0440
     18 CD        114.7710  -23.4060   21.2200 C.3       1 ARG        -0.0124
     19 CE        116.3140  -23.3680   21.1910 C.3       1 ARG        -0.0354
     20 NZ        116.9550  -24.7170   20.9980 N.4       1 ARG         0.2185
     21 N         109.9080  -26.1010   20.0370 N.am      1 ARG        -0.2636
     22 CA        108.4530  -25.9970   20.0670 C.3       1 ARG         0.1330
     23 C         108.0540  -24.8430   20.9840 C.2       1 ARG         0.2040
     24 O         108.1860  -24.9290   22.2090 O.2       1 ARG        -0.3944
     25 CB        107.8150  -27.3080   20.5180 C.3       1 ARG         0.0045
     26 CG        106.2970  -27.1800   20.7260 C.3       1 ARG         0.0412
     27 CD        105.6110  -28.5050   20.9040 C.2       1 ARG         0.1737
     28 OE1       106.2440  -29.5280   21.2190 O.2       1 ARG        -0.3973
     29 NE2       104.3030  -28.5070   20.6880 N.am      1 ARG        -0.3009
     30 N         107.5630  -23.7680   20.3780 N.am      1 ARG        -0.2637
     31 CA        107.2220  -22.5330   21.0640 C.3       1 ARG         0.1312
     32 C         105.7150  -22.5020   21.3370 C.2       1 ARG         0.2039
     33 O         104.9150  -22.6590   20.4110 O.2       1 ARG        -0.3944
     34 CB        107.6410  -21.3370   20.2070 C.3       1 ARG        -0.0101
     35 CG        109.1120  -21.3030   19.7920 C.3       1 ARG        -0.0425
     36 CD1       109.3560  -20.1680   18.8370 C.3       1 ARG        -0.0625
     37 CD2       110.0300  -21.1900   21.0130 C.3       1 ARG        -0.0625
     38 N         105.3330  -22.2870   22.5980 N.am      1 ARG        -0.2637
     39 CA        103.9410  -22.4300   23.0270 C.3       1 ARG         0.1317
     40 C         103.1920  -21.1010   22.9140 C.2       1 ARG         0.2040
     41 O         103.7620  -20.0350   23.1610 O.2       1 ARG        -0.3944
     42 CB        103.8810  -22.9330   24.4720 C.3       1 ARG        -0.0034
     43 CG        104.5770  -24.2960   24.7290 C.3       1 ARG        -0.0024
     44 SD        104.1970  -25.6490   23.5790 S.3       1 ARG        -0.1639
     45 CE        102.5160  -26.0870   24.0580 C.3       1 ARG        -0.0181
     46 N         101.8990  -21.1760   22.5530 N.am      1 ARG        -0.2613
     47 CA        101.0300  -20.0070   22.3770 C.3       1 ARG         0.1565
     48 C          99.6890  -20.2220   23.0660 C.2       1 ARG         0.2065
     49 O          99.1600  -21.3290   23.0500 O.2       1 ARG        -0.3943
     50 CB        100.7280  -19.7500   20.8880 C.3       1 ARG         0.0924
     51 OG1       100.3400  -20.9890   20.2660 O.3       1 ARG        -0.3874
     52 CG2       101.9070  -19.1870   20.1610 C.3       1 ARG        -0.0346
     53 N          99.1160  -19.1590   23.6300 N.am      1 ARG        -0.2637
     54 CA         97.7220  -19.1940   24.0730 C.3       1 ARG         0.1310
     55 C          96.7900  -19.0710   22.8690 C.2       1 ARG         0.2039
     56 O          97.0220  -18.2630   21.9660 O.2       1 ARG        -0.3944
     57 CB         97.4610  -18.0730   25.0750 C.3       1 ARG        -0.0122
     58 CG         98.3480  -18.1390   26.2950 C.3       1 ARG        -0.0440
     59 CD         98.0030  -17.0400   27.2680 C.3       1 ARG        -0.0124
     60 CE         99.2480  -16.6430   28.0370 C.3       1 ARG        -0.0354
     61 NZ         99.0080  -15.6300   29.1210 N.4       1 ARG         0.2185
     62 N          95.7530  -19.9000   22.8330 N.am      1 ARG        -0.2640
     63 CA         94.7870  -19.8130   21.7520 C.3       1 ARG         0.1282
     64 C          93.9450  -18.5750   21.9640 C.2       1 ARG         0.2036
     65 O          93.6290  -18.2090   23.0980 O.2       1 ARG        -0.3944
     66 CB         93.9080  -21.0650   21.6890 C.3       1 ARG        -0.0244
     67 N          93.6660  -17.8800   20.8730 N.am      1 ARG        -0.2640
     68 CA         92.9050  -16.6370   20.8840 C.3       1 ARG         0.1282
     69 C          91.4880  -16.9420   20.4470 C.2       1 ARG         0.2036
     70 O          91.2910  -17.6080   19.4220 O.2       1 ARG        -0.3944
     71 CB         93.5320  -15.6230   19.9290 C.3       1 ARG        -0.0244
     72 N          90.5070  -16.4480   21.2060 N.am      1 ARG        -0.2637
     73 CA         89.1100  -16.7340   20.9080 C.3       1 ARG         0.1311
     74 C          88.2040  -15.5870   21.3500 C.2       1 ARG         0.2039
     75 O          88.2620  -15.1470   22.5010 O.2       1 ARG        -0.3944
     76 CB         88.6820  -18.0460   21.5860 C.3       1 ARG        -0.0092
     77 CG         87.1860  -18.3350   21.5200 C.3       1 ARG        -0.0156
     78 CD         86.8360  -19.7610   21.9410 C.3       1 ARG         0.0627
     79 NE         85.3830  -19.9340   21.8850 N.pl3     1 ARG        -0.2723
     80 CZ         84.5450  -19.6870   22.8950 C.cat     1 ARG         0.2882
     81 NH1        84.9770  -19.2880   24.0770 N.pl3     1 ARG        -0.2849
     82 NH2        83.2490  -19.8490   22.7280 N.pl3     1 ARG        -0.2849
     83 N          87.3550  -15.1250   20.4330 N.am      1 ARG        -0.2637
     84 CA         86.2560  -14.2350   20.7990 C.3       1 ARG         0.1310
     85 C          85.2890  -14.9330   21.7460 C.2       1 ARG         0.2040
     86 O          84.8470  -16.0450   21.4810 O.2       1 ARG        -0.3944
     87 CB         85.4870  -13.7910   19.5550 C.3       1 ARG        -0.0122
     88 CG         84.3450  -12.7690   19.8740 C.3       1 ARG        -0.0440
     89 CD         83.4250  -12.5550   18.6660 C.3       1 ARG        -0.0124
     90 CE         84.2320  -12.0640   17.4680 C.3       1 ARG        -0.0354
     91 NZ         83.3210  -11.8500   16.3220 N.4       1 ARG         0.2185
     92 N          84.9090  -14.2440   22.8160 N.am      1 ARG        -0.2616
     93 CA         83.9390  -14.7540   23.7710 C.3       1 ARG         0.1539
     94 C          83.2290  -13.5680   24.4280 C.2       1 ARG         0.2062
     95 O          83.8670  -12.5790   24.8080 O.2       1 ARG        -0.3943
     96 CB         84.6360  -15.6220   24.8080 C.3       1 ARG         0.0843
     97 OG         83.7070  -16.1110   25.7500 O.3       1 ARG        -0.3903
     98 N          81.9070  -13.6450   24.5370 N.am      1 ARG        -0.2639
     99 CA         81.1690  -12.5570   25.1520 C.3       1 ARG         0.1284
    100 C          81.6450  -12.3020   26.5840 C.2       1 ARG         0.2061
    101 O          82.1780  -13.1920   27.2590 O.2       1 ARG        -0.3942
    102 CB         79.6810  -12.8750   25.1960 C.3       1 ARG        -0.0244
    103 N          81.3850  -11.1120   27.0970 N.am      1 ARG        -0.2498
    104 CA         81.7010  -10.8410   28.4960 C.3       1 ARG         0.1338
    105 C          80.8200  -11.6490   29.4480 C.2       1 ARG         0.2041
    106 O          79.7080  -12.0890   29.1120 O.2       1 ARG        -0.3944
    107 CB         81.4570   -9.3290   28.6220 C.3       1 ARG        -0.0104
    108 CG         80.6380   -8.9560   27.4830 C.3       1 ARG        -0.0281
    109 CD         80.8800   -9.9180   26.4000 C.3       1 ARG         0.0369
    110 N          81.3630  -11.8740   30.6400 N.am      1 ARG        -0.2640
    111 CA         80.7010  -12.6520   31.6850 C.3       1 ARG         0.1282
    112 C          80.8910  -11.9680   33.0310 C.2       1 ARG         0.2037
    113 O          81.9820  -11.4710   33.3450 O.2       1 ARG        -0.3944
    114 CB         81.2530  -14.0680   31.7750 C.3       1 ARG        -0.0244
    115 N          79.8200  -11.9550   33.8160 N.am      1 ARG        -0.2613
    116 CA         79.8000  -11.3790   35.1510 C.3       1 ARG         0.1564
    117 C          79.8820  -12.4290   36.2590 C.2       1 ARG         0.2057
    118 O          80.2960  -12.1180   37.3840 O.2       1 ARG        -0.3943
    119 CB         78.5050  -10.5760   35.3250 C.3       1 ARG         0.0924
    120 OG1        77.3910  -11.4540   35.1480 O.3       1 ARG        -0.3874
    121 CG2        78.4080   -9.4860   34.3210 C.3       1 ARG        -0.0346
    122 N          79.4480  -13.6520   35.9820 N.am      1 ARG        -0.2721
    123 CA         79.5910  -14.7510   36.9260 C.3       1 ARG         0.0833
    124 C          79.7860  -16.0670   36.1770 C.2       1 ARG         0.0570
    125 O          79.9550  -16.0560   34.9450 O.co2     1 ARG        -0.5669
    126 OXT        79.7740  -17.1410   36.8040 O.co2     1 ARG        -0.5669
    127 H1        114.0036  -28.0925   14.5730 H         1 ARG         0.2015
    128 H2        112.7234  -28.6107   15.4686 H         1 ARG         0.2015
    129 H3        114.2344  -28.6002   16.1217 H         1 ARG         0.2015
    130 H4        114.3572  -26.2431   16.0253 H         1 ARG         0.1098
    131 H5        112.3139  -24.9805   15.4446 H         1 ARG         0.0347
    132 H6        111.5028  -26.5145   14.9802 H         1 ARG         0.0347
    133 H7        113.2637  -26.8073   13.1962 H         1 ARG         0.0302
    134 H8        113.8563  -25.1595   13.5963 H         1 ARG         0.0302
    135 H9        111.9119  -25.7714   11.6972 H         1 ARG         0.0689
    136 H10       112.1777  -24.1590   12.4431 H         1 ARG         0.0689
    137 H11       110.2411  -26.1587   13.5893 H         1 ARG         0.2642
    138 H12       109.3741  -22.2361   12.9072 H         1 ARG         0.2615
    139 H13       110.9559  -22.8693   12.3784 H         1 ARG         0.2615
    140 H14       108.2733  -25.3425   14.2482 H         1 ARG         0.2615
    141 H15       107.8541  -23.6354   13.9433 H         1 ARG         0.2615
    142 H16       113.3763  -24.9211   17.7364 H         1 ARG         0.1884
    143 H17       112.3576  -26.4732   19.9647 H         1 ARG         0.0800
    144 H18       112.2888  -24.3293   21.1302 H         1 ARG         0.0312
    145 H19       112.5142  -23.4530   19.5784 H         1 ARG         0.0312
    146 H20       114.7138  -24.3549   19.3081 H         1 ARG         0.0269
    147 H21       114.4899  -25.4595   20.7068 H         1 ARG         0.0269
    148 H22       114.4356  -23.6207   22.2454 H         1 ARG         0.0317
    149 H23       114.3810  -22.4272   20.9040 H         1 ARG         0.0317
    150 H24       116.6680  -22.9499   22.1449 H         1 ARG         0.0813
    151 H25       116.6287  -22.7138   20.3646 H         1 ARG         0.0813
    152 H26       117.9577  -24.6144   20.9895 H         1 ARG         0.1994
    153 H27       116.6502  -25.1116   20.1220 H         1 ARG         0.1994
    154 H28       116.6862  -25.3279   21.7534 H         1 ARG         0.1994
    155 H29       110.3537  -26.7417   20.6622 H         1 ARG         0.1883
    156 H30       108.0968  -25.7752   19.0502 H         1 ARG         0.0801
    157 H31       108.2767  -27.6174   21.4672 H         1 ARG         0.0337
    158 H32       108.0031  -28.0744   19.7517 H         1 ARG         0.0337
    159 H33       105.8648  -26.6776   19.8481 H         1 ARG         0.0504
    160 H34       106.1171  -26.5697   21.6233 H         1 ARG         0.0504
    161 H35       103.7810  -29.3541   20.7880 H         1 ARG         0.1814
    162 H36       103.8383  -27.6614   20.4251 H         1 ARG         0.1814
    163 H37       107.4192  -23.8110   19.3893 H         1 ARG         0.1883
    164 H38       107.7601  -22.4912   22.0225 H         1 ARG         0.0800
    165 H39       107.4296  -20.4210   20.7782 H         1 ARG         0.0315
    166 H40       107.0315  -21.3470   19.2914 H         1 ARG         0.0315
    167 H41       109.3451  -22.2456   19.2752 H         1 ARG         0.0298
    168 H42       110.4169  -20.1548   18.5466 H         1 ARG         0.0232
    169 H43       109.0975  -19.2165   19.3246 H         1 ARG         0.0232
    170 H44       108.7323  -20.3022   17.9409 H         1 ARG         0.0232
    171 H45       109.8350  -22.0289   21.6972 H         1 ARG         0.0232
    172 H46       109.8343  -20.2402   21.5323 H         1 ARG         0.0232
    173 H47       111.0800  -21.2198   20.6864 H         1 ARG         0.0232
    174 H48       106.0212  -22.0192   23.2723 H         1 ARG         0.1883
    175 H49       103.4490  -23.1668   22.3751 H         1 ARG         0.0800
    176 H50       102.8223  -23.0337   24.7532 H         1 ARG         0.0320
    177 H51       104.3610  -22.1799   25.1142 H         1 ARG         0.0320
    178 H52       104.2916  -24.6287   25.7379 H         1 ARG         0.0378
    179 H53       105.6631  -24.1255   24.6926 H         1 ARG         0.0378
    180 H54       102.1578  -26.9125   23.4254 H         1 ARG         0.0340
    181 H55       101.8588  -25.2144   23.9290 H         1 ARG         0.0340
    182 H56       102.5052  -26.4015   25.1120 H         1 ARG         0.0340
    183 H57       101.5064  -22.0821   22.3951 H         1 ARG         0.1884
    184 H58       101.5302  -19.1271   22.8077 H         1 ARG         0.0826
    185 H59        99.8968  -19.0330   20.8171 H         1 ARG         0.0639
    186 H60        99.5641  -21.3287   20.6962 H         1 ARG         0.2101
    187 H61       101.6425  -19.0216   19.1062 H         1 ARG         0.0257
    188 H62       102.7472  -19.8943   20.2217 H         1 ARG         0.0257
    189 H63       102.1986  -18.2309   20.6201 H         1 ARG         0.0257
    190 H64        99.6489  -18.3217   23.7527 H         1 ARG         0.1883
    191 H65        97.5320  -20.1579   24.5677 H         1 ARG         0.0800
    192 H66        96.4128  -18.1355   25.4026 H         1 ARG         0.0312
    193 H67        97.6312  -17.1096   24.5722 H         1 ARG         0.0312
    194 H68        99.3974  -18.0291   25.9843 H         1 ARG         0.0269
    195 H69        98.2115  -19.1129   26.7878 H         1 ARG         0.0269
    196 H70        97.2359  -17.3983   27.9703 H         1 ARG         0.0317
    197 H71        97.6179  -16.1691   26.7173 H         1 ARG         0.0317
    198 H72        99.9727  -16.2209   27.3253 H         1 ARG         0.0813
    199 H73        99.6712  -17.5475   28.4982 H         1 ARG         0.0813
    200 H74        99.8789  -15.4195   29.5829 H         1 ARG         0.1994
    201 H75        98.3540  -16.0034   29.7910 H         1 ARG         0.1994
    202 H76        98.6303  -14.7877   28.7161 H         1 ARG         0.1994
    203 H77        95.6371  -20.5856   23.5517 H         1 ARG         0.1883
    204 H78        95.3271  -19.7196   20.7983 H         1 ARG         0.0797
    205 H79        93.1894  -20.9672   20.8619 H         1 ARG         0.0277
    206 H80        93.3623  -21.1780   22.6374 H         1 ARG         0.0277
    207 H81        94.5407  -21.9492   21.5223 H         1 ARG         0.0277
    208 H82        93.9948  -18.2260   19.9943 H         1 ARG         0.1883
    209 H83        92.8966  -16.2198   21.9018 H         1 ARG         0.0797
    210 H84        92.9475  -14.6913   19.9481 H         1 ARG         0.0277
    211 H85        93.5345  -16.0334   18.9084 H         1 ARG         0.0277
    212 H86        94.5654  -15.4140   20.2428 H         1 ARG         0.0277
    213 H87        90.7348  -15.8726   21.9915 H         1 ARG         0.1883
    214 H88        89.0068  -16.8546   19.8195 H         1 ARG         0.0800
    215 H89        88.9757  -17.9969   22.6449 H         1 ARG         0.0313
    216 H90        89.2137  -18.8750   21.0960 H         1 ARG         0.0313
    217 H91        86.8441  -18.1807   20.4859 H         1 ARG         0.0301
    218 H92        86.6635  -17.6340   22.1875 H         1 ARG         0.0301
    219 H93        87.1888  -19.9392   22.9675 H         1 ARG         0.0689
    220 H94        87.3186  -20.4757   21.2581 H         1 ARG         0.0689
    221 H95        84.9770  -20.2714   21.0006 H         1 ARG         0.2642
    222 H96        84.3052  -19.1056   24.8362 H         1 ARG         0.2615
    223 H97        85.9858  -19.1591   24.2400 H         1 ARG         0.2615
    224 H98        82.8820  -20.1594   21.8171 H         1 ARG         0.2615
    225 H99        82.6023  -19.6653   23.5083 H         1 ARG         0.2615
    226 H100       87.4723  -15.3924   19.4766 H         1 ARG         0.1883
    227 H101       86.6724  -13.3486   21.2999 H         1 ARG         0.0800
    228 H102       85.0409  -14.6789   19.0832 H         1 ARG         0.0312
    229 H103       86.1935  -13.3200   18.8557 H         1 ARG         0.0312
    230 H104       84.7961  -11.8057   20.1541 H         1 ARG         0.0269
    231 H105       83.7474  -13.1523   20.7142 H         1 ARG         0.0269
    232 H106       82.6603  -11.8063   18.9201 H         1 ARG         0.0317
    233 H107       82.9359  -13.5062   18.4090 H         1 ARG         0.0317
    234 H108       84.9886  -12.8164   17.2008 H         1 ARG         0.0813
    235 H109       84.7305  -11.1173   17.7233 H         1 ARG         0.0813
    236 H110       83.8504  -11.5254   15.5280 H         1 ARG         0.1994
    237 H111       82.6277  -11.1609   16.5680 H         1 ARG         0.1994
    238 H112       82.8643  -12.7179   16.0892 H         1 ARG         0.1994
    239 H113       85.3056  -13.3391   22.9707 H         1 ARG         0.1884
    240 H114       83.1956  -15.3667   23.2401 H         1 ARG         0.0823
    241 H115       85.3975  -15.0227   25.3285 H         1 ARG         0.0606
    242 H116       85.1198  -16.4710   24.3029 H         1 ARG         0.0606
    243 H117       83.0493  -16.6313   25.3037 H         1 ARG         0.2097
    244 H118       81.4219  -14.4503   24.1963 H         1 ARG         0.1883
    245 H119       81.3258  -11.6467   24.5547 H         1 ARG         0.0797
    246 H120       79.1412  -12.0391   25.6649 H         1 ARG         0.0277
    247 H121       79.5190  -13.7912   25.7827 H         1 ARG         0.0277
    248 H122       79.3075  -13.0243   24.1722 H         1 ARG         0.0277
    249 H123       82.7547  -11.0780   28.7048 H         1 ARG         0.0802
    250 H124       82.4128   -8.7850   28.5991 H         1 ARG         0.0313
    251 H125       80.9297   -9.1045   29.5609 H         1 ARG         0.0313
    252 H126       80.9080   -7.9439   27.1474 H         1 ARG         0.0287
    253 H127       79.5756   -8.9768   27.7672 H         1 ARG         0.0287
    254 H128       79.9481  -10.1438   25.8610 H         1 ARG         0.0524
    255 H129       81.6284   -9.5314   25.6925 H         1 ARG         0.0524
    256 H130       82.2676  -11.4928   30.8309 H         1 ARG         0.1883
    257 H131       79.6267  -12.7052   31.4546 H         1 ARG         0.0797
    258 H132       80.7283  -14.6161   32.5714 H         1 ARG         0.0277
    259 H133       82.3281  -14.0286   32.0041 H         1 ARG         0.0277
    260 H134       81.1013  -14.5824   30.8146 H         1 ARG         0.0277
    261 H135       78.9771  -12.3658   33.4684 H         1 ARG         0.1884
    262 H136       80.6618  -10.7026   35.2497 H         1 ARG         0.0826
    263 H137       78.4807  -10.1425   36.3357 H         1 ARG         0.0639
    264 H138       77.4298  -12.1476   35.7960 H         1 ARG         0.2101
    265 H139       77.4707   -8.9305   34.4723 H         1 ARG         0.0257
    266 H140       78.4193   -9.9174   33.3092 H         1 ARG         0.0257
    267 H141       79.2621   -8.8027   34.4379 H         1 ARG         0.0257
    268 H142       79.0101  -13.8237   35.0995 H         1 ARG         0.1873
    269 H143       78.6854  -14.8170   37.5468 H         1 ARG         0.0689
    270 H144       80.4639  -14.5663   37.5693 H         1 ARG         0.0689
@<TRIPOS>BOND
     1    1    2 1  
     2    2    3 1  
     3    2    5 1  
     4    3    4 2  
     5    3   12 am 
     6    5    6 1  
     7    6    7 1  
     8    7    8 1  
     9    8    9 ar 
    10    9   10 ar 
    11    9   11 ar 
    12   12   13 1  
    13   13   14 1  
    14   13   16 1  
    15   14   15 2  
    16   14   21 am 
    17   16   17 1  
    18   17   18 1  
    19   18   19 1  
    20   19   20 1  
    21   21   22 1  
    22   22   23 1  
    23   22   25 1  
    24   23   24 2  
    25   23   30 am 
    26   25   26 1  
    27   26   27 1  
    28   27   28 2  
    29   27   29 am 
    30   30   31 1  
    31   31   32 1  
    32   31   34 1  
    33   32   33 2  
    34   32   38 am 
    35   34   35 1  
    36   35   36 1  
    37   35   37 1  
    38   38   39 1  
    39   39   40 1  
    40   39   42 1  
    41   40   41 2  
    42   40   46 am 
    43   42   43 1  
    44   43   44 1  
    45   44   45 1  
    46   46   47 1  
    47   47   48 1  
    48   47   50 1  
    49   48   49 2  
    50   48   53 am 
    51   50   51 1  
    52   50   52 1  
    53   53   54 1  
    54   54   55 1  
    55   54   57 1  
    56   55   56 2  
    57   55   62 am 
    58   57   58 1  
    59   58   59 1  
    60   59   60 1  
    61   60   61 1  
    62   62   63 1  
    63   63   64 1  
    64   63   66 1  
    65   64   65 2  
    66   64   67 am 
    67   67   68 1  
    68   68   69 1  
    69   68   71 1  
    70   69   70 2  
    71   69   72 am 
    72   72   73 1  
    73   73   74 1  
    74   73   76 1  
    75   74   75 2  
    76   74   83 am 
    77   76   77 1  
    78   77   78 1  
    79   78   79 1  
    80   79   80 ar 
    81   80   81 ar 
    82   80   82 ar 
    83   83   84 1  
    84   84   85 1  
    85   84   87 1  
    86   85   86 2  
    87   85   92 am 
    88   87   88 1  
    89   88   89 1  
    90   89   90 1  
    91   90   91 1  
    92   92   93 1  
    93   93   94 1  
    94   93   96 1  
    95   94   95 2  
    96   94   98 am 
    97   96   97 1  
    98   98   99 1  
    99   99  100 1  
   100   99  102 1  
   101  100  101 2  
   102  100  103 am 
   103  103  104 1  
   104  103  109 1  
   105  104  105 1  
   106  104  107 1  
   107  105  106 2  
   108  105  110 am 
   109  107  108 1  
   110  108  109 1  
   111  110  111 1  
   112  111  112 1  
   113  111  114 1  
   114  112  113 2  
   115  112  115 am 
   116  115  116 1  
   117  116  117 1  
   118  116  119 1  
   119  117  118 2  
   120  117  122 am 
   121  119  120 1  
   122  119  121 1  
   123  122  123 1  
   124  123  124 1  
   125  124  125 ar 
   126  124  126 ar 
   127    1  127 1  
   128    1  128 1  
   129    1  129 1  
   130    2  130 1  
   131    5  131 1  
   132    5  132 1  
   133    6  133 1  
   134    6  134 1  
   135    7  135 1  
   136    7  136 1  
   137    8  137 1  
   138   10  138 1  
   139   10  139 1  
   140   11  140 1  
   141   11  141 1  
   142   12  142 1  
   143   13  143 1  
   144   16  144 1  
   145   16  145 1  
   146   17  146 1  
   147   17  147 1  
   148   18  148 1  
   149   18  149 1  
   150   19  150 1  
   151   19  151 1  
   152   20  152 1  
   153   20  153 1  
   154   20  154 1  
   155   21  155 1  
   156   22  156 1  
   157   25  157 1  
   158   25  158 1  
   159   26  159 1  
   160   26  160 1  
   161   29  161 1  
   162   29  162 1  
   163   30  163 1  
   164   31  164 1  
   165   34  165 1  
   166   34  166 1  
   167   35  167 1  
   168   36  168 1  
   169   36  169 1  
   170   36  170 1  
   171   37  171 1  
   172   37  172 1  
   173   37  173 1  
   174   38  174 1  
   175   39  175 1  
   176   42  176 1  
   177   42  177 1  
   178   43  178 1  
   179   43  179 1  
   180   45  180 1  
   181   45  181 1  
   182   45  182 1  
   183   46  183 1  
   184   47  184 1  
   185   50  185 1  
   186   51  186 1  
   187   52  187 1  
   188   52  188 1  
   189   52  189 1  
   190   53  190 1  
   191   54  191 1  
   192   57  192 1  
   193   57  193 1  
   194   58  194 1  
   195   58  195 1  
   196   59  196 1  
   197   59  197 1  
   198   60  198 1  
   199   60  199 1  
   200   61  200 1  
   201   61  201 1  
   202   61  202 1  
   203   62  203 1  
   204   63  204 1  
   205   66  205 1  
   206   66  206 1  
   207   66  207 1  
   208   67  208 1  
   209   68  209 1  
   210   71  210 1  
   211   71  211 1  
   212   71  212 1  
   213   72  213 1  
   214   73  214 1  
   215   76  215 1  
   216   76  216 1  
   217   77  217 1  
   218   77  218 1  
   219   78  219 1  
   220   78  220 1  
   221   79  221 1  
   222   81  222 1  
   223   81  223 1  
   224   82  224 1  
   225   82  225 1  
   226   83  226 1  
   227   84  227 1  
   228   87  228 1  
   229   87  229 1  
   230   88  230 1  
   231   88  231 1  
   232   89  232 1  
   233   89  233 1  
   234   90  234 1  
   235   90  235 1  
   236   91  236 1  
   237   91  237 1  
   238   91  238 1  
   239   92  239 1  
   240   93  240 1  
   241   96  241 1  
   242   96  242 1  
   243   97  243 1  
   244   98  244 1  
   245   99  245 1  
   246  102  246 1  
   247  102  247 1  
   248  102  248 1  
   249  104  249 1  
   250  107  250 1  
   251  107  251 1  
   252  108  252 1  
   253  108  253 1  
   254  109  254 1  
   255  109  255 1  
   256  110  256 1  
   257  111  257 1  
   258  114  258 1  
   259  114  259 1  
   260  114  260 1  
   261  115  261 1  
   262  116  262 1  
   263  119  263 1  
   264  120  264 1  
   265  121  265 1  
   266  121  266 1  
   267  121  267 1  
   268  122  268 1  
   269  123  269 1  
   270  123  270 1  
@<TRIPOS>SUBSTRUCTURE
     1 ARG         1

