### 
### Created by X-TOOL on Mon Sep 10 21:13:07 2018
### 

@<TRIPOS>MOLECULE
3nzi_ligand
   87    87     1     0     0
SMALL
GAST_HUCK


@<TRIPOS>ATOM
      1 N          -7.8620  -11.8960  -16.3820 N.4       1 MET         0.2379
      2 CA         -7.1010  -13.0810  -15.8890 C.3       1 MET         0.0658
      3 C          -5.8470  -12.6600  -15.1090 C.2       1 MET         0.2268
      4 O          -5.6400  -11.4780  -14.8390 O.2       1 MET        -0.3907
      5 CB         -6.7360  -14.0020  -17.0670 C.3       1 MET         0.0168
      6 CG         -5.6430  -13.4720  -18.0060 C.3       1 MET         0.0007
      7 SD         -5.1160  -14.6920  -19.2370 S.3       1 MET        -0.1638
      8 CE         -4.2090  -15.8590  -18.2210 C.3       1 MET        -0.0181
      9 N          -5.0150  -13.6420  -14.7690 N.am      1 PHE        -0.2592
     10 CA         -3.8120  -13.4410  -13.9550 C.3       1 PHE         0.1406
     11 C          -2.5360  -13.4270  -14.8080 C.2       1 PHE         0.2059
     12 O          -2.5950  -13.4390  -16.0340 O.2       1 PHE        -0.3942
     13 CB         -3.7150  -14.5580  -12.9010 C.3       1 PHE         0.0214
     14 CG         -3.6080  -15.9390  -13.4890 C.ar      1 PHE        -0.0386
     15 CD1        -2.3720  -16.4690  -13.8490 C.ar      1 PHE        -0.0601
     16 CD2        -4.7480  -16.7060  -13.6980 C.ar      1 PHE        -0.0601
     17 CE1        -2.2730  -17.7430  -14.4070 C.ar      1 PHE        -0.0686
     18 CE2        -4.6580  -17.9810  -14.2530 C.ar      1 PHE        -0.0686
     19 CZ         -3.4170  -18.5000  -14.6070 C.ar      1 PHE        -0.0687
     20 N          -1.3870  -13.3840  -14.1380 N.am      1 LYS        -0.2639
     21 CA         -0.0910  -13.6750  -14.7460 C.3       1 LYS         0.1282
     22 C           0.8140  -14.2290  -13.6450 C.2       1 LYS         0.2036
     23 O           0.7210  -13.7800  -12.5030 O.2       1 LYS        -0.3944
     24 CB          0.5210  -12.4280  -15.3870 C.3       1 LYS        -0.0244
     25 N           1.6640  -15.2060  -13.9720 N.am      1 LEU        -0.2638
     26 CA          2.6170  -15.7720  -12.9970 C.3       1 LEU         0.1286
     27 C           3.8220  -14.8440  -12.8070 C.2       1 LEU         0.1735
     28 O           4.1700  -14.0890  -13.7140 O.2       1 LEU        -0.3971
     29 CB          3.0980  -17.1730  -13.4220 C.3       1 LEU        -0.0102
     30 CG          2.0580  -18.2470  -13.7970 C.3       1 LEU        -0.0425
     31 CD1         2.6520  -19.6510  -13.7010 C.3       1 LEU        -0.0625
     32 CD2         0.8020  -18.1560  -12.9460 C.3       1 LEU        -0.0625
     33 N           4.4590  -14.9230  -11.6350 N.am      1 B2V        -0.4360
     34 CA          5.5520  -14.0000  -11.2450 C.3       1 B2V        -0.2238
     35 CB          5.1050  -13.1250  -10.0450 C.3       1 B2V        -0.1543
     36 CG1         4.1160  -12.0540  -10.5030 C.3       1 B2V        -0.0883
     37 CG2         4.4620  -13.8670   -8.8690 C.3       1 B2V        -0.0883
     38 B           6.9390  -14.7880  -10.9780 B         1 B2V         3.0000
     39 O1          7.4050  -15.6340  -12.1650 O.3       1 B2V        -0.8710
     40 O2          8.0680  -13.9280  -10.3940 O.3       1 B2V        -0.8710
     41 H          -8.0984  -11.2933  -15.5938 H         1 MET         0.2015
     42 H          -7.2884  -11.3780  -17.0477 H         1 MET         0.2015
     43 H          -8.7176  -12.2095  -16.8404 H         1 MET         0.2015
     44 H          -7.7393  -13.6327  -15.1989 H         1 MET         0.1098
     45 H          -7.6382  -14.1080  -17.6694 H         1 MET         0.0354
     46 H          -6.3513  -14.9245  -16.6322 H         1 MET         0.0354
     47 H          -4.7755  -13.2187  -17.3966 H         1 MET         0.0380
     48 H          -6.0517  -12.6149  -18.5413 H         1 MET         0.0380
     49 H          -3.3768  -15.3475  -17.7373 H         1 MET         0.0340
     50 H          -4.8739  -16.2717  -17.4623 H         1 MET         0.0340
     51 H          -3.8270  -16.6645  -18.8481 H         1 MET         0.0340
     52 H          -5.2259  -14.5861  -15.0925 H         1 PHE         0.1886
     53 H          -3.8962  -12.4685  -13.4699 H         1 PHE         0.0823
     54 H          -4.6294  -14.5266  -12.3085 H         1 PHE         0.0474
     55 H          -2.8094  -14.3803  -12.3210 H         1 PHE         0.0474
     56 H          -1.4686  -15.8795  -13.6924 H         1 PHE         0.0557
     57 H          -5.7241  -16.3054  -13.4245 H         1 PHE         0.0557
     58 H          -1.2980  -18.1429  -14.6854 H         1 PHE         0.0599
     59 H          -5.5604  -18.5719  -14.4098 H         1 PHE         0.0599
     60 H          -3.3443  -19.4977  -15.0398 H         1 PHE         0.0559
     61 H          -1.4126  -13.1351  -13.1492 H         1 LYS         0.1883
     62 H          -0.2081  -14.4040  -15.5479 H         1 LYS         0.0797
     63 H          -0.1479  -12.0540  -16.1621 H         1 LYS         0.0277
     64 H           0.6613  -11.6611  -14.6252 H         1 LYS         0.0277
     65 H           1.4841  -12.6836  -15.8288 H         1 LYS         0.0277
     66 H           1.6543  -15.5720  -14.9240 H         1 LEU         0.1883
     67 H           2.0883  -15.8651  -12.0484 H         1 LEU         0.0799
     68 H           3.6045  -17.5715  -12.5430 H         1 LEU         0.0315
     69 H           3.6672  -17.0059  -14.3365 H         1 LEU         0.0315
     70 H           1.7746  -18.0529  -14.8315 H         1 LEU         0.0298
     71 H           3.4983  -19.7335  -14.3829 H         1 LEU         0.0232
     72 H           2.9873  -19.8332  -12.6800 H         1 LEU         0.0232
     73 H           1.8927  -20.3847  -13.9718 H         1 LEU         0.0232
     74 H           1.0649  -18.2916  -11.8969 H         1 LEU         0.0232
     75 H           0.3419  -17.1774  -13.0830 H         1 LEU         0.0232
     76 H           0.1016  -18.9340  -13.2499 H         1 LEU         0.0232
     77 H           4.1805  -15.6520  -10.9782 H         1 B2V         0.1459
     78 H           5.7588  -13.3278  -12.0778 H         1 B2V        -0.1820
     79 H           6.0419  -12.7068   -9.6771 H         1 B2V        -0.0035
     80 H           4.5917  -11.4171  -11.2488 H         1 B2V         0.0208
     81 H           3.2393  -12.5333  -10.9386 H         1 B2V         0.0208
     82 H           3.8140  -11.4503   -9.6472 H         1 B2V         0.0208
     83 H           3.5673  -14.3855   -9.2137 H         1 B2V         0.0208
     84 H           5.1706  -14.5909   -8.4666 H         1 B2V         0.0208
     85 H           4.1922  -13.1507   -8.0929 H         1 B2V         0.0208
     86 H           6.6681  -16.1528  -12.4956 H         1 B2V        -0.1290
     87 H           8.7791  -14.4977  -10.0919 H         1 B2V        -0.1290
@<TRIPOS>BOND
     1    1    2 1  
     2    2    3 1  
     3    2    5 1  
     4    3    4 2  
     5    3    9 am 
     6    5    6 1  
     7    6    7 1  
     8    7    8 1  
     9    9   10 1  
    10   10   11 1  
    11   10   13 1  
    12   11   12 2  
    13   11   20 am 
    14   13   14 1  
    15   14   15 ar 
    16   14   16 ar 
    17   15   17 ar 
    18   16   18 ar 
    19   17   19 ar 
    20   18   19 ar 
    21   20   21 1  
    22   21   22 1  
    23   21   24 1  
    24   22   23 2  
    25   22   25 am 
    26   25   26 1  
    27   26   27 1  
    28   26   29 1  
    29   27   28 2  
    30   27   33 am 
    31   29   30 1  
    32   30   31 1  
    33   30   32 1  
    34   33   34 1  
    35   34   35 1  
    36   34   38 1  
    37   35   36 1  
    38   35   37 1  
    39   38   39 1  
    40   38   40 1  
    41    1   41 1  
    42    1   42 1  
    43    1   43 1  
    44    2   44 1  
    45    5   45 1  
    46    5   46 1  
    47    6   47 1  
    48    6   48 1  
    49    8   49 1  
    50    8   50 1  
    51    8   51 1  
    52    9   52 1  
    53   10   53 1  
    54   13   54 1  
    55   13   55 1  
    56   15   56 1  
    57   16   57 1  
    58   17   58 1  
    59   18   59 1  
    60   19   60 1  
    61   20   61 1  
    62   21   62 1  
    63   24   63 1  
    64   24   64 1  
    65   24   65 1  
    66   25   66 1  
    67   26   67 1  
    68   29   68 1  
    69   29   69 1  
    70   30   70 1  
    71   31   71 1  
    72   31   72 1  
    73   31   73 1  
    74   32   74 1  
    75   32   75 1  
    76   32   76 1  
    77   33   77 1  
    78   34   78 1  
    79   35   79 1  
    80   36   80 1  
    81   36   81 1  
    82   36   82 1  
    83   37   83 1  
    84   37   84 1  
    85   37   85 1  
    86   39   86 1  
    87   40   87 1  
@<TRIPOS>SUBSTRUCTURE
     1 MET         1

