3nzi_ligand
  -I-interpret- 

 87 87  0  0  0  0  0  0  0  0999 V2000
   -7.8620  -11.8960  -16.3820 N   0  3  0  0  0
   -7.1010  -13.0810  -15.8890 C   0  0  0  0  0
   -5.8470  -12.6600  -15.1090 C   0  0  0  0  0
   -5.6400  -11.4780  -14.8390 O   0  0  0  0  0
   -6.7360  -14.0020  -17.0670 C   0  0  0  0  0
   -5.6430  -13.4720  -18.0060 C   0  0  0  0  0
   -5.1160  -14.6920  -19.2370 S   0  0  0  0  0
   -4.2090  -15.8590  -18.2210 C   0  0  0  0  0
   -5.0150  -13.6420  -14.7690 N   0  0  0  0  0
   -3.8120  -13.4410  -13.9550 C   0  0  0  0  0
   -2.5360  -13.4270  -14.8080 C   0  0  0  0  0
   -2.5950  -13.4390  -16.0340 O   0  0  0  0  0
   -3.7150  -14.5580  -12.9010 C   0  0  0  0  0
   -3.6080  -15.9390  -13.4890 C   0  0  0  0  0
   -2.3720  -16.4690  -13.8490 C   0  0  0  0  0
   -4.7480  -16.7060  -13.6980 C   0  0  0  0  0
   -2.2730  -17.7430  -14.4070 C   0  0  0  0  0
   -4.6580  -17.9810  -14.2530 C   0  0  0  0  0
   -3.4170  -18.5000  -14.6070 C   0  0  0  0  0
   -1.3870  -13.3840  -14.1380 N   0  0  0  0  0
   -0.0910  -13.6750  -14.7460 C   0  0  0  0  0
    0.8140  -14.2290  -13.6450 C   0  0  0  0  0
    0.7210  -13.7800  -12.5030 O   0  0  0  0  0
    0.5210  -12.4280  -15.3870 C   0  0  0  0  0
    1.6640  -15.2060  -13.9720 N   0  0  0  0  0
    2.6170  -15.7720  -12.9970 C   0  0  0  0  0
    3.8220  -14.8440  -12.8070 C   0  0  0  0  0
    4.1700  -14.0890  -13.7140 O   0  0  0  0  0
    3.0980  -17.1730  -13.4220 C   0  0  0  0  0
    2.0580  -18.2470  -13.7970 C   0  0  0  0  0
    2.6520  -19.6510  -13.7010 C   0  0  0  0  0
    0.8020  -18.1560  -12.9460 C   0  0  0  0  0
    4.4590  -14.9230  -11.6350 N   0  0  0  0  0
    5.5520  -14.0000  -11.2450 C   0  0  0  0  0
    5.1050  -13.1250  -10.0450 C   0  0  0  0  0
    4.1160  -12.0540  -10.5030 C   0  0  0  0  0
    4.4620  -13.8670   -8.8690 C   0  0  0  0  0
    6.9390  -14.7880  -10.9780 B   0  0  0  0  0
    7.4050  -15.6340  -12.1650 O   0  0  0  0  0
    8.0680  -13.9280  -10.3940 O   0  0  0  0  0
   -8.0984  -11.2933  -15.5938 H   0  0  0  0  0
   -7.2884  -11.3780  -17.0477 H   0  0  0  0  0
   -8.7176  -12.2095  -16.8404 H   0  0  0  0  0
   -7.7393  -13.6327  -15.1989 H   0  0  0  0  0
   -7.6382  -14.1080  -17.6694 H   0  0  0  0  0
   -6.3513  -14.9245  -16.6322 H   0  0  0  0  0
   -4.7755  -13.2187  -17.3966 H   0  0  0  0  0
   -6.0517  -12.6149  -18.5413 H   0  0  0  0  0
   -3.3768  -15.3475  -17.7373 H   0  0  0  0  0
   -4.8739  -16.2717  -17.4623 H   0  0  0  0  0
   -3.8270  -16.6645  -18.8481 H   0  0  0  0  0
   -5.2259  -14.5861  -15.0925 H   0  0  0  0  0
   -3.8962  -12.4685  -13.4699 H   0  0  0  0  0
   -4.6294  -14.5266  -12.3085 H   0  0  0  0  0
   -2.8094  -14.3803  -12.3210 H   0  0  0  0  0
   -1.4686  -15.8795  -13.6924 H   0  0  0  0  0
   -5.7241  -16.3054  -13.4245 H   0  0  0  0  0
   -1.2980  -18.1429  -14.6854 H   0  0  0  0  0
   -5.5604  -18.5719  -14.4098 H   0  0  0  0  0
   -3.3443  -19.4977  -15.0398 H   0  0  0  0  0
   -1.4126  -13.1351  -13.1492 H   0  0  0  0  0
   -0.2081  -14.4040  -15.5479 H   0  0  0  0  0
   -0.1479  -12.0540  -16.1621 H   0  0  0  0  0
    0.6613  -11.6611  -14.6252 H   0  0  0  0  0
    1.4841  -12.6836  -15.8288 H   0  0  0  0  0
    1.6543  -15.5720  -14.9240 H   0  0  0  0  0
    2.0883  -15.8651  -12.0484 H   0  0  0  0  0
    3.6045  -17.5715  -12.5430 H   0  0  0  0  0
    3.6672  -17.0059  -14.3365 H   0  0  0  0  0
    1.7746  -18.0529  -14.8315 H   0  0  0  0  0
    3.4983  -19.7335  -14.3829 H   0  0  0  0  0
    2.9873  -19.8332  -12.6800 H   0  0  0  0  0
    1.8927  -20.3847  -13.9718 H   0  0  0  0  0
    1.0649  -18.2916  -11.8969 H   0  0  0  0  0
    0.3419  -17.1774  -13.0830 H   0  0  0  0  0
    0.1016  -18.9340  -13.2499 H   0  0  0  0  0
    4.1805  -15.6520  -10.9782 H   0  0  0  0  0
    5.7588  -13.3278  -12.0778 H   0  0  0  0  0
    6.0419  -12.7068   -9.6771 H   0  0  0  0  0
    4.5917  -11.4171  -11.2488 H   0  0  0  0  0
    3.2393  -12.5333  -10.9386 H   0  0  0  0  0
    3.8140  -11.4503   -9.6472 H   0  0  0  0  0
    3.5673  -14.3855   -9.2137 H   0  0  0  0  0
    5.1706  -14.5909   -8.4666 H   0  0  0  0  0
    4.1922  -13.1507   -8.0929 H   0  0  0  0  0
    8.2291  -16.0721  -11.9403 H   0  0  0  0  0
    8.8496  -14.4709  -10.2677 H   0  0  0  0  0
  1  2  1  0  0  0
  2  3  1  0  0  0
  2  5  1  0  0  0
  3  4  2  0  0  0
  3  9  1  0  0  0
  5  6  1  0  0  0
  6  7  1  0  0  0
  7  8  1  0  0  0
  9 10  1  0  0  0
 10 11  1  0  0  0
 10 13  1  0  0  0
 11 12  2  0  0  0
 11 20  1  0  0  0
 13 14  1  0  0  0
 14 15  4  0  0  0
 14 16  4  0  0  0
 15 17  4  0  0  0
 16 18  4  0  0  0
 17 19  4  0  0  0
 18 19  4  0  0  0
 20 21  1  0  0  0
 21 22  1  0  0  0
 21 24  1  0  0  0
 22 23  2  0  0  0
 22 25  1  0  0  0
 25 26  1  0  0  0
 26 27  1  0  0  0
 26 29  1  0  0  0
 27 28  2  0  0  0
 27 33  1  0  0  0
 29 30  1  0  0  0
 30 31  1  0  0  0
 30 32  1  0  0  0
 33 34  1  0  0  0
 34 35  1  0  0  0
 34 38  1  0  0  0
 35 36  1  0  0  0
 35 37  1  0  0  0
 38 39  1  0  0  0
 38 40  1  0  0  0
  1 41  1  0  0  0
  1 42  1  0  0  0
  1 43  1  0  0  0
  2 44  1  0  0  0
  5 45  1  0  0  0
  5 46  1  0  0  0
  6 47  1  0  0  0
  6 48  1  0  0  0
  8 49  1  0  0  0
  8 50  1  0  0  0
  8 51  1  0  0  0
  9 52  1  0  0  0
 10 53  1  0  0  0
 13 54  1  0  0  0
 13 55  1  0  0  0
 15 56  1  0  0  0
 16 57  1  0  0  0
 17 58  1  0  0  0
 18 59  1  0  0  0
 19 60  1  0  0  0
 20 61  1  0  0  0
 21 62  1  0  0  0
 24 63  1  0  0  0
 24 64  1  0  0  0
 24 65  1  0  0  0
 25 66  1  0  0  0
 26 67  1  0  0  0
 29 68  1  0  0  0
 29 69  1  0  0  0
 30 70  1  0  0  0
 31 71  1  0  0  0
 31 72  1  0  0  0
 31 73  1  0  0  0
 32 74  1  0  0  0
 32 75  1  0  0  0
 32 76  1  0  0  0
 33 77  1  0  0  0
 34 78  1  0  0  0
 35 79  1  0  0  0
 36 80  1  0  0  0
 36 81  1  0  0  0
 36 82  1  0  0  0
 37 83  1  0  0  0
 37 84  1  0  0  0
 37 85  1  0  0  0
 39 86  1  0  0  0
 40 87  1  0  0  0
M  END
$$$$
