5evd_ligand
  -I-interpret- 

 31 32  0  0  0  0  0  0  0  0999 V2000
  -17.3000   23.7570   -0.8950 O   0  0  0  0  0
  -16.2590   24.4430   -0.6990 C   0  0  0  0  0
  -15.2670   24.2310   -0.0150 O   0  0  0  0  0
  -16.2040   25.8010   -1.3800 C   0  0  0  0  0
  -17.4000   26.0640   -2.1280 N   0  3  0  0  0
  -15.0340   25.7700   -2.3910 C   0  0  0  0  0
  -13.6930   26.0350   -1.7950 C   0  0  0  0  0
  -14.9600   24.5650   -3.2390 C   0  0  0  0  0
  -15.4070   27.1540   -3.5400 S   0  0  0  0  0
  -17.1890   27.0310   -3.1500 C   0  0  0  0  0
  -17.6190   28.3950   -2.7200 C   0  0  0  0  0
  -18.2800   28.2380   -1.0890 S   0  0  0  0  0
  -18.5000   26.4500   -1.2620 C   0  0  0  0  0
  -19.8330   26.2550   -1.9790 C   0  0  0  0  0
  -21.2560   26.7900   -1.0070 S   0  0  0  0  0
  -17.8832   24.2270   -1.4955 H   0  0  0  0  0
  -16.0850   26.5688   -0.6155 H   0  0  0  0  0
  -17.6573   25.1897   -2.5860 H   0  0  0  0  0
  -12.9475   26.0847   -2.5886 H   0  0  0  0  0
  -13.7167   26.9828   -1.2572 H   0  0  0  0  0
  -13.4380   25.2306   -1.1051 H   0  0  0  0  0
  -15.9148   24.4184   -3.7439 H   0  0  0  0  0
  -14.1712   24.6919   -3.9805 H   0  0  0  0  0
  -14.7395   23.6975   -2.6170 H   0  0  0  0  0
  -17.7732   26.7045   -4.0104 H   0  0  0  0  0
  -18.3680   28.7964   -3.4027 H   0  0  0  0  0
  -16.7761   29.0860   -2.7297 H   0  0  0  0  0
  -18.5053   25.8807   -0.3325 H   0  0  0  0  0
  -19.9492   25.1884   -2.1713 H   0  0  0  0  0
  -19.8092   26.8591   -2.8860 H   0  0  0  0  0
  -22.3697   26.5850   -1.7045 H   0  0  0  0  0
  1  2  1  0  0  0
  2  3  2  0  0  0
  2  4  1  0  0  0
  4  5  1  0  0  0
  4  6  1  0  0  0
  5 10  1  0  0  0
  5 13  1  0  0  0
  6  7  1  0  0  0
  6  8  1  0  0  0
  6  9  1  0  0  0
  9 10  1  0  0  0
 10 11  1  0  0  0
 11 12  1  0  0  0
 12 13  1  0  0  0
 13 14  1  0  0  0
 14 15  1  0  0  0
  1 16  1  0  0  0
  4 17  1  0  0  0
  5 18  1  0  0  0
  7 19  1  0  0  0
  7 20  1  0  0  0
  7 21  1  0  0  0
  8 22  1  0  0  0
  8 23  1  0  0  0
  8 24  1  0  0  0
 10 25  1  0  0  0
 11 26  1  0  0  0
 11 27  1  0  0  0
 13 28  1  0  0  0
 14 29  1  0  0  0
 14 30  1  0  0  0
 15 31  1  0  0  0
M  END
$$$$
