5dp5_ligand
  -I-interpret- 

 74 75  0  0  0  0  0  0  0  0999 V2000
   -7.8730   -7.1970   -1.3800 C   0  0  0  0  0
   -9.0960   -6.3860   -1.7790 C   0  0  0  0  0
  -10.2770   -6.4130   -0.8240 C   0  0  0  0  0
  -10.6030   -5.2630   -0.0980 C   0  0  0  0  0
  -11.6840   -5.2470    0.7730 C   0  0  0  0  0
  -12.4630   -6.3880    0.9460 C   0  0  0  0  0
  -12.1530   -7.5390    0.1990 C   0  0  0  0  0
   -2.9930  -11.0650   -3.7790 O   0  0  0  0  0
   -1.6640   -9.3090   -3.0470 N   0  0  0  0  0
   -4.1030   -7.9420    2.0560 N   0  3  0  0  0
   -6.9590   -8.1440   -3.4490 N   0  0  0  0  0
   -5.9320   -7.4660    0.3740 C   0  0  0  0  0
   -5.4040   -8.3680   -0.2830 O   0  0  0  0  0
   -6.1280   -5.8600   -7.1410 O   0  0  0  0  0
   -7.0330   -5.8790   -6.3190 C   0  0  0  0  0
   -7.3590   -4.6450   -5.6590 O   0  0  0  0  0
   -7.3660   -3.5230   -6.5340 C   0  0  0  0  0
   -8.5220   -3.6850   -7.5150 C   0  0  0  0  0
   -7.8380   -7.1160   -5.9930 C   0  0  0  0  0
   -6.9640   -8.3510   -5.8340 C   0  0  0  0  0
   -6.0480   -8.1250   -4.6300 C   0  0  0  0  0
   -4.9580   -9.1520   -4.5250 C   0  0  0  0  0
   -3.9550   -8.9040   -3.3700 C   0  0  0  0  0
   -3.2060   -7.5770   -3.4080 C   0  0  0  0  0
   -1.7650   -7.8600   -2.9310 C   0  0  0  0  0
   -2.8290   -9.8960   -3.4090 C   0  0  0  0  0
   -6.9350   -7.1200   -2.5710 C   0  0  0  0  0
   -6.1680   -6.1620   -2.6820 O   0  0  0  0  0
   -7.2210   -6.7480   -0.0400 C   0  0  0  0  0
   -5.2110   -7.0140    1.6520 C   0  0  0  0  0
   -4.6360   -5.5950    1.4730 C   0  0  0  0  0
   -3.7550   -5.4910    0.2270 C   0  0  0  0  0
   -3.8650   -5.1470    2.7060 C   0  0  0  0  0
  -11.0620   -7.5380   -0.6820 C   0  0  0  0  0
  -13.5300   -6.3730    1.7840 F   0  0  0  0  0
   -8.1480   -8.2286   -1.1601 H   0  0  0  0  0
   -9.4544   -6.8237   -2.7107 H   0  0  0  0  0
   -8.7667   -5.3477   -1.8185 H   0  0  0  0  0
   -9.9982   -4.3642   -0.2180 H   0  0  0  0  0
  -11.9239   -4.3374    1.3237 H   0  0  0  0  0
  -12.7636   -8.4356    0.3055 H   0  0  0  0  0
   -0.8033   -9.8281   -2.8732 H   0  0  0  0  0
   -3.6622   -7.5931    2.9071 H   0  0  0  0  0
   -4.4853   -8.8722    2.2264 H   0  0  0  0  0
   -3.4110   -7.9893    1.3081 H   0  0  0  0  0
   -7.5967   -8.9271   -3.3060 H   0  0  0  0  0
   -6.4220   -3.4667   -7.0760 H   0  0  0  0  0
   -7.4890   -2.6039   -5.9611 H   0  0  0  0  0
   -8.3861   -4.6033   -8.0862 H   0  0  0  0  0
   -9.4608   -3.7343   -6.9633 H   0  0  0  0  0
   -8.5426   -2.8328   -8.1942 H   0  0  0  0  0
   -8.5291   -7.2955   -6.8166 H   0  0  0  0  0
   -8.3536   -6.9437   -5.0483 H   0  0  0  0  0
   -6.3716   -8.5134   -6.7345 H   0  0  0  0  0
   -7.5829   -9.2345   -5.6776 H   0  0  0  0  0
   -5.5080   -7.1818   -4.7133 H   0  0  0  0  0
   -4.3911   -9.1134   -5.4552 H   0  0  0  0  0
   -5.4390  -10.1107   -4.3310 H   0  0  0  0  0
   -4.6061   -8.9585   -2.4976 H   0  0  0  0  0
   -3.6889   -6.8424   -2.7636 H   0  0  0  0  0
   -3.2048   -7.1629   -4.4163 H   0  0  0  0  0
   -1.0129   -7.3343   -3.5193 H   0  0  0  0  0
   -1.5754   -7.5016   -1.9192 H   0  0  0  0  0
   -7.9512   -6.9703    0.7381 H   0  0  0  0  0
   -6.9510   -5.7005   -0.1741 H   0  0  0  0  0
   -5.9595   -7.0231    2.4443 H   0  0  0  0  0
   -5.4863   -4.9263    1.3390 H   0  0  0  0  0
   -2.9226   -6.1895    0.3128 H   0  0  0  0  0
   -4.3461   -5.7349   -0.6557 H   0  0  0  0  0
   -3.3707   -4.4748    0.1391 H   0  0  0  0  0
   -4.5315   -5.1439    3.5685 H   0  0  0  0  0
   -3.0388   -5.8348    2.8861 H   0  0  0  0  0
   -3.4743   -4.1425    2.5435 H   0  0  0  0  0
  -10.8325   -8.4337   -1.2593 H   0  0  0  0  0
  1  2  1  0  0  0
 27  1  1  0  0  0
  1 29  1  0  0  0
  2  3  1  0  0  0
  3  4  4  0  0  0
  3 34  4  0  0  0
  4  5  4  0  0  0
  5  6  4  0  0  0
  7  6  4  0  0  0
  6 35  1  0  0  0
 34  7  4  0  0  0
 26  8  2  0  0  0
  9 25  1  0  0  0
 26  9  1  0  0  0
 30 10  1  0  0  0
 21 11  1  0  0  0
 11 27  1  0  0  0
 12 13  2  0  0  0
 29 12  1  0  0  0
 12 30  1  0  0  0
 15 14  2  0  0  0
 15 16  1  0  0  0
 19 15  1  0  0  0
 16 17  1  0  0  0
 17 18  1  0  0  0
 20 19  1  0  0  0
 21 20  1  0  0  0
 22 21  1  0  0  0
 23 22  1  0  0  0
 23 24  1  0  0  0
 23 26  1  0  0  0
 24 25  1  0  0  0
 27 28  2  0  0  0
 30 31  1  0  0  0
 31 32  1  0  0  0
 31 33  1  0  0  0
  1 36  1  0  0  0
  2 37  1  0  0  0
  2 38  1  0  0  0
  4 39  1  0  0  0
  5 40  1  0  0  0
  7 41  1  0  0  0
  9 42  1  0  0  0
 10 43  1  0  0  0
 10 44  1  0  0  0
 10 45  1  0  0  0
 11 46  1  0  0  0
 17 47  1  0  0  0
 17 48  1  0  0  0
 18 49  1  0  0  0
 18 50  1  0  0  0
 18 51  1  0  0  0
 19 52  1  0  0  0
 19 53  1  0  0  0
 20 54  1  0  0  0
 20 55  1  0  0  0
 21 56  1  0  0  0
 22 57  1  0  0  0
 22 58  1  0  0  0
 23 59  1  0  0  0
 24 60  1  0  0  0
 24 61  1  0  0  0
 25 62  1  0  0  0
 25 63  1  0  0  0
 29 64  1  0  0  0
 29 65  1  0  0  0
 30 66  1  0  0  0
 31 67  1  0  0  0
 32 68  1  0  0  0
 32 69  1  0  0  0
 32 70  1  0  0  0
 33 71  1  0  0  0
 33 72  1  0  0  0
 33 73  1  0  0  0
 34 74  1  0  0  0
M  END
$$$$
