3f37_ligand
  -I-interpret- 

 19 19  0  0  0  0  0  0  0  0999 V2000
   31.4450    0.2680   34.3700 C   0  0  0  0  0
   32.6670    0.2810   35.2910 C   0  0  0  0  0
   32.5450    0.1430   36.6640 C   0  0  0  0  0
   33.6870    0.1310   37.4520 C   0  0  0  0  0
   34.9540    0.2190   36.8970 C   0  0  0  0  0
   35.0790    0.3230   35.5240 C   0  0  0  0  0
   36.4560    0.4190   34.8680 C   0  0  0  0  0
   33.9440    0.3410   34.7310 C   0  0  0  0  0
   34.1200    0.4390   33.3930 O   0  0  0  0  0
   30.9208   -0.6816   34.4774 H   0  0  0  0  0
   30.7777    1.0857   34.6423 H   0  0  0  0  0
   31.7692    0.3907   33.3366 H   0  0  0  0  0
   31.5605    0.0447   37.1213 H   0  0  0  0  0
   33.5852    0.0504   38.5342 H   0  0  0  0  0
   35.8387    0.2064   37.5335 H   0  0  0  0  0
   36.9733    1.3035   35.2398 H   0  0  0  0  0
   37.0357   -0.4715   35.1110 H   0  0  0  0  0
   36.3377    0.4933   33.7870 H   0  0  0  0  0
   35.0592    0.4678   33.1962 H   0  0  0  0  0
  1  2  1  0  0  0
  2  3  4  0  0  0
  2  8  4  0  0  0
  3  4  4  0  0  0
  4  5  4  0  0  0
  5  6  4  0  0  0
  6  7  1  0  0  0
  6  8  4  0  0  0
  8  9  1  0  0  0
  1 10  1  0  0  0
  1 11  1  0  0  0
  1 12  1  0  0  0
  3 13  1  0  0  0
  4 14  1  0  0  0
  5 15  1  0  0  0
  7 16  1  0  0  0
  7 17  1  0  0  0
  7 18  1  0  0  0
  9 19  1  0  0  0
M  END
$$$$
