3ncg_ligand
  -I-interpret- 

 43 46  0  0  0  0  0  0  0  0999 V2000
   27.4900    6.2330    6.7040 N   0  0  0  0  0
   27.5290    5.5080    5.6050 C   0  0  0  0  0
   26.8960    5.8890    4.5020 N   0  0  0  0  0
   26.2050    7.0290    4.4620 C   0  0  0  0  0
   26.1310    7.8350    5.5930 C   0  0  0  0  0
   26.8110    7.3920    6.7410 C   0  0  0  0  0
   25.3780    8.2410    1.1400 C   0  0  0  0  0
   23.8240    6.5960    2.1180 C   0  0  0  0  0
   26.8150    8.0450    7.8830 N   0  0  0  0  0
   24.6340   15.0870    7.3330 C   0  0  0  0  0
   23.7120   14.1010    7.0390 C   0  0  0  0  0
   28.1960   11.9340    6.4940 C   0  0  0  0  0
   27.2540   10.9530    6.2000 C   0  0  0  0  0
   25.9840   14.7720    7.2730 C   0  0  0  0  0
   27.7850   13.2100    6.8610 C   0  0  0  0  0
   24.1390   12.8280    6.6720 C   0  0  0  0  0
   24.8320   10.1590    5.9370 C   0  0  0  0  0
   25.0050    8.6770    3.9250 N   0  0  0  0  0
   25.8900   11.2400    6.2590 C   0  0  0  0  0
   25.3360    8.9140    5.1910 C   0  0  0  0  0
   26.4250   13.4970    6.9170 C   0  0  0  0  0
   25.4960   12.5230    6.6090 C   0  0  0  0  0
   25.2760    7.1110    2.1540 C   0  0  0  0  0
   25.5120    7.6260    3.5130 N   0  0  0  0  0
   28.0930    4.5753    5.6011 H   0  0  0  0  0
   25.1296    7.8615    0.1488 H   0  0  0  0  0
   24.6822    9.0349    1.4114 H   0  0  0  0  0
   26.3950    8.6332    1.1360 H   0  0  0  0  0
   23.7018    5.8054    2.8584 H   0  0  0  0  0
   23.1431    7.4164    2.3449 H   0  0  0  0  0
   23.6037    6.2032    1.1254 H   0  0  0  0  0
   27.3179    7.6660    8.6854 H   0  0  0  0  0
   26.3152    8.9303    7.9660 H   0  0  0  0  0
   24.3080   16.0906    7.6062 H   0  0  0  0  0
   22.6458   14.3208    7.0947 H   0  0  0  0  0
   29.2593   11.7011    6.4363 H   0  0  0  0  0
   27.5844    9.9523    5.9214 H   0  0  0  0  0
   26.7193   15.5408    7.5102 H   0  0  0  0  0
   28.5204   13.9775    7.1023 H   0  0  0  0  0
   23.4027   12.0612    6.4312 H   0  0  0  0  0
   24.1041   10.6333    5.2788 H   0  0  0  0  0
   24.4566    9.8060    6.8975 H   0  0  0  0  0
   26.0057    6.3371    1.9159 H   0  0  0  0  0
  2  1  4  0  0  0
  6  1  4  0  0  0
  3  2  4  0  0  0
  4  3  4  0  0  0
  4  5  4  0  0  0
 24  4  4  0  0  0
  5  6  4  0  0  0
 20  5  4  0  0  0
  6  9  1  0  0  0
 23  7  1  0  0  0
 23  8  1  0  0  0
 11 10  4  0  0  0
 14 10  4  0  0  0
 16 11  4  0  0  0
 13 12  4  0  0  0
 12 15  4  0  0  0
 19 13  4  0  0  0
 21 14  4  0  0  0
 21 15  4  0  0  0
 22 16  4  0  0  0
 17 19  1  0  0  0
 20 17  1  0  0  0
 18 20  4  0  0  0
 24 18  4  0  0  0
 19 22  4  0  0  0
 22 21  4  0  0  0
 23 24  1  0  0  0
  2 25  1  0  0  0
  7 26  1  0  0  0
  7 27  1  0  0  0
  7 28  1  0  0  0
  8 29  1  0  0  0
  8 30  1  0  0  0
  8 31  1  0  0  0
  9 32  1  0  0  0
  9 33  1  0  0  0
 10 34  1  0  0  0
 11 35  1  0  0  0
 12 36  1  0  0  0
 13 37  1  0  0  0
 14 38  1  0  0  0
 15 39  1  0  0  0
 16 40  1  0  0  0
 17 41  1  0  0  0
 17 42  1  0  0  0
 23 43  1  0  0  0
M  END
$$$$
