6ikm_ligand
  -I-interpret- 

 32 31  0  0  0  0  0  0  0  0999 V2000
  -14.9580  -18.0800  147.9590 N   0  3  0  0  0
  -15.1070  -16.9010  148.7610 C   0  0  0  0  0
  -16.1930  -16.0180  148.1580 C   0  0  0  0  0
  -17.4980  -16.1830  148.9410 C   0  0  0  0  0
  -18.6920  -15.8720  148.0230 C   0  0  0  0  0
  -19.5650  -17.0250  147.8910 N   0  3  0  0  0
  -20.7930  -16.6230  147.2350 C   0  0  0  0  0
  -21.3260  -17.7430  146.3330 C   0  0  0  0  0
  -22.4390  -17.1940  145.4430 C   0  0  0  0  0
  -23.0970  -18.2580  144.7350 N   0  3  0  0  0
  -14.2316  -18.6731  148.3602 H   0  0  0  0  0
  -15.8415  -18.5894  147.9380 H   0  0  0  0  0
  -14.6953  -17.8134  147.0102 H   0  0  0  0  0
  -14.1641  -16.3548  148.7867 H   0  0  0  0  0
  -15.3865  -17.1824  149.7763 H   0  0  0  0  0
  -16.3579  -16.3106  147.1210 H   0  0  0  0  0
  -15.8756  -14.9764  148.2061 H   0  0  0  0  0
  -17.5025  -15.4958  149.7871 H   0  0  0  0  0
  -17.5764  -17.2081  149.3031 H   0  0  0  0  0
  -18.3130  -15.6069  147.0360 H   0  0  0  0  0
  -19.2620  -15.0513  148.4585 H   0  0  0  0  0
  -19.7784  -17.3994  148.8155 H   0  0  0  0  0
  -19.1004  -17.7434  147.3356 H   0  0  0  0  0
  -20.5904  -15.7457  146.6207 H   0  0  0  0  0
  -21.5404  -16.4019  147.9969 H   0  0  0  0  0
  -21.7196  -18.5504  146.9505 H   0  0  0  0  0
  -20.5168  -18.1235  145.7097 H   0  0  0  0  0
  -22.0030  -16.5062  144.7184 H   0  0  0  0  0
  -23.1704  -16.6831  146.0692 H   0  0  0  0  0
  -23.8350  -17.8689  144.1482 H   0  0  0  0  0
  -22.4185  -18.7466  144.1508 H   0  0  0  0  0
  -23.5028  -18.9109  145.4054 H   0  0  0  0  0
  1  2  1  0  0  0
  2  3  1  0  0  0
  3  4  1  0  0  0
  4  5  1  0  0  0
  5  6  1  0  0  0
  6  7  1  0  0  0
  7  8  1  0  0  0
  8  9  1  0  0  0
  9 10  1  0  0  0
  1 11  1  0  0  0
  1 12  1  0  0  0
  1 13  1  0  0  0
  2 14  1  0  0  0
  2 15  1  0  0  0
  3 16  1  0  0  0
  3 17  1  0  0  0
  4 18  1  0  0  0
  4 19  1  0  0  0
  5 20  1  0  0  0
  5 21  1  0  0  0
  6 22  1  0  0  0
  6 23  1  0  0  0
  7 24  1  0  0  0
  7 25  1  0  0  0
  8 26  1  0  0  0
  8 27  1  0  0  0
  9 28  1  0  0  0
  9 29  1  0  0  0
 10 30  1  0  0  0
 10 31  1  0  0  0
 10 32  1  0  0  0
M  END
$$$$
