### 
### Created by X-TOOL on Mon Sep 10 21:12:50 2018
### 

@<TRIPOS>MOLECULE
1r10_ligand
   43    45     1     0     0
SMALL
GAST_HUCK


@<TRIPOS>ATOM
      1 PG        148.2720   11.7150  254.1630 P.3       1 ATP         0.1879
      2 O1G       147.4340   11.4430  252.9290 O.co2     1 ATP        -0.6091
      3 O2G       147.8030   12.8890  254.9960 O.co2     1 ATP        -0.6091
      4 O3G       148.4420   10.4760  255.0150 O.co2     1 ATP        -0.6091
      5 PB        150.6180   13.4950  253.8420 P.3       1 ATP         0.3553
      6 O1B       151.7490   13.6620  252.9740 O.co2     1 ATP        -0.5652
      7 O2B       150.0910   14.6250  254.6270 O.co2     1 ATP        -0.5652
      8 O3B       149.7660   12.1490  253.6700 O.3       1 ATP        -0.1546
      9 PA        152.3330   13.4140  256.2480 P.3       1 ATP         0.3266
     10 O1A       151.6780   13.2810  257.5650 O.co2     1 ATP        -0.5692
     11 O2A       153.5320   14.2780  256.0090 O.co2     1 ATP        -0.5692
     12 O3A       151.6280   12.7280  254.9860 O.3       1 ATP        -0.1171
     13 O5        153.0320   12.1880  256.7130 O.3       1 ATP        -0.2441
     14 C5        153.8030   11.1840  256.7450 C.3       1 ATP         0.1131
     15 C4        155.0050   10.4950  257.2230 C.3       1 ATP         0.1189
     16 O4        154.6410   10.4270  258.6430 O.3       1 ATP        -0.3364
     17 C3        154.7180    9.2560  256.4900 C.3       1 ATP         0.1149
     18 O3        155.8270    8.6650  255.8340 O.3       1 ATP        -0.3864
     19 C2        154.0320    8.3220  257.5560 C.3       1 ATP         0.1385
     20 O2        154.8430    7.1720  257.6850 O.3       1 ATP        -0.3836
     21 C1        154.0380    9.0980  258.9300 C.3       1 ATP         0.2010
     22 N9        152.6720    9.3110  259.5890 N.pl3     1 ATP        -0.1919
     23 C8        151.7410   10.3930  259.4780 C.2       1 ATP         0.1123
     24 N7        150.6520   10.2730  260.1910 N.2       1 ATP        -0.2958
     25 C5        150.8440    9.0270  260.8330 C.ar      1 ATP         0.1045
     26 C6        150.0290    8.2610  261.7890 C.ar      1 ATP         0.1298
     27 N6        148.8340    8.7250  262.2230 N.pl3     1 ATP        -0.3152
     28 N1        150.5270    7.0140  262.2510 N.ar      1 ATP        -0.2698
     29 C2        151.7410    6.5420  261.8080 C.ar      1 ATP         0.0533
     30 N3        152.6000    7.1610  260.9190 N.ar      1 ATP        -0.2714
     31 C4        152.0670    8.4310  260.4680 C.ar      1 ATP         0.1613
     32 H1        153.9959   11.1017  255.6652 H         1 ATP         0.0648
     33 H2        153.0617   10.4282  257.0437 H         1 ATP         0.0648
     34 H3        155.9895   10.9428  257.0225 H         1 ATP         0.0651
     35 H4        153.9825    9.4858  255.7050 H         1 ATP         0.0648
     36 H5        156.4946    8.4498  256.4746 H         1 ATP         0.2100
     37 H6        153.0081    8.0542  257.2562 H         1 ATP         0.0676
     38 H7        154.9042    6.7331  256.8447 H         1 ATP         0.2101
     39 H8        154.6715    8.5443  259.6386 H         1 ATP         0.0996
     40 H9        151.9275   11.2575  258.8426 H         1 ATP         0.1349
     41 H10       148.2794    8.1726  262.8925 H         1 ATP         0.1820
     42 H11       148.4791    9.6305  261.8838 H         1 ATP         0.1820
     43 H12       152.0581    5.5815  262.1979 H         1 ATP         0.0996
@<TRIPOS>BOND
     1    1    2 ar 
     2    1    3 ar 
     3    1    4 ar 
     4    8    1 1  
     5    5    6 ar 
     6    5    7 ar 
     7    5    8 1  
     8   12    5 1  
     9    9   10 ar 
    10    9   11 ar 
    11    9   12 1  
    12    9   13 1  
    13   13   14 1  
    14   14   15 1  
    15   15   16 1  
    16   15   17 1  
    17   16   21 1  
    18   17   18 1  
    19   17   19 1  
    20   19   20 1  
    21   19   21 1  
    22   21   22 1  
    23   22   23 1  
    24   22   31 1  
    25   23   24 2  
    26   24   25 1  
    27   25   26 ar 
    28   25   31 ar 
    29   26   27 1  
    30   26   28 ar 
    31   28   29 ar 
    32   29   30 ar 
    33   30   31 ar 
    34   14   32 1  
    35   14   33 1  
    36   15   34 1  
    37   17   35 1  
    38   18   36 1  
    39   19   37 1  
    40   20   38 1  
    41   21   39 1  
    42   23   40 1  
    43   27   41 1  
    44   27   42 1  
    45   29   43 1  
@<TRIPOS>SUBSTRUCTURE
     1 ATP         1

