1r10_ligand
  -I-interpret- 

 47 49  0  0  0  0  0  0  0  0999 V2000
  148.2720   11.7150  254.1630 P   0  0  0  0  0
  147.4340   11.4430  252.9290 O   0  0  0  0  0
  147.8030   12.8890  254.9960 O   0  0  0  0  0
  148.4420   10.4760  255.0150 O   0  0  0  0  0
  150.6180   13.4950  253.8420 P   0  0  0  0  0
  151.7490   13.6620  252.9740 O   0  0  0  0  0
  150.0910   14.6250  254.6270 O   0  0  0  0  0
  149.7660   12.1490  253.6700 O   0  0  0  0  0
  152.3330   13.4140  256.2480 P   0  0  0  0  0
  151.6780   13.2810  257.5650 O   0  0  0  0  0
  153.5320   14.2780  256.0090 O   0  0  0  0  0
  151.6280   12.7280  254.9860 O   0  0  0  0  0
  153.0320   12.1880  256.7130 O   0  0  0  0  0
  153.8030   11.1840  256.7450 C   0  0  0  0  0
  155.0050   10.4950  257.2230 C   0  0  0  0  0
  154.6410   10.4270  258.6430 O   0  0  0  0  0
  154.7180    9.2560  256.4900 C   0  0  0  0  0
  155.8270    8.6650  255.8340 O   0  0  0  0  0
  154.0320    8.3220  257.5560 C   0  0  0  0  0
  154.8430    7.1720  257.6850 O   0  0  0  0  0
  154.0380    9.0980  258.9300 C   0  0  0  0  0
  152.6720    9.3110  259.5890 N   0  0  0  0  0
  151.7410   10.3930  259.4780 C   0  0  0  0  0
  150.6520   10.2730  260.1910 N   0  0  0  0  0
  150.8440    9.0270  260.8330 C   0  0  0  0  0
  150.0290    8.2610  261.7890 C   0  0  0  0  0
  148.8340    8.7250  262.2230 N   0  0  0  0  0
  150.5270    7.0140  262.2510 N   0  0  0  0  0
  151.7410    6.5420  261.8080 C   0  0  0  0  0
  152.6000    7.1610  260.9190 N   0  0  0  0  0
  152.0670    8.4310  260.4680 C   0  0  0  0  0
  147.3496   12.2504  252.4166 H   0  0  0  0  0
  147.7034   13.6600  254.4328 H   0  0  0  0  0
  149.3392   14.3297  255.1459 H   0  0  0  0  0
  153.7910   14.2159  255.0867 H   0  0  0  0  0
  154.2375   11.4044  255.7700 H   0  0  0  0  0
  153.1382   10.6118  257.3921 H   0  0  0  0  0
  156.0335   10.8370  257.1073 H   0  0  0  0  0
  154.0696    9.4546  255.6366 H   0  0  0  0  0
  155.5430    7.8653  255.3852 H   0  0  0  0  0
  153.0159    8.0501  257.2702 H   0  0  0  0  0
  154.4531    6.5775  258.3301 H   0  0  0  0  0
  154.5910    8.4880  259.6443 H   0  0  0  0  0
  151.9277   11.2583  258.8420 H   0  0  0  0  0
  148.4826    9.6217  261.8871 H   0  0  0  0  0
  148.2848    8.1780  262.8860 H   0  0  0  0  0
  152.0598    5.5762  262.2001 H   0  0  0  0  0
  1  2  1  0  0  0
  1  3  1  0  0  0
  1  4  2  0  0  0
  8  1  1  0  0  0
  5  6  2  0  0  0
  5  7  1  0  0  0
  5  8  1  0  0  0
 12  5  1  0  0  0
  9 10  2  0  0  0
  9 11  1  0  0  0
  9 12  1  0  0  0
  9 13  1  0  0  0
 13 14  1  0  0  0
 14 15  1  0  0  0
 15 16  1  0  0  0
 15 17  1  0  0  0
 16 21  1  0  0  0
 17 18  1  0  0  0
 17 19  1  0  0  0
 19 20  1  0  0  0
 19 21  1  0  0  0
 21 22  1  0  0  0
 22 23  4  0  0  0
 22 31  4  0  0  0
 23 24  4  0  0  0
 24 25  4  0  0  0
 25 26  4  0  0  0
 25 31  4  0  0  0
 26 27  1  0  0  0
 26 28  4  0  0  0
 28 29  4  0  0  0
 29 30  4  0  0  0
 30 31  4  0  0  0
  2 32  1  0  0  0
  3 33  1  0  0  0
  7 34  1  0  0  0
 11 35  1  0  0  0
 14 36  1  0  0  0
 14 37  1  0  0  0
 15 38  1  0  0  0
 17 39  1  0  0  0
 18 40  1  0  0  0
 19 41  1  0  0  0
 20 42  1  0  0  0
 21 43  1  0  0  0
 23 44  1  0  0  0
 27 45  1  0  0  0
 27 46  1  0  0  0
 29 47  1  0  0  0
M  END
$$$$
