5mhq_ligand
  -I-interpret- 

 54 56  0  0  0  0  0  0  0  0999 V2000
   12.5360   -9.0230    9.6460 C   0  0  0  0  0
   15.0800   -9.8300   13.1610 C   0  0  0  0  0
   10.9480  -10.4120   10.6550 C   0  0  0  0  0
    8.6510  -10.5710    9.7850 C   0  0  0  0  0
    8.0080  -11.2210    7.4450 C   0  0  0  0  0
    8.4090  -11.5960    8.7050 C   0  0  0  0  0
    8.5870  -12.9350    8.9390 C   0  0  0  0  0
    8.3720  -13.8420    7.9350 C   0  0  0  0  0
    7.9850  -13.3850    6.7210 C   0  0  0  0  0
   11.8520  -10.6270   11.6980 C   0  0  0  0  0
   12.8980  -11.1080   13.4640 C   0  0  0  0  0
   12.7990   -8.1870    8.6280 N   0  0  0  0  0
   11.3180   -9.6170    9.6360 N   0  0  0  0  0
   14.1210   -7.5990    8.4150 C   0  0  0  0  0
    9.7370  -10.9760   10.6640 N   0  0  0  0  0
   14.1580   -8.6300    6.1020 C   0  0  0  0  0
   14.3460   -7.3820    6.9210 C   0  0  0  0  0
    7.7910  -12.0850    6.4460 N   0  0  0  0  0
   11.7550  -11.3650   12.8790 N   0  0  0  0  0
   13.7570  -10.3220   12.7440 N   0  0  0  0  0
   14.9800   -8.3650   13.5000 C   0  0  0  0  0
   16.1380  -10.1160   12.1030 C   0  0  0  0  0
   13.0590   -9.9570   11.6120 C   0  0  0  0  0
   13.4740   -9.1570   10.6110 N   0  0  0  0  0
   14.3240   -6.3180    9.2520 C   0  0  0  0  0
   15.7150   -5.7510    9.0990 C   0  0  0  0  0
   13.4380   -5.2650    8.8820 O   0  0  0  0  0
   15.4014  -10.3644   14.0550 H   0  0  0  0  0
    7.7425  -10.4716   10.3790 H   0  0  0  0  0
    8.9206   -9.6263    9.3128 H   0  0  0  0  0
    7.8581  -10.1595    7.2480 H   0  0  0  0  0
    8.9000  -13.2784    9.9250 H   0  0  0  0  0
    8.5096  -14.9090    8.1100 H   0  0  0  0  0
    7.8222  -14.1108    5.9243 H   0  0  0  0  0
   13.1475  -11.4922   14.4530 H   0  0  0  0  0
   12.0479   -7.9533    7.9787 H   0  0  0  0  0
   14.8826   -8.2935    8.7695 H   0  0  0  0  0
    9.5641  -11.7336   11.3247 H   0  0  0  0  0
   14.8650   -9.3905    6.4335 H   0  0  0  0  0
   13.1400   -8.9976    6.2308 H   0  0  0  0  0
   14.3333   -8.4028    5.0505 H   0  0  0  0  0
   15.3767   -7.0534    6.7879 H   0  0  0  0  0
   13.6121   -6.6515    6.5805 H   0  0  0  0  0
   14.6436   -7.8125   12.6227 H   0  0  0  0  0
   14.2660   -8.2293   14.3123 H   0  0  0  0  0
   15.9584   -7.9973   13.8093 H   0  0  0  0  0
   16.2042  -11.1915   11.9386 H   0  0  0  0  0
   15.8619   -9.6212   11.1719 H   0  0  0  0  0
   17.1023   -9.7392   12.4441 H   0  0  0  0  0
   14.1336   -6.6405   10.2756 H   0  0  0  0  0
   16.4455   -6.4902    9.4277 H   0  0  0  0  0
   15.8921   -5.5038    8.0523 H   0  0  0  0  0
   15.8080   -4.8511    9.7069 H   0  0  0  0  0
   13.6080   -4.4970    9.4324 H   0  0  0  0  0
  1 12  1  0  0  0
 13  1  4  0  0  0
  1 24  4  0  0  0
 20  2  1  0  0  0
  2 21  1  0  0  0
  2 22  1  0  0  0
 10  3  4  0  0  0
  3 13  4  0  0  0
  3 15  1  0  0  0
  4  6  1  0  0  0
 15  4  1  0  0  0
  6  5  4  0  0  0
  5 18  4  0  0  0
  6  7  4  0  0  0
  7  8  4  0  0  0
  8  9  4  0  0  0
 18  9  4  0  0  0
 19 10  4  0  0  0
 10 23  4  0  0  0
 11 19  4  0  0  0
 11 20  4  0  0  0
 12 14  1  0  0  0
 14 17  1  0  0  0
 14 25  1  0  0  0
 17 16  1  0  0  0
 20 23  4  0  0  0
 23 24  4  0  0  0
 25 26  1  0  0  0
 25 27  1  0  0  0
  2 28  1  0  0  0
  4 29  1  0  0  0
  4 30  1  0  0  0
  5 31  1  0  0  0
  7 32  1  0  0  0
  8 33  1  0  0  0
  9 34  1  0  0  0
 11 35  1  0  0  0
 12 36  1  0  0  0
 14 37  1  0  0  0
 15 38  1  0  0  0
 16 39  1  0  0  0
 16 40  1  0  0  0
 16 41  1  0  0  0
 17 42  1  0  0  0
 17 43  1  0  0  0
 21 44  1  0  0  0
 21 45  1  0  0  0
 21 46  1  0  0  0
 22 47  1  0  0  0
 22 48  1  0  0  0
 22 49  1  0  0  0
 25 50  1  0  0  0
 26 51  1  0  0  0
 26 52  1  0  0  0
 26 53  1  0  0  0
 27 54  1  0  0  0
M  END
$$$$
