1s9t_ligand
  -I-interpret- 

 21 21  0  0  0  0  0  0  0  0999 V2000
   32.8100   13.5360   39.4970 C   0  0  0  0  0
   33.0680   14.4890   38.3090 C   0  0  0  0  0
   34.5520   14.8980   38.3650 C   0  0  0  0  0
   35.0340   14.2410   35.9650 C   0  0  0  0  0
   34.4400   16.2330   35.1590 C   0  0  0  0  0
   32.0570   15.5950   38.4350 N   0  3  0  0  0
   35.0990   15.1350   37.0180 N   0  0  0  0  0
   34.6380   14.9360   34.8770 N   0  0  0  0  0
   31.8790   13.7860   40.2880 O   0  0  0  0  0
   33.5670   12.5240   39.6130 O   0  0  0  0  0
   35.2950   13.0690   36.0770 O   0  0  0  0  0
   34.0890   17.1520   34.4460 O   0  0  0  0  0
   34.7110   16.4180   36.4920 O   0  0  0  0  0
   32.9295   14.0603   37.3165 H   0  0  0  0  0
   35.1156   14.0883   38.8285 H   0  0  0  0  0
   34.6337   15.8217   38.9378 H   0  0  0  0  0
   31.1170   15.2023   38.3837 H   0  0  0  0  0
   32.1811   16.0671   39.3306 H   0  0  0  0  0
   32.1895   16.2632   37.6759 H   0  0  0  0  0
   34.5055   14.5250   33.9529 H   0  0  0  0  0
   34.2118   12.5249   38.9018 H   0  0  0  0  0
  1  2  1  0  0  0
  1  9  2  0  0  0
  1 10  1  0  0  0
  2  3  1  0  0  0
  2  6  1  0  0  0
  3  7  1  0  0  0
  7  4  1  0  0  0
  4  8  1  0  0  0
  4 11  2  0  0  0
  8  5  1  0  0  0
  5 12  2  0  0  0
  5 13  1  0  0  0
  7 13  1  0  0  0
  2 14  1  0  0  0
  3 15  1  0  0  0
  3 16  1  0  0  0
  6 17  1  0  0  0
  6 18  1  0  0  0
  6 19  1  0  0  0
  8 20  1  0  0  0
 10 21  1  0  0  0
M  END
$$$$
