4pre_ligand
  -I-interpret- 

175179  0  0  0  0  0  0  0  0999 V2000
   13.0980  -14.5540  -36.6010 N   0  3  0  0  0
   12.0870  -13.9950  -37.5060 C   0  0  0  0  0
   10.7060  -14.3060  -36.9280 C   0  0  0  0  0
   10.4450  -15.4350  -36.5260 O   0  0  0  0  0
   12.2190  -14.6500  -38.8890 C   0  0  0  0  0
   11.4990  -13.9290  -39.9900 C   0  0  0  0  0
   10.1230  -13.8570  -40.0650 N   0  0  0  0  0
   11.9700  -13.2750  -41.0790 C   0  0  0  0  0
    9.7790  -13.1750  -41.1440 C   0  0  0  0  0
   10.8810  -12.8130  -41.7790 N   0  0  0  0  0
    9.8150  -13.3090  -36.8890 N   0  0  0  0  0
    8.4830  -13.5460  -36.3240 C   0  0  0  0  0
    7.6160  -14.3930  -37.2440 C   0  0  0  0  0
    7.9200  -14.5210  -38.4280 O   0  0  0  0  0
    7.8980  -12.1320  -36.2220 C   0  0  0  0  0
    8.5810  -11.3720  -37.3190 C   0  0  0  0  0
    9.9940  -11.9140  -37.3360 C   0  0  0  0  0
    6.5460  -14.9650  -36.7010 N   0  0  0  0  0
    5.5770  -15.6720  -37.5270 C   0  0  0  0  0
    4.7510  -14.6640  -38.3300 C   0  0  0  0  0
    4.5580  -13.5240  -37.9050 O   0  0  0  0  0
    4.6850  -16.5990  -36.6780 C   0  0  0  0  0
    3.8190  -15.8110  -35.6950 C   0  0  0  0  0
    3.8250  -17.4940  -37.5750 C   0  0  0  0  0
    4.2990  -15.0770  -39.5080 N   0  0  0  0  0
    3.5650  -14.1850  -40.3840 C   0  0  0  0  0
    2.0990  -14.5430  -40.4510 C   0  0  0  0  0
    1.3210  -14.2200  -39.5530 O   0  0  0  0  0
    1.7320  -15.2480  -41.5160 N   0  0  0  0  0
    0.3350  -15.5450  -41.8220 C   0  0  0  0  0
   -0.4280  -16.2880  -40.7130 C   0  0  0  0  0
   -1.6500  -16.1450  -40.5980 O   0  0  0  0  0
    0.2540  -16.3100  -43.1460 C   0  0  0  0  0
    1.2740  -15.8220  -44.1710 C   0  0  0  0  0
    1.1960  -16.5610  -45.4920 C   0  0  0  0  0
    2.1340  -17.2550  -45.8850 O   0  0  0  0  0
    0.0790  -16.4060  -46.1920 N   0  0  0  0  0
    0.2810  -17.0690  -39.8940 N   0  0  0  0  0
   -0.3760  -17.8440  -38.8370 C   0  0  0  0  0
   -0.9790  -16.9300  -37.7730 C   0  0  0  0  0
   -1.7560  -17.3720  -36.9210 O   0  0  0  0  0
    0.5930  -18.8610  -38.2070 C   0  0  0  0  0
   -0.6280  -15.6480  -37.8430 N   0  0  0  0  0
   -1.1630  -14.6460  -36.9290 C   0  0  0  0  0
   -2.2880  -13.8090  -37.5480 C   0  0  0  0  0
   -2.6900  -12.7940  -36.9800 O   0  0  0  0  0
   -0.0500  -13.7120  -36.4660 C   0  0  0  0  0
    0.5510  -14.1450  -35.1610 C   0  0  0  0  0
    0.0500  -15.1410  -34.5820 O   0  0  0  0  0
    1.4990  -13.4760  -34.6950 O   0  0  0  0  0
   -2.7910  -14.2310  -38.7050 N   0  0  0  0  0
   -3.8220  -13.4670  -39.4070 C   0  0  0  0  0
   -5.1620  -13.4350  -38.6590 C   0  0  0  0  0
   -5.8550  -12.4150  -38.6360 O   0  0  0  0  0
   -4.0150  -14.0090  -40.8330 C   0  0  0  0  0
   -5.2530  -13.4830  -41.5360 C   0  0  0  0  0
   -6.4420  -14.2120  -41.5370 C   0  0  0  0  0
   -5.2350  -12.2570  -42.1910 C   0  0  0  0  0
   -7.5750  -13.7310  -42.1740 C   0  0  0  0  0
   -6.3620  -11.7680  -42.8330 C   0  0  0  0  0
   -7.5290  -12.5070  -42.8200 C   0  0  0  0  0
   -8.6510  -12.0210  -43.4580 O   0  0  0  0  0
   -5.5420  -14.5480  -38.0490 N   0  0  0  0  0
   -6.8590  -14.5970  -37.4230 C   0  0  0  0  0
   -6.9340  -13.8550  -36.0860 C   0  0  0  0  0
   -6.0910  -14.0240  -35.1970 O   0  0  0  0  0
   -7.3750  -16.0350  -37.3260 C   0  0  0  0  0
   -7.8840  -16.5820  -38.6400 C   0  0  0  0  0
   -9.1560  -16.2550  -39.0950 C   0  0  0  0  0
   -7.0900  -17.4110  -39.4230 C   0  0  0  0  0
   -9.6300  -16.7500  -40.3040 C   0  0  0  0  0
   -7.5570  -17.9100  -40.6330 C   0  0  0  0  0
   -8.8300  -17.5790  -41.0720 C   0  0  0  0  0
   -7.9450  -13.0150  -35.9330 N   0  0  0  0  0
   -8.2130  -12.2920  -34.7150 C   0  0  0  0  0
   -8.5830  -13.2280  -33.5900 C   0  0  0  0  0
   -8.9710  -14.3070  -33.8300 O   0  0  0  0  0
   -9.4000  -11.3540  -34.9250 C   0  0  0  0  0
   -9.2140  -10.3290  -35.9520 C   0  0  0  0  0
  -10.5100   -9.5310  -36.2730 C   0  0  0  0  0
  -11.5540   -9.7360  -35.6580 O   0  0  0  0  0
  -10.4090   -8.7010  -37.1470 O   0  0  0  0  0
   -8.4660  -12.7440  -32.3670 N   0  0  0  0  0
   -8.9890  -13.4330  -31.1950 C   0  0  0  0  0
  -10.5380  -13.4190  -31.1720 C   0  0  0  0  0
  -11.1020  -14.1730  -30.4140 O   0  0  0  0  0
   -8.4320  -12.8310  -29.8790 C   0  0  0  0  0
   -6.9400  -13.0010  -29.5820 C   0  0  0  0  0
   -6.5160  -13.4170  -28.3770 C   0  0  0  0  0
   -5.9830  -12.6630  -30.4880 C   0  0  0  0  0
   -5.1780  -13.5590  -28.1040 C   0  0  0  0  0
   -4.6640  -12.7540  -30.2140 C   0  0  0  0  0
   -4.2370  -13.2200  -29.0200 C   0  0  0  0  0
   -2.9140  -13.3490  -28.7080 O   0  0  0  0  0
  -11.1730  -12.6620  -31.9050 O   0  0  0  0  0
   13.0091  -14.1181  -35.6831 H   0  0  0  0  0
   12.9570  -15.5606  -36.5158 H   0  0  0  0  0
   14.0281  -14.3704  -36.9773 H   0  0  0  0  0
   12.2237  -12.9183  -37.6064 H   0  0  0  0  0
   11.7762  -15.6432  -38.8152 H   0  0  0  0  0
   13.2787  -14.6455  -39.1443 H   0  0  0  0  0
   13.0172  -13.1403  -41.3496 H   0  0  0  0  0
    8.7597  -12.9493  -41.4572 H   0  0  0  0  0
    8.5268  -14.0858  -35.3781 H   0  0  0  0  0
    8.0701  -11.6851  -35.2428 H   0  0  0  0  0
    6.8135  -12.1265  -36.3311 H   0  0  0  0  0
    8.5591  -10.2963  -37.1445 H   0  0  0  0  0
    8.0819  -11.5048  -38.2789 H   0  0  0  0  0
   10.4649  -11.8399  -38.3163 H   0  0  0  0  0
   10.6730  -11.3481  -36.6981 H   0  0  0  0  0
    6.4017  -14.9080  -35.6929 H   0  0  0  0  0
    6.1120  -16.3128  -38.2279 H   0  0  0  0  0
    5.3427  -17.2365  -36.0871 H   0  0  0  0  0
    4.4610  -15.2428  -35.0219 H   0  0  0  0  0
    3.1744  -15.1275  -36.2477 H   0  0  0  0  0
    3.2063  -16.5029  -35.1170 H   0  0  0  0  0
    3.1887  -16.8716  -38.2042 H   0  0  0  0  0
    4.4723  -18.1059  -38.2033 H   0  0  0  0  0
    3.2040  -18.1394  -36.9538 H   0  0  0  0  0
    4.4711  -16.0385  -39.8018 H   0  0  0  0  0
    3.9839  -14.2692  -41.3868 H   0  0  0  0  0
    3.6521  -13.1719  -39.9915 H   0  0  0  0  0
    2.4553  -15.5959  -42.1454 H   0  0  0  0  0
   -0.1684  -14.5817  -41.9037 H   0  0  0  0  0
   -0.7409  -16.1534  -43.5629 H   0  0  0  0  0
    0.4627  -17.3597  -42.9395 H   0  0  0  0  0
    2.2670  -15.9935  -43.7554 H   0  0  0  0  0
    1.0656  -14.7705  -44.3686 H   0  0  0  0  0
   -0.0267  -16.8715  -47.0934 H   0  0  0  0  0
   -0.6737  -15.8214  -45.8285 H   0  0  0  0  0
    1.2932  -17.1271  -40.0053 H   0  0  0  0  0
   -1.1917  -18.4016  -39.2972 H   0  0  0  0  0
    0.9454  -19.5492  -38.9753 H   0  0  0  0  0
    1.4420  -18.3320  -37.7741 H   0  0  0  0  0
    0.0752  -19.4193  -37.4271 H   0  0  0  0  0
    0.0371  -15.3571  -38.5596 H   0  0  0  0  0
   -1.5840  -15.1928  -36.0853 H   0  0  0  0  0
   -0.4775  -12.7188  -36.3284 H   0  0  0  0  0
    0.7365  -13.7231  -37.2206 H   0  0  0  0  0
   -0.6615  -15.4974  -35.1189 H   0  0  0  0  0
   -2.4515  -15.1034  -39.1100 H   0  0  0  0  0
   -3.4679  -12.4372  -39.4551 H   0  0  0  0  0
   -4.1251  -15.0905  -40.7539 H   0  0  0  0  0
   -3.1526  -13.6894  -41.4181 H   0  0  0  0  0
   -6.4808  -15.1754  -41.0287 H   0  0  0  0  0
   -4.3172  -11.6690  -42.1999 H   0  0  0  0  0
   -8.4968  -14.3127  -42.1665 H   0  0  0  0  0
   -6.3276  -10.8063  -43.3449 H   0  0  0  0  0
   -8.4501  -11.1686  -43.8514 H   0  0  0  0  0
   -4.9233  -15.3583  -38.0175 H   0  0  0  0  0
   -7.5311  -14.0491  -38.0835 H   0  0  0  0  0
   -8.2093  -16.0374  -36.6246 H   0  0  0  0  0
   -6.5410  -16.6621  -37.0108 H   0  0  0  0  0
   -9.7901  -15.6017  -38.4957 H   0  0  0  0  0
   -6.0879  -17.6733  -39.0838 H   0  0  0  0  0
  -10.6303  -16.4859  -40.6472 H   0  0  0  0  0
   -6.9236  -18.5606  -41.2361 H   0  0  0  0  0
   -9.2000  -17.9706  -42.0196 H   0  0  0  0  0
   -8.5722  -12.8704  -36.7243 H   0  0  0  0  0
   -7.3074  -11.7425  -34.4582 H   0  0  0  0  0
   -9.5516  -10.8273  -33.9828 H   0  0  0  0  0
  -10.2340  -11.9750  -35.2518 H   0  0  0  0  0
   -8.9048  -10.8341  -36.8671 H   0  0  0  0  0
   -8.4764   -9.6194  -35.5772 H   0  0  0  0  0
  -11.4125  -10.4328  -35.0129 H   0  0  0  0  0
   -7.9900  -11.8512  -32.2377 H   0  0  0  0  0
   -8.6541  -14.4679  -31.2651 H   0  0  0  0  0
   -8.9473  -13.3621  -29.0787 H   0  0  0  0  0
   -8.5876  -11.7557  -29.9658 H   0  0  0  0  0
   -7.2475  -13.6459  -27.6020 H   0  0  0  0  0
   -6.2922  -12.3059  -31.4703 H   0  0  0  0  0
   -4.8670  -13.9505  -27.1355 H   0  0  0  0  0
   -3.9354  -12.4480  -30.9647 H   0  0  0  0  0
   -2.3812  -13.0701  -29.4563 H   0  0  0  0  0
  -10.5622  -12.1423  -32.4326 H   0  0  0  0  0
  1  2  1  0  0  0
  2  3  1  0  0  0
  2  5  1  0  0  0
  3  4  2  0  0  0
  3 11  1  0  0  0
  5  6  1  0  0  0
  6  7  4  0  0  0
  6  8  4  0  0  0
  7  9  4  0  0  0
  8 10  4  0  0  0
  9 10  4  0  0  0
 11 12  1  0  0  0
 11 17  1  0  0  0
 12 13  1  0  0  0
 12 15  1  0  0  0
 13 14  2  0  0  0
 13 18  1  0  0  0
 15 16  1  0  0  0
 16 17  1  0  0  0
 18 19  1  0  0  0
 19 20  1  0  0  0
 19 22  1  0  0  0
 20 21  2  0  0  0
 20 25  1  0  0  0
 22 23  1  0  0  0
 22 24  1  0  0  0
 25 26  1  0  0  0
 26 27  1  0  0  0
 27 28  2  0  0  0
 27 29  1  0  0  0
 29 30  1  0  0  0
 30 31  1  0  0  0
 30 33  1  0  0  0
 31 32  2  0  0  0
 31 38  1  0  0  0
 33 34  1  0  0  0
 34 35  1  0  0  0
 35 36  2  0  0  0
 35 37  1  0  0  0
 38 39  1  0  0  0
 39 40  1  0  0  0
 39 42  1  0  0  0
 40 41  2  0  0  0
 40 43  1  0  0  0
 43 44  1  0  0  0
 44 45  1  0  0  0
 44 47  1  0  0  0
 45 46  2  0  0  0
 45 51  1  0  0  0
 47 48  1  0  0  0
 48 49  1  0  0  0
 48 50  2  0  0  0
 51 52  1  0  0  0
 52 53  1  0  0  0
 52 55  1  0  0  0
 53 54  2  0  0  0
 53 63  1  0  0  0
 55 56  1  0  0  0
 56 57  4  0  0  0
 56 58  4  0  0  0
 57 59  4  0  0  0
 58 60  4  0  0  0
 59 61  4  0  0  0
 60 61  4  0  0  0
 61 62  1  0  0  0
 63 64  1  0  0  0
 64 65  1  0  0  0
 64 67  1  0  0  0
 65 66  2  0  0  0
 65 74  1  0  0  0
 67 68  1  0  0  0
 68 69  4  0  0  0
 68 70  4  0  0  0
 69 71  4  0  0  0
 70 72  4  0  0  0
 71 73  4  0  0  0
 72 73  4  0  0  0
 74 75  1  0  0  0
 75 76  1  0  0  0
 75 78  1  0  0  0
 76 77  2  0  0  0
 76 83  1  0  0  0
 78 79  1  0  0  0
 79 80  1  0  0  0
 80 81  1  0  0  0
 80 82  2  0  0  0
 83 84  1  0  0  0
 84 85  1  0  0  0
 84 87  1  0  0  0
 85 86  2  0  0  0
 85 95  1  0  0  0
 87 88  1  0  0  0
 88 89  4  0  0  0
 88 90  4  0  0  0
 89 91  4  0  0  0
 90 92  4  0  0  0
 91 93  4  0  0  0
 92 93  4  0  0  0
 93 94  1  0  0  0
  1 96  1  0  0  0
  1 97  1  0  0  0
  1 98  1  0  0  0
  2 99  1  0  0  0
  5100  1  0  0  0
  5101  1  0  0  0
  8102  1  0  0  0
  9103  1  0  0  0
 12104  1  0  0  0
 15105  1  0  0  0
 15106  1  0  0  0
 16107  1  0  0  0
 16108  1  0  0  0
 17109  1  0  0  0
 17110  1  0  0  0
 18111  1  0  0  0
 19112  1  0  0  0
 22113  1  0  0  0
 23114  1  0  0  0
 23115  1  0  0  0
 23116  1  0  0  0
 24117  1  0  0  0
 24118  1  0  0  0
 24119  1  0  0  0
 25120  1  0  0  0
 26121  1  0  0  0
 26122  1  0  0  0
 29123  1  0  0  0
 30124  1  0  0  0
 33125  1  0  0  0
 33126  1  0  0  0
 34127  1  0  0  0
 34128  1  0  0  0
 37129  1  0  0  0
 37130  1  0  0  0
 38131  1  0  0  0
 39132  1  0  0  0
 42133  1  0  0  0
 42134  1  0  0  0
 42135  1  0  0  0
 43136  1  0  0  0
 44137  1  0  0  0
 47138  1  0  0  0
 47139  1  0  0  0
 49140  1  0  0  0
 51141  1  0  0  0
 52142  1  0  0  0
 55143  1  0  0  0
 55144  1  0  0  0
 57145  1  0  0  0
 58146  1  0  0  0
 59147  1  0  0  0
 60148  1  0  0  0
 62149  1  0  0  0
 63150  1  0  0  0
 64151  1  0  0  0
 67152  1  0  0  0
 67153  1  0  0  0
 69154  1  0  0  0
 70155  1  0  0  0
 71156  1  0  0  0
 72157  1  0  0  0
 73158  1  0  0  0
 74159  1  0  0  0
 75160  1  0  0  0
 78161  1  0  0  0
 78162  1  0  0  0
 79163  1  0  0  0
 79164  1  0  0  0
 81165  1  0  0  0
 83166  1  0  0  0
 84167  1  0  0  0
 87168  1  0  0  0
 87169  1  0  0  0
 89170  1  0  0  0
 90171  1  0  0  0
 91172  1  0  0  0
 92173  1  0  0  0
 94174  1  0  0  0
 95175  1  0  0  0
M  END
$$$$
