### 
### Created by X-TOOL on Mon Sep 10 21:13:17 2018
### 

@<TRIPOS>MOLECULE
4pre_ligand
  173   177     1     0     0
SMALL
GAST_HUCK


@<TRIPOS>ATOM
      1 N          13.0980  -14.5540  -36.6010 N.4       1 HIS         0.2390
      2 CA         12.0870  -13.9950  -37.5060 C.3       1 HIS         0.0710
      3 C          10.7060  -14.3060  -36.9280 C.2       1 HIS         0.2307
      4 O          10.4450  -15.4350  -36.5260 O.2       1 HIS        -0.3904
      5 CB         12.2190  -14.6500  -38.8890 C.3       1 HIS         0.0347
      6 CG         11.4990  -13.9290  -39.9900 C.2       1 HIS         0.0005
      7 ND1        10.1230  -13.8570  -40.0650 N.2       1 HIS        -0.3251
      8 CD2        11.9700  -13.2750  -41.0790 C.2       1 HIS         0.0293
      9 CE1         9.7790  -13.1750  -41.1440 C.2       1 HIS         0.0907
     10 NE2        10.8810  -12.8130  -41.7790 N.pl3     1 HIS        -0.2752
     11 N           9.8150  -13.3090  -36.8890 N.am      1 PRO        -0.2470
     12 CA          8.4830  -13.5460  -36.3240 C.3       1 PRO         0.1339
     13 C           7.6160  -14.3930  -37.2440 C.2       1 PRO         0.2041
     14 O           7.9200  -14.5210  -38.4280 O.2       1 PRO        -0.3944
     15 CB          7.8980  -12.1320  -36.2220 C.3       1 PRO        -0.0104
     16 CG          8.5810  -11.3720  -37.3190 C.3       1 PRO        -0.0281
     17 CD          9.9940  -11.9140  -37.3360 C.3       1 PRO         0.0371
     18 N           6.5460  -14.9650  -36.7010 N.am      1 VAL        -0.2635
     19 CA          5.5770  -15.6720  -37.5270 C.3       1 VAL         0.1332
     20 C           4.7510  -14.6640  -38.3300 C.2       1 VAL         0.2039
     21 O           4.5580  -13.5240  -37.9050 O.2       1 VAL        -0.3944
     22 CB          4.6850  -16.5990  -36.6780 C.3       1 VAL        -0.0063
     23 CG1         3.8190  -15.8110  -35.6950 C.3       1 VAL        -0.0584
     24 CG2         3.8250  -17.4940  -37.5750 C.3       1 VAL        -0.0584
     25 N           4.2990  -15.0770  -39.5080 N.am      1 GLY        -0.2664
     26 CA          3.5650  -14.1850  -40.3840 C.3       1 GLY         0.1201
     27 C           2.0990  -14.5430  -40.4510 C.2       1 GLY         0.2007
     28 O           1.3210  -14.2200  -39.5530 O.2       1 GLY        -0.3947
     29 N           1.7320  -15.2480  -41.5160 N.am      1 GLN        -0.2638
     30 CA          0.3350  -15.5450  -41.8220 C.3       1 GLN         0.1330
     31 C          -0.4280  -16.2880  -40.7130 C.2       1 GLN         0.2040
     32 O          -1.6500  -16.1450  -40.5980 O.2       1 GLN        -0.3944
     33 CB          0.2540  -16.3100  -43.1460 C.3       1 GLN         0.0045
     34 CG          1.2740  -15.8220  -44.1710 C.3       1 GLN         0.0412
     35 CD          1.1960  -16.5610  -45.4920 C.2       1 GLN         0.1737
     36 OE1         2.1340  -17.2550  -45.8850 O.2       1 GLN        -0.3973
     37 NE2         0.0790  -16.4060  -46.1920 N.am      1 GLN        -0.3009
     38 N           0.2810  -17.0690  -39.8940 N.am      1 ALA        -0.2640
     39 CA         -0.3760  -17.8440  -38.8370 C.3       1 ALA         0.1282
     40 C          -0.9790  -16.9300  -37.7730 C.2       1 ALA         0.2037
     41 O          -1.7560  -17.3720  -36.9210 O.2       1 ALA        -0.3944
     42 CB          0.5930  -18.8610  -38.2070 C.3       1 ALA        -0.0244
     43 N          -0.6280  -15.6480  -37.8430 N.am      1 ASP        -0.2622
     44 CA         -1.1630  -14.6460  -36.9290 C.3       1 ASP         0.1423
     45 C          -2.2880  -13.8090  -37.5480 C.2       1 ASP         0.2057
     46 O          -2.6900  -12.7940  -36.9800 O.2       1 ASP        -0.3943
     47 CB         -0.0500  -13.7120  -36.4660 C.3       1 ASP         0.0406
     48 CG          0.5510  -14.1450  -35.1610 C.2       1 ASP         0.0393
     49 OD1         0.0500  -15.1410  -34.5820 O.co2     1 ASP        -0.5688
     50 OD2         1.4990  -13.4760  -34.6950 O.co2     1 ASP        -0.5688
     51 N          -2.7910  -14.2310  -38.7050 N.am      1 TYR        -0.2620
     52 CA         -3.8220  -13.4670  -39.4070 C.3       1 TYR         0.1390
     53 C          -5.1620  -13.4350  -38.6590 C.2       1 TYR         0.2059
     54 O          -5.8550  -12.4150  -38.6360 O.2       1 TYR        -0.3942
     55 CB         -4.0150  -14.0090  -40.8330 C.3       1 TYR         0.0163
     56 CG         -5.2530  -13.4830  -41.5360 C.ar      1 TYR        -0.0493
     57 CD1        -6.4420  -14.2120  -41.5370 C.ar      1 TYR        -0.0685
     58 CD2        -5.2350  -12.2570  -42.1910 C.ar      1 TYR        -0.0685
     59 CE1        -7.5750  -13.7310  -42.1740 C.ar      1 TYR        -0.0398
     60 CE2        -6.3620  -11.7680  -42.8330 C.ar      1 TYR        -0.0398
     61 CZ         -7.5290  -12.5070  -42.8200 C.ar      1 TYR         0.0805
     62 OH         -8.6510  -12.0210  -43.4580 O.3       1 TYR        -0.3376
     63 N          -5.5420  -14.5480  -38.0490 N.am      1 PHE        -0.2618
     64 CA         -6.8590  -14.5970  -37.4230 C.3       1 PHE         0.1404
     65 C          -6.9340  -13.8550  -36.0860 C.2       1 PHE         0.2060
     66 O          -6.0910  -14.0240  -35.1970 O.2       1 PHE        -0.3942
     67 CB         -7.3750  -16.0350  -37.3260 C.3       1 PHE         0.0214
     68 CG         -7.8840  -16.5820  -38.6400 C.ar      1 PHE        -0.0386
     69 CD1        -9.1560  -16.2550  -39.0950 C.ar      1 PHE        -0.0601
     70 CD2        -7.0900  -17.4110  -39.4230 C.ar      1 PHE        -0.0601
     71 CE1        -9.6300  -16.7500  -40.3040 C.ar      1 PHE        -0.0686
     72 CE2        -7.5570  -17.9100  -40.6330 C.ar      1 PHE        -0.0686
     73 CZ         -8.8300  -17.5790  -41.0720 C.ar      1 PHE        -0.0687
     74 N          -7.9450  -13.0150  -35.9330 N.am      1 GLU        -0.2635
     75 CA         -8.2130  -12.2920  -34.7150 C.3       1 GLU         0.1324
     76 C          -8.5830  -13.2280  -33.5900 C.2       1 GLU         0.2036
     77 O          -8.9710  -14.3070  -33.8300 O.2       1 GLU        -0.3944
     78 CB         -9.4000  -11.3540  -34.9250 C.3       1 GLU        -0.0008
     79 CG         -9.2140  -10.3290  -35.9520 C.3       1 GLU         0.0044
     80 CD        -10.5100   -9.5310  -36.2730 C.2       1 GLU         0.0350
     81 OE1       -11.5540   -9.7360  -35.6580 O.co2     1 GLU        -0.5690
     82 OE2       -10.4090   -8.7010  -37.1470 O.co2     1 GLU        -0.5690
     83 N          -8.4660  -12.7440  -32.3670 N.am      1 TYR        -0.2679
     84 CA         -8.9890  -13.4330  -31.1950 C.3       1 TYR         0.1025
     85 C         -10.5380  -13.4190  -31.1720 C.2       1 TYR         0.0619
     86 O         -11.1020  -14.1730  -30.4140 O.co2     1 TYR        -0.5665
     87 CB         -8.4320  -12.8310  -29.8790 C.3       1 TYR         0.0108
     88 CG         -6.9400  -13.0010  -29.5820 C.ar      1 TYR        -0.0499
     89 CD1        -6.5160  -13.4170  -28.3770 C.ar      1 TYR        -0.0686
     90 CD2        -5.9830  -12.6630  -30.4880 C.ar      1 TYR        -0.0686
     91 CE1        -5.1780  -13.5590  -28.1040 C.ar      1 TYR        -0.0398
     92 CE2        -4.6640  -12.7540  -30.2140 C.ar      1 TYR        -0.0398
     93 CZ         -4.2370  -13.2200  -29.0200 C.ar      1 TYR         0.0805
     94 OH         -2.9140  -13.3490  -28.7080 O.3       1 TYR        -0.3376
     95 OXT       -11.1730  -12.6620  -31.9050 O.co2     1 TYR        -0.5665
     96 H          14.0181  -14.3598  -36.9641 H         1 HIS         0.2016
     97 H          12.9692  -15.5511  -36.5280 H         1 HIS         0.2016
     98 H          13.0013  -14.1351  -35.6893 H         1 HIS         0.2016
     99 H          12.2220  -12.9070  -37.5952 H         1 HIS         0.1116
    100 H          11.8151  -15.6712  -38.8255 H         1 HIS         0.0453
    101 H          13.2872  -14.6936  -39.1480 H         1 HIS         0.0453
    102 H          13.0163  -13.1404  -41.3494 H         1 HIS         0.0729
    103 H           8.7606  -12.9495  -41.4569 H         1 HIS         0.1199
    104 H          10.9174  -12.2729  -42.6553 H         1 HIS         0.2361
    105 H           8.5533  -14.0253  -35.3364 H         1 PRO         0.0802
    106 H           8.1217  -11.6870  -35.2412 H         1 PRO         0.0313
    107 H           6.8092  -12.1480  -36.3778 H         1 PRO         0.0313
    108 H           8.5813  -10.2935  -37.1024 H         1 PRO         0.0287
    109 H           8.0843  -11.5521  -38.2838 H         1 PRO         0.0287
    110 H          10.4213  -11.8743  -38.3488 H         1 PRO         0.0524
    111 H          10.6407  -11.3558  -36.6430 H         1 PRO         0.0524
    112 H           6.4046  -14.9092  -35.7126 H         1 VAL         0.1883
    113 H           6.1302  -16.3019  -38.2391 H         1 VAL         0.0802
    114 H           5.3470  -17.2507  -36.0888 H         1 VAL         0.0343
    115 H           3.2002  -16.5082  -35.1111 H         1 VAL         0.0234
    116 H           3.1679  -15.1208  -36.2515 H         1 VAL         0.0234
    117 H           4.4657  -15.2371  -35.0150 H         1 VAL         0.0234
    118 H           4.4733  -18.0475  -38.2702 H         1 VAL         0.0234
    119 H           3.1209  -16.8717  -38.1469 H         1 VAL         0.0234
    120 H           3.2631  -18.2057  -36.9523 H         1 VAL         0.0234
    121 H           4.4677  -16.0196  -39.7960 H         1 GLY         0.1881
    122 H           3.9931  -14.2477  -41.3953 H         1 GLY         0.0763
    123 H           3.6631  -13.1562  -40.0074 H         1 GLY         0.0763
    124 H           2.4412  -15.5891  -42.1331 H         1 GLN         0.1883
    125 H          -0.1738  -14.5798  -41.9617 H         1 GLN         0.0801
    126 H          -0.7549  -16.1823  -43.5652 H         1 GLN         0.0337
    127 H           0.4366  -17.3765  -42.9481 H         1 GLN         0.0337
    128 H           2.2822  -15.9592  -43.7531 H         1 GLN         0.0504
    129 H           1.0970  -14.7526  -44.3581 H         1 GLN         0.0504
    130 H          -0.0284  -16.8698  -47.0714 H         1 GLN         0.1814
    131 H          -0.6552  -15.8254  -45.8400 H         1 GLN         0.1814
    132 H           1.2734  -17.1260  -40.0031 H         1 ALA         0.1883
    133 H          -1.1994  -18.4082  -39.2993 H         1 ALA         0.0797
    134 H           0.0715  -19.4251  -37.4197 H         1 ALA         0.0277
    135 H           1.4503  -18.3283  -37.7697 H         1 ALA         0.0277
    136 H           0.9494  -19.5562  -38.9814 H         1 ALA         0.0277
    137 H           0.0240  -15.3628  -38.5455 H         1 ASP         0.1884
    138 H          -1.5701  -15.1714  -36.0525 H         1 ASP         0.0819
    139 H          -0.4644  -12.7001  -36.3461 H         1 ASP         0.0478
    140 H           0.7400  -13.6964  -37.2313 H         1 ASP         0.0478
    141 H          -2.4581  -15.0863  -39.1021 H         1 TYR         0.1885
    142 H          -3.4652  -12.4294  -39.4855 H         1 TYR         0.0821
    143 H          -4.0888  -15.1052  -40.7784 H         1 TYR         0.0453
    144 H          -3.1344  -13.7300  -41.4303 H         1 TYR         0.0453
    145 H          -6.4806  -15.1701  -41.0315 H         1 TYR         0.0530
    146 H          -4.3223  -11.6723  -42.1999 H         1 TYR         0.0530
    147 H          -8.4917  -14.3095  -42.1666 H         1 TYR         0.0525
    148 H          -6.3278  -10.8116  -43.3421 H         1 TYR         0.0525
    149 H          -9.3640  -12.6409  -43.3585 H         1 TYR         0.2458
    150 H          -4.9354  -15.3424  -38.0181 H         1 PHE         0.1885
    151 H          -7.5420  -14.0662  -38.1025 H         1 PHE         0.0823
    152 H          -8.1972  -16.0615  -36.5958 H         1 PHE         0.0474
    153 H          -6.5532  -16.6772  -36.9764 H         1 PHE         0.0474
    154 H          -9.7866  -15.6053  -38.4990 H         1 PHE         0.0557
    155 H          -6.0934  -17.6719  -39.0856 H         1 PHE         0.0557
    156 H         -10.6248  -16.4874  -40.6453 H         1 PHE         0.0599
    157 H          -6.9271  -18.5570  -41.2327 H         1 PHE         0.0599
    158 H          -9.1980  -17.9684  -42.0143 H         1 PHE         0.0559
    159 H          -8.5599  -12.8733  -36.7088 H         1 GLU         0.1883
    160 H          -7.3206  -11.7127  -34.4358 H         1 GLU         0.0801
    161 H          -9.6042  -10.8458  -33.9711 H         1 GLU         0.0330
    162 H         -10.2697  -11.9649  -35.2086 H         1 GLU         0.0330
    163 H          -8.8691  -10.8188  -36.8746 H         1 GLU         0.0433
    164 H          -8.4469   -9.6218  -35.6035 H         1 GLU         0.0433
    165 H          -7.9993  -11.8687  -32.2402 H         1 TYR         0.1877
    166 H          -8.6609  -14.4814  -31.2519 H         1 TYR         0.0747
    167 H          -8.9849  -13.2941  -29.0485 H         1 TYR         0.0446
    168 H          -8.6395  -11.7510  -29.9006 H         1 TYR         0.0446
    169 H          -7.2435  -13.6447  -27.6063 H         1 TYR         0.0530
    170 H          -6.2905  -12.3079  -31.4649 H         1 TYR         0.0530
    171 H          -4.8687  -13.9484  -27.1408 H         1 TYR         0.0525
    172 H          -3.9394  -12.4497  -30.9606 H         1 TYR         0.0525
    173 H          -2.8297  -13.6918  -27.8260 H         1 TYR         0.2458
@<TRIPOS>BOND
     1    1    2 1  
     2    2    3 1  
     3    2    5 1  
     4    3    4 2  
     5    3   11 am 
     6    5    6 1  
     7    6    7 1  
     8    6    8 2  
     9    7    9 2  
    10    8   10 1  
    11    9   10 1  
    12   11   12 1  
    13   11   17 1  
    14   12   13 1  
    15   12   15 1  
    16   13   14 2  
    17   13   18 am 
    18   15   16 1  
    19   16   17 1  
    20   18   19 1  
    21   19   20 1  
    22   19   22 1  
    23   20   21 2  
    24   20   25 am 
    25   22   23 1  
    26   22   24 1  
    27   25   26 1  
    28   26   27 1  
    29   27   28 2  
    30   27   29 am 
    31   29   30 1  
    32   30   31 1  
    33   30   33 1  
    34   31   32 2  
    35   31   38 am 
    36   33   34 1  
    37   34   35 1  
    38   35   36 2  
    39   35   37 am 
    40   38   39 1  
    41   39   40 1  
    42   39   42 1  
    43   40   41 2  
    44   40   43 am 
    45   43   44 1  
    46   44   45 1  
    47   44   47 1  
    48   45   46 2  
    49   45   51 am 
    50   47   48 1  
    51   48   49 ar 
    52   48   50 ar 
    53   51   52 1  
    54   52   53 1  
    55   52   55 1  
    56   53   54 2  
    57   53   63 am 
    58   55   56 1  
    59   56   57 ar 
    60   56   58 ar 
    61   57   59 ar 
    62   58   60 ar 
    63   59   61 ar 
    64   60   61 ar 
    65   61   62 1  
    66   63   64 1  
    67   64   65 1  
    68   64   67 1  
    69   65   66 2  
    70   65   74 am 
    71   67   68 1  
    72   68   69 ar 
    73   68   70 ar 
    74   69   71 ar 
    75   70   72 ar 
    76   71   73 ar 
    77   72   73 ar 
    78   74   75 1  
    79   75   76 1  
    80   75   78 1  
    81   76   77 2  
    82   76   83 am 
    83   78   79 1  
    84   79   80 1  
    85   80   81 ar 
    86   80   82 ar 
    87   83   84 1  
    88   84   85 1  
    89   84   87 1  
    90   85   86 ar 
    91   85   95 ar 
    92   87   88 1  
    93   88   89 ar 
    94   88   90 ar 
    95   89   91 ar 
    96   90   92 ar 
    97   91   93 ar 
    98   92   93 ar 
    99   93   94 1  
   100    1   96 1  
   101    1   97 1  
   102    1   98 1  
   103    2   99 1  
   104    5  100 1  
   105    5  101 1  
   106    8  102 1  
   107    9  103 1  
   108   10  104 1  
   109   12  105 1  
   110   15  106 1  
   111   15  107 1  
   112   16  108 1  
   113   16  109 1  
   114   17  110 1  
   115   17  111 1  
   116   18  112 1  
   117   19  113 1  
   118   22  114 1  
   119   23  115 1  
   120   23  116 1  
   121   23  117 1  
   122   24  118 1  
   123   24  119 1  
   124   24  120 1  
   125   25  121 1  
   126   26  122 1  
   127   26  123 1  
   128   29  124 1  
   129   30  125 1  
   130   33  126 1  
   131   33  127 1  
   132   34  128 1  
   133   34  129 1  
   134   37  130 1  
   135   37  131 1  
   136   38  132 1  
   137   39  133 1  
   138   42  134 1  
   139   42  135 1  
   140   42  136 1  
   141   43  137 1  
   142   44  138 1  
   143   47  139 1  
   144   47  140 1  
   145   51  141 1  
   146   52  142 1  
   147   55  143 1  
   148   55  144 1  
   149   57  145 1  
   150   58  146 1  
   151   59  147 1  
   152   60  148 1  
   153   62  149 1  
   154   63  150 1  
   155   64  151 1  
   156   67  152 1  
   157   67  153 1  
   158   69  154 1  
   159   70  155 1  
   160   71  156 1  
   161   72  157 1  
   162   73  158 1  
   163   74  159 1  
   164   75  160 1  
   165   78  161 1  
   166   78  162 1  
   167   79  163 1  
   168   79  164 1  
   169   83  165 1  
   170   84  166 1  
   171   87  167 1  
   172   87  168 1  
   173   89  169 1  
   174   90  170 1  
   175   91  171 1  
   176   92  172 1  
   177   94  173 1  
@<TRIPOS>SUBSTRUCTURE
     1 HIS         1

