6epy_ligand
  -I-interpret- 

 66 68  0  0  0  0  0  0  0  0999 V2000
  132.9510    9.5630   70.6300 O   0  0  0  0  0
  132.6090   10.8810   71.1220 C   0  0  0  0  0
  132.4150   10.9120   72.6620 C   0  0  0  0  0
  133.7130   10.6260   73.4460 C   0  0  0  0  0
  134.4100   11.8340   73.7920 O   0  0  0  0  0
  133.1200   10.0650   74.7150 C   0  0  0  0  0
  134.0480    9.2580   75.4620 O   0  0  0  0  0
  131.5230    9.8060   72.9770 O   0  0  0  0  0
  131.8680    9.2720   74.2800 C   0  0  0  0  0
  130.8480    9.5430   75.4120 C   0  0  0  0  0
  129.5410    9.1020   75.0950 O   0  0  0  0  0
  132.0370    7.7880   74.1800 O   0  0  0  0  0
  132.8730    7.2450   73.0970 C   0  0  0  0  0
  132.3920    5.8600   72.6520 C   0  0  0  0  0
  131.0550    5.9790   72.2590 O   0  0  0  0  0
  132.5780    4.8640   73.8150 C   0  0  0  0  0
  132.1730    3.5530   73.4310 O   0  0  0  0  0
  134.0760    4.8470   74.1700 C   0  0  0  0  0
  134.3720    3.8830   75.1700 O   0  0  0  0  0
  134.4550    6.2480   74.6410 C   0  0  0  0  0
  134.2460    7.2020   73.5580 O   0  0  0  0  0
  135.9430    6.3260   74.9520 C   0  0  0  0  0
  136.1090    6.6550   76.3310 O   0  0  0  0  0
  137.3380    6.1250   76.8140 C   0  0  0  0  0
  138.4540    6.7910   76.1460 O   0  0  0  0  0
  138.6600    8.1890   76.4020 C   0  0  0  0  0
  139.7720    8.7070   75.4630 C   0  0  0  0  0
  139.4140    8.3320   74.1260 O   0  0  0  0  0
  138.9660    8.3470   77.8850 C   0  0  0  0  0
  140.0770    7.4760   78.2470 O   0  0  0  0  0
  137.7020    7.8650   78.6500 C   0  0  0  0  0
  137.9460    7.9990   80.0220 O   0  0  0  0  0
  137.4110    6.3630   78.3550 C   0  0  0  0  0
  136.1570    6.0190   78.9430 O   0  0  0  0  0
  133.0597    9.5968   69.6768 H   0  0  0  0  0
  131.6677   11.1777   70.6594 H   0  0  0  0  0
  133.4291   11.5548   70.8737 H   0  0  0  0  0
  132.0525   11.9026   72.9365 H   0  0  0  0  0
  134.4241   10.0049   72.9013 H   0  0  0  0  0
  134.7993   12.2151   73.0016 H   0  0  0  0  0
  132.8601   10.8679   75.4048 H   0  0  0  0  0
  134.8069    9.7913   75.7096 H   0  0  0  0  0
  130.8059   10.6206   75.5704 H   0  0  0  0  0
  131.1783    8.9959   76.2950 H   0  0  0  0  0
  128.9528    9.2944   75.8289 H   0  0  0  0  0
  132.7978    7.8916   72.2228 H   0  0  0  0  0
  132.9683    5.4806   71.8082 H   0  0  0  0  0
  130.7287    5.1221   71.9747 H   0  0  0  0  0
  131.9687    5.1701   74.6654 H   0  0  0  0  0
  132.2975    2.9518   74.1690 H   0  0  0  0  0
  134.6560    4.5656   73.2911 H   0  0  0  0  0
  135.3121    3.9026   75.3635 H   0  0  0  0  0
  133.8478    6.4685   75.5189 H   0  0  0  0  0
  136.4101    7.0907   74.3314 H   0  0  0  0  0
  136.4147    5.3660   74.7423 H   0  0  0  0  0
  137.3960    5.0565   76.6063 H   0  0  0  0  0
  137.7791    8.7946   76.1890 H   0  0  0  0  0
  140.7346    8.2746   75.7361 H   0  0  0  0  0
  139.8661    9.7899   75.5436 H   0  0  0  0  0
  140.0884    8.6411   73.5167 H   0  0  0  0  0
  139.2231    9.3791   78.1232 H   0  0  0  0  0
  140.2692    7.5763   79.1822 H   0  0  0  0  0
  136.8468    8.4610   78.3313 H   0  0  0  0  0
  137.1751    7.7057   80.5131 H   0  0  0  0  0
  138.2083    5.7473   78.7714 H   0  0  0  0  0
  136.1988    6.1643   79.8910 H   0  0  0  0  0
  1  2  1  0  0  0
  2  3  1  0  0  0
  3  4  1  0  0  0
  3  8  1  0  0  0
  4  5  1  0  0  0
  4  6  1  0  0  0
  6  7  1  0  0  0
  6  9  1  0  0  0
  8  9  1  0  0  0
  9 10  1  0  0  0
  9 12  1  0  0  0
 10 11  1  0  0  0
 12 13  1  0  0  0
 13 14  1  0  0  0
 13 21  1  0  0  0
 14 15  1  0  0  0
 14 16  1  0  0  0
 16 17  1  0  0  0
 16 18  1  0  0  0
 18 19  1  0  0  0
 18 20  1  0  0  0
 20 21  1  0  0  0
 20 22  1  0  0  0
 22 23  1  0  0  0
 23 24  1  0  0  0
 24 25  1  0  0  0
 24 33  1  0  0  0
 25 26  1  0  0  0
 26 27  1  0  0  0
 26 29  1  0  0  0
 27 28  1  0  0  0
 29 30  1  0  0  0
 29 31  1  0  0  0
 31 32  1  0  0  0
 31 33  1  0  0  0
 33 34  1  0  0  0
  1 35  1  0  0  0
  2 36  1  0  0  0
  2 37  1  0  0  0
  3 38  1  0  0  0
  4 39  1  0  0  0
  5 40  1  0  0  0
  6 41  1  0  0  0
  7 42  1  0  0  0
 10 43  1  0  0  0
 10 44  1  0  0  0
 11 45  1  0  0  0
 13 46  1  0  0  0
 14 47  1  0  0  0
 15 48  1  0  0  0
 16 49  1  0  0  0
 17 50  1  0  0  0
 18 51  1  0  0  0
 19 52  1  0  0  0
 20 53  1  0  0  0
 22 54  1  0  0  0
 22 55  1  0  0  0
 24 56  1  0  0  0
 26 57  1  0  0  0
 27 58  1  0  0  0
 27 59  1  0  0  0
 28 60  1  0  0  0
 29 61  1  0  0  0
 30 62  1  0  0  0
 31 63  1  0  0  0
 32 64  1  0  0  0
 33 65  1  0  0  0
 34 66  1  0  0  0
M  END
$$$$
