3s0o_ligand
  -I-interpret- 

 34 35  0  0  0  0  0  0  0  0999 V2000
   64.7940   82.1740  -86.5730 N   0  0  0  0  0
   65.7490   81.2390  -86.7490 C   0  0  0  0  0
   66.2670   81.0190  -87.9780 N   0  0  0  0  0
   66.1090   80.5560  -85.5720 C   0  0  0  0  0
   67.0340   79.5400  -85.4400 C   0  0  0  0  0
   67.3180   78.8690  -84.1220 C   0  0  0  0  0
   67.2980   78.8590  -81.6430 C   0  0  0  0  0
   67.0320   79.5100  -82.8810 N   0  0  0  0  0
   67.8400   77.5910  -81.6420 C   0  0  0  0  0
   68.1300   76.9390  -82.8210 C   0  0  0  0  0
   67.8780   77.5560  -84.0810 C   0  0  0  0  0
   67.7150   79.0830  -86.5260 O   0  0  0  0  0
   65.2050   81.1460  -84.2320 S   0  0  0  0  0
   64.4020   82.2390  -85.2830 C   0  0  0  0  0
   63.4270   83.1240  -84.8800 N   0  0  0  0  0
   62.9760   83.1960  -83.4950 C   0  0  0  0  0
   62.0210   82.0700  -83.1600 C   0  0  0  0  0
   62.3170   81.1180  -82.0710 C   0  0  0  0  0
   65.9354   81.5612  -88.7758 H   0  0  0  0  0
   66.9895   80.3108  -88.1076 H   0  0  0  0  0
   66.6420   80.4818  -85.0560 H   0  0  0  0  0
   67.0744   79.3601  -80.7012 H   0  0  0  0  0
   68.0425   77.0959  -80.6923 H   0  0  0  0  0
   68.5582   75.9371  -82.7895 H   0  0  0  0  0
   68.1110   77.0294  -85.0065 H   0  0  0  0  0
   67.4517   79.5839  -87.3015 H   0  0  0  0  0
   63.0081   83.7473  -85.5702 H   0  0  0  0  0
   62.4556   84.1429  -83.3513 H   0  0  0  0  0
   63.8469   83.1136  -82.8447 H   0  0  0  0  0
   62.0178   81.4513  -84.0574 H   0  0  0  0  0
   61.1181   82.5809  -82.8254 H   0  0  0  0  0
   63.2523   80.6013  -82.2861 H   0  0  0  0  0
   62.4084   81.6610  -81.1303 H   0  0  0  0  0
   61.5081   80.3914  -81.9955 H   0  0  0  0  0
  1  2  4  0  0  0
  1 14  4  0  0  0
  2  3  1  0  0  0
  2  4  4  0  0  0
  4  5  1  0  0  0
  4 13  4  0  0  0
  5  6  1  0  0  0
  5 12  1  0  0  0
  6  8  4  0  0  0
  6 11  4  0  0  0
  8  7  4  0  0  0
  7  9  4  0  0  0
  9 10  4  0  0  0
 10 11  4  0  0  0
 13 14  4  0  0  0
 14 15  1  0  0  0
 15 16  1  0  0  0
 16 17  1  0  0  0
 17 18  1  0  0  0
  3 19  1  0  0  0
  3 20  1  0  0  0
  5 21  1  0  0  0
  7 22  1  0  0  0
  9 23  1  0  0  0
 10 24  1  0  0  0
 11 25  1  0  0  0
 12 26  1  0  0  0
 15 27  1  0  0  0
 16 28  1  0  0  0
 16 29  1  0  0  0
 17 30  1  0  0  0
 17 31  1  0  0  0
 18 32  1  0  0  0
 18 33  1  0  0  0
 18 34  1  0  0  0
M  END
$$$$
