3nrz_ligand
  -I-interpret- 

 13 14  0  0  0  0  0  0  0  0999 V2000
   37.7640   22.0610   17.9170 N   0  0  0  0  0
   38.4060   21.5760   19.0290 C   0  0  0  0  0
   38.5010   20.2340   19.3120 N   0  0  0  0  0
   37.9070   19.4080   18.3990 C   0  0  0  0  0
   37.2590   19.8730   17.3010 C   0  0  0  0  0
   37.1690   21.1970   17.0300 C   0  0  0  0  0
   36.5510   21.4920   15.9730 O   0  0  0  0  0
   36.7580   18.8330   16.5990 N   0  0  0  0  0
   37.0490   17.7980   17.2900 C   0  0  0  0  0
   37.7560   18.0660   18.3320 N   0  0  0  0  0
   38.8610   22.2868   19.7188 H   0  0  0  0  0
   38.9789   19.8811   20.1411 H   0  0  0  0  0
   36.7307   16.7900   17.0239 H   0  0  0  0  0
  1  2  2  0  0  0
  1  6  1  0  0  0
  2  3  1  0  0  0
  3  4  1  0  0  0
  4  5  4  0  0  0
  4 10  4  0  0  0
  5  6  1  0  0  0
  5  8  4  0  0  0
  6  7  2  0  0  0
  8  9  4  0  0  0
  9 10  4  0  0  0
  2 11  1  0  0  0
  3 12  1  0  0  0
  9 13  1  0  0  0
M  END
$$$$
