4myd_ligand
  -I-interpret- 

 29 29  0  0  0  0  0  0  0  0999 V2000
   23.4220   76.2480   11.7760 O   0  0  0  0  0
   24.4100   75.5300   11.9730 C   0  0  0  0  0
   24.5120   74.4810   12.6240 O   0  0  0  0  0
   25.6720   75.9730   11.2300 C   0  0  0  0  0
   26.1440   77.3360   11.7490 C   0  0  0  0  0
   27.0820   77.2430   12.9060 C   0  0  0  0  0
   27.8720   76.1770   13.0620 C   0  0  0  0  0
   27.8030   75.0680   12.1370 C   0  0  0  0  0
   26.7120   78.0780   10.7150 O   0  0  0  0  0
   26.7790   74.9430   11.2610 C   0  0  0  0  0
   26.7670   73.8210   10.3060 C   0  0  0  0  0
   25.7860   73.7520    9.5230 O   0  0  0  0  0
   27.8870   72.8000   10.2930 C   0  0  0  0  0
   29.1360   73.3130    9.6460 C   0  0  0  0  0
   30.2040   72.2960    9.2840 C   0  0  0  0  0
   29.9310   71.0850    9.4120 O   0  0  0  0  0
   31.2420   72.8800    8.8780 O   0  0  0  0  0
   25.4181   74.1665   12.5821 H   0  0  0  0  0
   25.4043   76.0744   10.1783 H   0  0  0  0  0
   25.2560   77.8470   12.1212 H   0  0  0  0  0
   27.1230   78.0546   13.6325 H   0  0  0  0  0
   28.5750   76.1430   13.8943 H   0  0  0  0  0
   28.5925   74.3166   12.1453 H   0  0  0  0  0
   26.0950   78.1266    9.9812 H   0  0  0  0  0
   27.5451   71.9382    9.7198 H   0  0  0  0  0
   28.1251   72.5540   11.3278 H   0  0  0  0  0
   29.5966   73.9749   10.3793 H   0  0  0  0  0
   28.8180   73.7545    8.7015 H   0  0  0  0  0
   31.1068   73.8299    8.9103 H   0  0  0  0  0
  1  2  2  0  0  0
  2  3  1  0  0  0
  2  4  1  0  0  0
  4  5  1  0  0  0
  4 10  1  0  0  0
  5  6  1  0  0  0
  5  9  1  0  0  0
  6  7  2  0  0  0
  7  8  1  0  0  0
  8 10  2  0  0  0
 10 11  1  0  0  0
 11 12  2  0  0  0
 11 13  1  0  0  0
 13 14  1  0  0  0
 14 15  1  0  0  0
 15 16  2  0  0  0
 15 17  1  0  0  0
  3 18  1  0  0  0
  4 19  1  0  0  0
  5 20  1  0  0  0
  6 21  1  0  0  0
  7 22  1  0  0  0
  8 23  1  0  0  0
  9 24  1  0  0  0
 13 25  1  0  0  0
 13 26  1  0  0  0
 14 27  1  0  0  0
 14 28  1  0  0  0
 17 29  1  0  0  0
M  END
$$$$
