5hv0_ligand
  -I-interpret- 

 16 15  0  0  0  0  0  0  0  0999 V2000
  -18.4060   74.2100   -5.7860 C   0  0  0  0  0
  -19.4780   74.8480   -5.6590 O   0  0  0  0  0
  -17.8940   73.8360   -4.8280 O   0  0  0  0  0
  -17.9610   74.0050   -7.1720 C   0  0  0  0  0
  -17.0250   73.5000   -7.5220 O   0  0  0  0  0
  -18.8860   74.5560   -8.2750 C   0  0  0  0  0
  -18.8740   73.7560   -9.5830 C   0  0  0  0  0
  -19.7070   74.3090  -10.7240 C   0  0  0  0  0
  -19.8990   75.4850  -10.7440 O   0  0  0  0  0
  -20.1160   73.5630  -11.5630 O   0  0  0  0  0
  -19.8022   75.1025   -6.5260 H   0  0  0  0  0
  -18.5313   75.5586   -8.5139 H   0  0  0  0  0
  -19.9034   74.5118   -7.8862 H   0  0  0  0  0
  -19.2996   72.7814   -9.3440 H   0  0  0  0  0
  -17.8414   73.7646   -9.9320 H   0  0  0  0  0
  -19.8469   72.6662  -11.3509 H   0  0  0  0  0
  1  2  1  0  0  0
  1  3  2  0  0  0
  1  4  1  0  0  0
  4  5  2  0  0  0
  4  6  1  0  0  0
  6  7  1  0  0  0
  7  8  1  0  0  0
  8  9  2  0  0  0
  8 10  1  0  0  0
  2 11  1  0  0  0
  6 12  1  0  0  0
  6 13  1  0  0  0
  7 14  1  0  0  0
  7 15  1  0  0  0
 10 16  1  0  0  0
M  END
$$$$
