5myk_ligand
  -I-interpret- 

 83 85  0  0  0  0  0  0  0  0999 V2000
  -15.9210    4.2270   -3.1420 N   0  0  0  0  0
  -17.2320    3.8290   -3.6450 C   0  0  0  0  0
  -17.6460    2.4900   -3.0280 C   0  0  0  0  0
  -16.7070    2.2360   -1.8610 C   0  0  0  0  0
  -15.6310    3.2670   -2.0770 C   0  0  0  0  0
  -14.6000    3.2750   -1.4000 O   0  0  0  0  0
  -18.3210    4.8580   -3.3680 C   0  0  0  0  0
  -19.4650    4.6740   -3.7830 O   0  0  0  0  0
  -17.9660    5.9450   -2.6910 N   0  0  0  0  0
  -18.9560    6.9060   -2.2100 C   0  0  0  0  0
  -19.1410    8.1100   -3.1340 C   0  0  0  0  0
  -18.2440    8.4610   -3.9020 O   0  0  0  0  0
  -18.5680    7.3890   -0.8170 C   0  0  0  0  0
  -18.2370    6.2820    0.1330 C   0  0  0  0  0
  -19.2480    5.5710    0.7670 C   0  0  0  0  0
  -16.9160    5.9480    0.4010 C   0  0  0  0  0
  -18.9470    4.5340    1.6500 C   0  0  0  0  0
  -16.6060    4.9230    1.2810 C   0  0  0  0  0
  -17.6250    4.2110    1.9110 C   0  0  0  0  0
  -20.3040    8.7540   -3.0250 N   0  0  0  0  0
  -20.6160    9.8860   -3.8800 C   0  0  0  0  0
  -19.9220   11.1630   -3.4320 C   0  0  0  0  0
  -19.8800   11.4960   -2.2490 O   0  0  0  0  0
  -19.3730   11.8830   -4.4020 N   0  0  0  0  0
  -18.7620   13.1810   -4.1560 C   0  0  0  0  0
  -19.8140   14.2830   -4.2380 C   0  0  0  0  0
  -20.7850   14.1800   -4.9890 O   0  0  0  0  0
  -17.6540   13.4470   -5.1780 C   0  0  0  0  0
  -16.7030   14.5250   -4.7750 C   0  0  0  0  0
  -15.6170   14.2890   -3.9600 N   0  0  0  0  0
  -16.6690   15.8450   -5.0800 C   0  0  0  0  0
  -14.9540   15.4170   -3.7810 C   0  0  0  0  0
  -15.5660   16.3760   -4.4550 N   0  0  0  0  0
  -19.6100   15.3490   -3.4640 N   0  0  0  0  0
  -20.5520   16.4640   -3.4150 C   0  0  0  0  0
  -20.0630   17.5890   -4.3210 C   0  0  0  0  0
  -19.0130   18.1860   -4.0620 O   0  0  0  0  0
  -20.7290   16.9790   -1.9860 C   0  0  0  0  0
  -21.2850   15.9240   -1.0510 C   0  0  0  0  0
  -21.0150   16.0170    0.1640 O   0  0  0  0  0
  -22.0180   15.0260   -1.5270 O   0  0  0  0  0
  -20.8430   17.9010   -5.3490 N   0  0  0  0  0
  -20.4670   18.9290   -6.3120 C   0  0  0  0  0
  -20.8560   20.3250   -5.8310 C   0  0  0  0  0
  -21.7610   20.4820   -5.0080 O   0  0  0  0  0
  -21.1150   18.6390   -7.6630 C   0  0  0  0  0
  -22.5230   18.5610   -7.5260 O   0  0  0  0  0
  -20.2740   21.3260   -6.2550 O   0  0  0  0  0
  -15.3380    5.0007   -3.4613 H   0  0  0  0  0
  -17.1309    3.7433   -4.7269 H   0  0  0  0  0
  -17.5780    1.6872   -3.7622 H   0  0  0  0  0
  -18.6824    2.5219   -2.6919 H   0  0  0  0  0
  -16.3224    1.2164   -1.8368 H   0  0  0  0  0
  -17.1968    2.3271   -0.8915 H   0  0  0  0  0
  -16.9777    6.1127   -2.5024 H   0  0  0  0  0
  -19.9106    6.3804   -2.1867 H   0  0  0  0  0
  -19.4245    7.9246   -0.4075 H   0  0  0  0  0
  -17.6753    8.0054   -0.9228 H   0  0  0  0  0
  -20.2895    5.8266    0.5720 H   0  0  0  0  0
  -16.1123    6.4992   -0.0871 H   0  0  0  0  0
  -19.7504    3.9786    2.1339 H   0  0  0  0  0
  -15.5639    4.6735    1.4806 H   0  0  0  0  0
  -17.3837    3.4054    2.6044 H   0  0  0  0  0
  -20.9849    8.4468   -2.3304 H   0  0  0  0  0
  -21.6920   10.0546   -3.8354 H   0  0  0  0  0
  -20.2716    9.6517   -4.8872 H   0  0  0  0  0
  -19.3794   11.5141   -5.3529 H   0  0  0  0  0
  -18.3290   13.1762   -3.1557 H   0  0  0  0  0
  -18.1359   13.7691   -6.1011 H   0  0  0  0  0
  -17.0775   12.5273   -5.2769 H   0  0  0  0  0
  -17.3821   16.3841   -5.7036 H   0  0  0  0  0
  -14.0535   15.5373   -3.1788 H   0  0  0  0  0
  -18.7693   15.3872   -2.8877 H   0  0  0  0  0
  -21.5214   16.1092   -3.7649 H   0  0  0  0  0
  -21.4354   17.8086   -2.0136 H   0  0  0  0  0
  -19.7488   17.2753   -1.6124 H   0  0  0  0  0
  -22.0905   15.1437   -2.4770 H   0  0  0  0  0
  -21.7283   17.4087   -5.4682 H   0  0  0  0  0
  -19.3823   18.9069   -6.4165 H   0  0  0  0  0
  -22.1237   19.6268   -4.7659 H   0  0  0  0  0
  -20.7408   17.6873   -8.0403 H   0  0  0  0  0
  -20.8688   19.4436   -8.3559 H   0  0  0  0  0
  -22.9171   18.3784   -8.3821 H   0  0  0  0  0
  1  2  1  0  0  0
  1  5  1  0  0  0
  2  3  1  0  0  0
  2  7  1  0  0  0
  3  4  1  0  0  0
  4  5  1  0  0  0
  5  6  2  0  0  0
  7  8  2  0  0  0
  7  9  1  0  0  0
  9 10  1  0  0  0
 10 11  1  0  0  0
 10 13  1  0  0  0
 11 12  2  0  0  0
 11 20  1  0  0  0
 13 14  1  0  0  0
 14 15  4  0  0  0
 14 16  4  0  0  0
 15 17  4  0  0  0
 16 18  4  0  0  0
 17 19  4  0  0  0
 18 19  4  0  0  0
 20 21  1  0  0  0
 21 22  1  0  0  0
 22 23  2  0  0  0
 22 24  1  0  0  0
 24 25  1  0  0  0
 25 26  1  0  0  0
 25 28  1  0  0  0
 26 27  2  0  0  0
 26 34  1  0  0  0
 28 29  1  0  0  0
 29 30  4  0  0  0
 29 31  4  0  0  0
 30 32  4  0  0  0
 31 33  4  0  0  0
 32 33  4  0  0  0
 34 35  1  0  0  0
 35 36  1  0  0  0
 35 38  1  0  0  0
 36 37  2  0  0  0
 36 42  1  0  0  0
 38 39  1  0  0  0
 39 40  2  0  0  0
 39 41  1  0  0  0
 42 43  1  0  0  0
 43 44  1  0  0  0
 43 46  1  0  0  0
 44 45  1  0  0  0
 44 48  2  0  0  0
 46 47  1  0  0  0
  1 49  1  0  0  0
  2 50  1  0  0  0
  3 51  1  0  0  0
  3 52  1  0  0  0
  4 53  1  0  0  0
  4 54  1  0  0  0
  9 55  1  0  0  0
 10 56  1  0  0  0
 13 57  1  0  0  0
 13 58  1  0  0  0
 15 59  1  0  0  0
 16 60  1  0  0  0
 17 61  1  0  0  0
 18 62  1  0  0  0
 19 63  1  0  0  0
 20 64  1  0  0  0
 21 65  1  0  0  0
 21 66  1  0  0  0
 24 67  1  0  0  0
 25 68  1  0  0  0
 28 69  1  0  0  0
 28 70  1  0  0  0
 31 71  1  0  0  0
 32 72  1  0  0  0
 34 73  1  0  0  0
 35 74  1  0  0  0
 38 75  1  0  0  0
 38 76  1  0  0  0
 41 77  1  0  0  0
 42 78  1  0  0  0
 43 79  1  0  0  0
 45 80  1  0  0  0
 46 81  1  0  0  0
 46 82  1  0  0  0
 47 83  1  0  0  0
M  END
$$$$
