4uj1_ligand
  -I-interpret- 

 42 45  0  0  0  0  0  0  0  0999 V2000
  -28.8510    9.3870    2.3910 C   0  0  0  0  0
  -30.2460    9.6290    2.3730 C   0  0  0  0  0
  -30.9430    9.5630    1.2320 N   0  0  0  0  0
  -32.3470    9.7850    1.2850 C   0  0  0  0  0
  -33.0460   10.0540    2.4100 N   0  0  0  0  0
  -32.3320   10.1570    3.5930 C   0  0  0  0  0
  -32.9420   10.3710    4.6690 O   0  0  0  0  0
  -30.9370    9.9570    3.5540 C   0  0  0  0  0
  -30.1720   10.0050    4.7380 C   0  0  0  0  0
  -28.7810    9.7670    4.7290 C   0  0  0  0  0
  -28.0920    9.4940    3.5290 C   0  0  0  0  0
  -26.6650    9.2050    3.5660 C   0  0  0  0  0
  -26.6920    7.5840    3.4320 C   0  0  0  0  0
  -25.3040    7.1720    3.0990 N   0  3  0  0  0
  -24.5820    8.4470    2.7930 C   0  0  0  0  0
  -25.6930    9.5510    2.4450 C   0  0  0  0  0
  -24.9800   10.9390    2.4790 C   0  0  0  0  0
  -25.0200   11.5880    3.5200 O   0  0  0  0  0
  -24.2690   11.4010    1.3460 C   0  0  0  0  0
  -23.7960   12.7180    1.2350 C   0  0  0  0  0
  -23.0950   13.0960    0.0710 C   0  0  0  0  0
  -22.5880   14.5730   -0.1390 Cl  0  0  0  0  0
  -22.7980   12.2450   -0.9720 C   0  0  0  0  0
  -23.2440   10.9320   -0.8740 C   0  0  0  0  0
  -23.9420   10.5490    0.2880 C   0  0  0  0  0
  -28.3589    9.1035    1.4607 H   0  0  0  0  0
  -30.4790    9.3587    0.3469 H   0  0  0  0  0
  -32.9009    9.7343    0.3476 H   0  0  0  0  0
  -30.6669   10.2313    5.6824 H   0  0  0  0  0
  -28.2282    9.7947    5.6680 H   0  0  0  0  0
  -26.3032    9.7813    4.4175 H   0  0  0  0  0
  -27.3923    7.2653    2.6599 H   0  0  0  0  0
  -27.0282    7.1188    4.3587 H   0  0  0  0  0
  -25.2812    6.5267    2.3094 H   0  0  0  0  0
  -24.8659    6.6657    3.8685 H   0  0  0  0  0
  -23.9012    8.3100    1.9528 H   0  0  0  0  0
  -23.9822    8.7624    3.6468 H   0  0  0  0  0
  -26.1993    9.5766    1.4801 H   0  0  0  0  0
  -23.9678   13.4372    2.0358 H   0  0  0  0  0
  -22.2352   12.5884   -1.8400 H   0  0  0  0  0
  -23.0584   10.2172   -1.6757 H   0  0  0  0  0
  -24.2511    9.5068    0.3680 H   0  0  0  0  0
  1  2  4  0  0  0
  1 11  4  0  0  0
  2  3  1  0  0  0
  2  8  4  0  0  0
  3  4  1  0  0  0
  4  5  2  0  0  0
  5  6  1  0  0  0
  6  7  2  0  0  0
  6  8  1  0  0  0
  8  9  4  0  0  0
  9 10  4  0  0  0
 10 11  4  0  0  0
 11 12  1  0  0  0
 12 13  1  0  0  0
 12 16  1  0  0  0
 13 14  1  0  0  0
 14 15  1  0  0  0
 15 16  1  0  0  0
 16 17  1  0  0  0
 17 18  2  0  0  0
 17 19  1  0  0  0
 19 20  4  0  0  0
 19 25  4  0  0  0
 20 21  4  0  0  0
 21 22  1  0  0  0
 21 23  4  0  0  0
 23 24  4  0  0  0
 24 25  4  0  0  0
  1 26  1  0  0  0
  3 27  1  0  0  0
  4 28  1  0  0  0
  9 29  1  0  0  0
 10 30  1  0  0  0
 12 31  1  0  0  0
 13 32  1  0  0  0
 13 33  1  0  0  0
 14 34  1  0  0  0
 14 35  1  0  0  0
 15 36  1  0  0  0
 15 37  1  0  0  0
 16 38  1  0  0  0
 20 39  1  0  0  0
 23 40  1  0  0  0
 24 41  1  0  0  0
 25 42  1  0  0  0
M  END
$$$$
