2f94_ligand
  -I-interpret- 

 43 42  0  0  0  0  0  0  0  0999 V2000
   15.4920   75.7290   24.5860 P   0  0  0  0  0
   16.8770   75.6010   24.0480 O   0  0  0  0  0
   15.1810   74.5550   25.5790 O   0  0  0  0  0
   14.3750   75.6690   23.4600 O   0  0  0  0  0
   15.2460   77.2840   25.5040 C   0  0  0  0  0
   16.5150   77.3950   26.8230 P   0  0  0  0  0
   17.9200   77.3270   26.3520 O   0  0  0  0  0
   16.1530   78.7360   27.6040 O   0  0  0  0  0
   16.1660   76.2030   27.8180 O   0  0  0  0  0
   13.9520   77.2860   26.1050 O   0  0  0  0  0
   15.3800   78.5040   24.5380 C   0  0  0  0  0
   14.1310   79.4740   24.5990 C   0  0  0  0  0
   14.1820   80.5680   25.6150 N   0  3  0  0  0
   15.4940   81.2280   25.7410 C   0  0  0  0  0
   15.4860   82.6840   25.2180 C   0  0  0  0  0
   16.7280   82.8060   24.3040 C   0  0  0  0  0
   17.0970   84.2520   23.9780 C   0  0  0  0  0
   18.2100   84.2310   22.8980 C   0  0  0  0  0
   13.6630   80.1560   26.9250 C   0  0  0  0  0
   14.2874   74.6510   25.9164 H   0  0  0  0  0
   13.5090   75.7562   23.8650 H   0  0  0  0  0
   15.2329   78.7079   27.8763 H   0  0  0  0  0
   15.2517   76.2806   28.1003 H   0  0  0  0  0
   13.8745   76.5347   26.6976 H   0  0  0  0  0
   15.4540   78.1183   23.5212 H   0  0  0  0  0
   16.2598   79.0730   24.8386 H   0  0  0  0  0
   13.2791   78.8507   24.8707 H   0  0  0  0  0
   14.0855   79.9672   23.6280 H   0  0  0  0  0
   13.5515   81.2774   25.2414 H   0  0  0  0  0
   16.2103   80.6631   25.1443 H   0  0  0  0  0
   15.7535   81.2551   26.7993 H   0  0  0  0  0
   15.5231   83.4015   26.0377 H   0  0  0  0  0
   14.5681   82.9064   24.6739 H   0  0  0  0  0
   16.4965   82.3047   23.3642 H   0  0  0  0  0
   17.5714   82.3614   24.8324 H   0  0  0  0  0
   17.4515   84.7613   24.8741 H   0  0  0  0  0
   16.2237   84.7893   23.6082 H   0  0  0  0  0
   19.0790   83.6981   23.2839 H   0  0  0  0  0
   17.8393   83.7263   22.0059 H   0  0  0  0  0
   18.4911   85.2540   22.6479 H   0  0  0  0  0
   12.6230   79.8466   26.8214 H   0  0  0  0  0
   14.2553   79.3229   27.3034 H   0  0  0  0  0
   13.7267   80.9937   27.6195 H   0  0  0  0  0
  1  2  2  0  0  0
  1  3  1  0  0  0
  1  4  1  0  0  0
  1  5  1  0  0  0
  5  6  1  0  0  0
  5 10  1  0  0  0
  5 11  1  0  0  0
  6  7  2  0  0  0
  6  8  1  0  0  0
  6  9  1  0  0  0
 11 12  1  0  0  0
 12 13  1  0  0  0
 13 14  1  0  0  0
 13 19  1  0  0  0
 14 15  1  0  0  0
 15 16  1  0  0  0
 16 17  1  0  0  0
 17 18  1  0  0  0
  3 20  1  0  0  0
  4 21  1  0  0  0
  8 22  1  0  0  0
  9 23  1  0  0  0
 10 24  1  0  0  0
 11 25  1  0  0  0
 11 26  1  0  0  0
 12 27  1  0  0  0
 12 28  1  0  0  0
 13 29  1  0  0  0
 14 30  1  0  0  0
 14 31  1  0  0  0
 15 32  1  0  0  0
 15 33  1  0  0  0
 16 34  1  0  0  0
 16 35  1  0  0  0
 17 36  1  0  0  0
 17 37  1  0  0  0
 18 38  1  0  0  0
 18 39  1  0  0  0
 18 40  1  0  0  0
 19 41  1  0  0  0
 19 42  1  0  0  0
 19 43  1  0  0  0
M  END
$$$$
