2wf3_ligand
  -I-interpret- 

 82 85  0  0  0  0  0  0  0  0999 V2000
   31.2660    2.2580   34.3830 O   0  0  0  0  0
   30.3400    1.4400   34.5040 C   0  0  0  0  0
   30.5460    0.2600   35.3830 C   0  0  0  0  0
   31.1570    0.3760   36.6080 C   0  0  0  0  0
   31.3880   -0.7080   37.4360 C   0  0  0  0  0
   31.0100   -1.9770   37.0340 C   0  0  0  0  0
   31.2450   -3.2520   37.8510 C   0  0  0  0  0
   32.5520   -3.1880   38.6940 C   0  0  0  0  0
   32.2450   -2.6070   40.0960 C   0  0  0  0  0
   31.4150   -1.1370   39.9940 S   0  0  0  0  0
   30.0240   -1.4260   39.8130 O   0  0  0  0  0
   31.7510   -0.3320   41.1610 O   0  0  0  0  0
   32.0220   -0.5140   38.7020 N   0  0  0  0  0
   33.2710    0.2200   38.8090 C   0  0  0  0  0
   30.1270   -0.9900   34.9840 C   0  0  0  0  0
   30.3660   -2.1060   35.8250 C   0  0  0  0  0
   29.9770   -3.3370   35.4210 N   0  0  0  0  0
   29.0700   -3.3960   34.2750 C   0  0  0  0  0
   28.4930   -4.7260   34.0770 C   0  0  0  0  0
   29.2110    1.5080   33.7950 N   0  0  0  0  0
   29.0010    2.4690   32.7440 C   0  0  0  0  0
   28.4020    1.7140   31.5500 C   0  0  0  0  0
   29.0320    0.3740   31.2740 C   0  0  0  0  0
   28.2270   -0.7800   31.1630 C   0  0  0  0  0
   28.7870   -2.0100   30.8810 C   0  0  0  0  0
   30.1730   -2.0970   30.7060 C   0  0  0  0  0
   30.9740   -0.9330   30.7870 C   0  0  0  0  0
   30.4190    0.2830   31.0780 C   0  0  0  0  0
   28.1350    3.6020   33.2610 C   0  0  0  0  0
   27.7040    4.4940   32.2150 O   0  0  0  0  0
   28.8890    4.4570   34.2930 C   0  0  0  0  0
   28.0250    5.6020   34.6590 N   0  3  0  0  0
   28.5300    6.8940   35.1750 C   0  0  0  0  0
   29.6820    7.4430   34.3370 C   0  0  0  0  0
   29.4600    7.9070   33.0470 C   0  0  0  0  0
   30.5330    8.3670   32.2860 C   0  0  0  0  0
   30.3110    8.8190   31.0170 O   0  0  0  0  0
   28.9780    8.9470   30.5920 C   0  0  0  0  0
   31.8110    8.3940   32.8070 C   0  0  0  0  0
   32.0400    7.9450   34.0890 C   0  0  0  0  0
   30.9850    7.4400   34.8540 C   0  0  0  0  0
   31.4733    1.3643   36.9418 H   0  0  0  0  0
   31.3347   -4.0857   37.1546 H   0  0  0  0  0
   30.4072   -3.3700   38.5382 H   0  0  0  0  0
   33.2751   -2.5473   38.1892 H   0  0  0  0  0
   32.9603   -4.1928   38.8022 H   0  0  0  0  0
   33.1899   -2.4335   40.6109 H   0  0  0  0  0
   31.6189   -3.3189   40.6338 H   0  0  0  0  0
   33.1396    1.0609   39.4899 H   0  0  0  0  0
   34.0480   -0.4415   39.1922 H   0  0  0  0  0
   33.5594    0.5893   37.8249 H   0  0  0  0  0
   29.6161   -1.1200   34.0300 H   0  0  0  0  0
   30.3001   -4.1820   35.8921 H   0  0  0  0  0
   29.6428   -3.1442   33.3825 H   0  0  0  0  0
   28.2512   -2.7010   34.4610 H   0  0  0  0  0
   29.2933   -5.4462   33.9067 H   0  0  0  0  0
   27.9284   -5.0115   34.9646 H   0  0  0  0  0
   27.8290   -4.7076   33.2128 H   0  0  0  0  0
   28.4625    0.8485   34.0078 H   0  0  0  0  0
   29.9272    2.9378   32.4114 H   0  0  0  0  0
   28.5691    2.3315   30.6674 H   0  0  0  0  0
   27.3535    1.5299   31.7841 H   0  0  0  0  0
   27.1489   -0.6990   31.3018 H   0  0  0  0  0
   28.1606   -2.8980   30.7961 H   0  0  0  0  0
   30.6364   -3.0633   30.5069 H   0  0  0  0  0
   32.0479   -1.0064   30.6152 H   0  0  0  0  0
   31.0464    1.1708   31.1567 H   0  0  0  0  0
   27.2693    3.1155   33.7105 H   0  0  0  0  0
   27.1616    5.1901   32.5929 H   0  0  0  0  0
   29.8284    4.8144   33.8711 H   0  0  0  0  0
   29.1203    3.8626   35.1769 H   0  0  0  0  0
   27.4946    5.2375   35.4504 H   0  0  0  0  0
   27.6120    5.8650   33.7642 H   0  0  0  0  0
   28.8965    6.7329   36.1888 H   0  0  0  0  0
   27.7130    7.6146   35.1395 H   0  0  0  0  0
   28.4521    7.9114   32.6320 H   0  0  0  0  0
   28.4879    7.9746   30.6394 H   0  0  0  0  0
   28.4568    9.6501   31.2417 H   0  0  0  0  0
   28.9588    9.3153   29.5663 H   0  0  0  0  0
   32.6380    8.7702   32.2047 H   0  0  0  0  0
   33.0457    7.9836   34.5075 H   0  0  0  0  0
   31.1752    7.0442   35.8516 H   0  0  0  0  0
  1  2  2  0  0  0
  2  3  1  0  0  0
  2 20  1  0  0  0
  3  4  4  0  0  0
  3 15  4  0  0  0
  4  5  4  0  0  0
  5  6  4  0  0  0
  5 13  1  0  0  0
  6  7  1  0  0  0
  6 16  4  0  0  0
  7  8  1  0  0  0
  8  9  1  0  0  0
  9 10  1  0  0  0
 10 11  2  0  0  0
 10 12  2  0  0  0
 10 13  1  0  0  0
 13 14  1  0  0  0
 15 16  4  0  0  0
 16 17  1  0  0  0
 17 18  1  0  0  0
 18 19  1  0  0  0
 20 21  1  0  0  0
 21 22  1  0  0  0
 21 29  1  0  0  0
 22 23  1  0  0  0
 23 24  4  0  0  0
 23 28  4  0  0  0
 24 25  4  0  0  0
 25 26  4  0  0  0
 26 27  4  0  0  0
 27 28  4  0  0  0
 29 30  1  0  0  0
 29 31  1  0  0  0
 31 32  1  0  0  0
 32 33  1  0  0  0
 33 34  1  0  0  0
 34 35  4  0  0  0
 34 41  4  0  0  0
 35 36  4  0  0  0
 36 37  1  0  0  0
 36 39  4  0  0  0
 37 38  1  0  0  0
 39 40  4  0  0  0
 40 41  4  0  0  0
  4 42  1  0  0  0
  7 43  1  0  0  0
  7 44  1  0  0  0
  8 45  1  0  0  0
  8 46  1  0  0  0
  9 47  1  0  0  0
  9 48  1  0  0  0
 14 49  1  0  0  0
 14 50  1  0  0  0
 14 51  1  0  0  0
 15 52  1  0  0  0
 17 53  1  0  0  0
 18 54  1  0  0  0
 18 55  1  0  0  0
 19 56  1  0  0  0
 19 57  1  0  0  0
 19 58  1  0  0  0
 20 59  1  0  0  0
 21 60  1  0  0  0
 22 61  1  0  0  0
 22 62  1  0  0  0
 24 63  1  0  0  0
 25 64  1  0  0  0
 26 65  1  0  0  0
 27 66  1  0  0  0
 28 67  1  0  0  0
 29 68  1  0  0  0
 30 69  1  0  0  0
 31 70  1  0  0  0
 31 71  1  0  0  0
 32 72  1  0  0  0
 32 73  1  0  0  0
 33 74  1  0  0  0
 33 75  1  0  0  0
 35 76  1  0  0  0
 38 77  1  0  0  0
 38 78  1  0  0  0
 38 79  1  0  0  0
 39 80  1  0  0  0
 40 81  1  0  0  0
 41 82  1  0  0  0
M  END
$$$$
