6g97_ligand
  -I-interpret- 

 51 54  0  0  0  0  0  0  0  0999 V2000
    0.1510   11.6250   48.0190 C   0  0  0  0  0
   -0.6270   10.7070   45.9750 C   0  0  0  0  0
    1.8560   10.6160   44.3070 C   0  0  0  0  0
    3.2410   10.0630   44.2060 C   0  0  0  0  0
    4.4310   10.6560   43.8170 C   0  0  0  0  0
    5.6250    8.5720   44.2150 C   0  0  0  0  0
    4.4180    7.9950   44.6370 C   0  0  0  0  0
    3.2370    8.7340   44.6040 C   0  0  0  0  0
    1.8590    8.3680   45.0080 C   0  0  0  0  0
    6.9200    7.8390   44.2100 C   0  0  0  0  0
   10.0010    8.5670   42.7120 N   0  0  0  0  0
    9.7990    9.8460   42.0550 C   0  0  0  0  0
   10.9490   11.8570   41.1850 C   0  0  0  0  0
    9.1000   10.9890   39.9930 C   0  0  0  0  0
    9.2000    9.6460   40.6770 C   0  0  0  0  0
    8.5270    6.1580   44.7280 C   0  0  0  0  0
    7.2390    6.6480   44.8610 C   0  0  0  0  0
    0.1160   10.4990   47.1570 O   0  0  0  0  0
   -0.3400    9.5620   45.0520 C   0  0  0  0  0
    1.0850    9.4420   44.7190 N   0  0  0  0  0
    5.6020    9.9180   43.8130 C   0  0  0  0  0
    1.4650    7.3310   45.5030 O   0  0  0  0  0
    7.8650    8.4680   43.4950 N   0  0  0  0  0
    9.0780    7.9150   43.4330 C   0  0  0  0  0
   11.1280   10.5760   41.9570 C   0  0  0  0  0
   10.3950   11.6140   39.8790 O   0  0  0  0  0
    9.4630    6.7740   44.0090 N   0  0  0  0  0
    6.1390    5.7550   45.8530 Cl  0  0  0  0  0
    0.6041   12.4673   47.4962 H   0  0  0  0  0
   -0.8648   11.8846   48.3170 H   0  0  0  0  0
    0.7406   11.3853   48.9039 H   0  0  0  0  0
   -0.3440   11.6510   45.5092 H   0  0  0  0  0
   -1.6925   10.7566   46.1995 H   0  0  0  0  0
    1.5008   11.0594   43.3768 H   0  0  0  0  0
    1.7754   11.4501   45.0041 H   0  0  0  0  0
    4.4452   11.7030   43.5143 H   0  0  0  0  0
    4.4038    6.9646   44.9921 H   0  0  0  0  0
   10.9178    8.1301   42.6174 H   0  0  0  0  0
    9.1027   10.4453   42.6416 H   0  0  0  0  0
   11.9255   12.3258   41.0636 H   0  0  0  0  0
   10.2625   12.4992   41.7368 H   0  0  0  0  0
    8.4531   11.6347   40.5870 H   0  0  0  0  0
    8.6961   10.8402   38.9916 H   0  0  0  0  0
    8.2091    9.2006   40.7650 H   0  0  0  0  0
    9.8324    8.9785   40.0917 H   0  0  0  0  0
    8.7859    5.2278   45.2337 H   0  0  0  0  0
   -0.8857    9.7363   44.1247 H   0  0  0  0  0
   -0.6434    8.6439   45.5551 H   0  0  0  0  0
    6.5286   10.3926   43.4902 H   0  0  0  0  0
   11.8507    9.9426   41.4426 H   0  0  0  0  0
   11.4882   10.8062   42.9597 H   0  0  0  0  0
 18  1  1  0  0  0
  2 18  1  0  0  0
 19  2  1  0  0  0
  4  3  1  0  0  0
  3 20  1  0  0  0
  5  4  4  0  0  0
  8  4  4  0  0  0
 21  5  4  0  0  0
  6  7  4  0  0  0
 10  6  1  0  0  0
  6 21  4  0  0  0
  7  8  4  0  0  0
  8  9  1  0  0  0
  9 20  1  0  0  0
  9 22  2  0  0  0
 10 17  4  0  0  0
 23 10  4  0  0  0
 11 12  1  0  0  0
 24 11  1  0  0  0
 12 15  1  0  0  0
 12 25  1  0  0  0
 25 13  1  0  0  0
 13 26  1  0  0  0
 15 14  1  0  0  0
 14 26  1  0  0  0
 17 16  4  0  0  0
 16 27  4  0  0  0
 17 28  1  0  0  0
 20 19  1  0  0  0
 23 24  4  0  0  0
 24 27  4  0  0  0
  1 29  1  0  0  0
  1 30  1  0  0  0
  1 31  1  0  0  0
  2 32  1  0  0  0
  2 33  1  0  0  0
  3 34  1  0  0  0
  3 35  1  0  0  0
  5 36  1  0  0  0
  7 37  1  0  0  0
 11 38  1  0  0  0
 12 39  1  0  0  0
 13 40  1  0  0  0
 13 41  1  0  0  0
 14 42  1  0  0  0
 14 43  1  0  0  0
 15 44  1  0  0  0
 15 45  1  0  0  0
 16 46  1  0  0  0
 19 47  1  0  0  0
 19 48  1  0  0  0
 21 49  1  0  0  0
 25 50  1  0  0  0
 25 51  1  0  0  0
M  END
$$$$
