5ake_ligand
  -I-interpret- 

 42 45  0  0  0  0  0  0  0  0999 V2000
  -17.8250   -5.5230   12.1640 C   0  0  0  0  0
  -18.9300   -5.4940   11.3320 C   0  0  0  0  0
  -17.4970   -6.6640   12.8760 C   0  0  0  0  0
  -18.1100  -11.6810   14.3050 C   0  0  0  0  0
  -19.7330   -6.6100   11.1870 C   0  0  0  0  0
  -19.1000  -11.2930   13.4220 C   0  0  0  0  0
  -17.1240   -9.4810   14.2480 C   0  0  0  0  0
  -18.2910   -7.7860   12.7530 C   0  0  0  0  0
  -18.1120   -9.0770   13.3730 C   0  0  0  0  0
  -17.1370  -10.7880   14.7140 C   0  0  0  0  0
  -19.3790   -7.7250   11.9140 C   0  0  0  0  0
  -19.0590   -9.9940   12.9850 C   0  0  0  0  0
  -15.8870  -10.5830   16.7780 C   0  0  0  0  0
  -14.0520  -13.2880   18.0120 C   0  0  0  0  0
  -14.5890  -11.6690   19.8680 C   0  0  0  0  0
  -13.9500  -12.1140   17.0480 C   0  0  0  0  0
  -14.5730  -10.5410   18.8490 C   0  0  0  0  0
  -13.7410  -12.8520   19.4280 C   0  0  0  0  0
  -14.8000  -11.0350   17.4990 N   0  0  0  0  0
  -16.1520  -11.2470   15.6010 N   0  0  0  0  0
  -16.5760   -9.6520   17.1630 O   0  0  0  0  0
  -21.4900   -9.1910   12.5810 O   0  0  0  0  0
  -20.0640   -9.8610   10.5590 O   0  0  0  0  0
  -13.9460  -13.9130   20.2610 F   0  0  0  0  0
  -12.4180  -12.5160   19.5330 F   0  0  0  0  0
  -20.2300   -9.2720   11.8740 S   0  0  0  0  0
  -17.2028   -4.6333   12.2604 H   0  0  0  0  0
  -19.1699   -4.5820   10.7853 H   0  0  0  0  0
  -16.6221   -6.6760   13.5260 H   0  0  0  0  0
  -18.0962  -12.7031   14.6834 H   0  0  0  0  0
  -20.6028   -6.6076   10.5301 H   0  0  0  0  0
  -19.8742  -11.9847   13.0898 H   0  0  0  0  0
  -16.3475   -8.7859   14.5672 H   0  0  0  0  0
  -13.3324  -14.0504   17.7137 H   0  0  0  0  0
  -15.0686  -13.6800   17.9810 H   0  0  0  0  0
  -15.6178  -12.0116   19.9788 H   0  0  0  0  0
  -14.1795  -11.2872   20.8032 H   0  0  0  0  0
  -14.2689  -12.4335   16.0559 H   0  0  0  0  0
  -12.9172  -11.7675   17.0100 H   0  0  0  0  0
  -13.5942  -10.0625   18.8805 H   0  0  0  0  0
  -15.3703   -9.8408   19.0980 H   0  0  0  0  0
  -15.6225  -12.0877   15.3701 H   0  0  0  0  0
  1  2  4  0  0  0
  3  1  4  0  0  0
  5  2  4  0  0  0
  8  3  4  0  0  0
  4  6  4  0  0  0
 10  4  4  0  0  0
 11  5  4  0  0  0
  6 12  4  0  0  0
  7  9  4  0  0  0
 10  7  4  0  0  0
  9  8  1  0  0  0
  8 11  4  0  0  0
  9 12  4  0  0  0
 20 10  1  0  0  0
 26 11  1  0  0  0
 12 26  1  0  0  0
 19 13  1  0  0  0
 13 20  1  0  0  0
 13 21  2  0  0  0
 16 14  1  0  0  0
 14 18  1  0  0  0
 15 17  1  0  0  0
 18 15  1  0  0  0
 16 19  1  0  0  0
 17 19  1  0  0  0
 18 24  1  0  0  0
 18 25  1  0  0  0
 26 22  2  0  0  0
 26 23  2  0  0  0
  1 27  1  0  0  0
  2 28  1  0  0  0
  3 29  1  0  0  0
  4 30  1  0  0  0
  5 31  1  0  0  0
  6 32  1  0  0  0
  7 33  1  0  0  0
 14 34  1  0  0  0
 14 35  1  0  0  0
 15 36  1  0  0  0
 15 37  1  0  0  0
 16 38  1  0  0  0
 16 39  1  0  0  0
 17 40  1  0  0  0
 17 41  1  0  0  0
 20 42  1  0  0  0
M  END
$$$$
