5a9u_ligand
  -I-interpret- 

 49 52  0  0  0  0  0  0  0  0999 V2000
   26.3340   48.3750    7.4740 C   0  0  0  0  0
   34.2470   46.8300    8.9630 C   0  0  0  0  0
   34.6930   46.6480   10.2900 C   0  0  0  0  0
   29.7800   45.5660    8.6020 C   0  0  0  0  0
   33.4440   44.5330   10.4260 C   0  0  0  0  0
   27.6870   46.1550    9.5380 C   0  0  0  0  0
   27.7570   48.5470    7.3700 C   0  0  0  0  0
   28.7400   46.5090    8.6710 C   0  0  0  0  0
   28.8230   47.7670    7.8690 C   0  0  0  0  0
   33.3860   45.8600    8.3480 C   0  0  0  0  0
   32.9640   44.6770    9.0740 C   0  0  0  0  0
   29.8080   44.3490    9.3350 C   0  0  0  0  0
   34.2910   45.5080   11.0060 C   0  0  0  0  0
   30.0060   48.4960    7.4150 C   0  0  0  0  0
   28.6990   44.0970   10.1720 C   0  0  0  0  0
   32.9670   46.1450    6.9380 C   0  0  0  0  0
   31.4880   48.2220    7.5990 C   0  0  0  0  0
   32.0270   43.5850    8.4820 C   0  0  0  0  0
   32.7220   42.2170    8.4180 C   0  0  0  0  0
   27.6810   50.6950    6.0110 C   0  0  0  0  0
   31.7580   47.4290    5.1970 C   0  0  0  0  0
   25.1910   48.2320    7.5780 N   0  0  0  0  0
   27.6520   44.9900   10.2720 N   0  0  0  0  0
   29.6810   49.5890    6.7200 N   0  0  0  0  0
   28.3460   49.6030    6.7050 N   0  0  0  0  0
   32.0910   47.2430    6.6220 N   0  0  0  0  0
   28.6530   42.9170   10.9350 N   0  0  0  0  0
   33.4400   45.3650    6.1090 O   0  0  0  0  0
   30.8240   43.4000    9.3030 O   0  0  0  0  0
   34.7170   45.3430   12.2620 F   0  0  0  0  0
   34.5580   47.7116    8.4025 H   0  0  0  0  0
   35.3449   47.3870   10.7560 H   0  0  0  0  0
   30.6205   45.7826    7.9427 H   0  0  0  0  0
   33.1505   43.6607   11.0100 H   0  0  0  0  0
   26.8489   46.8454    9.6336 H   0  0  0  0  0
   31.6028   47.7834    8.5902 H   0  0  0  0  0
   32.0015   49.1712    7.4457 H   0  0  0  0  0
   31.7653   43.9352    7.4835 H   0  0  0  0  0
   33.6077   42.2900    7.7868 H   0  0  0  0  0
   33.0145   41.9121    9.4228 H   0  0  0  0  0
   32.0354   41.4813    7.9991 H   0  0  0  0  0
   27.0620   50.2912    5.2098 H   0  0  0  0  0
   27.0546   51.2431    6.7147 H   0  0  0  0  0
   28.4299   51.3660    5.5903 H   0  0  0  0  0
   32.6730   47.6043    4.6312 H   0  0  0  0  0
   31.2627   46.5337    4.8211 H   0  0  0  0  0
   31.0930   48.2859    5.0894 H   0  0  0  0  0
   29.4193   42.2458   10.8830 H   0  0  0  0  0
   27.8533   42.7321   11.5406 H   0  0  0  0  0
  7  1  1  0  0  0
  1 22  3  0  0  0
  2  3  4  0  0  0
 10  2  4  0  0  0
  3 13  4  0  0  0
  8  4  4  0  0  0
  4 12  4  0  0  0
 11  5  4  0  0  0
  5 13  4  0  0  0
  8  6  4  0  0  0
  6 23  4  0  0  0
  9  7  4  0  0  0
  7 25  4  0  0  0
  9  8  1  0  0  0
 14  9  4  0  0  0
 10 11  4  0  0  0
 16 10  1  0  0  0
 11 18  1  0  0  0
 12 15  4  0  0  0
 12 29  1  0  0  0
 13 30  1  0  0  0
 17 14  1  0  0  0
 14 24  4  0  0  0
 23 15  4  0  0  0
 15 27  1  0  0  0
 26 16  1  0  0  0
 16 28  2  0  0  0
 17 26  1  0  0  0
 18 19  1  0  0  0
 18 29  1  0  0  0
 25 20  1  0  0  0
 26 21  1  0  0  0
 24 25  4  0  0  0
  2 31  1  0  0  0
  3 32  1  0  0  0
  4 33  1  0  0  0
  5 34  1  0  0  0
  6 35  1  0  0  0
 17 36  1  0  0  0
 17 37  1  0  0  0
 18 38  1  0  0  0
 19 39  1  0  0  0
 19 40  1  0  0  0
 19 41  1  0  0  0
 20 42  1  0  0  0
 20 43  1  0  0  0
 20 44  1  0  0  0
 21 45  1  0  0  0
 21 46  1  0  0  0
 21 47  1  0  0  0
 27 48  1  0  0  0
 27 49  1  0  0  0
M  END
$$$$
