2qu5_ligand
  -I-interpret- 

 46 49  0  0  0  0  0  0  0  0999 V2000
   67.0220   90.6190   42.4480 C   0  0  0  0  0
   66.8250   90.0640   41.1750 C   0  0  0  0  0
   67.8350   89.9260   40.2650 N   0  0  0  0  0
   69.0930   90.3430   40.6020 C   0  0  0  0  0
   69.3660   90.9030   41.8450 C   0  0  0  0  0
   68.3340   91.0500   42.7830 C   0  0  0  0  0
   70.2120   90.2100   39.6450 C   0  0  0  0  0
   71.3040   90.7980   39.7750 O   0  0  0  0  0
   69.9370   89.3780   38.6010 N   0  0  0  0  0
   70.9310   89.1270   37.5570 C   0  0  0  0  0
   68.7650   91.6190   43.9810 O   0  0  0  0  0
   67.9410   92.1250   44.9770 C   0  0  0  0  0
   67.2230   93.3370   44.8210 C   0  0  0  0  0
   66.4540   93.8150   45.8690 C   0  0  0  0  0
   66.3840   93.0840   47.1060 C   0  0  0  0  0
   67.0790   91.9000   47.2570 C   0  0  0  0  0
   67.8620   91.4110   46.1940 C   0  0  0  0  0
   65.6710   94.9350   46.0210 N   0  0  0  0  0
   65.1660   94.8930   47.2630 C   0  0  0  0  0
   65.5680   93.8040   47.9380 N   0  0  0  0  0
   64.2820   95.9030   47.8620 N   0  0  0  0  0
   63.2770   96.6090   47.2720 C   0  0  0  0  0
   62.8180   97.7120   47.9910 C   0  0  0  0  0
   61.7760   98.5450   47.5260 C   0  0  0  0  0
   61.1880   98.2100   46.2550 C   0  0  0  0  0
   61.6440   97.0950   45.5090 C   0  0  0  0  0
   62.6890   96.2950   46.0200 C   0  0  0  0  0
   61.3450   99.7240   48.3940 C   0  0  0  0  0
   59.8900   99.1210   45.5280 Cl  0  0  0  0  0
   60.1520   99.4120   48.8550 F   0  0  0  0  0
   61.2950  100.8240   47.6670 F   0  0  0  0  0
   62.2040   99.9190   49.4030 F   0  0  0  0  0
   66.1982   90.7162   43.1550 H   0  0  0  0  0
   65.8248   89.7289   40.9002 H   0  0  0  0  0
   70.3779   91.2264   42.0893 H   0  0  0  0  0
   69.0253   88.9239   38.5467 H   0  0  0  0  0
   71.1915   90.0675   37.0715 H   0  0  0  0  0
   71.8229   88.6883   38.0043 H   0  0  0  0  0
   70.5164   88.4389   36.8203 H   0  0  0  0  0
   67.2757   93.8891   43.8827 H   0  0  0  0  0
   67.0216   91.3469   48.1945 H   0  0  0  0  0
   68.4105   90.4763   46.3104 H   0  0  0  0  0
   64.4420   96.1016   48.8496 H   0  0  0  0  0
   63.2818   97.9408   48.9505 H   0  0  0  0  0
   61.1909   96.8565   44.5468 H   0  0  0  0  0
   63.0443   95.4353   45.4519 H   0  0  0  0  0
  1  2  4  0  0  0
  1  6  4  0  0  0
  2  3  4  0  0  0
  3  4  4  0  0  0
  4  5  4  0  0  0
  4  7  1  0  0  0
  5  6  4  0  0  0
  6 11  1  0  0  0
  7  8  2  0  0  0
  7  9  1  0  0  0
  9 10  1  0  0  0
 11 12  1  0  0  0
 12 13  4  0  0  0
 12 17  4  0  0  0
 13 14  4  0  0  0
 14 15  4  0  0  0
 14 18  4  0  0  0
 15 16  4  0  0  0
 15 20  4  0  0  0
 16 17  4  0  0  0
 18 19  4  0  0  0
 19 20  4  0  0  0
 19 21  1  0  0  0
 21 22  1  0  0  0
 22 23  4  0  0  0
 22 27  4  0  0  0
 23 24  4  0  0  0
 24 25  4  0  0  0
 24 28  1  0  0  0
 25 26  4  0  0  0
 25 29  1  0  0  0
 26 27  4  0  0  0
 28 30  1  0  0  0
 28 31  1  0  0  0
 28 32  1  0  0  0
  1 33  1  0  0  0
  2 34  1  0  0  0
  5 35  1  0  0  0
  9 36  1  0  0  0
 10 37  1  0  0  0
 10 38  1  0  0  0
 10 39  1  0  0  0
 13 40  1  0  0  0
 16 41  1  0  0  0
 17 42  1  0  0  0
 21 43  1  0  0  0
 23 44  1  0  0  0
 26 45  1  0  0  0
 27 46  1  0  0  0
M  END
$$$$
