### 
### Created by X-TOOL on Mon Sep 10 21:13:03 2018
### 

@<TRIPOS>MOLECULE
3ob2_ligand
  183   185     1     0     0
SMALL
GAST_HUCK


@<TRIPOS>ATOM
      1 N         -67.1200   35.7050   -6.6780 N.4       1 SER         0.2396
      2 CA        -65.9020   36.5720   -6.5530 C.3       1 SER         0.0885
      3 C         -65.4390   36.5190   -5.1180 C.2       1 SER         0.2291
      4 O         -64.3860   35.9200   -4.8240 O.2       1 SER        -0.3906
      5 CB        -66.2060   38.0170   -6.9600 C.3       1 SER         0.1041
      6 OG        -65.3560   38.9340   -6.2930 O.3       1 SER        -0.3870
      7 N         -66.2260   37.1660   -4.2460 N.am      1 PHE        -0.2592
      8 CA        -66.1430   37.0080   -2.7860 C.3       1 PHE         0.1406
      9 C         -67.3560   36.1440   -2.5460 C.2       1 PHE         0.2060
     10 O         -68.3840   36.3660   -3.2180 O.2       1 PHE        -0.3942
     11 CB        -66.3250   38.3440   -2.0280 C.3       1 PHE         0.0214
     12 CG        -65.2590   39.3930   -2.3270 C.ar      1 PHE        -0.0386
     13 CD1       -64.1650   39.5630   -1.4730 C.ar      1 PHE        -0.0601
     14 CD2       -65.3560   40.2170   -3.4620 C.ar      1 PHE        -0.0601
     15 CE1       -63.1850   40.5290   -1.7540 C.ar      1 PHE        -0.0686
     16 CE2       -64.3760   41.1980   -3.7440 C.ar      1 PHE        -0.0686
     17 CZ        -63.2900   41.3480   -2.8870 C.ar      1 PHE        -0.0687
     18 N         -67.2390   35.1700   -1.6410 N.am      1 LEU        -0.2636
     19 CA        -68.3150   34.2350   -1.2810 C.3       1 LEU         0.1312
     20 C         -67.9420   33.5640    0.0430 C.2       1 LEU         0.2039
     21 O         -66.7480   33.4890    0.3770 O.2       1 LEU        -0.3944
     22 CB        -68.5700   33.1680   -2.3590 C.3       1 LEU        -0.0101
     23 CG        -69.5680   33.4810   -3.4880 C.3       1 LEU        -0.0425
     24 CD1       -69.2290   32.6720   -4.7430 C.3       1 LEU        -0.0625
     25 CD2       -71.0320   33.2970   -3.0640 C.3       1 LEU        -0.0625
     26 N         -68.9450   33.1060    0.8020 N.am      1 GLN        -0.2636
     27 CA        -68.6920   32.4870    2.1140 C.3       1 GLN         0.1330
     28 C         -67.7480   31.2900    1.9580 C.2       1 GLN         0.2040
     29 O         -67.9640   30.4170    1.0990 O.2       1 GLN        -0.3944
     30 CB        -69.9840   31.9980    2.8020 C.3       1 GLN         0.0045
     31 CG        -69.7150   31.3220    4.1550 C.3       1 GLN         0.0412
     32 CD        -70.9730   30.8580    4.8990 C.2       1 GLN         0.1737
     33 OE1       -72.0650   31.3700    4.6740 O.2       1 GLN        -0.3973
     34 NE2       -70.8110   29.8910    5.8110 N.am      1 GLN        -0.3009
     35 N         -66.7000   31.2580    2.7810 N.am      1 ARG        -0.2637
     36 CA        -65.8750   30.0840    2.8290 C.3       1 ARG         0.1311
     37 C         -65.5930   29.7100    4.2670 C.2       1 ARG         0.2041
     38 O         -66.4700   29.1600    4.9020 O.2       1 ARG        -0.3944
     39 CB        -64.6270   30.2770    2.0120 C.3       1 ARG        -0.0092
     40 CG        -64.1010   28.9550    1.5450 C.3       1 ARG        -0.0156
     41 CD        -64.9410   28.3800    0.3730 C.3       1 ARG         0.0627
     42 NE        -64.3410   27.1450   -0.1330 N.pl3     1 ARG        -0.2723
     43 CZ        -64.8730   26.3780   -1.0900 C.cat     1 ARG         0.2882
     44 NH1       -66.0290   26.7280   -1.6870 N.pl3     1 ARG        -0.2849
     45 NH2       -64.2310   25.2580   -1.4770 N.pl3     1 ARG        -0.2849
     46 N         -64.4000   30.0260    4.7830 N.am      1 PTR        -0.2607
     47 CA        -64.0090   29.5970    6.1120 C.3       1 PTR         0.1468
     48 C         -64.1450   30.7540    7.0760 C.2       1 PTR         0.2075
     49 O         -63.9630   31.9040    6.7330 O.2       1 PTR        -0.3941
     50 CB        -62.6060   28.9140    6.1980 C.3       1 PTR         0.0400
     51 CG        -62.5040   27.6720    5.3120 C.ar      1 PTR        -0.0004
     52 CD1       -63.1950   26.5020    5.6520 C.ar      1 PTR        -0.0239
     53 CD2       -61.7670   27.6800    4.1240 C.ar      1 PTR        -0.0239
     54 CE1       -63.1340   25.3730    4.8550 C.ar      1 PTR         0.0115
     55 CE2       -61.7120   26.5490    3.2970 C.ar      1 PTR         0.0115
     56 CZ        -62.4150   25.3910    3.6710 C.ar      1 PTR         0.1728
     57 OH        -62.4380   24.3210    3.0080 O.3       1 PTR        -0.2040
     58 P         -61.7500   24.0430    1.5430 P.3       1 PTR         0.1348
     59 O1P       -62.3960   24.9580    0.6050 O.co2     1 PTR        -0.6653
     60 O2P       -62.1500   22.6510    1.1150 O.co2     1 PTR        -0.6653
     61 O3P       -60.2360   24.3150    1.6580 O.co2     1 PTR        -0.6653
     62 N         -64.4480   30.4190    8.3010 N.am      1 SEP        -0.2610
     63 CA        -64.8030   31.3840    9.2850 C.3       1 SEP         0.1586
     64 CB        -66.2740   31.1470    9.6460 C.3       1 SEP         0.1184
     65 OG        -66.6970   31.7380   10.8690 O.3       1 SEP        -0.2714
     66 C         -63.8400   31.1590   10.4610 C.2       1 SEP         0.2066
     67 O         -63.3470   30.0680   10.6960 O.2       1 SEP        -0.3943
     68 P         -66.9510   33.3460   10.7890 P.3       1 SEP         0.2010
     69 O1P       -67.5480   33.6960    9.3250 O.co2     1 SEP        -0.5537
     70 O2P       -65.5330   34.1180   10.9900 O.co2     1 SEP        -0.5537
     71 O3P       -67.9530   33.8100   11.9600 O.co2     1 SEP        -0.5537
     72 N         -63.5620   32.2030   11.1990 N.am      1 SER        -0.2615
     73 CA        -62.6410   32.1140   12.3230 C.3       1 SER         0.1539
     74 C         -63.0760   31.1080   13.4450 C.2       1 SER         0.2063
     75 O         -64.2620   30.9040   13.6640 O.2       1 SER        -0.3943
     76 CB        -62.4670   33.5480   12.8320 C.3       1 SER         0.0843
     77 OG        -62.1440   33.5750   14.2090 O.3       1 SER        -0.3903
     78 N         -62.1210   30.4380   14.1010 N.am      1 ASP        -0.2621
     79 CA        -62.3840   29.5390   15.2470 C.3       1 ASP         0.1425
     80 C         -63.4430   30.0990   16.2380 C.2       1 ASP         0.2081
     81 O         -63.2640   31.1900   16.7970 O.2       1 ASP        -0.3941
     82 CB        -61.0670   29.2890   16.0380 C.3       1 ASP         0.0406
     83 CG        -61.0080   27.9100   16.7160 C.2       1 ASP         0.0393
     84 OD1       -62.0630   27.2780   16.9030 O.co2     1 ASP        -0.5688
     85 OD2       -59.8870   27.4440   17.0620 O.co2     1 ASP        -0.5688
     86 N         -64.5450   29.3540   16.4740 N.am      1 PRO        -0.2497
     87 CA        -65.4820   29.7610   17.5440 C.3       1 PRO         0.1337
     88 C         -65.0530   29.3430   18.9700 C.2       1 PRO         0.2036
     89 O         -65.6420   29.8050   19.9490 O.2       1 PRO        -0.3944
     90 CB        -66.7600   29.0060   17.1740 C.3       1 PRO        -0.0104
     91 CG        -66.2570   27.7590   16.5050 C.3       1 PRO        -0.0281
     92 CD        -65.0760   28.2250   15.6830 C.3       1 PRO         0.0369
     93 N         -64.0530   28.4620   19.0680 N.am      1 THR        -0.2670
     94 CA        -63.7210   27.7830   20.3070 C.3       1 THR         0.1198
     95 C         -62.5940   28.4990   21.0130 C.2       1 THR         0.0626
     96 O         -62.0000   29.4470   20.4660 O.co2     1 THR        -0.5665
     97 CB        -63.2310   26.3540   20.0470 C.3       1 THR         0.0869
     98 OG1       -61.9080   26.4070   19.4800 O.3       1 THR        -0.3880
     99 CG2       -64.1950   25.5780   19.1000 C.3       1 THR        -0.0352
    100 OXT       -62.2470   28.0920   22.1410 O.co2     1 THR        -0.5665
    101 H1        -67.4495   35.7238   -7.6305 H         1 SER         0.2016
    102 H2        -67.8425   36.0502   -6.0657 H         1 SER         0.2016
    103 H3        -66.8864   34.7585   -6.4219 H         1 SER         0.2016
    104 H4        -65.1096   36.1797   -7.2074 H         1 SER         0.1122
    105 H5        -67.2509   38.2479   -6.7052 H         1 SER         0.0640
    106 H6        -66.0617   38.1205   -8.0456 H         1 SER         0.0640
    107 H7        -64.4517   38.7431   -6.5125 H         1 SER         0.2099
    108 H8        -66.9121   37.7952   -4.6112 H         1 PHE         0.1886
    109 H9        -65.2058   36.5212   -2.4783 H         1 PHE         0.0823
    110 H10       -66.3047   38.1319   -0.9488 H         1 PHE         0.0474
    111 H11       -67.3048   38.7629   -2.3010 H         1 PHE         0.0474
    112 H12       -64.0726   38.9446   -0.5875 H         1 PHE         0.0557
    113 H13       -66.1981   40.0985   -4.1343 H         1 PHE         0.0557
    114 H14       -62.3378   40.6426   -1.0873 H         1 PHE         0.0599
    115 H15       -64.4705   41.8280   -4.6211 H         1 PHE         0.0599
    116 H16       -62.5303   42.0931   -3.0940 H         1 PHE         0.0559
    117 H17       -66.3594   35.0693   -1.1760 H         1 LEU         0.1883
    118 H18       -69.2430   34.8092   -1.1431 H         1 LEU         0.0800
    119 H19       -68.9365   32.2681   -1.8434 H         1 LEU         0.0315
    120 H20       -67.6021   32.9499   -2.8339 H         1 LEU         0.0315
    121 H21       -69.4434   34.5439   -3.7422 H         1 LEU         0.0298
    122 H22       -69.9517   32.9084   -5.5379 H         1 LEU         0.0232
    123 H23       -69.2774   31.5978   -4.5110 H         1 LEU         0.0232
    124 H24       -68.2144   32.9286   -5.0818 H         1 LEU         0.0232
    125 H25       -71.2302   33.8941   -2.1617 H         1 LEU         0.0232
    126 H26       -71.2209   32.2348   -2.8495 H         1 LEU         0.0232
    127 H27       -71.6939   33.6303   -3.8769 H         1 LEU         0.0232
    128 H28       -69.8854   33.1858    0.4713 H         1 GLN         0.1883
    129 H29       -68.2150   33.2381    2.7608 H         1 GLN         0.0801
    130 H30       -70.4832   31.2749    2.1403 H         1 GLN         0.0337
    131 H31       -70.6446   32.8622    2.9655 H         1 GLN         0.0337
    132 H32       -69.1820   32.0390    4.7967 H         1 GLN         0.0504
    133 H33       -69.0773   30.4433    3.9786 H         1 GLN         0.0504
    134 H34       -71.5987   29.5514    6.3250 H         1 GLN         0.1814
    135 H35       -69.9023   29.5084    5.9781 H         1 GLN         0.1814
    136 H36       -66.4900   32.0455    3.3604 H         1 ARG         0.1883
    137 H37       -66.4381   29.2547    2.3762 H         1 ARG         0.0800
    138 H38       -63.8633   30.7740    2.6282 H         1 ARG         0.0313
    139 H39       -64.8586   30.9042    1.1385 H         1 ARG         0.0313
    140 H40       -64.1284   28.2446    2.3844 H         1 ARG         0.0301
    141 H41       -63.0620   29.0845    1.2079 H         1 ARG         0.0301
    142 H42       -64.9830   29.1207   -0.4392 H         1 ARG         0.0689
    143 H43       -65.9600   28.1676    0.7287 H         1 ARG         0.0689
    144 H44       -63.4451   26.8453    0.2774 H         1 ARG         0.2642
    145 H45       -66.4301   26.1297   -2.4233 H         1 ARG         0.2615
    146 H46       -66.5116   27.5938   -1.4071 H         1 ARG         0.2615
    147 H47       -63.3471   24.9879   -1.0224 H         1 ARG         0.2615
    148 H48       -64.6243   24.6721   -2.2273 H         1 ARG         0.2615
    149 H49       -63.7622   30.5713    4.2391 H         1 PTR         0.1886
    150 H50       -64.7372   28.8326    6.4209 H         1 PTR         0.0840
    151 H51       -62.4206   28.6191    7.2414 H         1 PTR         0.0584
    152 H52       -61.8412   29.6378    5.8800 H         1 PTR         0.0584
    153 H53       -63.7897   26.4808    6.5581 H         1 PTR         0.0703
    154 H54       -61.2287   28.5761    3.8372 H         1 PTR         0.0703
    155 H55       -63.6512   24.4699    5.1583 H         1 PTR         0.0736
    156 H56       -61.1341   26.5676    2.3801 H         1 PTR         0.0736
    157 H57       -64.4300   29.4523    8.5563 H         1 SEP         0.1884
    158 H58       -64.6815   32.4059    8.8964 H         1 SEP         0.0827
    159 H59       -66.4369   30.0615    9.7176 H         1 SEP         0.0662
    160 H60       -66.8944   31.5583    8.8361 H         1 SEP         0.0662
    161 H61       -63.9913   33.0808   10.9865 H         1 SER         0.1884
    162 H62       -61.6710   31.7613   11.9425 H         1 SER         0.0823
    163 H63       -63.4057   34.0993   12.6745 H         1 SER         0.0606
    164 H64       -61.6578   34.0323   12.2658 H         1 SER         0.0606
    165 H65       -62.0433   34.4762   14.4919 H         1 SER         0.2097
    166 H66       -61.1744   30.5514   13.7992 H         1 ASP         0.1884
    167 H67       -62.7522   28.5813   14.8506 H         1 ASP         0.0819
    168 H68       -60.9758   30.0625   16.8148 H         1 ASP         0.0478
    169 H69       -60.2212   29.3694   15.3393 H         1 ASP         0.0478
    170 H70       -65.6366   30.8498   17.5203 H         1 PRO         0.0802
    171 H71       -67.3795   29.5982   16.4845 H         1 PRO         0.0313
    172 H72       -67.3444   28.7602   18.0729 H         1 PRO         0.0313
    173 H73       -67.0334   27.3233   15.8590 H         1 PRO         0.0287
    174 H74       -65.9423   27.0159   17.2524 H         1 PRO         0.0287
    175 H75       -64.3261   27.4268   15.5806 H         1 PRO         0.0524
    176 H76       -65.3960   28.5578   14.6846 H         1 PRO         0.0524
    177 H77       -63.5100   28.2619   18.2524 H         1 THR         0.1876
    178 H78       -64.6122   27.7587   20.9513 H         1 THR         0.0752
    179 H79       -63.1850   25.8192   21.0071 H         1 THR         0.0632
    180 H80       -61.9341   26.8907   18.6628 H         1 THR         0.2100
    181 H81       -63.8099   24.5604   18.9385 H         1 THR         0.0256
    182 H82       -64.2618   26.1021   18.1352 H         1 THR         0.0256
    183 H83       -65.1937   25.5237   19.5578 H         1 THR         0.0256
@<TRIPOS>BOND
     1    1    2 1  
     2    2    3 1  
     3    2    5 1  
     4    3    4 2  
     5    3    7 am 
     6    5    6 1  
     7    7    8 1  
     8    8    9 1  
     9    8   11 1  
    10    9   10 2  
    11    9   18 am 
    12   11   12 1  
    13   12   13 ar 
    14   12   14 ar 
    15   13   15 ar 
    16   14   16 ar 
    17   15   17 ar 
    18   16   17 ar 
    19   18   19 1  
    20   19   20 1  
    21   19   22 1  
    22   20   21 2  
    23   20   26 am 
    24   22   23 1  
    25   23   24 1  
    26   23   25 1  
    27   26   27 1  
    28   27   28 1  
    29   27   30 1  
    30   28   29 2  
    31   28   35 am 
    32   30   31 1  
    33   31   32 1  
    34   32   33 2  
    35   32   34 am 
    36   35   36 1  
    37   36   37 1  
    38   36   39 1  
    39   37   38 2  
    40   37   46 am 
    41   39   40 1  
    42   40   41 1  
    43   41   42 1  
    44   42   43 ar 
    45   43   44 ar 
    46   43   45 ar 
    47   46   47 1  
    48   47   48 1  
    49   47   50 1  
    50   48   49 2  
    51   48   62 am 
    52   50   51 1  
    53   51   52 ar 
    54   51   53 ar 
    55   52   54 ar 
    56   53   55 ar 
    57   54   56 ar 
    58   55   56 ar 
    59   56   57 1  
    60   57   58 1  
    61   58   59 ar 
    62   58   60 ar 
    63   58   61 ar 
    64   62   63 1  
    65   63   64 1  
    66   63   66 1  
    67   64   65 1  
    68   65   68 1  
    69   66   67 2  
    70   66   72 am 
    71   68   69 ar 
    72   68   70 ar 
    73   68   71 ar 
    74   72   73 1  
    75   73   74 1  
    76   73   76 1  
    77   74   75 2  
    78   74   78 am 
    79   76   77 1  
    80   78   79 1  
    81   79   80 1  
    82   79   82 1  
    83   80   81 2  
    84   80   86 am 
    85   82   83 1  
    86   83   84 ar 
    87   83   85 ar 
    88   86   87 1  
    89   86   92 1  
    90   87   88 1  
    91   87   90 1  
    92   88   89 2  
    93   88   93 am 
    94   90   91 1  
    95   91   92 1  
    96   93   94 1  
    97   94   95 1  
    98   94   97 1  
    99   95   96 ar 
   100   95  100 ar 
   101   97   98 1  
   102   97   99 1  
   103    1  101 1  
   104    1  102 1  
   105    1  103 1  
   106    2  104 1  
   107    5  105 1  
   108    5  106 1  
   109    6  107 1  
   110    7  108 1  
   111    8  109 1  
   112   11  110 1  
   113   11  111 1  
   114   13  112 1  
   115   14  113 1  
   116   15  114 1  
   117   16  115 1  
   118   17  116 1  
   119   18  117 1  
   120   19  118 1  
   121   22  119 1  
   122   22  120 1  
   123   23  121 1  
   124   24  122 1  
   125   24  123 1  
   126   24  124 1  
   127   25  125 1  
   128   25  126 1  
   129   25  127 1  
   130   26  128 1  
   131   27  129 1  
   132   30  130 1  
   133   30  131 1  
   134   31  132 1  
   135   31  133 1  
   136   34  134 1  
   137   34  135 1  
   138   35  136 1  
   139   36  137 1  
   140   39  138 1  
   141   39  139 1  
   142   40  140 1  
   143   40  141 1  
   144   41  142 1  
   145   41  143 1  
   146   42  144 1  
   147   44  145 1  
   148   44  146 1  
   149   45  147 1  
   150   45  148 1  
   151   46  149 1  
   152   47  150 1  
   153   50  151 1  
   154   50  152 1  
   155   52  153 1  
   156   53  154 1  
   157   54  155 1  
   158   55  156 1  
   159   62  157 1  
   160   63  158 1  
   161   64  159 1  
   162   64  160 1  
   163   72  161 1  
   164   73  162 1  
   165   76  163 1  
   166   76  164 1  
   167   77  165 1  
   168   78  166 1  
   169   79  167 1  
   170   82  168 1  
   171   82  169 1  
   172   87  170 1  
   173   90  171 1  
   174   90  172 1  
   175   91  173 1  
   176   91  174 1  
   177   92  175 1  
   178   92  176 1  
   179   93  177 1  
   180   94  178 1  
   181   97  179 1  
   182   98  180 1  
   183   99  181 1  
   184   99  182 1  
   185   99  183 1  
@<TRIPOS>SUBSTRUCTURE
     1 SER         1

