4bsq_ligand
  -I-interpret- 

 53 55  0  0  0  0  0  0  0  0999 V2000
   -3.6760   -7.6530   24.4880 O   0  0  0  0  0
   -3.7860   -6.4100   25.2560 S   0  0  0  0  0
   -2.9840   -5.3130   24.6950 O   0  0  0  0  0
   -5.5140   -6.0230   25.5830 C   0  0  0  0  0
   -5.9490   -4.7060   25.8230 C   0  0  0  0  0
   -7.3100   -4.4220   26.0540 C   0  0  0  0  0
   -8.2690   -5.4490   26.0560 C   0  0  0  0  0
   -7.8610   -6.7700   25.8120 C   0  0  0  0  0
   -6.4950   -7.0460   25.5820 C   0  0  0  0  0
   -3.0560   -6.7350   26.8390 C   0  0  0  0  0
   -1.6340   -7.2700   26.6260 C   0  0  0  0  0
   -3.8790   -7.7820   27.6100 C   0  0  0  0  0
   -2.7930   -8.6420   28.2630 C   0  0  0  0  0
   -1.6860   -8.6940   27.1890 C   0  0  0  0  0
   -0.3800   -9.2320   27.7110 C   0  0  0  0  0
    0.2060  -10.2520   26.9980 N   0  0  0  0  0
    1.4680  -10.9070   27.4070 C   0  0  0  0  0
    2.6340  -10.1700   26.8060 C   0  0  0  0  0
    3.8460  -10.5960   26.7650 N   0  0  0  0  0
    0.1570   -8.8380   28.7480 O   0  0  0  0  0
   -3.2770   -9.9810   28.7950 C   0  0  0  0  0
   -3.0100  -11.0280   28.2070 O   0  0  0  0  0
   -4.0240  -10.0420   29.9800 N   0  0  0  0  0
   -4.2410   -8.8620   30.8450 C   0  0  0  0  0
   -4.0800   -9.2830   32.3100 C   0  0  0  0  0
   -4.9280  -10.4070   32.5860 O   0  0  0  0  0
   -4.6570  -11.5690   31.7910 C   0  0  0  0  0
   -4.8400  -11.2410   30.3020 C   0  0  0  0  0
   -5.2223   -3.8936   25.8303 H   0  0  0  0  0
   -7.6224   -3.3932   26.2333 H   0  0  0  0  0
   -9.3183   -5.2225   26.2449 H   0  0  0  0  0
   -8.5934   -7.5772   25.8001 H   0  0  0  0  0
   -6.1864   -8.0752   25.3985 H   0  0  0  0  0
   -3.0346   -5.8118   27.4181 H   0  0  0  0  0
   -0.8827   -6.6562   27.1230 H   0  0  0  0  0
   -1.3380   -7.2508   25.5771 H   0  0  0  0  0
   -4.5493   -8.3547   26.9691 H   0  0  0  0  0
   -4.5646   -7.3388   28.3323 H   0  0  0  0  0
   -2.4190   -8.2163   29.1941 H   0  0  0  0  0
   -1.9026   -9.4075   26.3939 H   0  0  0  0  0
   -0.2522  -10.5727   26.1450 H   0  0  0  0  0
    1.4714  -11.9392   27.0569 H   0  0  0  0  0
    1.5497  -10.8912   28.4938 H   0  0  0  0  0
    2.4339   -9.1920   26.3683 H   0  0  0  0  0
    4.0805  -11.5058   27.1622 H   0  0  0  0  0
   -5.2439   -8.4666   30.6836 H   0  0  0  0  0
   -3.5126   -8.0884   30.6020 H   0  0  0  0  0
   -4.3594   -8.4519   32.9576 H   0  0  0  0  0
   -3.0419   -9.5596   32.4945 H   0  0  0  0  0
   -5.3482  -12.3640   32.0707 H   0  0  0  0  0
   -3.6298  -11.8902   31.9638 H   0  0  0  0  0
   -4.5176  -12.0852   29.6926 H   0  0  0  0  0
   -5.8910  -11.0436   30.0908 H   0  0  0  0  0
  1  2  2  0  0  0
  2  3  2  0  0  0
  2  4  1  0  0  0
  2 10  1  0  0  0
  4  5  4  0  0  0
  4  9  4  0  0  0
  5  6  4  0  0  0
  6  7  4  0  0  0
  7  8  4  0  0  0
  8  9  4  0  0  0
 10 11  1  0  0  0
 10 12  1  0  0  0
 11 14  1  0  0  0
 12 13  1  0  0  0
 13 14  1  0  0  0
 13 21  1  0  0  0
 14 15  1  0  0  0
 15 16  1  0  0  0
 15 20  2  0  0  0
 16 17  1  0  0  0
 17 18  1  0  0  0
 18 19  2  0  0  0
 21 22  2  0  0  0
 21 23  1  0  0  0
 23 24  1  0  0  0
 23 28  1  0  0  0
 24 25  1  0  0  0
 25 26  1  0  0  0
 26 27  1  0  0  0
 27 28  1  0  0  0
  5 29  1  0  0  0
  6 30  1  0  0  0
  7 31  1  0  0  0
  8 32  1  0  0  0
  9 33  1  0  0  0
 10 34  1  0  0  0
 11 35  1  0  0  0
 11 36  1  0  0  0
 12 37  1  0  0  0
 12 38  1  0  0  0
 13 39  1  0  0  0
 14 40  1  0  0  0
 16 41  1  0  0  0
 17 42  1  0  0  0
 17 43  1  0  0  0
 18 44  1  0  0  0
 19 45  1  0  0  0
 24 46  1  0  0  0
 24 47  1  0  0  0
 25 48  1  0  0  0
 25 49  1  0  0  0
 27 50  1  0  0  0
 27 51  1  0  0  0
 28 52  1  0  0  0
 28 53  1  0  0  0
M  END
$$$$
