### 
### Created by X-TOOL on Mon Sep 10 21:13:13 2018
### 

@<TRIPOS>MOLECULE
4bsq_ligand
   53    55     1     0     0
SMALL
GAST_HUCK


@<TRIPOS>ATOM
      1 O12        -3.6760   -7.6530   24.4880 O.2       1 QQV        -0.1691
      2 S1         -3.7860   -6.4100   25.2560 S.o2      1 QQV         0.0000
      3 O11        -2.9840   -5.3130   24.6950 O.2       1 QQV        -0.1691
      4 C13        -5.5140   -6.0230   25.5830 C.ar      1 QQV         0.0885
      5 C24        -5.9490   -4.7060   25.8230 C.ar      1 QQV        -0.0369
      6 C27        -7.3100   -4.4220   26.0540 C.ar      1 QQV        -0.0600
      7 C28        -8.2690   -5.4490   26.0560 C.ar      1 QQV        -0.0616
      8 C26        -7.8610   -6.7700   25.8120 C.ar      1 QQV        -0.0600
      9 C25        -6.4950   -7.0460   25.5820 C.ar      1 QQV        -0.0369
     10 C4         -3.0560   -6.7350   26.8390 C.3       1 QQV         0.0869
     11 C7         -1.6340   -7.2700   26.6260 C.3       1 QQV        -0.0080
     12 C6         -3.8790   -7.7820   27.6100 C.3       1 QQV        -0.0080
     13 C2         -2.7930   -8.6420   28.2630 C.3       1 QQV         0.0701
     14 C5         -1.6860   -8.6940   27.1890 C.3       1 QQV         0.0701
     15 C9         -0.3800   -9.2320   27.7110 C.2       1 QQV         0.1846
     16 N17         0.2060  -10.2520   26.9980 N.am      1 QQV        -0.2666
     17 C21         1.4680  -10.9070   27.4070 C.3       1 QQV         0.0897
     18 C14         2.6340  -10.1700   26.8060 C.2       1 QQV         0.0176
     19 N10         3.8460  -10.5960   26.7650 N.2       1 QQV        -0.3621
     20 O16         0.1570   -8.8380   28.7480 O.2       1 QQV        -0.3964
     21 C3         -3.2770   -9.9810   28.7950 C.2       1 QQV         0.1842
     22 O15        -3.0100  -11.0280   28.2070 O.2       1 QQV        -0.3964
     23 N8         -4.0240  -10.0420   29.9800 N.am      1 QQV        -0.2685
     24 C19        -4.2410   -8.8620   30.8450 C.3       1 QQV         0.0573
     25 C23        -4.0800   -9.2830   32.3100 C.3       1 QQV         0.0681
     26 O18        -4.9280  -10.4070   32.5860 O.3       1 QQV        -0.3758
     27 C22        -4.6570  -11.5690   31.7910 C.3       1 QQV         0.0681
     28 C20        -4.8400  -11.2410   30.3020 C.3       1 QQV         0.0573
     29 H1         -5.2263   -3.8981   25.8303 H         1 QQV         0.0636
     30 H2         -7.6207   -3.3989   26.2323 H         1 QQV         0.0618
     31 H3         -9.3126   -5.2238   26.2439 H         1 QQV         0.0618
     32 H4         -8.5894   -7.5727   25.8002 H         1 QQV         0.0618
     33 H5         -6.1881   -8.0695   25.3995 H         1 QQV         0.0636
     34 H6         -3.0173   -5.8026   27.4213 H         1 QQV         0.0543
     35 H7         -0.9005   -6.6597   27.1732 H         1 QQV         0.0312
     36 H8         -1.3766   -7.2815   25.5566 H         1 QQV         0.0312
     37 H9         -4.5020   -8.3790   26.9277 H         1 QQV         0.0312
     38 H10        -4.5181   -7.3057   28.3680 H         1 QQV         0.0312
     39 H11        -2.3974   -8.0981   29.1334 H         1 QQV         0.0566
     40 H12        -2.0058   -9.3719   26.3839 H         1 QQV         0.0566
     41 H13        -0.2433  -10.5664   26.1617 H         1 QQV         0.1893
     42 H14         1.4715  -11.9488   27.0539 H         1 QQV         0.0803
     43 H15         1.5505  -10.8913   28.5038 H         1 QQV         0.0803
     44 H16         2.4341   -9.1929   26.3687 H         1 QQV         0.1222
     45 H17         4.5647  -10.0310   26.3403 H         1 QQV         0.1054
     46 H18        -5.2551   -8.4675   30.6837 H         1 QQV         0.0545
     47 H19        -3.5020   -8.0846   30.6011 H         1 QQV         0.0545
     48 H20        -4.3600   -8.4443   32.9644 H         1 QQV         0.0580
     49 H21        -3.0323   -9.5606   32.4977 H         1 QQV         0.0580
     50 H22        -5.3507  -12.3742   32.0745 H         1 QQV         0.0580
     51 H23        -3.6221  -11.8976   31.9671 H         1 QQV         0.0580
     52 H24        -4.5060  -12.0923   29.6907 H         1 QQV         0.0545
     53 H25        -5.9005  -11.0347   30.0951 H         1 QQV         0.0545
@<TRIPOS>BOND
     1    1    2 2  
     2    2    3 2  
     3    2    4 1  
     4    2   10 1  
     5    4    5 ar 
     6    4    9 ar 
     7    5    6 ar 
     8    6    7 ar 
     9    7    8 ar 
    10    8    9 ar 
    11   10   11 1  
    12   10   12 1  
    13   11   14 1  
    14   12   13 1  
    15   13   14 1  
    16   13   21 1  
    17   14   15 1  
    18   15   16 am 
    19   15   20 2  
    20   16   17 1  
    21   17   18 1  
    22   18   19 2  
    23   21   22 2  
    24   21   23 am 
    25   23   24 1  
    26   23   28 1  
    27   24   25 1  
    28   25   26 1  
    29   26   27 1  
    30   27   28 1  
    31    5   29 1  
    32    6   30 1  
    33    7   31 1  
    34    8   32 1  
    35    9   33 1  
    36   10   34 1  
    37   11   35 1  
    38   11   36 1  
    39   12   37 1  
    40   12   38 1  
    41   13   39 1  
    42   14   40 1  
    43   16   41 1  
    44   17   42 1  
    45   17   43 1  
    46   18   44 1  
    47   19   45 1  
    48   24   46 1  
    49   24   47 1  
    50   25   48 1  
    51   25   49 1  
    52   27   50 1  
    53   27   51 1  
    54   28   52 1  
    55   28   53 1  
@<TRIPOS>SUBSTRUCTURE
     1 QQV         1

