### 
### Created by X-TOOL on Mon Sep 10 21:12:52 2018
### 

@<TRIPOS>MOLECULE
1xsc_ligand
   43    45     1     0     0
SMALL
GAST_HUCK


@<TRIPOS>ATOM
      1 PG         -1.7600  -10.4840  -30.8560 P.3       1 ATP         0.1879
      2 O1G        -3.2420  -10.5630  -30.8700 O.co2     1 ATP        -0.6091
      3 O2G        -1.3890  -11.9110  -31.0370 O.co2     1 ATP        -0.6091
      4 O3G        -1.0490   -9.6630  -31.8690 O.co2     1 ATP        -0.6091
      5 PB          0.0410   -9.6170  -29.0160 P.3       1 ATP         0.3553
      6 O1B        -0.0590   -8.1730  -28.6810 O.co2     1 ATP        -0.5652
      7 O2B         1.0680  -10.0850  -29.9790 O.co2     1 ATP        -0.5652
      8 O3B        -1.2960  -10.0080  -29.5290 O.3       1 ATP        -0.1546
      9 PA          0.5960  -11.6160  -27.2250 P.3       1 ATP         0.3266
     10 O1A         0.4950  -12.7090  -28.2250 O.co2     1 ATP        -0.5692
     11 O2A         1.7630  -11.5950  -26.3060 O.co2     1 ATP        -0.5692
     12 O3A         0.3600  -10.2290  -27.7000 O.3       1 ATP        -0.1171
     13 O5         -0.7430  -11.7650  -26.3740 O.3       1 ATP        -0.2441
     14 C5         -0.7530  -11.4990  -24.9750 C.3       1 ATP         0.1131
     15 C4         -1.1980  -12.7250  -24.2160 C.3       1 ATP         0.1189
     16 O4         -1.4500  -12.3480  -22.8340 O.3       1 ATP        -0.3364
     17 C3         -2.4960  -13.3560  -24.7090 C.3       1 ATP         0.1149
     18 O3         -2.4920  -14.7650  -24.5270 O.3       1 ATP        -0.3864
     19 C2         -3.5540  -12.6700  -23.8540 C.3       1 ATP         0.1385
     20 O2         -4.6800  -13.5060  -23.6620 O.3       1 ATP        -0.3836
     21 C1         -2.8170  -12.5360  -22.5270 C.3       1 ATP         0.2010
     22 N9         -3.2570  -11.4110  -21.7050 N.pl3     1 ATP        -0.1919
     23 C8         -4.0400  -10.3440  -22.0680 C.2       1 ATP         0.1123
     24 N7         -4.2510   -9.4900  -21.0960 N.2       1 ATP        -0.2958
     25 C5         -3.5630  -10.0330  -20.0190 C.ar      1 ATP         0.1045
     26 C6         -3.3890   -9.6050  -18.6940 C.ar      1 ATP         0.1298
     27 N6         -3.9170   -8.4830  -18.2030 N.pl3     1 ATP        -0.3152
     28 N1         -2.6440  -10.3820  -17.8770 N.ar      1 ATP        -0.2698
     29 C2         -2.1110  -11.5080  -18.3710 C.ar      1 ATP         0.0533
     30 N3         -2.2000  -12.0120  -19.5970 N.ar      1 ATP        -0.2714
     31 C4         -2.9490  -11.2180  -20.3810 C.ar      1 ATP         0.1613
     32 H1         -1.4468  -10.6711  -24.7672 H         1 ATP         0.0648
     33 H2          0.2601  -11.2186  -24.6509 H         1 ATP         0.0648
     34 H3         -0.3946  -13.4746  -24.2667 H         1 ATP         0.0651
     35 H4         -2.6564  -13.1346  -25.7745 H         1 ATP         0.0648
     36 H5         -3.3118  -15.1263  -24.8431 H         1 ATP         0.2100
     37 H6         -3.8582  -11.6986  -24.2709 H         1 ATP         0.0676
     38 H7         -4.4090  -14.3051  -23.2256 H         1 ATP         0.2101
     39 H8         -2.9508  -13.4639  -21.9515 H         1 ATP         0.0996
     40 H9         -4.4479  -10.2184  -23.0699 H         1 ATP         0.1349
     41 H10        -3.7522   -8.2235  -17.2199 H         1 ATP         0.1820
     42 H11        -4.4896   -7.8760  -18.8069 H         1 ATP         0.1820
     43 H12        -1.5236  -12.0905  -17.6705 H         1 ATP         0.0996
@<TRIPOS>BOND
     1    1    2 ar 
     2    1    3 ar 
     3    1    4 ar 
     4    8    1 1  
     5    5    6 ar 
     6    5    7 ar 
     7    5    8 1  
     8   12    5 1  
     9    9   10 ar 
    10    9   11 ar 
    11    9   12 1  
    12    9   13 1  
    13   13   14 1  
    14   14   15 1  
    15   14   32 1  
    16   14   33 1  
    17   15   16 1  
    18   15   17 1  
    19   15   34 1  
    20   16   21 1  
    21   17   18 1  
    22   17   19 1  
    23   17   35 1  
    24   19   20 1  
    25   19   21 1  
    26   18   36 1  
    27   19   37 1  
    28   21   22 1  
    29   20   38 1  
    30   22   23 1  
    31   22   31 1  
    32   23   24 2  
    33   21   39 1  
    34   24   25 1  
    35   25   26 ar 
    36   25   31 ar 
    37   26   27 1  
    38   26   28 ar 
    39   23   40 1  
    40   27   41 1  
    41   28   29 ar 
    42   29   30 ar 
    43   27   42 1  
    44   30   31 ar 
    45   29   43 1  
@<TRIPOS>SUBSTRUCTURE
     1 ATP         1

