1xsc_ligand
  -I-interpret- 

 47 49  0  0  0  0  0  0  0  0999 V2000
   -1.7600  -10.4840  -30.8560 P   0  0  0  0  0
   -3.2420  -10.5630  -30.8700 O   0  0  0  0  0
   -1.3890  -11.9110  -31.0370 O   0  0  0  0  0
   -1.0490   -9.6630  -31.8690 O   0  0  0  0  0
    0.0410   -9.6170  -29.0160 P   0  0  0  0  0
   -0.0590   -8.1730  -28.6810 O   0  0  0  0  0
    1.0680  -10.0850  -29.9790 O   0  0  0  0  0
   -1.2960  -10.0080  -29.5290 O   0  0  0  0  0
    0.5960  -11.6160  -27.2250 P   0  0  0  0  0
    0.4950  -12.7090  -28.2250 O   0  0  0  0  0
    1.7630  -11.5950  -26.3060 O   0  0  0  0  0
    0.3600  -10.2290  -27.7000 O   0  0  0  0  0
   -0.7430  -11.7650  -26.3740 O   0  0  0  0  0
   -0.7530  -11.4990  -24.9750 C   0  0  0  0  0
   -1.1980  -12.7250  -24.2160 C   0  0  0  0  0
   -1.4500  -12.3480  -22.8340 O   0  0  0  0  0
   -2.4960  -13.3560  -24.7090 C   0  0  0  0  0
   -2.4920  -14.7650  -24.5270 O   0  0  0  0  0
   -3.5540  -12.6700  -23.8540 C   0  0  0  0  0
   -4.6800  -13.5060  -23.6620 O   0  0  0  0  0
   -2.8170  -12.5360  -22.5270 C   0  0  0  0  0
   -3.2570  -11.4110  -21.7050 N   0  0  0  0  0
   -4.0400  -10.3440  -22.0680 C   0  0  0  0  0
   -4.2510   -9.4900  -21.0960 N   0  0  0  0  0
   -3.5630  -10.0330  -20.0190 C   0  0  0  0  0
   -3.3890   -9.6050  -18.6940 C   0  0  0  0  0
   -3.9170   -8.4830  -18.2030 N   0  0  0  0  0
   -2.6440  -10.3820  -17.8770 N   0  0  0  0  0
   -2.1110  -11.5080  -18.3710 C   0  0  0  0  0
   -2.2000  -12.0120  -19.5970 N   0  0  0  0  0
   -2.9490  -11.2180  -20.3810 C   0  0  0  0  0
   -0.4326  -11.9933  -31.0450 H   0  0  0  0  0
   -0.1025   -9.7208  -31.7191 H   0  0  0  0  0
   -0.7689   -8.0408  -28.0484 H   0  0  0  0  0
    1.6940  -10.8375  -25.7203 H   0  0  0  0  0
   -1.4453  -10.6820  -24.7716 H   0  0  0  0  0
    0.2531  -11.2268  -24.6559 H   0  0  0  0  0
   -0.3950  -13.4493  -24.3524 H   0  0  0  0  0
   -2.6642  -13.2212  -25.7775 H   0  0  0  0  0
   -3.3204  -15.1301  -24.8464 H   0  0  0  0  0
   -3.9266  -11.7420  -24.2876 H   0  0  0  0  0
   -5.3281  -13.0487  -23.1212 H   0  0  0  0  0
   -3.0183  -13.4364  -21.9465 H   0  0  0  0  0
   -4.4483  -10.2183  -23.0708 H   0  0  0  0  0
   -4.4840   -7.8819  -18.8010 H   0  0  0  0  0
   -3.7538   -8.2260  -17.2295 H   0  0  0  0  0
   -1.5204  -12.0937  -17.6666 H   0  0  0  0  0
  1  2  2  0  0  0
  1  3  1  0  0  0
  1  4  1  0  0  0
  8  1  1  0  0  0
  5  6  1  0  0  0
  5  7  2  0  0  0
  5  8  1  0  0  0
 12  5  1  0  0  0
  9 10  2  0  0  0
  9 11  1  0  0  0
  9 12  1  0  0  0
  9 13  1  0  0  0
 13 14  1  0  0  0
 14 15  1  0  0  0
 15 16  1  0  0  0
 15 17  1  0  0  0
 16 21  1  0  0  0
 17 18  1  0  0  0
 17 19  1  0  0  0
 19 20  1  0  0  0
 19 21  1  0  0  0
 21 22  1  0  0  0
 22 23  4  0  0  0
 22 31  4  0  0  0
 23 24  4  0  0  0
 24 25  4  0  0  0
 25 26  4  0  0  0
 25 31  4  0  0  0
 26 27  1  0  0  0
 26 28  4  0  0  0
 28 29  4  0  0  0
 29 30  4  0  0  0
 30 31  4  0  0  0
  3 32  1  0  0  0
  4 33  1  0  0  0
  6 34  1  0  0  0
 11 35  1  0  0  0
 14 36  1  0  0  0
 14 37  1  0  0  0
 15 38  1  0  0  0
 17 39  1  0  0  0
 18 40  1  0  0  0
 19 41  1  0  0  0
 20 42  1  0  0  0
 21 43  1  0  0  0
 23 44  1  0  0  0
 27 45  1  0  0  0
 27 46  1  0  0  0
 29 47  1  0  0  0
M  END
$$$$
