4a16_ligand
  -I-interpret- 

 56 60  0  0  0  0  0  0  0  0999 V2000
    9.9540  -25.1650   92.7710 C   0  0  0  0  0
    8.9140  -25.7680   93.6680 C   0  0  0  0  0
    7.9590  -26.6780   92.7630 C   0  0  0  0  0
    8.2410  -24.6940   94.2720 C   0  0  0  0  0
    8.8500  -24.0130   95.3490 C   0  0  0  0  0
   10.0410  -24.4210   95.8160 N   0  0  0  0  0
    8.2060  -22.9470   95.9810 C   0  0  0  0  0
    8.7760  -22.2840   97.0860 C   0  0  0  0  0
    8.0960  -21.1870   97.6650 C   0  0  0  0  0
    6.8370  -20.8130   97.1280 C   0  0  0  0  0
    5.9460  -19.4960   97.7470 Cl  0  0  0  0  0
    6.2570  -21.4880   96.0300 C   0  0  0  0  0
    6.9380  -22.5680   95.4520 C   0  0  0  0  0
    6.3620  -23.2200   94.4230 N   0  0  0  0  0
    6.9550  -24.2780   93.8220 C   0  0  0  0  0
    6.2810  -24.9060   92.7070 C   0  0  0  0  0
    7.2470  -25.7510   91.8260 C   0  0  0  0  0
    8.1560  -24.9480   91.0650 C   0  0  0  0  0
    9.4440  -24.6320   91.5210 C   0  0  0  0  0
   10.3090  -23.7750   90.7170 C   0  0  0  0  0
   10.9170  -22.5510   91.5570 C   0  0  0  0  0
   11.7330  -21.5960   90.7100 C   0  0  0  0  0
   12.2980  -20.4650   91.6050 C   0  0  0  0  0
   13.2600  -19.6590   90.7980 N   0  0  0  0  0
   14.5910  -19.7580   90.8050 C   0  0  0  0  0
   12.9430  -18.7640   89.8960 N   0  0  0  0  0
   14.0410  -18.2780   89.3220 N   0  0  0  0  0
   15.0490  -18.9070   89.8940 C   0  0  0  0  0
   16.4920  -18.6410   89.5470 C   0  0  0  0  0
   16.5460  -17.2730   89.1730 O   0  0  0  0  0
   10.6514  -25.9623   92.5141 H   0  0  0  0  0
   10.3953  -24.3297   93.3147 H   0  0  0  0  0
    9.3228  -26.4065   94.4511 H   0  0  0  0  0
    7.2490  -27.2300   93.3789 H   0  0  0  0  0
    8.5363  -27.4206   92.2122 H   0  0  0  0  0
   10.5070  -25.2236   95.3928 H   0  0  0  0  0
   10.4798  -23.9283   96.5939 H   0  0  0  0  0
    9.7327  -22.6136   97.4912 H   0  0  0  0  0
    8.5289  -20.6419   98.5038 H   0  0  0  0  0
    5.2906  -21.1721   95.6370 H   0  0  0  0  0
    5.8583  -24.1187   92.0828 H   0  0  0  0  0
    5.5194  -25.5749   93.1078 H   0  0  0  0  0
    6.6877  -26.3049   91.0721 H   0  0  0  0  0
    7.8349  -24.5682   90.0951 H   0  0  0  0  0
    9.7105  -23.3607   89.9057 H   0  0  0  0  0
   11.1406  -24.3808   90.3570 H   0  0  0  0  0
   11.5781  -22.9671   92.3172 H   0  0  0  0  0
   10.0819  -21.9903   91.9770 H   0  0  0  0  0
   11.0984  -21.1640   89.9362 H   0  0  0  0  0
   12.5571  -22.1368   90.2446 H   0  0  0  0  0
   12.8048  -20.8929   92.4699 H   0  0  0  0  0
   11.4860  -19.8300   91.9594 H   0  0  0  0  0
   15.1889  -20.4132   91.4385 H   0  0  0  0  0
   16.8350  -19.2894   88.7407 H   0  0  0  0  0
   17.1507  -18.8510   90.3897 H   0  0  0  0  0
   17.4478  -17.0418   88.9389 H   0  0  0  0  0
  1  2  1  0  0  0
  1 19  1  0  0  0
  2  3  1  0  0  0
  2  4  1  0  0  0
  3 17  1  0  0  0
  4  5  4  0  0  0
  4 15  4  0  0  0
  5  6  1  0  0  0
  5  7  4  0  0  0
  7  8  4  0  0  0
  7 13  4  0  0  0
  8  9  4  0  0  0
  9 10  4  0  0  0
 10 11  1  0  0  0
 10 12  4  0  0  0
 12 13  4  0  0  0
 13 14  4  0  0  0
 14 15  4  0  0  0
 15 16  1  0  0  0
 16 17  1  0  0  0
 17 18  1  0  0  0
 18 19  2  0  0  0
 19 20  1  0  0  0
 20 21  1  0  0  0
 21 22  1  0  0  0
 22 23  1  0  0  0
 23 24  1  0  0  0
 24 25  4  0  0  0
 24 26  4  0  0  0
 25 28  4  0  0  0
 26 27  4  0  0  0
 27 28  4  0  0  0
 28 29  1  0  0  0
 29 30  1  0  0  0
  1 31  1  0  0  0
  1 32  1  0  0  0
  2 33  1  0  0  0
  3 34  1  0  0  0
  3 35  1  0  0  0
  6 36  1  0  0  0
  6 37  1  0  0  0
  8 38  1  0  0  0
  9 39  1  0  0  0
 12 40  1  0  0  0
 16 41  1  0  0  0
 16 42  1  0  0  0
 17 43  1  0  0  0
 18 44  1  0  0  0
 20 45  1  0  0  0
 20 46  1  0  0  0
 21 47  1  0  0  0
 21 48  1  0  0  0
 22 49  1  0  0  0
 22 50  1  0  0  0
 23 51  1  0  0  0
 23 52  1  0  0  0
 25 53  1  0  0  0
 29 54  1  0  0  0
 29 55  1  0  0  0
 30 56  1  0  0  0
M  END
$$$$
