1ero_ligand
  -I-interpret- 

 42 43  0  0  0  0  0  0  0  0999 V2000
   40.6060   38.2530   31.6170 C   0  0  0  0  0
   39.3440   38.1560   32.5030 C   0  0  0  0  0
   42.1430   33.5950   29.1060 C   0  0  0  0  0
   41.2050   33.4320   28.3110 O   0  0  0  0  0
   43.1470   32.8230   29.1750 O   0  0  0  0  0
   38.3540   37.0660   31.9790 B   0  0  0  0  0
   38.7210   35.7600   32.4630 O   0  0  0  0  0
   42.8620   36.8800   32.1550 C   0  0  0  0  0
   41.5380   37.0390   31.3630 C   0  0  0  0  0
   43.7960   35.6720   31.8850 C   0  0  0  0  0
   41.1400   36.0010   30.2940 C   0  0  0  0  0
   43.3960   34.6350   30.8060 C   0  0  0  0  0
   42.0740   34.8160   30.0300 C   0  0  0  0  0
   37.1220   37.5390   32.6150 O   0  0  0  0  0
   42.8300   37.8170   35.3760 C   0  0  0  0  0
   43.5400   38.9400   34.8940 C   0  0  0  0  0
   44.9110   38.8130   34.6150 C   0  0  0  0  0
   45.5540   37.5790   34.8020 C   0  0  0  0  0
   44.8250   36.4870   35.2960 C   0  0  0  0  0
   43.4570   36.5860   35.5060 C   0  0  0  0  0
   41.4410   37.7880   35.6230 C   0  0  0  0  0
   40.7620   38.4910   34.4220 C   0  0  0  0  0
   40.9920   39.6620   34.0870 O   0  0  0  0  0
   39.9560   37.7010   33.7310 N   0  0  0  0  0
   41.2428   38.9520   32.1591 H   0  0  0  0  0
   40.2047   38.4753   30.6283 H   0  0  0  0  0
   38.7578   39.0732   32.5602 H   0  0  0  0  0
   43.7453   33.1381   29.8565 H   0  0  0  0  0
   39.5295   35.4753   32.0307 H   0  0  0  0  0
   43.1374   37.6212   32.9053 H   0  0  0  0  0
   44.7223   35.5540   32.4473 H   0  0  0  0  0
   40.2100   36.1088   29.7359 H   0  0  0  0  0
   44.0434   33.7836   30.5962 H   0  0  0  0  0
   36.9013   38.4092   32.2749 H   0  0  0  0  0
   43.0308   39.8915   34.7409 H   0  0  0  0  0
   45.4755   39.6725   34.2534 H   0  0  0  0  0
   46.6123   37.4702   34.5650 H   0  0  0  0  0
   45.3384   35.5513   35.5171 H   0  0  0  0  0
   42.8780   35.7015   35.7717 H   0  0  0  0  0
   41.2015   38.2961   36.5571 H   0  0  0  0  0
   41.0855   36.7627   35.7251 H   0  0  0  0  0
   39.7640   36.7582   34.0695 H   0  0  0  0  0
  2  1  1  0  0  0
  1  9  1  0  0  0
  2  6  1  0  0  0
 24  2  1  0  0  0
  3  4  2  0  0  0
  3  5  1  0  0  0
 13  3  1  0  0  0
  6  7  1  0  0  0
  6 14  1  0  0  0
  9  8  4  0  0  0
  8 10  4  0  0  0
  9 11  4  0  0  0
 10 12  4  0  0  0
 11 13  4  0  0  0
 13 12  4  0  0  0
 15 16  4  0  0  0
 15 20  4  0  0  0
 21 15  1  0  0  0
 16 17  4  0  0  0
 17 18  4  0  0  0
 19 18  4  0  0  0
 20 19  4  0  0  0
 22 21  1  0  0  0
 22 23  2  0  0  0
 22 24  1  0  0  0
  1 25  1  0  0  0
  1 26  1  0  0  0
  2 27  1  0  0  0
  5 28  1  0  0  0
  7 29  1  0  0  0
  8 30  1  0  0  0
 10 31  1  0  0  0
 11 32  1  0  0  0
 12 33  1  0  0  0
 14 34  1  0  0  0
 16 35  1  0  0  0
 17 36  1  0  0  0
 18 37  1  0  0  0
 19 38  1  0  0  0
 20 39  1  0  0  0
 21 40  1  0  0  0
 21 41  1  0  0  0
 24 42  1  0  0  0
M  END
$$$$
