2rl5_ligand
  -I-interpret- 

 57 61  0  0  0  0  0  0  0  0999 V2000
   57.7490   52.3500   12.5160 C   0  0  0  0  0
   59.1670   52.5810   12.4520 C   0  0  0  0  0
   60.0300   52.1640   13.4980 C   0  0  0  0  0
   59.4740   51.4910   14.6530 C   0  0  0  0  0
   58.0630   51.2560   14.7260 C   0  0  0  0  0
   57.1940   51.6760   13.6700 C   0  0  0  0  0
   61.4000   52.3800   13.4540 N   0  0  0  0  0
   62.2280   51.9810   14.4600 C   0  0  0  0  0
   61.7420   51.3240   15.6100 C   0  0  0  0  0
   60.3300   51.0670   15.7210 C   0  0  0  0  0
   59.7340   50.4220   16.8350 O   0  0  0  0  0
   60.4870   49.5010   17.5690 C   0  0  0  0  0
   61.1170   49.8870   18.7800 C   0  0  0  0  0
   61.8700   48.9670   19.5270 C   0  0  0  0  0
   62.0170   47.6010   19.0700 C   0  0  0  0  0
   61.3630   47.2380   17.8420 C   0  0  0  0  0
   60.6120   48.1720   17.1060 C   0  0  0  0  0
   62.4570   49.4490   20.7280 O   0  0  0  0  0
   63.5190   48.6280   21.2510 C   0  0  0  0  0
   63.1140   47.1510   21.2480 C   0  0  0  0  0
   62.7920   46.7140   19.8650 N   0  0  0  0  0
   55.8180   51.3850   13.8690 O   0  0  0  0  0
   56.8940   52.7640   11.4740 O   0  0  0  0  0
   63.5620   45.6700   19.3080 C   0  0  0  0  0
   63.5880   45.4420   18.0970 O   0  0  0  0  0
   64.3040   44.9100   20.1860 N   0  0  0  0  0
   65.0930   43.8050   19.8780 C   0  0  0  0  0
   65.9500   43.8160   18.7300 C   0  0  0  0  0
   66.7540   42.6890   18.4160 C   0  0  0  0  0
   66.7020   41.5500   19.2530 C   0  0  0  0  0
   65.8690   41.5120   20.3940 C   0  0  0  0  0
   65.0630   42.6440   20.7050 C   0  0  0  0  0
   67.6740   40.1750   18.8710 Cl  0  0  0  0  0
   55.3930   50.0490   14.1360 C   0  0  0  0  0
   57.1690   54.0300   10.8750 C   0  0  0  0  0
   59.5871   53.0866   11.5825 H   0  0  0  0  0
   57.6460   50.7508   15.5972 H   0  0  0  0  0
   63.2971   52.1751   14.3737 H   0  0  0  0  0
   62.4248   51.0159   16.4018 H   0  0  0  0  0
   61.0151   50.9123   19.1356 H   0  0  0  0  0
   61.4512   46.2161   17.4732 H   0  0  0  0  0
   60.1262   47.8704   16.1780 H   0  0  0  0  0
   63.7281   48.9337   22.2762 H   0  0  0  0  0
   64.4017   48.7523   20.6237 H   0  0  0  0  0
   62.2350   47.0193   21.8790 H   0  0  0  0  0
   63.9410   46.5521   21.6295 H   0  0  0  0  0
   64.2717   45.1868   21.1672 H   0  0  0  0  0
   65.9850   44.6986   18.0913 H   0  0  0  0  0
   67.4034   42.7012   17.5407 H   0  0  0  0  0
   65.8438   40.6263   21.0288 H   0  0  0  0  0
   64.4174   42.6227   21.5830 H   0  0  0  0  0
   55.6769   49.4055   13.3033 H   0  0  0  0  0
   55.8686   49.6936   15.0501 H   0  0  0  0  0
   54.3100   50.0311   14.2578 H   0  0  0  0  0
   57.1072   54.8104   11.6334 H   0  0  0  0  0
   58.1708   54.0174   10.4456 H   0  0  0  0  0
   56.4383   54.2256   10.0902 H   0  0  0  0  0
  1  2  4  0  0  0
  1  6  4  0  0  0
  1 23  1  0  0  0
  2  3  4  0  0  0
  3  4  4  0  0  0
  3  7  4  0  0  0
  4  5  4  0  0  0
  4 10  4  0  0  0
  5  6  4  0  0  0
  6 22  1  0  0  0
  7  8  4  0  0  0
  8  9  4  0  0  0
  9 10  4  0  0  0
 10 11  1  0  0  0
 11 12  1  0  0  0
 12 13  4  0  0  0
 12 17  4  0  0  0
 13 14  4  0  0  0
 14 15  4  0  0  0
 14 18  1  0  0  0
 15 16  4  0  0  0
 15 21  1  0  0  0
 16 17  4  0  0  0
 18 19  1  0  0  0
 19 20  1  0  0  0
 20 21  1  0  0  0
 21 24  1  0  0  0
 22 34  1  0  0  0
 23 35  1  0  0  0
 24 25  2  0  0  0
 24 26  1  0  0  0
 26 27  1  0  0  0
 27 28  4  0  0  0
 27 32  4  0  0  0
 28 29  4  0  0  0
 29 30  4  0  0  0
 30 31  4  0  0  0
 30 33  1  0  0  0
 31 32  4  0  0  0
  2 36  1  0  0  0
  5 37  1  0  0  0
  8 38  1  0  0  0
  9 39  1  0  0  0
 13 40  1  0  0  0
 16 41  1  0  0  0
 17 42  1  0  0  0
 19 43  1  0  0  0
 19 44  1  0  0  0
 20 45  1  0  0  0
 20 46  1  0  0  0
 26 47  1  0  0  0
 28 48  1  0  0  0
 29 49  1  0  0  0
 31 50  1  0  0  0
 32 51  1  0  0  0
 34 52  1  0  0  0
 34 53  1  0  0  0
 34 54  1  0  0  0
 35 55  1  0  0  0
 35 56  1  0  0  0
 35 57  1  0  0  0
M  END
$$$$
