6i0p_ligand
  -I-interpret- 

 18 18  0  0  0  0  0  0  0  0999 V2000
   10.8210    3.1310   13.1540 O   0  0  0  0  0
   10.3500    1.9740   13.3460 C   0  0  0  0  0
    9.5240    1.6720   14.2190 O   0  0  0  0  0
   10.9440    0.9680   12.4690 C   0  0  0  0  0
   11.4280   -0.1090   13.0420 N   0  0  0  0  0
   12.0470   -1.0690   12.3590 C   0  0  0  0  0
   12.4740   -2.3950   13.3410 S   0  0  0  0  0
   12.2540   -0.9950   10.9860 C   0  0  0  0  0
   11.7450    0.1290   10.3150 C   0  0  0  0  0
   11.1010    1.1410   11.0290 C   0  0  0  0  0
   10.4300    2.3190   10.3880 C   0  0  0  0  0
   10.6890    2.6730    9.2310 O   0  0  0  0  0
    9.3470    2.7240   10.9660 O   0  0  0  0  0
   11.4405    3.1055   12.4210 H   0  0  0  0  0
   12.7904   -1.7788   10.4512 H   0  0  0  0  0
   11.8532    0.2113    9.2335 H   0  0  0  0  0
   11.9504    1.6665   10.5926 H   0  0  0  0  0
    9.3029    2.3585   11.8526 H   0  0  0  0  0
  1  2  1  0  0  0
  2  3  2  0  0  0
  2  4  1  0  0  0
  4  5  2  0  0  0
  4 10  1  0  0  0
  5  6  1  0  0  0
  6  7  2  0  0  0
  6  8  1  0  0  0
  8  9  2  0  0  0
  9 10  1  0  0  0
 10 11  1  0  0  0
 11 12  2  0  0  0
 11 13  1  0  0  0
  1 14  1  0  0  0
  8 15  1  0  0  0
  9 16  1  0  0  0
 10 17  1  0  0  0
 13 18  1  0  0  0
M  END
$$$$
