3dcr_ligand
  -I-interpret- 

124123  0  0  0  0  0  0  0  0999 V2000
   -4.2910   -8.8710  -16.7770 C   0  0  0  0  0
   -3.4730   -8.5350  -17.6580 O   0  0  0  0  0
   -3.8710   -9.5530  -15.5100 C   0  0  0  0  0
   -5.6060   -8.7070  -16.9420 N   0  0  0  0  0
   -6.2210   -8.0910  -18.1090 C   0  0  0  0  0
   -6.8020   -6.6650  -17.9160 C   0  0  0  0  0
   -7.1390   -6.0150  -18.8960 O   0  0  0  0  0
   -7.3250   -8.9420  -18.6890 C   0  0  0  0  0
   -8.4100   -9.0740  -17.7600 O   0  0  0  0  0
   -6.7630  -10.3200  -19.0680 C   0  0  0  0  0
   -6.8760   -6.1870  -16.6850 N   0  0  0  0  0
   -7.3960   -4.8860  -16.3840 C   0  0  0  0  0
   -6.3190   -4.0980  -15.6510 C   0  0  0  0  0
   -6.1610   -4.2190  -14.4140 O   0  0  0  0  0
   -8.6610   -4.9400  -15.5200 C   0  0  0  0  0
   -9.7200   -5.8680  -16.0800 C   0  0  0  0  0
   -9.2740   -3.5280  -15.3560 C   0  0  0  0  0
  -10.2600   -5.5280  -17.4810 C   0  0  0  0  0
   -5.4850   -3.2460  -16.4620 N   0  0  0  0  0
   -4.3720   -2.5200  -15.8610 C   0  0  0  0  0
   -3.1390   -2.7820  -16.7420 C   0  0  0  0  0
   -2.7840   -4.2740  -16.9750 C   0  0  0  0  0
   -2.6870   -5.1070  -15.6810 C   0  0  0  0  0
   -1.6830   -4.4310  -14.7740 C   0  0  0  0  0
   -4.7210   -1.0580  -15.6330 C   0  0  0  0  0
   -5.0390   -0.3570  -16.9230 O   0  0  0  0  0
   -3.5480   -0.2820  -15.0990 O   0  0  0  0  0
   -5.9380   -0.8210  -14.7380 C   0  0  0  0  0
   -6.0000    0.4650  -13.9590 C   0  0  0  0  0
   -7.4150    0.6830  -13.4360 C   0  0  0  0  0
   -7.6430    1.9430  -12.5830 C   0  0  0  0  0
   -7.6080    1.4730  -11.1330 C   0  0  0  0  0
   -8.8560    0.6770  -10.6890 C   0  0  0  0  0
   -4.9590    0.4260  -12.8680 C   0  0  0  0  0
   -4.7060   -0.5450  -12.1010 O   0  0  0  0  0
   -4.3030    1.6070  -12.5360 N   0  0  0  0  0
   -3.2780    1.6970  -11.4850 C   0  0  0  0  0
   -3.2770    3.0840  -10.8800 C   0  0  0  0  0
   -3.3460    4.1200  -11.6060 O   0  0  0  0  0
   -1.9340    1.2660  -12.0190 C   0  0  0  0  0
   -0.7990    1.4020  -11.0070 C   0  0  0  0  0
   -0.2190    2.7890  -10.8690 C   0  0  0  0  0
   -0.2590    3.5480  -11.8190 O   0  0  0  0  0
    0.3570    3.1230   -9.7320 N   0  0  0  0  0
   -3.2500    3.1950   -9.5540 N   0  0  0  0  0
   -3.1680    4.4590   -8.8380 C   0  0  0  0  0
   -4.5870    4.6640   -8.3420 C   0  0  0  0  0
   -5.3330    5.7150   -9.1480 C   0  0  0  0  0
   -5.7120    6.9460   -8.3060 C   0  0  0  0  0
   -5.2090    8.1510   -8.9530 N   0  0  0  0  0
   -5.8940    9.1910   -9.3370 C   0  0  0  0  0
   -7.1830    9.4000   -8.9920 N   0  0  0  0  0
   -5.2540   10.0480  -10.1500 N   0  0  0  0  0
   -2.1540    4.3250   -7.7660 C   0  0  0  0  0
   -2.0230    3.3190   -7.1670 O   0  0  0  0  0
   -1.3480    5.3300   -7.4430 N   0  0  0  0  0
   -3.3781  -10.4946  -15.7519 H   0  0  0  0  0
   -3.1807   -8.9098  -14.9642 H   0  0  0  0  0
   -4.7499   -9.7488  -14.8957 H   0  0  0  0  0
   -6.2223   -9.0361  -16.1989 H   0  0  0  0  0
   -5.3695   -8.0064  -18.7842 H   0  0  0  0  0
   -7.7137   -8.4566  -19.5842 H   0  0  0  0  0
   -8.7462   -8.2030  -17.5366 H   0  0  0  0  0
   -6.4002  -10.8222  -18.1712 H   0  0  0  0  0
   -7.5499  -10.9180  -19.5276 H   0  0  0  0  0
   -5.9414  -10.1945  -19.7732 H   0  0  0  0  0
   -6.5482   -6.7706  -15.9153 H   0  0  0  0  0
   -7.6716   -4.4072  -17.3236 H   0  0  0  0  0
   -8.3458   -5.3316  -14.5528 H   0  0  0  0  0
  -10.5714   -5.7977  -15.4031 H   0  0  0  0  0
   -9.2480   -6.8466  -16.1678 H   0  0  0  0  0
   -8.5478   -2.8714  -14.8769 H   0  0  0  0  0
   -9.5339   -3.1300  -16.3369 H   0  0  0  0  0
  -10.1704   -3.5919  -14.7392 H   0  0  0  0  0
  -10.7111   -4.5359  -17.4642 H   0  0  0  0  0
   -9.4398   -5.5434  -18.1987 H   0  0  0  0  0
  -11.0100   -6.2648  -17.7686 H   0  0  0  0  0
   -5.6742   -3.1507  -17.4598 H   0  0  0  0  0
   -4.1421   -2.8733  -14.8558 H   0  0  0  0  0
   -2.2888   -2.3397  -16.2227 H   0  0  0  0  0
   -3.3647   -2.3616  -17.7220 H   0  0  0  0  0
   -1.8038   -4.3019  -17.4510 H   0  0  0  0  0
   -3.5833   -4.7056  -17.5774 H   0  0  0  0  0
   -2.3689   -6.1246  -15.9076 H   0  0  0  0  0
   -3.6601   -5.1654  -15.1933 H   0  0  0  0  0
   -0.7147   -4.3898  -15.2728 H   0  0  0  0  0
   -2.0211   -3.4192  -14.5501 H   0  0  0  0  0
   -1.5922   -4.9985  -13.8478 H   0  0  0  0  0
   -5.2541    0.5610  -16.7424 H   0  0  0  0  0
   -3.8046    0.6337  -14.9677 H   0  0  0  0  0
   -5.9054   -1.6123  -13.9890 H   0  0  0  0  0
   -6.7932   -0.7923  -15.4133 H   0  0  0  0  0
   -5.7715    1.3201  -14.5952 H   0  0  0  0  0
   -7.6315   -0.1652  -12.7866 H   0  0  0  0  0
   -8.0488    0.7945  -14.3157 H   0  0  0  0  0
   -8.5939    2.4186  -12.8234 H   0  0  0  0  0
   -6.8787    2.6961  -12.7749 H   0  0  0  0  0
   -7.5592    2.3653  -10.5088 H   0  0  0  0  0
   -6.7515    0.8062  -11.0337 H   0  0  0  0  0
   -9.7423    1.3018  -10.7998 H   0  0  0  0  0
   -8.9574   -0.2132  -11.3098 H   0  0  0  0  0
   -8.7454    0.3829   -9.6453 H   0  0  0  0  0
   -4.5456    2.4550  -13.0483 H   0  0  0  0  0
   -3.5135    1.0067  -10.6750 H   0  0  0  0  0
   -1.6965    1.9125  -12.8638 H   0  0  0  0  0
   -2.0111    0.2111  -12.2824 H   0  0  0  0  0
    0.0091    0.7596  -11.3567 H   0  0  0  0  0
   -1.2155    1.1401  -10.0344 H   0  0  0  0  0
    0.7871    4.0421   -9.6289 H   0  0  0  0  0
    0.3728    2.4624   -8.9550 H   0  0  0  0  0
   -3.2894    2.3373   -9.0033 H   0  0  0  0  0
   -2.8464    5.3212   -9.4222 H   0  0  0  0  0
   -4.5381    5.0029   -7.3072 H   0  0  0  0  0
   -5.1205    3.7188   -8.4425 H   0  0  0  0  0
   -6.2542    5.2639   -9.5169 H   0  0  0  0  0
   -4.6783    6.0477   -9.9535 H   0  0  0  0  0
   -5.2719    6.8563   -7.3129 H   0  0  0  0  0
   -6.7968    7.0064   -8.2188 H   0  0  0  0  0
   -4.2042    8.1843   -9.1253 H   0  0  0  0  0
   -7.6808   10.2154   -9.3494 H   0  0  0  0  0
   -7.6586    8.7425   -8.3740 H   0  0  0  0  0
   -4.2904    9.8633  -10.4289 H   0  0  0  0  0
   -0.6543    5.2104   -6.7048 H   0  0  0  0  0
   -1.4227    6.2214   -7.9331 H   0  0  0  0  0
  1  2  2  0  0  0
  1  3  1  0  0  0
  1  4  1  0  0  0
  4  5  1  0  0  0
  5  6  1  0  0  0
  5  8  1  0  0  0
  6  7  2  0  0  0
  6 11  1  0  0  0
  8  9  1  0  0  0
  8 10  1  0  0  0
 11 12  1  0  0  0
 12 13  1  0  0  0
 12 15  1  0  0  0
 13 14  2  0  0  0
 13 19  1  0  0  0
 15 16  1  0  0  0
 15 17  1  0  0  0
 16 18  1  0  0  0
 19 20  1  0  0  0
 20 21  1  0  0  0
 20 25  1  0  0  0
 21 22  1  0  0  0
 22 23  1  0  0  0
 23 24  1  0  0  0
 25 26  1  0  0  0
 25 27  1  0  0  0
 25 28  1  0  0  0
 28 29  1  0  0  0
 29 30  1  0  0  0
 29 34  1  0  0  0
 30 31  1  0  0  0
 31 32  1  0  0  0
 32 33  1  0  0  0
 34 35  2  0  0  0
 34 36  1  0  0  0
 36 37  1  0  0  0
 37 38  1  0  0  0
 37 40  1  0  0  0
 38 39  2  0  0  0
 38 45  1  0  0  0
 40 41  1  0  0  0
 41 42  1  0  0  0
 42 43  2  0  0  0
 42 44  1  0  0  0
 45 46  1  0  0  0
 46 47  1  0  0  0
 46 54  1  0  0  0
 47 48  1  0  0  0
 48 49  1  0  0  0
 49 50  1  0  0  0
 50 51  1  0  0  0
 51 52  1  0  0  0
 51 53  2  0  0  0
 54 55  2  0  0  0
 54 56  1  0  0  0
  3 57  1  0  0  0
  3 58  1  0  0  0
  3 59  1  0  0  0
  4 60  1  0  0  0
  5 61  1  0  0  0
  8 62  1  0  0  0
  9 63  1  0  0  0
 10 64  1  0  0  0
 10 65  1  0  0  0
 10 66  1  0  0  0
 11 67  1  0  0  0
 12 68  1  0  0  0
 15 69  1  0  0  0
 16 70  1  0  0  0
 16 71  1  0  0  0
 17 72  1  0  0  0
 17 73  1  0  0  0
 17 74  1  0  0  0
 18 75  1  0  0  0
 18 76  1  0  0  0
 18 77  1  0  0  0
 19 78  1  0  0  0
 20 79  1  0  0  0
 21 80  1  0  0  0
 21 81  1  0  0  0
 22 82  1  0  0  0
 22 83  1  0  0  0
 23 84  1  0  0  0
 23 85  1  0  0  0
 24 86  1  0  0  0
 24 87  1  0  0  0
 24 88  1  0  0  0
 26 89  1  0  0  0
 27 90  1  0  0  0
 28 91  1  0  0  0
 28 92  1  0  0  0
 29 93  1  0  0  0
 30 94  1  0  0  0
 30 95  1  0  0  0
 31 96  1  0  0  0
 31 97  1  0  0  0
 32 98  1  0  0  0
 32 99  1  0  0  0
 33100  1  0  0  0
 33101  1  0  0  0
 33102  1  0  0  0
 36103  1  0  0  0
 37104  1  0  0  0
 40105  1  0  0  0
 40106  1  0  0  0
 41107  1  0  0  0
 41108  1  0  0  0
 44109  1  0  0  0
 44110  1  0  0  0
 45111  1  0  0  0
 46112  1  0  0  0
 47113  1  0  0  0
 47114  1  0  0  0
 48115  1  0  0  0
 48116  1  0  0  0
 49117  1  0  0  0
 49118  1  0  0  0
 50119  1  0  0  0
 52120  1  0  0  0
 52121  1  0  0  0
 53122  1  0  0  0
 56123  1  0  0  0
 56124  1  0  0  0
M  END
$$$$
