### 
### Created by X-TOOL on Mon Sep 10 21:12:58 2018
### 

@<TRIPOS>MOLECULE
3dcr_ligand
  125   124     1     0     0
SMALL
GAST_HUCK


@<TRIPOS>ATOM
      1 C          -4.2910   -8.8710  -16.7770 C.2       1 KVS         0.1752
      2 O          -3.4730   -8.5350  -17.6580 O.2       1 KVS        -0.3972
      3 CH3        -3.8710   -9.5530  -15.5100 C.3       1 KVS         0.0258
      4 N          -5.6060   -8.7070  -16.9420 N.am      1 KVS        -0.2635
      5 CA         -6.2210   -8.0910  -18.1090 C.3       1 KVS         0.1564
      6 C          -6.8020   -6.6650  -17.9160 C.2       1 KVS         0.2065
      7 O          -7.1390   -6.0150  -18.8960 O.2       1 KVS        -0.3943
      8 CB         -7.3250   -8.9420  -18.6890 C.3       1 KVS         0.0924
      9 OG1        -8.4100   -9.0740  -17.7600 O.3       1 KVS        -0.3874
     10 CG2        -6.7630  -10.3200  -19.0680 C.3       1 KVS        -0.0346
     11 N          -6.8760   -6.1870  -16.6850 N.am      1 KVS        -0.2634
     12 CA         -7.3960   -4.8860  -16.3840 C.3       1 KVS         0.1334
     13 C          -6.3190   -4.0980  -15.6510 C.2       1 KVS         0.2023
     14 O          -6.1610   -4.2190  -14.4140 O.2       1 KVS        -0.3945
     15 CB         -8.6610   -4.9400  -15.5200 C.3       1 KVS        -0.0037
     16 CG1        -9.7200   -5.8680  -16.0800 C.3       1 KVS        -0.0491
     17 CG2        -9.2740   -3.5280  -15.3560 C.3       1 KVS        -0.0582
     18 CD1       -10.2600   -5.5280  -17.4810 C.3       1 KVS        -0.0648
     19 N          -5.4850   -3.2460  -16.4620 N.am      1 KVS        -0.2768
     20 CA         -4.3720   -2.5200  -15.8610 C.3       1 KVS         0.0956
     21 CB         -3.1390   -2.7820  -16.7420 C.3       1 KVS        -0.0249
     22 CG         -2.7840   -4.2740  -16.9750 C.3       1 KVS        -0.0510
     23 CD         -2.6870   -5.1070  -15.6810 C.3       1 KVS        -0.0558
     24 CE         -1.6830   -4.4310  -14.7740 C.3       1 KVS        -0.0653
     25 CW         -4.7210   -1.0580  -15.6330 C.3       1 KVS         0.1903
     26 OA         -5.0390   -0.3570  -16.9230 O.3       1 KVS        -0.3628
     27 OB         -3.5480   -0.2820  -15.0990 O.3       1 KVS        -0.3628
     28 CZ         -5.9380   -0.8210  -14.7380 C.3       1 KVS         0.0231
     29 CJ         -6.0000    0.4650  -13.9590 C.3       1 KVS         0.0537
     30 CL         -7.4150    0.6830  -13.4360 C.3       1 KVS        -0.0331
     31 CX         -7.6430    1.9430  -12.5830 C.3       1 KVS        -0.0510
     32 CV         -7.6080    1.4730  -11.1330 C.3       1 KVS        -0.0558
     33 CY         -8.8560    0.6770  -10.6890 C.3       1 KVS        -0.0653
     34 C          -4.9590    0.4260  -12.8680 C.2       1 KVS         0.1815
     35 O          -4.7060   -0.5450  -12.1010 O.2       1 KVS        -0.3966
     36 N          -4.3030    1.6070  -12.5360 N.am      1 KVS        -0.2652
     37 CA         -3.2780    1.6970  -11.4850 C.3       1 KVS         0.1330
     38 C          -3.2770    3.0840  -10.8800 C.2       1 KVS         0.2040
     39 O          -3.3460    4.1200  -11.6060 O.2       1 KVS        -0.3944
     40 CB         -1.9340    1.2660  -12.0190 C.3       1 KVS         0.0045
     41 CG         -0.7990    1.4020  -11.0070 C.3       1 KVS         0.0412
     42 CD         -0.2190    2.7890  -10.8690 C.2       1 KVS         0.1737
     43 OE1        -0.2590    3.5480  -11.8190 O.2       1 KVS        -0.3973
     44 NE2         0.3570    3.1230   -9.7320 N.am      1 KVS        -0.3009
     45 N          -3.2500    3.1950   -9.5540 N.am      1 KVS        -0.2637
     46 CA         -3.1680    4.4590   -8.8380 C.3       1 KVS         0.1307
     47 CB         -4.5870    4.6640   -8.3420 C.3       1 KVS        -0.0092
     48 CG         -5.3330    5.7150   -9.1480 C.3       1 KVS        -0.0156
     49 CD         -5.7120    6.9460   -8.3060 C.3       1 KVS         0.0627
     50 NE         -5.2090    8.1510   -8.9530 N.pl3     1 KVS        -0.2723
     51 CZ         -5.8940    9.1910   -9.3370 C.cat     1 KVS         0.2882
     52 NH1        -7.1830    9.4000   -8.9920 N.pl3     1 KVS        -0.2849
     53 NH2        -5.2540   10.0480  -10.1500 N.pl3     1 KVS        -0.2849
     54 C          -2.1540    4.3250   -7.7660 C.2       1 KVS         0.1992
     55 O          -2.0230    3.3190   -7.1670 O.2       1 KVS        -0.3947
     56 NT         -1.3480    5.3300   -7.4430 N.am      1 KVS        -0.2990
     57 H1         -4.7572   -9.7512  -14.8892 H         1 KVS         0.0467
     58 H2         -3.1743   -8.9048  -14.9582 H         1 KVS         0.0467
     59 H3         -3.3734  -10.5035  -15.7528 H         1 KVS         0.0467
     60 H4         -6.2102   -9.0297  -16.2134 H         1 KVS         0.1883
     61 H5         -5.4247   -8.0129  -18.8639 H         1 KVS         0.0826
     62 H6         -7.7044   -8.4539  -19.5989 H         1 KVS         0.0639
     63 H7         -9.0916   -9.6121  -18.1452 H         1 KVS         0.2101
     64 H8         -7.5671  -10.9403  -19.4906 H         1 KVS         0.0257
     65 H9         -6.3556  -10.8092  -18.1710 H         1 KVS         0.0257
     66 H10        -5.9639  -10.1976  -19.8139 H         1 KVS         0.0257
     67 H11        -6.5547   -6.7592  -15.9304 H         1 KVS         0.1883
     68 H12        -7.6405   -4.3775  -17.3283 H         1 KVS         0.0802
     69 H13        -8.3714   -5.3127  -14.5264 H         1 KVS         0.0345
     70 H14       -10.5713   -5.8626  -15.3834 H         1 KVS         0.0267
     71 H15        -9.2888   -6.8790  -16.1244 H         1 KVS         0.0267
     72 H16        -8.5147   -2.8436  -14.9497 H         1 KVS         0.0235
     73 H17       -10.1295   -3.5775  -14.6664 H         1 KVS         0.0235
     74 H18        -9.6133   -3.1595  -16.3353 H         1 KVS         0.0235
     75 H19       -11.0171   -6.2709  -17.7724 H         1 KVS         0.0230
     76 H20        -9.4332   -5.5433  -18.2063 H         1 KVS         0.0230
     77 H21       -10.7156   -4.5269  -17.4654 H         1 KVS         0.0230
     78 H22        -5.6705   -3.1526  -17.4402 H         1 KVS         0.1857
     79 H23        -4.1693   -2.9537  -14.8706 H         1 KVS         0.0609
     80 H24        -2.2736   -2.2992  -16.2645 H         1 KVS         0.0289
     81 H25        -3.3208   -2.3205  -17.7238 H         1 KVS         0.0289
     82 H26        -1.8133   -4.3219  -17.4903 H         1 KVS         0.0266
     83 H27        -3.5610   -4.7183  -17.6145 H         1 KVS         0.0266
     84 H28        -2.3514   -6.1277  -15.9166 H         1 KVS         0.0263
     85 H29        -3.6692   -5.1486  -15.1876 H         1 KVS         0.0263
     86 H30        -1.5905   -5.0028  -13.8389 H         1 KVS         0.0230
     87 H31        -2.0231   -3.4098  -14.5472 H         1 KVS         0.0230
     88 H32        -0.7053   -4.3888  -15.2762 H         1 KVS         0.0230
     89 H33        -4.2841   -0.3970  -17.4983 H         1 KVS         0.2128
     90 H34        -2.8320   -0.3239  -15.7219 H         1 KVS         0.2128
     91 H35        -5.9759   -1.6461  -14.0115 H         1 KVS         0.0345
     92 H36        -6.8296   -0.8575  -15.3812 H         1 KVS         0.0345
     93 H37        -5.7565    1.2995  -14.6330 H         1 KVS         0.0540
     94 H38        -7.6830   -0.1895  -12.8221 H         1 KVS         0.0292
     95 H39        -8.0875    0.7408  -14.3045 H         1 KVS         0.0292
     96 H40        -8.6193    2.3926  -12.8167 H         1 KVS         0.0267
     97 H41        -6.8468    2.6794  -12.7665 H         1 KVS         0.0267
     98 H42        -7.5169    2.3583  -10.4866 H         1 KVS         0.0263
     99 H43        -6.7252    0.8302  -11.0010 H         1 KVS         0.0263
    100 H44        -8.7456    0.3796   -9.6357 H         1 KVS         0.0230
    101 H45        -8.9595   -0.2217  -11.3148 H         1 KVS         0.0230
    102 H46        -9.7512    1.3065  -10.8003 H         1 KVS         0.0230
    103 H47        -4.5408    2.4384  -13.0383 H         1 KVS         0.1883
    104 H48        -3.5507    0.9924  -10.6855 H         1 KVS         0.0801
    105 H49        -1.6937    1.8856  -12.8956 H         1 KVS         0.0337
    106 H50        -2.0033    0.2112  -12.3233 H         1 KVS         0.0337
    107 H51         0.0115    0.7239  -11.3124 H         1 KVS         0.0504
    108 H52        -1.1828    1.0950  -10.0229 H         1 KVS         0.0504
    109 H53         0.7478    4.0365   -9.6189 H         1 KVS         0.1814
    110 H54         0.4034    2.4630   -8.9822 H         1 KVS         0.1814
    111 H55        -3.2886    2.3541   -9.0141 H         1 KVS         0.1883
    112 H56        -2.8779    5.2823   -9.5074 H         1 KVS         0.0800
    113 H57        -4.5515    4.9841   -7.2902 H         1 KVS         0.0313
    114 H58        -5.1293    3.7099   -8.4168 H         1 KVS         0.0313
    115 H59        -6.2534    5.2647   -9.5481 H         1 KVS         0.0301
    116 H60        -4.6923    6.0411   -9.9806 H         1 KVS         0.0301
    117 H61        -5.2679    6.8555   -7.3037 H         1 KVS         0.0689
    118 H62        -6.8068    7.0070   -8.2179 H         1 KVS         0.0689
    119 H63        -4.1944    8.1846   -9.1270 H         1 KVS         0.2642
    120 H64        -7.6754   10.2411   -9.3251 H         1 KVS         0.2615
    121 H65        -7.6736    8.7183   -8.3958 H         1 KVS         0.2615
    122 H66        -4.2709    9.8782  -10.4062 H         1 KVS         0.2615
    123 H67        -5.7464   10.8748  -10.5171 H         1 KVS         0.2615
    124 H68        -0.6716    5.2145   -6.7155 H         1 KVS         0.1815
    125 H69        -1.4175    6.2022   -7.9273 H         1 KVS         0.1815
@<TRIPOS>BOND
     1    1    2 2  
     2    1    3 1  
     3    1    4 am 
     4    4    5 1  
     5    5    6 1  
     6    5    8 1  
     7    6    7 2  
     8    6   11 am 
     9    8    9 1  
    10    8   10 1  
    11   11   12 1  
    12   12   13 1  
    13   12   15 1  
    14   13   14 2  
    15   13   19 am 
    16   15   16 1  
    17   15   17 1  
    18   16   18 1  
    19   19   20 1  
    20   20   21 1  
    21   20   25 1  
    22   21   22 1  
    23   22   23 1  
    24   23   24 1  
    25   25   26 1  
    26   25   27 1  
    27   25   28 1  
    28   28   29 1  
    29   29   30 1  
    30   29   34 1  
    31   30   31 1  
    32   31   32 1  
    33   32   33 1  
    34   34   35 2  
    35   34   36 am 
    36   36   37 1  
    37   37   38 1  
    38   37   40 1  
    39   38   39 2  
    40   38   45 am 
    41   40   41 1  
    42   41   42 1  
    43   42   43 2  
    44   42   44 am 
    45   45   46 1  
    46   46   47 1  
    47   46   54 1  
    48   47   48 1  
    49   48   49 1  
    50   49   50 1  
    51   50   51 ar 
    52   51   52 ar 
    53   51   53 ar 
    54   54   55 2  
    55   54   56 am 
    56    3   57 1  
    57    3   58 1  
    58    3   59 1  
    59    4   60 1  
    60    5   61 1  
    61    8   62 1  
    62    9   63 1  
    63   10   64 1  
    64   10   65 1  
    65   10   66 1  
    66   11   67 1  
    67   12   68 1  
    68   15   69 1  
    69   16   70 1  
    70   16   71 1  
    71   17   72 1  
    72   17   73 1  
    73   17   74 1  
    74   18   75 1  
    75   18   76 1  
    76   18   77 1  
    77   19   78 1  
    78   20   79 1  
    79   21   80 1  
    80   21   81 1  
    81   22   82 1  
    82   22   83 1  
    83   23   84 1  
    84   23   85 1  
    85   24   86 1  
    86   24   87 1  
    87   24   88 1  
    88   26   89 1  
    89   27   90 1  
    90   28   91 1  
    91   28   92 1  
    92   29   93 1  
    93   30   94 1  
    94   30   95 1  
    95   31   96 1  
    96   31   97 1  
    97   32   98 1  
    98   32   99 1  
    99   33  100 1  
   100   33  101 1  
   101   33  102 1  
   102   36  103 1  
   103   37  104 1  
   104   40  105 1  
   105   40  106 1  
   106   41  107 1  
   107   41  108 1  
   108   44  109 1  
   109   44  110 1  
   110   45  111 1  
   111   46  112 1  
   112   47  113 1  
   113   47  114 1  
   114   48  115 1  
   115   48  116 1  
   116   49  117 1  
   117   49  118 1  
   118   50  119 1  
   119   52  120 1  
   120   52  121 1  
   121   53  122 1  
   122   53  123 1  
   123   56  124 1  
   124   56  125 1  
@<TRIPOS>SUBSTRUCTURE
     1 KVS         1

