4uoh_ligand
  -I-interpret- 

 42 44  0  0  0  0  0  0  0  0999 V2000
   10.6210  -19.1180    4.7320 P   0  0  0  0  0
   10.6230  -18.5270    5.9820 O   0  0  0  0  0
    9.6610  -20.1480    4.5990 O   0  0  0  0  0
   11.9270  -19.5270    4.3290 O   0  0  0  0  0
   11.1080  -16.8560    3.1950 P   0  0  0  0  0
   10.5880  -16.5900    1.8970 O   0  0  0  0  0
   12.5200  -17.0960    3.3480 O   0  0  0  0  0
   10.2480  -17.9940    3.7820 O   0  0  0  0  0
   10.8130  -15.6090    3.9860 O   0  0  0  0  0
   11.2870  -15.3090    5.2370 C   0  0  0  0  0
   10.1990  -14.7960    6.1540 C   0  0  0  0  0
    9.7200  -13.5740    5.6950 O   0  0  0  0  0
    9.0150  -15.7170    6.3090 C   0  0  0  0  0
    9.1740  -16.7490    7.2140 O   0  0  0  0  0
    7.9690  -14.7580    6.7160 C   0  0  0  0  0
    7.9590  -14.6030    8.0860 O   0  0  0  0  0
    8.4050  -13.4500    6.1160 C   0  0  0  0  0
    7.5670  -13.2540    4.9620 N   0  0  0  0  0
    7.5550  -14.0310    3.8980 C   0  0  0  0  0
    6.6780  -13.6190    3.0130 N   0  0  0  0  0
    6.1200  -12.5590    3.5250 C   0  0  0  0  0
    5.0790  -11.6570    3.0890 C   0  0  0  0  0
    4.4990  -11.8210    1.9080 N   0  0  0  0  0
    4.7710  -10.6960    3.8970 N   0  0  0  0  0
    5.3640  -10.5810    5.0680 C   0  0  0  0  0
    6.3110  -11.3460    5.5450 N   0  0  0  0  0
    6.7020  -12.3380    4.8230 C   0  0  0  0  0
    9.7092  -20.5165    3.7138 H   0  0  0  0  0
   11.8805  -19.9307    3.4592 H   0  0  0  0  0
   12.7173  -17.2588    4.2733 H   0  0  0  0  0
   12.0403  -14.5278    5.1353 H   0  0  0  0  0
   11.6946  -16.2214    5.6724 H   0  0  0  0  0
   10.6790  -14.7129    7.1291 H   0  0  0  0  0
    8.8046  -16.2807    5.4001 H   0  0  0  0  0
    8.3719  -17.2757    7.2411 H   0  0  0  0  0
    6.9806  -15.0897    6.3980 H   0  0  0  0  0
    7.2737  -13.9770    8.3311 H   0  0  0  0  0
    8.3283  -12.6248    6.8240 H   0  0  0  0  0
    8.1929  -14.9054    3.7692 H   0  0  0  0  0
    4.7871  -12.5880    1.3005 H   0  0  0  0  0
    3.7648  -11.1801    1.6070 H   0  0  0  0  0
    5.0302   -9.7625    5.7058 H   0  0  0  0  0
  1  2  2  0  0  0
  1  3  1  0  0  0
  1  4  1  0  0  0
  8  1  1  0  0  0
  5  6  2  0  0  0
  5  7  1  0  0  0
  5  8  1  0  0  0
  5  9  1  0  0  0
  9 10  1  0  0  0
 10 11  1  0  0  0
 11 12  1  0  0  0
 11 13  1  0  0  0
 12 17  1  0  0  0
 13 14  1  0  0  0
 13 15  1  0  0  0
 15 16  1  0  0  0
 15 17  1  0  0  0
 17 18  1  0  0  0
 18 19  4  0  0  0
 18 27  4  0  0  0
 19 20  4  0  0  0
 20 21  4  0  0  0
 21 22  4  0  0  0
 21 27  4  0  0  0
 22 23  1  0  0  0
 22 24  4  0  0  0
 24 25  4  0  0  0
 25 26  4  0  0  0
 26 27  4  0  0  0
  3 28  1  0  0  0
  4 29  1  0  0  0
  7 30  1  0  0  0
 10 31  1  0  0  0
 10 32  1  0  0  0
 11 33  1  0  0  0
 13 34  1  0  0  0
 14 35  1  0  0  0
 15 36  1  0  0  0
 16 37  1  0  0  0
 17 38  1  0  0  0
 19 39  1  0  0  0
 23 40  1  0  0  0
 23 41  1  0  0  0
 25 42  1  0  0  0
M  END
$$$$
