4m3p_ligand
  -I-interpret- 

 18 17  0  0  0  0  0  0  0  0999 V2000
   79.7900    6.5170  -38.6110 N   0  3  0  0  0
   79.1440    5.4400  -37.8670 C   0  0  0  0  0
   79.6710    5.4790  -36.3600 C   0  0  0  0  0
   78.9710    4.4140  -35.5110 C   0  0  0  0  0
   80.0040    4.0560  -33.9970 S   0  0  0  0  0
   77.5410    5.5880  -37.9610 C   0  0  0  0  0
   76.8480    4.6160  -37.6310 O   0  0  0  0  0
   77.1290    6.6900  -38.4140 O   0  0  0  0  0
   80.8027    6.4142  -38.5452 H   0  0  0  0  0
   79.5052    6.4711  -39.5894 H   0  0  0  0  0
   79.5119    7.4156  -38.2165 H   0  0  0  0  0
   79.3958    4.4693  -38.2940 H   0  0  0  0  0
   79.4570    6.4611  -35.9383 H   0  0  0  0  0
   80.7430    5.2816  -36.3575 H   0  0  0  0  0
   78.8512    3.5017  -36.0954 H   0  0  0  0  0
   77.9896    4.7771  -35.2060 H   0  0  0  0  0
   79.3984    3.1312  -33.2576 H   0  0  0  0  0
   77.8788    7.2642  -38.5865 H   0  0  0  0  0
  1  2  1  0  0  0
  2  3  1  0  0  0
  2  6  1  0  0  0
  3  4  1  0  0  0
  4  5  1  0  0  0
  6  7  2  0  0  0
  6  8  1  0  0  0
  1  9  1  0  0  0
  1 10  1  0  0  0
  1 11  1  0  0  0
  2 12  1  0  0  0
  3 13  1  0  0  0
  3 14  1  0  0  0
  4 15  1  0  0  0
  4 16  1  0  0  0
  5 17  1  0  0  0
  8 18  1  0  0  0
M  END
$$$$
