1h2u_ligand
  -I-interpret- 

 82 87  0  0  0  0  0  0  0  0999 V2000
   86.2900  -19.7710   27.3960 P   0  0  0  0  0
   87.0970  -19.0700   28.4590 O   0  0  0  0  0
   86.7190  -21.1340   26.9210 O   0  0  0  0  0
   86.1230  -18.8010   26.1190 O   0  0  0  0  0
   84.7410  -19.8240   27.8360 O   0  0  0  0  0
   83.9750  -19.7620   29.2490 P   0  0  0  0  0
   83.1860  -18.4840   29.3150 O   0  0  0  0  0
   84.9520  -20.0970   30.3460 O   0  0  0  0  0
   82.9480  -20.9710   29.1270 O   0  0  0  0  0
   83.4230  -22.3160   28.9190 C   0  0  0  0  0
   82.3200  -23.3170   29.1850 C   0  0  0  0  0
   82.0020  -23.3190   30.6060 O   0  0  0  0  0
   81.0060  -23.0900   28.4330 C   0  0  0  0  0
   80.4560  -24.3320   28.0010 O   0  0  0  0  0
   80.1000  -22.4710   29.4950 C   0  0  0  0  0
   78.7310  -22.7610   29.2930 O   0  0  0  0  0
   80.6130  -23.1330   30.7770 C   0  0  0  0  0
   80.3780  -22.3670   32.0030 N   0  0  0  0  0
   80.0580  -21.0310   32.1110 C   0  0  0  0  0
   79.8480  -20.6500   33.3440 N   0  0  0  0  0
   80.0530  -21.7980   34.0980 C   0  0  0  0  0
   79.9540  -22.0080   35.5050 C   0  0  0  0  0
   79.6420  -21.1950   36.3890 O   0  0  0  0  0
   80.2530  -23.3240   35.8490 N   0  0  0  0  0
   80.5990  -24.3150   34.9620 C   0  0  0  0  0
   80.8610  -25.5210   35.4940 N   0  0  0  0  0
   80.6830  -24.1370   33.6500 N   0  0  0  0  0
   80.3990  -22.8650   33.2920 C   0  0  0  0  0
   86.5730  -17.2850   25.8070 P   0  0  0  0  0
   86.3290  -16.4160   27.0190 O   0  0  0  0  0
   86.0020  -16.8720   24.4710 O   0  0  0  0  0
   88.1350  -17.5610   25.6560 O   0  0  0  0  0
   89.0340  -16.5610   25.1330 C   0  0  0  0  0
   90.3740  -16.6680   25.8200 C   0  0  0  0  0
   90.2620  -16.1350   27.1690 O   0  0  0  0  0
   90.9050  -18.0910   25.9590 C   0  0  0  0  0
   92.3210  -18.0870   25.8240 O   0  0  0  0  0
   90.5200  -18.4650   27.3900 C   0  0  0  0  0
   91.3620  -19.4430   27.9730 O   0  0  0  0  0
   90.6530  -17.1210   28.1030 C   0  0  0  0  0
   89.8290  -16.9790   29.3000 N   0  3  0  0  0
   88.4930  -16.6760   29.3560 C   0  0  0  0  0
   88.0280  -16.5820   30.6370 N   0  0  0  0  0
   89.1580  -16.8590   31.4030 C   0  0  0  0  0
   89.3090  -16.9050   32.8140 C   0  0  0  0  0
   88.4550  -16.7140   33.6830 O   0  0  0  0  0
   90.6180  -17.2050   33.1830 N   0  0  0  0  0
   91.6520  -17.4350   32.3060 C   0  0  0  0  0
   92.8530  -17.6950   32.8540 N   0  0  0  0  0
   91.5240  -17.4060   30.9900 N   0  0  0  0  0
   90.2630  -17.1090   30.6080 C   0  0  0  0  0
   86.6920  -16.2190   31.0670 C   0  0  0  0  0
   86.6985  -18.2182   28.6520 H   0  0  0  0  0
   85.3699  -20.9397   30.1544 H   0  0  0  0  0
   84.2483  -22.5092   29.6043 H   0  0  0  0  0
   83.7515  -22.4187   27.8848 H   0  0  0  0  0
   82.7264  -24.2618   28.8241 H   0  0  0  0  0
   81.1276  -22.4717   27.5436 H   0  0  0  0  0
   79.6339  -24.1708   27.5322 H   0  0  0  0  0
   80.1417  -21.3818   29.4962 H   0  0  0  0  0
   78.2118  -22.3483   29.9871 H   0  0  0  0  0
   80.0614  -24.0631   30.9139 H   0  0  0  0  0
   79.9871  -20.3598   31.2551 H   0  0  0  0  0
   80.2119  -23.5719   36.8376 H   0  0  0  0  0
   81.1243  -26.2989   34.8891 H   0  0  0  0  0
   80.7966  -25.6584   36.5027 H   0  0  0  0  0
   86.7529  -16.8104   27.7847 H   0  0  0  0  0
   88.6152  -15.5708   25.3125 H   0  0  0  0  0
   89.1645  -16.7185   24.0624 H   0  0  0  0  0
   91.0659  -16.1116   25.1877 H   0  0  0  0  0
   90.5110  -18.7796   25.2115 H   0  0  0  0  0
   92.6522  -18.9837   25.9119 H   0  0  0  0  0
   89.5332  -18.9239   27.4510 H   0  0  0  0  0
   91.0639  -19.6288   28.8664 H   0  0  0  0  0
   91.6836  -17.0265   28.4450 H   0  0  0  0  0
   87.8698  -16.5264   28.4743 H   0  0  0  0  0
   90.8257  -17.2582   34.1802 H   0  0  0  0  0
   93.6601  -17.8687   32.2550 H   0  0  0  0  0
   92.9564  -17.7184   33.8685 H   0  0  0  0  0
   86.4558  -15.2172   30.7082 H   0  0  0  0  0
   85.9744  -16.9310   30.6592 H   0  0  0  0  0
   86.6447  -16.2369   32.1558 H   0  0  0  0  0
  1  2  1  0  0  0
  1  3  2  0  0  0
  1  4  1  0  0  0
  1  5  1  0  0  0
  4 29  1  0  0  0
  5  6  1  0  0  0
  6  7  2  0  0  0
  6  8  1  0  0  0
  6  9  1  0  0  0
  9 10  1  0  0  0
 10 11  1  0  0  0
 11 12  1  0  0  0
 11 13  1  0  0  0
 12 17  1  0  0  0
 13 14  1  0  0  0
 13 15  1  0  0  0
 15 16  1  0  0  0
 15 17  1  0  0  0
 17 18  1  0  0  0
 18 19  4  0  0  0
 18 28  4  0  0  0
 19 20  4  0  0  0
 20 21  4  0  0  0
 21 22  1  0  0  0
 21 28  4  0  0  0
 22 23  2  0  0  0
 22 24  1  0  0  0
 24 25  1  0  0  0
 25 26  1  0  0  0
 25 27  2  0  0  0
 27 28  1  0  0  0
 29 30  1  0  0  0
 29 31  2  0  0  0
 29 32  1  0  0  0
 32 33  1  0  0  0
 33 34  1  0  0  0
 34 35  1  0  0  0
 34 36  1  0  0  0
 35 40  1  0  0  0
 36 37  1  0  0  0
 36 38  1  0  0  0
 38 39  1  0  0  0
 38 40  1  0  0  0
 40 41  1  0  0  0
 41 42  4  0  0  0
 41 51  4  0  0  0
 42 43  4  0  0  0
 43 44  4  0  0  0
 43 52  1  0  0  0
 44 45  1  0  0  0
 44 51  4  0  0  0
 45 46  2  0  0  0
 45 47  1  0  0  0
 47 48  1  0  0  0
 48 49  1  0  0  0
 48 50  2  0  0  0
 50 51  1  0  0  0
  2 53  1  0  0  0
  8 54  1  0  0  0
 10 55  1  0  0  0
 10 56  1  0  0  0
 11 57  1  0  0  0
 13 58  1  0  0  0
 14 59  1  0  0  0
 15 60  1  0  0  0
 16 61  1  0  0  0
 17 62  1  0  0  0
 19 63  1  0  0  0
 24 64  1  0  0  0
 26 65  1  0  0  0
 26 66  1  0  0  0
 30 67  1  0  0  0
 33 68  1  0  0  0
 33 69  1  0  0  0
 34 70  1  0  0  0
 36 71  1  0  0  0
 37 72  1  0  0  0
 38 73  1  0  0  0
 39 74  1  0  0  0
 40 75  1  0  0  0
 42 76  1  0  0  0
 47 77  1  0  0  0
 49 78  1  0  0  0
 49 79  1  0  0  0
 52 80  1  0  0  0
 52 81  1  0  0  0
 52 82  1  0  0  0
M  END
$$$$
