### 
### Created by X-TOOL on Mon Sep 10 21:12:49 2018
### 

@<TRIPOS>MOLECULE
1h2u_ligand
   79    84     1     0     0
SMALL
GAST_HUCK


@<TRIPOS>ATOM
      1 PB         86.2900  -19.7710   27.3960 P.3       1 GDP         0.3355
      2 O1B        87.0970  -19.0700   28.4590 O.co2     1 GDP        -0.6079
      3 O2B        86.7190  -21.1340   26.9210 O.co2     1 GDP        -0.6079
      4 O3B        86.1230  -18.8010   26.1190 O.3       1 GDP        -0.1265
      5 O3A        84.7410  -19.8240   27.8360 O.3       1 GDP        -0.1265
      6 PA         83.9750  -19.7620   29.2490 P.3       1 GDP         0.2978
      7 O1A        83.1860  -18.4840   29.3150 O.co2     1 GDP        -0.6127
      8 O2A        84.9520  -20.0970   30.3460 O.co2     1 GDP        -0.6127
      9 O5         82.9480  -20.9710   29.1270 O.3       1 GDP        -0.2476
     10 C5         83.4230  -22.3160   28.9190 C.3       1 GDP         0.1128
     11 C4         82.3200  -23.3170   29.1850 C.3       1 GDP         0.1189
     12 O4         82.0020  -23.3190   30.6060 O.3       1 GDP        -0.3363
     13 C3         81.0060  -23.0900   28.4330 C.3       1 GDP         0.1150
     14 O3         80.4560  -24.3320   28.0010 O.3       1 GDP        -0.3864
     15 C2         80.1000  -22.4710   29.4950 C.3       1 GDP         0.1387
     16 O2         78.7310  -22.7610   29.2930 O.3       1 GDP        -0.3836
     17 C1         80.6130  -23.1330   30.7770 C.3       1 GDP         0.1992
     18 N9         80.3780  -22.3670   32.0030 N.pl3     1 GDP        -0.2101
     19 C8         80.0580  -21.0310   32.1110 C.2       1 GDP         0.0957
     20 N7         79.8480  -20.6500   33.3440 N.2       1 GDP        -0.3235
     21 C5         80.0530  -21.7980   34.0980 C.2       1 GDP         0.0926
     22 C6         79.9540  -22.0080   35.5050 C.2       1 GDP         0.2135
     23 O6         79.6420  -21.1950   36.3890 O.2       1 GDP        -0.4091
     24 N1         80.2530  -23.3240   35.8490 N.am      1 GDP        -0.1839
     25 C2         80.5990  -24.3150   34.9620 C.2       1 GDP         0.2340
     26 N2         80.8610  -25.5210   35.4940 N.pl3     1 GDP        -0.2807
     27 N3         80.6830  -24.1370   33.6500 N.2       1 GDP        -0.2765
     28 C4         80.3990  -22.8650   33.2920 C.2       1 GDP         0.1159
     29 P          86.5730  -17.2850   25.8070 P.3       1 7MG         0.2978
     30 O1P        86.3290  -16.4160   27.0190 O.co2     1 7MG        -0.6127
     31 O2P        86.0020  -16.8720   24.4710 O.co2     1 7MG        -0.6127
     32 O5         88.1350  -17.5610   25.6560 O.3       1 7MG        -0.2476
     33 C5         89.0340  -16.5610   25.1330 C.3       1 7MG         0.1127
     34 C4         90.3740  -16.6680   25.8200 C.3       1 7MG         0.1167
     35 O4         90.2620  -16.1350   27.1690 O.3       1 7MG        -0.3554
     36 C3         90.9050  -18.0910   25.9590 C.3       1 7MG         0.1128
     37 O3         92.3210  -18.0870   25.8240 O.3       1 7MG        -0.3865
     38 C2         90.5200  -18.4650   27.3900 C.3       1 7MG         0.1185
     39 O2         91.3620  -19.4430   27.9730 O.3       1 7MG        -0.3858
     40 C1         90.6530  -17.1210   28.1030 C.3       1 7MG         0.1396
     41 N9         89.8290  -16.9790   29.3000 N.2       1 7MG        -0.2855
     42 C8         88.4930  -16.6760   29.3560 C.2       1 7MG         0.1309
     43 N7         88.0280  -16.5820   30.6370 N.pl3     1 7MG        -0.1873
     44 C5         89.1580  -16.8590   31.4030 C.2       1 7MG         0.2594
     45 C6         89.3090  -16.9050   32.8140 C.2       1 7MG         0.3476
     46 O6         88.4550  -16.7140   33.6830 O.2       1 7MG        -0.3147
     47 N1         90.6180  -17.2050   33.1830 N.am      1 7MG        -0.1353
     48 C2         91.6520  -17.4350   32.3060 C.2       1 7MG         0.3122
     49 N2         92.8530  -17.6950   32.8540 N.pl3     1 7MG        -0.2558
     50 N3         91.5240  -17.4060   30.9900 N.2       1 7MG        -0.1727
     51 C4         90.2630  -17.1090   30.6080 C.2       1 7MG         0.1734
     52 CM7        86.6920  -16.2190   31.0670 C.3       1 7MG         0.0627
     53 H1         84.2623  -22.5128   29.6022 H         1 GDP         0.0648
     54 H2         83.7644  -22.4221   27.8787 H         1 GDP         0.0648
     55 H3         82.7024  -24.3082   28.8998 H         1 GDP         0.0651
     56 H4         81.1445  -22.4166   27.5743 H         1 GDP         0.0648
     57 H5         79.6424  -24.1725   27.5371 H         1 GDP         0.2100
     58 H6         80.2329  -21.3797   29.5310 H         1 GDP         0.0676
     59 H7         78.6010  -23.7018   29.3157 H         1 GDP         0.2101
     60 H8         80.1194  -24.1099   30.8868 H         1 GDP         0.0998
     61 H9         79.9872  -20.3604   31.2559 H         1 GDP         0.1179
     62 H10        80.2127  -23.5671   36.8182 H         1 GDP         0.2515
     63 H11        81.1262  -26.3067   34.8831 H         1 GDP         0.1897
     64 H12        80.7966  -25.6596   36.5126 H         1 GDP         0.1897
     65 H13        88.6113  -15.5612   25.3109 H         1 GDP         0.0648
     66 H14        89.1645  -16.7169   24.0520 H         1 GDP         0.0648
     67 H15        91.1015  -16.0759   25.2454 H         1 GDP         0.0650
     68 H16        90.4504  -18.7709   25.2234 H         1 GDP         0.0647
     69 H17        92.5556  -17.7439   24.9697 H         1 GDP         0.2100
     70 H18        89.4828  -18.8294   27.4263 H         1 GDP         0.0654
     71 H19        91.0670  -19.6268   28.8570 H         1 GDP         0.2100
     72 H20        91.7053  -16.9742   28.3878 H         1 GDP         0.0733
     73 H21        87.8703  -16.5265   28.4752 H         1 GDP         0.1491
     74 H22        90.8216  -17.2572   34.1607 H         1 GDP         0.2772
     75 H23        93.6669  -17.8756   32.2491 H         1 GDP         0.2037
     76 H24        92.9585  -17.7134   33.8784 H         1 GDP         0.2037
     77 H25        86.0500  -16.0735   30.1857 H         1 GDP         0.0609
     78 H26        86.7346  -15.2857   31.6477 H         1 GDP         0.0609
     79 H27        86.2776  -17.0223   31.6938 H         1 GDP         0.0609
@<TRIPOS>BOND
     1    1    2 ar 
     2    1    3 ar 
     3    1    4 1  
     4    1    5 1  
     5    4   29 1  
     6    5    6 1  
     7    6    7 ar 
     8    6    8 ar 
     9    6    9 1  
    10    9   10 1  
    11   10   11 1  
    12   11   12 1  
    13   11   13 1  
    14   12   17 1  
    15   13   14 1  
    16   13   15 1  
    17   15   16 1  
    18   15   17 1  
    19   17   18 1  
    20   18   19 1  
    21   18   28 1  
    22   19   20 2  
    23   20   21 1  
    24   21   22 1  
    25   21   28 2  
    26   22   23 2  
    27   22   24 am 
    28   24   25 1  
    29   25   26 1  
    30   25   27 2  
    31   27   28 1  
    32   29   30 ar 
    33   29   31 ar 
    34   29   32 1  
    35   32   33 1  
    36   33   34 1  
    37   34   35 1  
    38   34   36 1  
    39   35   40 1  
    40   36   37 1  
    41   36   38 1  
    42   38   39 1  
    43   38   40 1  
    44   40   41 1  
    45   41   42 2  
    46   41   51 1  
    47   42   43 1  
    48   43   44 1  
    49   43   52 1  
    50   44   45 1  
    51   44   51 2  
    52   45   46 2  
    53   45   47 am 
    54   47   48 1  
    55   48   49 1  
    56   48   50 2  
    57   50   51 1  
    58   10   53 1  
    59   10   54 1  
    60   11   55 1  
    61   13   56 1  
    62   14   57 1  
    63   15   58 1  
    64   16   59 1  
    65   17   60 1  
    66   19   61 1  
    67   24   62 1  
    68   26   63 1  
    69   26   64 1  
    70   33   65 1  
    71   33   66 1  
    72   34   67 1  
    73   36   68 1  
    74   37   69 1  
    75   38   70 1  
    76   39   71 1  
    77   40   72 1  
    78   42   73 1  
    79   47   74 1  
    80   49   75 1  
    81   49   76 1  
    82   52   77 1  
    83   52   78 1  
    84   52   79 1  
@<TRIPOS>SUBSTRUCTURE
     1 GDP         1

