4ufh_ligand
  -I-interpret- 

 24 24  0  0  0  0  0  0  0  0999 V2000
   76.0300   88.9040   19.5160 C   0  0  0  0  0
   76.3080   88.8770   18.0640 N   0  3  0  0  0
   80.3260   87.4590   16.8500 O   0  0  0  0  0
   77.2490   89.0740   20.3870 C   0  0  0  0  0
   77.9840   86.9000   20.2710 O   0  0  0  0  0
   78.3680   88.2100   19.9870 C   0  0  0  0  0
   76.8830   88.8070   21.7050 O   0  0  0  0  0
   78.6980   88.2990   18.5420 C   0  0  0  0  0
   77.4820   88.0860   17.6710 C   0  0  0  0  0
   79.8080   87.3350   18.1300 C   0  0  0  0  0
   75.5881   87.9412   19.7727 H   0  0  0  0  0
   75.3858   89.7638   19.7001 H   0  0  0  0  0
   76.4936   89.8395   17.7819 H   0  0  0  0  0
   75.4991   88.4451   17.6174 H   0  0  0  0  0
   81.0111   86.7996   16.7180 H   0  0  0  0  0
   77.6043   90.0986   20.2770 H   0  0  0  0  0
   77.7671   86.8263   21.2033 H   0  0  0  0  0
   79.2579   88.5284   20.5300 H   0  0  0  0  0
   76.1519   89.3769   21.9546 H   0  0  0  0  0
   79.0640   89.3140   18.3874 H   0  0  0  0  0
   77.7532   88.3958   16.6617 H   0  0  0  0  0
   77.2046   87.0357   17.7603 H   0  0  0  0  0
   80.6399   87.5428   18.8030 H   0  0  0  0  0
   79.3613   86.3415   18.1692 H   0  0  0  0  0
  2  1  1  0  0  0
  4  1  1  0  0  0
  9  2  1  0  0  0
 10  3  1  0  0  0
  6  4  1  0  0  0
  4  7  1  0  0  0
  6  5  1  0  0  0
  8  6  1  0  0  0
  8  9  1  0  0  0
  8 10  1  0  0  0
  1 11  1  0  0  0
  1 12  1  0  0  0
  2 13  1  0  0  0
  2 14  1  0  0  0
  3 15  1  0  0  0
  4 16  1  0  0  0
  5 17  1  0  0  0
  6 18  1  0  0  0
  7 19  1  0  0  0
  8 20  1  0  0  0
  9 21  1  0  0  0
  9 22  1  0  0  0
 10 23  1  0  0  0
 10 24  1  0  0  0
M  END
$$$$
