5nn5_ligand
  -I-interpret- 

 25 25  0  0  0  0  0  0  0  0999 V2000
  -13.5510  -32.6490   95.0210 C   0  0  0  0  0
  -12.4140  -31.7060   95.4280 C   0  0  0  0  0
  -11.2110  -32.2340   94.8890 O   0  0  0  0  0
  -12.3340  -31.5830   96.9530 C   0  0  0  0  0
  -11.2750  -30.6770   97.3000 O   0  0  0  0  0
  -13.6530  -31.0540   97.4960 C   0  0  0  0  0
  -13.5830  -30.9780   98.9190 O   0  0  0  0  0
  -14.8190  -31.9400   97.0760 C   0  0  0  0  0
  -14.7610  -32.1690   95.6430 N   0  3  0  0  0
  -16.1790  -31.3590   97.4740 C   0  0  0  0  0
  -16.3770  -30.0750   96.8790 O   0  0  0  0  0
  -13.3349  -33.6668   95.3458 H   0  0  0  0  0
  -13.6617  -32.6647   93.9368 H   0  0  0  0  0
  -12.5881  -30.7022   95.0404 H   0  0  0  0  0
  -11.2909  -32.2993   93.9346 H   0  0  0  0  0
  -12.1355  -32.5634   97.3861 H   0  0  0  0  0
  -10.4434  -31.0121   96.9568 H   0  0  0  0  0
  -13.8240  -30.0602   97.0822 H   0  0  0  0  0
  -12.8457  -30.4179   99.1725 H   0  0  0  0  0
  -14.7215  -32.8866   97.6076 H   0  0  0  0  0
  -15.4369  -32.9158   95.4824 H   0  0  0  0  0
  -14.8998  -31.2437   95.2369 H   0  0  0  0  0
  -16.2115  -31.2523   98.5583 H   0  0  0  0  0
  -16.9633  -32.0316   97.1268 H   0  0  0  0  0
  -17.2338  -29.7306   97.1415 H   0  0  0  0  0
  1  2  1  0  0  0
  1  9  1  0  0  0
  2  3  1  0  0  0
  2  4  1  0  0  0
  4  5  1  0  0  0
  4  6  1  0  0  0
  6  7  1  0  0  0
  6  8  1  0  0  0
  8  9  1  0  0  0
  8 10  1  0  0  0
 10 11  1  0  0  0
  1 12  1  0  0  0
  1 13  1  0  0  0
  2 14  1  0  0  0
  3 15  1  0  0  0
  4 16  1  0  0  0
  5 17  1  0  0  0
  6 18  1  0  0  0
  7 19  1  0  0  0
  8 20  1  0  0  0
  9 21  1  0  0  0
  9 22  1  0  0  0
 10 23  1  0  0  0
 10 24  1  0  0  0
 11 25  1  0  0  0
M  END
$$$$
