4j26_ligand
  -I-interpret- 

207211  0  0  0  0  0  0  0  0999 V2000
   -7.4350   22.1830   15.8890 N   0  3  0  0  0
   -7.2350   20.8410   15.2440 C   0  0  0  0  0
   -8.1960   19.7260   15.7370 C   0  0  0  0  0
   -7.7670   18.5860   15.9410 O   0  0  0  0  0
   -5.7700   20.3850   15.4430 C   0  0  0  0  0
   -4.7520   21.3070   14.8450 C   0  0  0  0  0
   -4.2680   22.4180   15.5040 N   0  0  0  0  0
   -4.1130   21.2700   13.6530 C   0  0  0  0  0
   -3.3820   23.0290   14.7370 C   0  0  0  0  0
   -3.2700   22.3520   13.6100 N   0  0  0  0  0
   -9.5190   20.0220   15.9090 N   0  0  0  0  0
  -10.3460   18.9500   16.5270 C   0  0  0  0  0
  -10.4480   17.6190   15.7580 C   0  0  0  0  0
  -10.3120   16.5540   16.3660 O   0  0  0  0  0
  -11.7290   19.6010   16.6550 C   0  0  0  0  0
  -11.7560   20.6470   15.5990 C   0  0  0  0  0
  -10.3570   21.1870   15.5520 C   0  0  0  0  0
  -10.6780   17.6870   14.4490 N   0  0  0  0  0
  -10.8320   16.4810   13.6160 C   0  0  0  0  0
   -9.5390   15.6630   13.5070 C   0  0  0  0  0
   -9.5790   14.4370   13.6180 O   0  0  0  0  0
  -11.3680   16.8290   12.2210 C   0  0  0  0  0
  -12.7310   17.5390   12.1660 C   0  0  0  0  0
  -13.0350   17.9870   10.7450 C   0  0  0  0  0
  -13.8560   16.6610   12.6980 C   0  0  0  0  0
   -8.4060   16.3400   13.3060 N   0  0  0  0  0
   -7.0860   15.6850   13.3020 C   0  0  0  0  0
   -6.7850   14.9600   14.6240 C   0  0  0  0  0
   -6.2890   13.8280   14.6060 O   0  0  0  0  0
   -5.9760   16.7000   12.9980 C   0  0  0  0  0
   -4.5140   16.2290   12.9920 C   0  0  0  0  0
   -4.2980   15.0460   12.0590 C   0  0  0  0  0
   -3.6100   17.3860   12.5990 C   0  0  0  0  0
   -7.0830   15.6100   15.7500 N   0  0  0  0  0
   -6.8850   15.0030   17.0770 C   0  0  0  0  0
   -7.8110   13.8070   17.3250 C   0  0  0  0  0
   -7.3870   12.8260   17.9360 O   0  0  0  0  0
   -7.0430   16.0430   18.1950 C   0  0  0  0  0
   -5.8900   17.0320   18.2700 C   0  0  0  0  0
   -6.0250   18.2060   19.6340 S   0  0  0  0  0
   -7.3380   19.2810   19.0700 C   0  0  0  0  0
   -9.0610   13.8970   16.8590 N   0  0  0  0  0
  -10.0180   12.7680   16.9130 C   0  0  0  0  0
   -9.5040   11.5650   16.1300 C   0  0  0  0  0
   -9.4300   10.4670   16.6650 O   0  0  0  0  0
  -11.3960   13.1540   16.3420 C   0  0  0  0  0
  -12.2840   13.9690   17.2650 C   0  0  0  0  0
  -13.5310   14.4580   16.5380 C   0  0  0  0  0
  -14.2030   15.5480   17.2460 N   0  0  0  0  0
  -14.9690   15.4220   18.3360 C   0  0  0  0  0
  -15.1890   14.2330   18.9070 N   0  0  0  0  0
  -15.5210   16.5120   18.8740 N   0  0  0  0  0
   -9.1330   11.7960   14.8740 N   0  0  0  0  0
   -8.6090   10.7300   14.0060 C   0  0  0  0  0
   -7.2440   10.1720   14.4660 C   0  0  0  0  0
   -6.9390    9.0090   14.1900 O   0  0  0  0  0
   -8.5900   11.1920   12.5360 C   0  0  0  0  0
   -9.9890   11.1460   11.8720 C   0  0  0  0  0
  -10.3370   12.4040   11.0880 C   0  0  0  0  0
  -10.1340    9.9110   10.9900 C   0  0  0  0  0
   -6.4450   10.9820   15.1700 N   0  0  0  0  0
   -5.2190   10.4890   15.8310 C   0  0  0  0  0
   -5.5030    9.6400   17.0870 C   0  0  0  0  0
   -4.7080    8.7650   17.4230 O   0  0  0  0  0
   -4.2620   11.6420   16.1840 C   0  0  0  0  0
   -3.4620   12.2610   15.0290 C   0  0  0  0  0
   -2.8530   13.5900   15.4540 C   0  0  0  0  0
   -2.3760   11.3210   14.5210 C   0  0  0  0  0
   -6.6200    9.9030   17.7700 N   0  0  0  0  0
   -7.0020    9.1750   18.9960 C   0  0  0  0  0
   -8.0880    8.1110   18.8130 C   0  0  0  0  0
   -8.0860    7.1150   19.5400 O   0  0  0  0  0
   -7.4410   10.1610   20.0820 C   0  0  0  0  0
   -6.3060   10.8500   20.7680 C   0  0  0  0  0
   -6.3370   12.1890   21.0850 N   0  0  0  0  0
   -5.1120   10.3860   21.2090 C   0  0  0  0  0
   -5.2140   12.5210   21.6930 C   0  0  0  0  0
   -4.4510   11.4460   21.7770 N   0  0  0  0  0
   -9.0190    8.3360   17.8830 N   0  0  0  0  0
  -10.0550    7.3540   17.5360 C   0  0  0  0  0
   -9.5520    6.4430   16.4190 C   0  0  0  0  0
   -9.0950    6.9440   15.3870 O   0  0  0  0  0
  -11.3520    8.0180   17.0650 C   0  0  0  0  0
  -12.0450    8.8200   18.1200 C   0  0  0  0  0
  -13.0530    9.7140   17.8280 N   0  0  0  0  0
  -11.8780    8.8650   19.4630 C   0  0  0  0  0
  -13.4820   10.2700   18.9470 C   0  0  0  0  0
  -12.7840    9.7730   19.9530 N   0  0  0  0  0
   -9.6310    5.1110   16.6140 N   0  0  0  0  0
   -9.4010    4.1830   15.5010 C   0  0  0  0  0
  -10.6400    4.0120   14.6140 C   0  0  0  0  0
  -11.7690    4.0730   15.1120 O   0  0  0  0  0
   -9.0540    2.8610   16.2010 C   0  0  0  0  0
   -8.9760    3.1620   17.6640 C   0  0  0  0  0
   -9.7710    4.3920   17.8920 C   0  0  0  0  0
  -10.4200    3.8000   13.3150 N   0  0  0  0  0
  -11.5080    3.5460   12.3580 C   0  0  0  0  0
  -10.9870    2.8950   11.0760 C   0  0  0  0  0
  -11.7805    2.5459   10.1617 O   0  0  0  0  0
  -12.2420    4.8480   12.0170 C   0  0  0  0  0
  -13.3760    4.6020   11.2020 O   0  0  0  0  0
   -9.7496    2.7055   10.9324 O   0  0  0  0  0
   -8.4012   22.4818   15.7567 H   0  0  0  0  0
   -7.2330   22.1130   16.8863 H   0  0  0  0  0
   -6.8061   22.8621   15.4603 H   0  0  0  0  0
   -7.4695   20.9852   14.1893 H   0  0  0  0  0
   -5.6630   19.4216   14.9444 H   0  0  0  0  0
   -5.5857   20.3562   16.5169 H   0  0  0  0  0
   -4.2435   20.5205   12.8724 H   0  0  0  0  0
   -2.8366   23.9376   14.9920 H   0  0  0  0  0
   -9.8824   18.6343   17.4616 H   0  0  0  0  0
  -11.8887   20.0224   17.6475 H   0  0  0  0  0
  -12.5323   18.8753   16.5277 H   0  0  0  0  0
  -12.4832   21.4277   15.8221 H   0  0  0  0  0
  -12.0650   20.2409   14.6358 H   0  0  0  0  0
  -10.1027   21.5982   14.5751 H   0  0  0  0  0
  -10.2125   22.0268   16.2316 H   0  0  0  0  0
  -10.7501   18.6038   14.0078 H   0  0  0  0  0
  -11.5646   15.8541   14.1243 H   0  0  0  0  0
  -11.5019   15.8789   11.7038 H   0  0  0  0  0
  -10.6488   17.5231   11.7862 H   0  0  0  0  0
  -12.6695   18.4143   12.8127 H   0  0  0  0  0
  -12.2601   18.6760   10.4090 H   0  0  0  0  0
  -13.0592   17.1172   10.0885 H   0  0  0  0  0
  -14.0029   18.4878   10.7225 H   0  0  0  0  0
  -13.9210   15.7530   12.0985 H   0  0  0  0  0
  -13.6507   16.3988   13.7359 H   0  0  0  0  0
  -14.7987   17.2051   12.6390 H   0  0  0  0  0
   -8.4559   17.3467   13.1496 H   0  0  0  0  0
   -7.1137   14.9325   12.5139 H   0  0  0  0  0
   -6.0324   17.4274   13.8078 H   0  0  0  0  0
   -6.1686   17.0278   11.9765 H   0  0  0  0  0
   -4.2645   15.8920   13.9981 H   0  0  0  0  0
   -4.9227   14.2126   12.3804 H   0  0  0  0  0
   -4.5673   15.3327   11.0425 H   0  0  0  0  0
   -3.2498   14.7485   12.0883 H   0  0  0  0  0
   -3.8832   17.7371   11.6039 H   0  0  0  0  0
   -3.7278   18.1976   13.3170 H   0  0  0  0  0
   -2.5730   17.0501   12.5952 H   0  0  0  0  0
   -7.4594   16.5561   15.6901 H   0  0  0  0  0
   -5.8620   14.6269   17.0904 H   0  0  0  0  0
   -7.0748   15.5041   19.1419 H   0  0  0  0  0
   -7.9497   16.6115   17.9882 H   0  0  0  0  0
   -5.8945   17.6074   17.3442 H   0  0  0  0  0
   -4.9776   16.4564   18.4257 H   0  0  0  0  0
   -7.0443   19.7490   18.1304 H   0  0  0  0  0
   -8.2449   18.6958   18.9180 H   0  0  0  0  0
   -7.5222   20.0512   19.8190 H   0  0  0  0  0
   -9.3680   14.7793   16.4496 H   0  0  0  0  0
  -10.1199   12.5117   17.9675 H   0  0  0  0  0
  -11.9240   12.2200   16.1499 H   0  0  0  0  0
  -11.2053   13.7760   15.4674 H   0  0  0  0  0
  -11.7219   14.8353   17.6138 H   0  0  0  0  0
  -12.5918   13.3381   18.0989 H   0  0  0  0  0
  -14.2281   13.6229   16.4682 H   0  0  0  0  0
  -13.2252   14.8308   15.5605 H   0  0  0  0  0
  -14.0760   16.4896   16.8749 H   0  0  0  0  0
  -15.7716   14.1681   19.7417 H   0  0  0  0  0
  -14.7742   13.3910   18.5078 H   0  0  0  0  0
  -15.3568   17.4270   18.4542 H   0  0  0  0  0
   -9.2143   12.7418   14.5008 H   0  0  0  0  0
   -9.2950    9.8872   14.0900 H   0  0  0  0  0
   -7.9365   10.5171   11.9832 H   0  0  0  0  0
   -8.2457   12.2260   12.5162 H   0  0  0  0  0
  -10.7041   11.0894   12.6927 H   0  0  0  0  0
  -10.3236   13.2636   11.7581 H   0  0  0  0  0
   -9.6050   12.5496   10.2936 H   0  0  0  0  0
  -11.3306   12.2963   10.6530 H   0  0  0  0  0
   -9.3754    9.9337   10.2077 H   0  0  0  0  0
  -10.0047    9.0152   11.5973 H   0  0  0  0  0
  -11.1252    9.9042   10.5366 H   0  0  0  0  0
   -6.6894   11.9688   15.2528 H   0  0  0  0  0
   -4.7388    9.8374   15.1010 H   0  0  0  0  0
   -3.5234   11.2184   16.8645 H   0  0  0  0  0
   -4.8909   12.4426   16.5734 H   0  0  0  0  0
   -4.1579   12.4341   14.2081 H   0  0  0  0  0
   -3.6485   14.2770   15.7426 H   0  0  0  0  0
   -2.1859   13.4283   16.3007 H   0  0  0  0  0
   -2.2900   14.0129   14.6219 H   0  0  0  0  0
   -1.6846   11.0944   15.3326 H   0  0  0  0  0
   -2.8337   10.3985   14.1637 H   0  0  0  0  0
   -1.8355   11.7999   13.7045 H   0  0  0  0  0
   -7.2371   10.6402   17.4291 H   0  0  0  0  0
   -6.1020    8.6349   19.2900 H   0  0  0  0  0
   -7.9798    9.5911   20.8390 H   0  0  0  0  0
   -8.0425   10.9303   19.5978 H   0  0  0  0  0
   -4.7452    9.3628   21.1279 H   0  0  0  0  0
   -4.9591   13.5140   22.0632 H   0  0  0  0  0
   -9.0106    9.2297   17.3914 H   0  0  0  0  0
  -10.2666    6.7845   18.4410 H   0  0  0  0  0
  -12.0327    7.2207   16.7666 H   0  0  0  0  0
  -11.0894    8.7034   16.2592 H   0  0  0  0  0
  -11.1593    8.2887   20.0457 H   0  0  0  0  0
  -14.2763   11.0122   19.0268 H   0  0  0  0  0
   -8.6209    4.5419   14.8296 H   0  0  0  0  0
   -8.1084    2.4619   15.8340 H   0  0  0  0  0
   -9.8101    2.1024   15.9987 H   0  0  0  0  0
   -7.9413    3.3065   17.9750 H   0  0  0  0  0
   -9.3692    2.3323   18.2515 H   0  0  0  0  0
  -10.8092    4.1847   18.1513 H   0  0  0  0  0
   -9.4210    4.9718   18.7461 H   0  0  0  0  0
   -9.4595    3.8146   12.9721 H   0  0  0  0  0
  -12.2047    2.8554   12.8331 H   0  0  0  0  0
  -11.5583    5.4994   11.4727 H   0  0  0  0  0
  -12.5759    5.3114   12.9454 H   0  0  0  0  0
  -13.8139    5.4334   11.0055 H   0  0  0  0  0
   -9.2859    3.0235   11.7105 H   0  0  0  0  0
  1  2  1  0  0  0
  2  3  1  0  0  0
  2  5  1  0  0  0
  3  4  2  0  0  0
  3 11  1  0  0  0
  5  6  1  0  0  0
  6  7  4  0  0  0
  6  8  4  0  0  0
  7  9  4  0  0  0
  8 10  4  0  0  0
  9 10  4  0  0  0
 11 12  1  0  0  0
 11 17  1  0  0  0
 12 13  1  0  0  0
 12 15  1  0  0  0
 13 14  2  0  0  0
 13 18  1  0  0  0
 15 16  1  0  0  0
 16 17  1  0  0  0
 18 19  1  0  0  0
 19 20  1  0  0  0
 19 22  1  0  0  0
 20 21  2  0  0  0
 20 26  1  0  0  0
 22 23  1  0  0  0
 23 24  1  0  0  0
 23 25  1  0  0  0
 26 27  1  0  0  0
 27 28  1  0  0  0
 27 30  1  0  0  0
 28 29  2  0  0  0
 28 34  1  0  0  0
 30 31  1  0  0  0
 31 32  1  0  0  0
 31 33  1  0  0  0
 34 35  1  0  0  0
 35 36  1  0  0  0
 35 38  1  0  0  0
 36 37  2  0  0  0
 36 42  1  0  0  0
 38 39  1  0  0  0
 39 40  1  0  0  0
 40 41  1  0  0  0
 42 43  1  0  0  0
 43 44  1  0  0  0
 43 46  1  0  0  0
 44 45  2  0  0  0
 44 53  1  0  0  0
 46 47  1  0  0  0
 47 48  1  0  0  0
 48 49  1  0  0  0
 49 50  1  0  0  0
 50 51  1  0  0  0
 50 52  2  0  0  0
 53 54  1  0  0  0
 54 55  1  0  0  0
 54 57  1  0  0  0
 55 56  2  0  0  0
 55 61  1  0  0  0
 57 58  1  0  0  0
 58 59  1  0  0  0
 58 60  1  0  0  0
 61 62  1  0  0  0
 62 63  1  0  0  0
 62 65  1  0  0  0
 63 64  2  0  0  0
 63 69  1  0  0  0
 65 66  1  0  0  0
 66 67  1  0  0  0
 66 68  1  0  0  0
 69 70  1  0  0  0
 70 71  1  0  0  0
 70 73  1  0  0  0
 71 72  2  0  0  0
 71 79  1  0  0  0
 73 74  1  0  0  0
 74 75  4  0  0  0
 74 76  4  0  0  0
 75 77  4  0  0  0
 76 78  4  0  0  0
 77 78  4  0  0  0
 79 80  1  0  0  0
 80 81  1  0  0  0
 80 83  1  0  0  0
 81 82  2  0  0  0
 81 89  1  0  0  0
 83 84  1  0  0  0
 84 85  4  0  0  0
 84 86  4  0  0  0
 85 87  4  0  0  0
 86 88  4  0  0  0
 87 88  4  0  0  0
 89 90  1  0  0  0
 89 95  1  0  0  0
 90 91  1  0  0  0
 90 93  1  0  0  0
 91 92  2  0  0  0
 91 96  1  0  0  0
 93 94  1  0  0  0
 94 95  1  0  0  0
 96 97  1  0  0  0
 97 98  1  0  0  0
 97100  1  0  0  0
 98 99  2  0  0  0
100101  1  0  0  0
 98102  1  0  0  0
  1103  1  0  0  0
  1104  1  0  0  0
  1105  1  0  0  0
  2106  1  0  0  0
  5107  1  0  0  0
  5108  1  0  0  0
  8109  1  0  0  0
  9110  1  0  0  0
 12111  1  0  0  0
 15112  1  0  0  0
 15113  1  0  0  0
 16114  1  0  0  0
 16115  1  0  0  0
 17116  1  0  0  0
 17117  1  0  0  0
 18118  1  0  0  0
 19119  1  0  0  0
 22120  1  0  0  0
 22121  1  0  0  0
 23122  1  0  0  0
 24123  1  0  0  0
 24124  1  0  0  0
 24125  1  0  0  0
 25126  1  0  0  0
 25127  1  0  0  0
 25128  1  0  0  0
 26129  1  0  0  0
 27130  1  0  0  0
 30131  1  0  0  0
 30132  1  0  0  0
 31133  1  0  0  0
 32134  1  0  0  0
 32135  1  0  0  0
 32136  1  0  0  0
 33137  1  0  0  0
 33138  1  0  0  0
 33139  1  0  0  0
 34140  1  0  0  0
 35141  1  0  0  0
 38142  1  0  0  0
 38143  1  0  0  0
 39144  1  0  0  0
 39145  1  0  0  0
 41146  1  0  0  0
 41147  1  0  0  0
 41148  1  0  0  0
 42149  1  0  0  0
 43150  1  0  0  0
 46151  1  0  0  0
 46152  1  0  0  0
 47153  1  0  0  0
 47154  1  0  0  0
 48155  1  0  0  0
 48156  1  0  0  0
 49157  1  0  0  0
 51158  1  0  0  0
 51159  1  0  0  0
 52160  1  0  0  0
 53161  1  0  0  0
 54162  1  0  0  0
 57163  1  0  0  0
 57164  1  0  0  0
 58165  1  0  0  0
 59166  1  0  0  0
 59167  1  0  0  0
 59168  1  0  0  0
 60169  1  0  0  0
 60170  1  0  0  0
 60171  1  0  0  0
 61172  1  0  0  0
 62173  1  0  0  0
 65174  1  0  0  0
 65175  1  0  0  0
 66176  1  0  0  0
 67177  1  0  0  0
 67178  1  0  0  0
 67179  1  0  0  0
 68180  1  0  0  0
 68181  1  0  0  0
 68182  1  0  0  0
 69183  1  0  0  0
 70184  1  0  0  0
 73185  1  0  0  0
 73186  1  0  0  0
 76187  1  0  0  0
 77188  1  0  0  0
 79189  1  0  0  0
 80190  1  0  0  0
 83191  1  0  0  0
 83192  1  0  0  0
 86193  1  0  0  0
 87194  1  0  0  0
 90195  1  0  0  0
 93196  1  0  0  0
 93197  1  0  0  0
 94198  1  0  0  0
 94199  1  0  0  0
 95200  1  0  0  0
 95201  1  0  0  0
 96202  1  0  0  0
 97203  1  0  0  0
100204  1  0  0  0
100205  1  0  0  0
101206  1  0  0  0
102207  1  0  0  0
M  END
$$$$
