### 
### Created by X-TOOL on Mon Sep 10 21:13:15 2018
### 

@<TRIPOS>MOLECULE
4j26_ligand
  210   214     1     0     0
SMALL
GAST_HUCK


@<TRIPOS>ATOM
      1 N          -7.4350   22.1830   15.8890 N.4       1 HIS         0.2390
      2 CA         -7.2350   20.8410   15.2440 C.3       1 HIS         0.0710
      3 C          -8.1960   19.7260   15.7370 C.2       1 HIS         0.2307
      4 O          -7.7670   18.5860   15.9410 O.2       1 HIS        -0.3904
      5 CB         -5.7700   20.3850   15.4430 C.3       1 HIS         0.0347
      6 CG         -4.7520   21.3070   14.8450 C.2       1 HIS         0.0005
      7 ND1        -4.2680   22.4180   15.5040 N.2       1 HIS        -0.3251
      8 CD2        -4.1130   21.2700   13.6530 C.2       1 HIS         0.0293
      9 CE1        -3.3820   23.0290   14.7370 C.2       1 HIS         0.0907
     10 NE2        -3.2700   22.3520   13.6100 N.pl3     1 HIS        -0.2752
     11 N          -9.5190   20.0220   15.9090 N.am      1 PRO        -0.2470
     12 CA        -10.3460   18.9500   16.5270 C.3       1 PRO         0.1339
     13 C         -10.4480   17.6190   15.7580 C.2       1 PRO         0.2041
     14 O         -10.3120   16.5540   16.3660 O.2       1 PRO        -0.3944
     15 CB        -11.7290   19.6010   16.6550 C.3       1 PRO        -0.0104
     16 CG        -11.7560   20.6470   15.5990 C.3       1 PRO        -0.0281
     17 CD        -10.3570   21.1870   15.5520 C.3       1 PRO         0.0371
     18 N         -10.6780   17.6870   14.4490 N.am      1 LEU        -0.2637
     19 CA        -10.8320   16.4810   13.6160 C.3       1 LEU         0.1312
     20 C          -9.5390   15.6630   13.5070 C.2       1 LEU         0.2039
     21 O          -9.5790   14.4370   13.6180 O.2       1 LEU        -0.3944
     22 CB        -11.3680   16.8290   12.2210 C.3       1 LEU        -0.0101
     23 CG        -12.7310   17.5390   12.1660 C.3       1 LEU        -0.0425
     24 CD1       -13.0350   17.9870   10.7450 C.3       1 LEU        -0.0625
     25 CD2       -13.8560   16.6610   12.6980 C.3       1 LEU        -0.0625
     26 N          -8.4060   16.3400   13.3060 N.am      1 LEU        -0.2637
     27 CA         -7.0860   15.6850   13.3020 C.3       1 LEU         0.1312
     28 C          -6.7850   14.9600   14.6240 C.2       1 LEU         0.2039
     29 O          -6.2890   13.8280   14.6060 O.2       1 LEU        -0.3944
     30 CB         -5.9760   16.7000   12.9980 C.3       1 LEU        -0.0101
     31 CG         -4.5140   16.2290   12.9920 C.3       1 LEU        -0.0425
     32 CD1        -4.2980   15.0460   12.0590 C.3       1 LEU        -0.0625
     33 CD2        -3.6100   17.3860   12.5990 C.3       1 LEU        -0.0625
     34 N          -7.0830   15.6100   15.7500 N.am      1 MET        -0.2637
     35 CA         -6.8850   15.0030   17.0770 C.3       1 MET         0.1317
     36 C          -7.8110   13.8070   17.3250 C.2       1 MET         0.2039
     37 O          -7.3870   12.8260   17.9360 O.2       1 MET        -0.3944
     38 CB         -7.0430   16.0430   18.1950 C.3       1 MET        -0.0034
     39 CG         -5.8900   17.0320   18.2700 C.3       1 MET        -0.0024
     40 SD         -6.0250   18.2060   19.6340 S.3       1 MET        -0.1639
     41 CE         -7.3380   19.2810   19.0700 C.3       1 MET        -0.0181
     42 N          -9.0610   13.8970   16.8590 N.am      1 ARG        -0.2637
     43 CA        -10.0180   12.7680   16.9130 C.3       1 ARG         0.1311
     44 C          -9.5040   11.5650   16.1300 C.2       1 ARG         0.2039
     45 O          -9.4300   10.4670   16.6650 O.2       1 ARG        -0.3944
     46 CB        -11.3960   13.1540   16.3420 C.3       1 ARG        -0.0092
     47 CG        -12.2840   13.9690   17.2650 C.3       1 ARG        -0.0156
     48 CD        -13.5310   14.4580   16.5380 C.3       1 ARG         0.0627
     49 NE        -14.2030   15.5480   17.2460 N.pl3     1 ARG        -0.2723
     50 CZ        -14.9690   15.4220   18.3360 C.cat     1 ARG         0.2882
     51 NH1       -15.1890   14.2330   18.9070 N.pl3     1 ARG        -0.2849
     52 NH2       -15.5210   16.5120   18.8740 N.pl3     1 ARG        -0.2849
     53 N          -9.1330   11.7960   14.8740 N.am      1 LEU        -0.2637
     54 CA         -8.6090   10.7300   14.0060 C.3       1 LEU         0.1312
     55 C          -7.2440   10.1720   14.4660 C.2       1 LEU         0.2039
     56 O          -6.9390    9.0090   14.1900 O.2       1 LEU        -0.3944
     57 CB         -8.5900   11.1920   12.5360 C.3       1 LEU        -0.0101
     58 CG         -9.9890   11.1460   11.8720 C.3       1 LEU        -0.0425
     59 CD1       -10.3370   12.4040   11.0880 C.3       1 LEU        -0.0625
     60 CD2       -10.1340    9.9110   10.9900 C.3       1 LEU        -0.0625
     61 N          -6.4450   10.9820   15.1700 N.am      1 LEU        -0.2637
     62 CA         -5.2190   10.4890   15.8310 C.3       1 LEU         0.1312
     63 C          -5.5030    9.6400   17.0870 C.2       1 LEU         0.2040
     64 O          -4.7080    8.7650   17.4230 O.2       1 LEU        -0.3944
     65 CB         -4.2620   11.6420   16.1840 C.3       1 LEU        -0.0101
     66 CG         -3.4620   12.2610   15.0290 C.3       1 LEU        -0.0425
     67 CD1        -2.8530   13.5900   15.4540 C.3       1 LEU        -0.0625
     68 CD2        -2.3760   11.3210   14.5210 C.3       1 LEU        -0.0625
     69 N          -6.6200    9.9030   17.7700 N.am      1 HIS        -0.2625
     70 CA         -7.0020    9.1750   18.9960 C.3       1 HIS         0.1369
     71 C          -8.0880    8.1110   18.8130 C.2       1 HIS         0.2055
     72 O          -8.0860    7.1150   19.5400 O.2       1 HIS        -0.3942
     73 CB         -7.4410   10.1610   20.0820 C.3       1 HIS         0.0145
     74 CG         -6.3060   10.8500   20.7680 C.2       1 HIS        -0.0027
     75 ND1        -6.3370   12.1890   21.0850 N.2       1 HIS        -0.3252
     76 CD2        -5.1120   10.3860   21.2090 C.2       1 HIS         0.0291
     77 CE1        -5.2140   12.5210   21.6930 C.2       1 HIS         0.0907
     78 NE2        -4.4510   11.4460   21.7770 N.pl3     1 HIS        -0.2752
     79 N          -9.0190    8.3360   17.8830 N.am      1 HIS        -0.2624
     80 CA        -10.0550    7.3540   17.5360 C.3       1 HIS         0.1371
     81 C          -9.5520    6.4430   16.4190 C.2       1 HIS         0.2079
     82 O          -9.0950    6.9440   15.3870 O.2       1 HIS        -0.3940
     83 CB        -11.3520    8.0180   17.0650 C.3       1 HIS         0.0145
     84 CG        -12.0450    8.8200   18.1200 C.2       1 HIS        -0.0027
     85 ND1       -13.0530    9.7140   17.8280 N.2       1 HIS        -0.3252
     86 CD2       -11.8780    8.8650   19.4630 C.2       1 HIS         0.0291
     87 CE1       -13.4820   10.2700   18.9470 C.2       1 HIS         0.0907
     88 NE2       -12.7840    9.7730   19.9530 N.pl3     1 HIS        -0.2752
     89 N          -9.6310    5.1110   16.6140 N.am      1 PRO        -0.2497
     90 CA         -9.4010    4.1830   15.5010 C.3       1 PRO         0.1337
     91 C         -10.6400    4.0120   14.6140 C.2       1 PRO         0.2036
     92 O         -11.7690    4.0730   15.1120 O.2       1 PRO        -0.3944
     93 CB         -9.0540    2.8610   16.2010 C.3       1 PRO        -0.0104
     94 CG         -8.9760    3.1620   17.6640 C.3       1 PRO        -0.0281
     95 CD         -9.7710    4.3920   17.8920 C.3       1 PRO         0.0369
     96 N         -10.4200    3.8000   13.3150 N.am      1 SER        -0.2672
     97 CA        -11.5080    3.5460   12.3580 C.3       1 SER         0.1173
     98 C         -10.9870    2.8950   11.0760 C.2       1 SER         0.0623
     99 O         -11.7805    2.5459   10.1617 O.co2     1 SER        -0.5665
    100 CB        -12.2420    4.8480   12.0170 C.3       1 SER         0.0789
    101 OG        -13.3760    4.6020   11.2020 O.3       1 SER        -0.3910
    102 O          -9.7496    2.7055   10.9324 O.co2     1 SER        -0.5665
    103 H1         -6.7715   22.8403   15.5098 H         1 HIS         0.2016
    104 H2         -7.2961   22.1016   16.8841 H         1 HIS         0.2016
    105 H3         -8.3716   22.5076   15.7059 H         1 HIS         0.2016
    106 H4         -7.4126   20.9693   14.1661 H         1 HIS         0.1116
    107 H5         -5.6515   19.3941   14.9804 H         1 HIS         0.0453
    108 H6         -5.5757   20.3110   16.5232 H         1 HIS         0.0453
    109 H7         -4.2433   20.5212   12.8731 H         1 HIS         0.0729
    110 H8         -2.8371   23.9368   14.9918 H         1 HIS         0.1199
    111 H9         -2.6499   22.5962   12.8247 H         1 HIS         0.2361
    112 H10        -9.9418   18.7230   17.5245 H         1 PRO         0.0802
    113 H11       -11.8542   20.0521   17.6504 H         1 PRO         0.0313
    114 H12       -12.5235   18.8593   16.4859 H         1 PRO         0.0313
    115 H13       -12.4689   21.4426   15.8610 H         1 PRO         0.0287
    116 H14       -12.0345   20.2099   14.6288 H         1 PRO         0.0287
    117 H15       -10.1114   21.5526   14.5440 H         1 PRO         0.0524
    118 H16       -10.2265   22.0017   16.2795 H         1 PRO         0.0524
    119 H17       -10.7486   18.5858   14.0164 H         1 LEU         0.1883
    120 H18       -11.5805   15.8426   14.1081 H         1 LEU         0.0800
    121 H19       -11.4571   15.8908   11.6538 H         1 LEU         0.0315
    122 H20       -10.6305   17.4836   11.7335 H         1 LEU         0.0315
    123 H21       -12.6716   18.4337   12.8032 H         1 LEU         0.0298
    124 H22       -14.0116   18.4926   10.7210 H         1 LEU         0.0232
    125 H23       -13.0597   17.1101   10.0814 H         1 LEU         0.0232
    126 H24       -12.2537   18.6825   10.4047 H         1 LEU         0.0232
    127 H25       -13.6207   16.3460   13.7253 H         1 LEU         0.0232
    128 H26       -13.9623   15.7730   12.0575 H         1 LEU         0.0232
    129 H27       -14.7975   17.2298   12.6955 H         1 LEU         0.0232
    130 H28        -8.4549   17.3270   13.1527 H         1 LEU         0.1883
    131 H29        -7.0904   14.9324   12.4998 H         1 LEU         0.0800
    132 H30        -6.0540   17.4976   13.7515 H         1 LEU         0.0315
    133 H31        -6.1842   17.1157   12.0011 H         1 LEU         0.0315
    134 H32        -4.2513   15.9107   14.0116 H         1 LEU         0.0298
    135 H33        -3.2404   14.7448   12.0877 H         1 LEU         0.0232
    136 H34        -4.5694   15.3341   11.0327 H         1 LEU         0.0232
    137 H35        -4.9279   14.2042   12.3823 H         1 LEU         0.0232
    138 H36        -3.7785   18.2314   13.2823 H         1 LEU         0.0232
    139 H37        -3.8384   17.6962   11.5687 H         1 LEU         0.0232
    140 H38        -2.5589   17.0678   12.6617 H         1 LEU         0.0232
    141 H39        -7.4520   16.5376   15.6913 H         1 MET         0.1883
    142 H40        -5.8508   14.6301   17.1126 H         1 MET         0.0800
    143 H41        -7.1105   15.5132   19.1566 H         1 MET         0.0320
    144 H42        -7.9725   16.6044   18.0197 H         1 MET         0.0320
    145 H43        -5.8566   17.5980   17.3274 H         1 MET         0.0378
    146 H44        -4.9547   16.4658   18.3911 H         1 MET         0.0378
    147 H45        -7.5249   20.0588   19.8251 H         1 MET         0.0340
    148 H46        -8.2539   18.6916   18.9163 H         1 MET         0.0340
    149 H47        -7.0428   19.7540   18.1218 H         1 MET         0.0340
    150 H48        -9.3620   14.7620   16.4576 H         1 ARG         0.1883
    151 H49       -10.1423   12.4778   17.9667 H         1 ARG         0.0800
    152 H50       -11.9303   12.2258   16.0910 H         1 ARG         0.0313
    153 H51       -11.2306   13.7409   15.4265 H         1 ARG         0.0313
    154 H52       -11.7185   14.8381   17.6322 H         1 ARG         0.0301
    155 H53       -12.5875   13.3425   18.1167 H         1 ARG         0.0301
    156 H54       -14.2331   13.6172   16.4378 H         1 ARG         0.0689
    157 H55       -13.2397   14.8136   15.5387 H         1 ARG         0.0689
    158 H56       -14.0748   16.4988   16.8713 H         1 ARG         0.2642
    159 H57       -15.7833   14.1665   19.7456 H         1 ARG         0.2615
    160 H58       -14.7642   13.3837   18.5082 H         1 ARG         0.2615
    161 H59       -15.3610   17.4351   18.4459 H         1 ARG         0.2615
    162 H60       -16.1069   16.4299   19.7172 H         1 ARG         0.2615
    163 H61        -9.2127   12.7232   14.5081 H         1 LEU         0.1883
    164 H62        -9.3209    9.8938   14.0689 H         1 LEU         0.0800
    165 H63        -7.9114   10.5364   11.9707 H         1 LEU         0.0315
    166 H64        -8.2171   12.2262   12.4978 H         1 LEU         0.0315
    167 H65       -10.7253   11.0605   12.6847 H         1 LEU         0.0298
    168 H66       -11.3396   12.2965   10.6485 H         1 LEU         0.0232
    169 H67        -9.5990   12.5521   10.2859 H         1 LEU         0.0232
    170 H68       -10.3239   13.2723   11.7632 H         1 LEU         0.0232
    171 H69        -9.8790    9.0130   11.5718 H         1 LEU         0.0232
    172 H70        -9.4556    9.9942   10.1281 H         1 LEU         0.0232
    173 H71       -11.1719    9.8346   10.6338 H         1 LEU         0.0232
    174 H72        -6.6846   11.9495   15.2512 H         1 LEU         0.1883
    175 H73        -4.7043    9.8396   15.1076 H         1 LEU         0.0800
    176 H74        -3.5399   11.2604   16.9209 H         1 LEU         0.0315
    177 H75        -4.8618   12.4437   16.6395 H         1 LEU         0.0315
    178 H76        -4.1591   12.4521   14.1998 H         1 LEU         0.0298
    179 H77        -2.2846   14.0178   14.6150 H         1 LEU         0.0232
    180 H78        -2.1795   13.4282   16.3085 H         1 LEU         0.0232
    181 H79        -3.6549   14.2843   15.7454 H         1 LEU         0.0232
    182 H80        -2.8300   10.3660   14.2179 H         1 LEU         0.0232
    183 H81        -1.6432   11.1408   15.3213 H         1 LEU         0.0232
    184 H82        -1.8707   11.7773   13.6570 H         1 LEU         0.0232
    185 H83        -7.2250   10.6257   17.4358 H         1 HIS         0.1885
    186 H84        -6.0998    8.6561   19.3521 H         1 HIS         0.0817
    187 H85        -8.0190    9.6092   20.8379 H         1 HIS         0.0420
    188 H86        -8.0807   10.9258   19.6175 H         1 HIS         0.0420
    189 H87        -4.7456    9.3637   21.1279 H         1 HIS         0.0729
    190 H88        -4.9593   13.5131   22.0629 H         1 HIS         0.1199
    191 H89        -3.5126   11.4093   22.2000 H         1 HIS         0.2361
    192 H90        -9.0108    9.2122   17.4011 H         1 HIS         0.1885
    193 H91       -10.2721    6.7479   18.4279 H         1 HIS         0.0817
    194 H92       -12.0391    7.2301   16.7229 H         1 HIS         0.0420
    195 H93       -11.1127    8.6861   16.2246 H         1 HIS         0.0420
    196 H94       -11.1600    8.2892   20.0451 H         1 HIS         0.0729
    197 H95       -14.2756   11.0115   19.0268 H         1 HIS         0.1199
    198 H96       -12.9007   10.0259   20.9446 H         1 HIS         0.2361
    199 H97        -8.5609    4.5290   14.8809 H         1 PRO         0.0802
    200 H98        -8.0869    2.4819   15.8391 H         1 PRO         0.0313
    201 H99        -9.8366    2.1123   16.0084 H         1 PRO         0.0313
    202 H100       -7.9299    3.3270   17.9613 H         1 PRO         0.0287
    203 H101       -9.3951    2.3273   18.2451 H         1 PRO         0.0287
    204 H102      -10.8243    4.1507   18.0979 H         1 PRO         0.0524
    205 H103       -9.3600    4.9808   18.7253 H         1 PRO         0.0524
    206 H104       -9.4783    3.8144   12.9788 H         1 SER         0.1876
    207 H105      -12.2236    2.8560   12.8291 H         1 SER         0.0749
    208 H106      -11.5536    5.5175   11.4804 H         1 SER         0.0599
    209 H107      -12.5692    5.3298   12.9501 H         1 SER         0.0599
    210 H108      -13.0991    4.1895   10.3922 H         1 SER         0.2096
@<TRIPOS>BOND
     1    1    2 1  
     2    2    3 1  
     3    2    5 1  
     4    3    4 2  
     5    3   11 am 
     6    5    6 1  
     7    6    7 1  
     8    6    8 2  
     9    7    9 2  
    10    8   10 1  
    11    9   10 1  
    12   11   12 1  
    13   11   17 1  
    14   12   13 1  
    15   12   15 1  
    16   13   14 2  
    17   13   18 am 
    18   15   16 1  
    19   16   17 1  
    20   18   19 1  
    21   19   20 1  
    22   19   22 1  
    23   20   21 2  
    24   20   26 am 
    25   22   23 1  
    26   23   24 1  
    27   23   25 1  
    28   26   27 1  
    29   27   28 1  
    30   27   30 1  
    31   28   29 2  
    32   28   34 am 
    33   30   31 1  
    34   31   32 1  
    35   31   33 1  
    36   34   35 1  
    37   35   36 1  
    38   35   38 1  
    39   36   37 2  
    40   36   42 am 
    41   38   39 1  
    42   39   40 1  
    43   40   41 1  
    44   42   43 1  
    45   43   44 1  
    46   43   46 1  
    47   44   45 2  
    48   44   53 am 
    49   46   47 1  
    50   47   48 1  
    51   48   49 1  
    52   49   50 ar 
    53   50   51 ar 
    54   50   52 ar 
    55   53   54 1  
    56   54   55 1  
    57   54   57 1  
    58   55   56 2  
    59   55   61 am 
    60   57   58 1  
    61   58   59 1  
    62   58   60 1  
    63   61   62 1  
    64   62   63 1  
    65   62   65 1  
    66   63   64 2  
    67   63   69 am 
    68   65   66 1  
    69   66   67 1  
    70   66   68 1  
    71   69   70 1  
    72   70   71 1  
    73   70   73 1  
    74   71   72 2  
    75   71   79 am 
    76   73   74 1  
    77   74   75 1  
    78   74   76 2  
    79   75   77 2  
    80   76   78 1  
    81   77   78 1  
    82   79   80 1  
    83   80   81 1  
    84   80   83 1  
    85   81   82 2  
    86   81   89 am 
    87   83   84 1  
    88   84   85 1  
    89   84   86 2  
    90   85   87 2  
    91   86   88 1  
    92   87   88 1  
    93   89   90 1  
    94   89   95 1  
    95   90   91 1  
    96   90   93 1  
    97   91   92 2  
    98   91   96 am 
    99   93   94 1  
   100   94   95 1  
   101   96   97 1  
   102   97   98 1  
   103   97  100 1  
   104   98   99 ar 
   105  100  101 1  
   106   98  102 ar 
   107    1  103 1  
   108    1  104 1  
   109    1  105 1  
   110    2  106 1  
   111    5  107 1  
   112    5  108 1  
   113    8  109 1  
   114    9  110 1  
   115   10  111 1  
   116   12  112 1  
   117   15  113 1  
   118   15  114 1  
   119   16  115 1  
   120   16  116 1  
   121   17  117 1  
   122   17  118 1  
   123   18  119 1  
   124   19  120 1  
   125   22  121 1  
   126   22  122 1  
   127   23  123 1  
   128   24  124 1  
   129   24  125 1  
   130   24  126 1  
   131   25  127 1  
   132   25  128 1  
   133   25  129 1  
   134   26  130 1  
   135   27  131 1  
   136   30  132 1  
   137   30  133 1  
   138   31  134 1  
   139   32  135 1  
   140   32  136 1  
   141   32  137 1  
   142   33  138 1  
   143   33  139 1  
   144   33  140 1  
   145   34  141 1  
   146   35  142 1  
   147   38  143 1  
   148   38  144 1  
   149   39  145 1  
   150   39  146 1  
   151   41  147 1  
   152   41  148 1  
   153   41  149 1  
   154   42  150 1  
   155   43  151 1  
   156   46  152 1  
   157   46  153 1  
   158   47  154 1  
   159   47  155 1  
   160   48  156 1  
   161   48  157 1  
   162   49  158 1  
   163   51  159 1  
   164   51  160 1  
   165   52  161 1  
   166   52  162 1  
   167   53  163 1  
   168   54  164 1  
   169   57  165 1  
   170   57  166 1  
   171   58  167 1  
   172   59  168 1  
   173   59  169 1  
   174   59  170 1  
   175   60  171 1  
   176   60  172 1  
   177   60  173 1  
   178   61  174 1  
   179   62  175 1  
   180   65  176 1  
   181   65  177 1  
   182   66  178 1  
   183   67  179 1  
   184   67  180 1  
   185   67  181 1  
   186   68  182 1  
   187   68  183 1  
   188   68  184 1  
   189   69  185 1  
   190   70  186 1  
   191   73  187 1  
   192   73  188 1  
   193   76  189 1  
   194   77  190 1  
   195   78  191 1  
   196   79  192 1  
   197   80  193 1  
   198   83  194 1  
   199   83  195 1  
   200   86  196 1  
   201   87  197 1  
   202   88  198 1  
   203   90  199 1  
   204   93  200 1  
   205   93  201 1  
   206   94  202 1  
   207   94  203 1  
   208   95  204 1  
   209   95  205 1  
   210   96  206 1  
   211   97  207 1  
   212  100  208 1  
   213  100  209 1  
   214  101  210 1  
@<TRIPOS>SUBSTRUCTURE
     1 HIS         1

