3bz3_ligand
  -I-interpret- 

 55 58  0  0  0  0  0  0  0  0999 V2000
    7.2060    1.7490    8.4340 C   0  0  0  0  0
    6.4770    4.4940   10.5380 C   0  0  0  0  0
   14.2790    3.8010    6.7730 N   0  0  0  0  0
   13.9140    4.9040    7.4010 C   0  0  0  0  0
   12.5840    5.2750    7.4520 C   0  0  0  0  0
    7.9820    4.1550    6.2180 C   0  0  0  0  0
    7.0960    3.9320    7.2730 C   0  0  0  0  0
   11.7980   -0.2350    2.6010 C   0  0  0  0  0
   12.2360    6.5400    8.2100 C   0  0  0  0  0
    6.2440    5.3390    5.0870 C   0  0  0  0  0
   11.7640    1.0410    4.6440 C   0  0  0  0  0
    5.4100    5.0740    6.1560 C   0  0  0  0  0
    8.7670    5.0540    9.2680 O   0  0  0  0  0
    8.0250    3.9480    9.7600 S   0  0  0  0  0
    8.6220    2.8850   10.4820 O   0  0  0  0  0
    7.4760    3.1920    8.3950 N   0  0  0  0  0
    7.5450    4.8560    5.1080 C   0  0  0  0  0
    5.8430    4.3860    7.2030 N   0  0  0  0  0
    9.3970    3.6440    6.2570 C   0  0  0  0  0
   10.2950    4.6680    6.8030 N   0  0  0  0  0
   11.6570    4.4380    6.7960 C   0  0  0  0  0
   11.3120    6.2820    9.2180 F   0  0  0  0  0
   11.7330    7.5280    7.3710 F   0  0  0  0  0
   13.3970    7.0620    8.7780 F   0  0  0  0  0
   12.1030    3.3470    6.1710 N   0  0  0  0  0
   13.3890    3.0320    6.1780 C   0  0  0  0  0
   13.8880    1.9310    5.5100 N   0  0  0  0  0
   13.1490    1.1950    4.5730 C   0  0  0  0  0
   13.8490    0.6270    3.5140 C   0  0  0  0  0
   13.1810   -0.0890    2.5510 C   0  0  0  0  0
   13.6520   -0.8140    1.3110 C   0  0  0  0  0
   11.0890    0.3320    3.6640 C   0  0  0  0  0
   11.3590   -0.9520    1.4890 N   0  0  0  0  0
   12.3740   -1.3540    0.7050 C   0  0  0  0  0
   12.2760   -2.0020   -0.3200 O   0  0  0  0  0
    8.1217    1.2161    8.6903 H   0  0  0  0  0
    6.4425    1.5437    9.1843 H   0  0  0  0  0
    6.8542    1.4199    7.4562 H   0  0  0  0  0
    6.7053    5.1597   11.3703 H   0  0  0  0  0
    5.8698    5.0233    9.8037 H   0  0  0  0  0
    5.9303    3.6254   10.9052 H   0  0  0  0  0
   14.6679    5.5266    7.8829 H   0  0  0  0  0
    5.8848    5.9201    4.2377 H   0  0  0  0  0
   11.2109    1.4805    5.4741 H   0  0  0  0  0
    4.3819    5.4356    6.1382 H   0  0  0  0  0
    8.2122    5.0263    4.2631 H   0  0  0  0  0
    9.7138    3.3975    5.2436 H   0  0  0  0  0
    9.4380    2.7598    6.8931 H   0  0  0  0  0
    9.9190    5.5370    7.1822 H   0  0  0  0  0
   14.8445    1.6379    5.7088 H   0  0  0  0  0
   14.9300    0.7503    3.4481 H   0  0  0  0  0
   14.3706   -1.6017    1.5372 H   0  0  0  0  0
   14.1931   -0.1603    0.6270 H   0  0  0  0  0
   10.0067    0.2164    3.7216 H   0  0  0  0  0
   10.3778   -1.1494    1.2924 H   0  0  0  0  0
 16  1  1  0  0  0
 14  2  1  0  0  0
  3  4  4  0  0  0
 26  3  4  0  0  0
  4  5  4  0  0  0
  5  9  1  0  0  0
 21  5  4  0  0  0
  6  7  4  0  0  0
  6 17  4  0  0  0
 19  6  1  0  0  0
  7 16  1  0  0  0
  7 18  4  0  0  0
  8 30  4  0  0  0
 32  8  4  0  0  0
  8 33  1  0  0  0
  9 22  1  0  0  0
  9 23  1  0  0  0
  9 24  1  0  0  0
 10 12  4  0  0  0
 17 10  4  0  0  0
 28 11  4  0  0  0
 11 32  4  0  0  0
 18 12  4  0  0  0
 14 13  2  0  0  0
 14 15  2  0  0  0
 16 14  1  0  0  0
 20 19  1  0  0  0
 21 20  1  0  0  0
 25 21  4  0  0  0
 26 25  4  0  0  0
 27 26  1  0  0  0
 27 28  1  0  0  0
 28 29  4  0  0  0
 29 30  4  0  0  0
 30 31  1  0  0  0
 31 34  1  0  0  0
 33 34  1  0  0  0
 34 35  2  0  0  0
  1 36  1  0  0  0
  1 37  1  0  0  0
  1 38  1  0  0  0
  2 39  1  0  0  0
  2 40  1  0  0  0
  2 41  1  0  0  0
  4 42  1  0  0  0
 10 43  1  0  0  0
 11 44  1  0  0  0
 12 45  1  0  0  0
 17 46  1  0  0  0
 19 47  1  0  0  0
 19 48  1  0  0  0
 20 49  1  0  0  0
 27 50  1  0  0  0
 29 51  1  0  0  0
 31 52  1  0  0  0
 31 53  1  0  0  0
 32 54  1  0  0  0
 33 55  1  0  0  0
M  END
$$$$
