3unz_ligand
  -I-interpret- 

 37 39  0  0  0  0  0  0  0  0999 V2000
  -27.6050   12.0540    8.8310 F   0  0  0  0  0
  -30.7620    7.8950   12.2310 N   0  0  0  0  0
  -29.5290    8.6500   10.3110 N   0  0  0  0  0
  -28.5500    7.1610   11.8340 N   0  0  0  0  0
  -28.3440    9.4390    8.3650 N   0  0  0  0  0
  -33.4240   10.0090   10.6850 C   0  0  0  0  0
  -34.5460    9.5040   11.3390 C   0  0  0  0  0
  -34.4060    8.4860   12.2660 C   0  0  0  0  0
  -33.1510    7.9740   12.5360 C   0  0  0  0  0
  -32.0310    8.4640   11.8840 C   0  0  0  0  0
  -32.1640    9.4890   10.9580 C   0  0  0  0  0
  -35.9130   10.0370   11.0640 C   0  0  0  0  0
  -29.5830    7.9090   11.4220 C   0  0  0  0  0
  -28.4140    8.6600    9.5600 C   0  0  0  0  0
  -27.3290    7.8840    9.9640 C   0  0  0  0  0
  -27.4100    7.1220   11.1270 C   0  0  0  0  0
  -29.2500   10.5250    8.1520 C   0  0  0  0  0
  -30.5350   10.2770    7.7000 C   0  0  0  0  0
  -31.4100   11.3290    7.4920 C   0  0  0  0  0
  -30.9990   12.6310    7.7340 C   0  0  0  0  0
  -29.7120   12.8790    8.1870 C   0  0  0  0  0
  -28.8390   11.8240    8.3970 C   0  0  0  0  0
  -36.8390    9.8220   11.8860 O   0  0  0  0  0
  -36.1410   10.6970   10.0160 O   0  0  0  0  0
  -30.6936    7.4373   13.1400 H   0  0  0  0  0
  -27.6424    9.2191    7.6580 H   0  0  0  0  0
  -33.5345   10.8134    9.9578 H   0  0  0  0  0
  -35.2814    8.0899   12.7807 H   0  0  0  0  0
  -33.0411    7.1758   13.2701 H   0  0  0  0  0
  -31.2856    9.8841   10.4477 H   0  0  0  0  0
  -26.4158    7.8735    9.3689 H   0  0  0  0  0
  -26.5695    6.5100   11.4544 H   0  0  0  0  0
  -30.8574    9.2536    7.5080 H   0  0  0  0  0
  -32.4223   11.1340    7.1379 H   0  0  0  0  0
  -31.6875   13.4596    7.5682 H   0  0  0  0  0
  -29.3879   13.9021    8.3775 H   0  0  0  0  0
  -35.3332   10.7687    9.5022 H   0  0  0  0  0
 22  1  1  0  0  0
  2 10  1  0  0  0
 13  2  1  0  0  0
  3 13  4  0  0  0
 14  3  4  0  0  0
 13  4  4  0  0  0
 16  4  4  0  0  0
  5 14  1  0  0  0
 17  5  1  0  0  0
  6  7  4  0  0  0
 11  6  4  0  0  0
  8  7  4  0  0  0
  7 12  1  0  0  0
  9  8  4  0  0  0
 10  9  4  0  0  0
 10 11  4  0  0  0
 12 23  2  0  0  0
 12 24  1  0  0  0
 14 15  4  0  0  0
 15 16  4  0  0  0
 17 18  4  0  0  0
 17 22  4  0  0  0
 18 19  4  0  0  0
 19 20  4  0  0  0
 20 21  4  0  0  0
 21 22  4  0  0  0
  2 25  1  0  0  0
  5 26  1  0  0  0
  6 27  1  0  0  0
  8 28  1  0  0  0
  9 29  1  0  0  0
 11 30  1  0  0  0
 15 31  1  0  0  0
 16 32  1  0  0  0
 18 33  1  0  0  0
 19 34  1  0  0  0
 20 35  1  0  0  0
 21 36  1  0  0  0
 24 37  1  0  0  0
M  END
$$$$
