2mji_ligand
  -I-interpret- 

 32 34  0  0  0  0  0  0  0  0999 V2000
    1.2820    3.8590   -3.2450 O   0  0  0  0  0
   -1.0310    0.1660   -4.1390 C   0  0  0  0  0
    0.0010    0.5080   -3.3750 C   0  0  0  0  0
    1.9780   -0.2170   -2.4140 C   0  0  0  0  0
    0.7790   -0.5840   -3.2090 N   0  0  0  0  0
    1.6060    1.0060   -1.6670 C   0  0  0  0  0
    0.6280    1.6670   -2.6070 C   0  0  0  0  0
    1.3220    2.6490   -3.5540 C   0  0  0  0  0
    1.5250   -3.4770   -5.1820 C   0  0  0  0  0
    2.3040   -2.5700   -5.8940 C   0  0  0  0  0
    3.0040   -2.9720   -7.0240 C   0  0  0  0  0
    2.9280   -4.2920   -7.4520 C   0  0  0  0  0
    2.1530   -5.2060   -6.7490 C   0  0  0  0  0
    1.4560   -4.7970   -5.6190 C   0  0  0  0  0
    0.5710   -3.8120   -3.0060 O   0  0  0  0  0
    0.7550   -3.0300   -3.9390 C   0  0  0  0  0
    0.2130   -1.6020   -3.8670 C   0  0  0  0  0
   -0.8980   -1.1650   -4.4470 C   0  0  0  0  0
    1.8750    2.1660   -4.5660 O   0  0  0  0  0
   -1.8376    0.8237   -4.4627 H   0  0  0  0  0
    2.8418   -0.0431   -3.0556 H   0  0  0  0  0
    2.2683   -1.0219   -1.7387 H   0  0  0  0  0
    2.4603    1.6368   -1.4214 H   0  0  0  0  0
    1.1843    0.7981   -0.6836 H   0  0  0  0  0
   -0.1115    2.2629   -2.0722 H   0  0  0  0  0
    2.3654   -1.5338   -5.5615 H   0  0  0  0  0
    3.6118   -2.2537   -7.5741 H   0  0  0  0  0
    3.4762   -4.6101   -8.3388 H   0  0  0  0  0
    2.0920   -6.2417   -7.0833 H   0  0  0  0  0
    0.8493   -5.5165   -5.0692 H   0  0  0  0  0
   -1.5810   -1.7559   -5.0573 H   0  0  0  0  0
    1.7604    1.2129   -4.5677 H   0  0  0  0  0
  8  1  2  0  0  0
  3  2  4  0  0  0
  2 18  4  0  0  0
  5  3  4  0  0  0
  3  7  1  0  0  0
  5  4  1  0  0  0
  4  6  1  0  0  0
 17  5  4  0  0  0
  6  7  1  0  0  0
  7  8  1  0  0  0
  8 19  1  0  0  0
  9 10  4  0  0  0
  9 14  4  0  0  0
 16  9  1  0  0  0
 10 11  4  0  0  0
 11 12  4  0  0  0
 13 12  4  0  0  0
 14 13  4  0  0  0
 16 15  2  0  0  0
 16 17  1  0  0  0
 17 18  4  0  0  0
  2 20  1  0  0  0
  4 21  1  0  0  0
  4 22  1  0  0  0
  6 23  1  0  0  0
  6 24  1  0  0  0
  7 25  1  0  0  0
 10 26  1  0  0  0
 11 27  1  0  0  0
 12 28  1  0  0  0
 13 29  1  0  0  0
 14 30  1  0  0  0
 18 31  1  0  0  0
 19 32  1  0  0  0
M  END
$$$$
