2vie_ligand
  -I-interpret- 

 88 90  0  0  0  0  0  0  0  0999 V2000
   30.2790    1.1150   34.4740 C   0  0  0  0  0
   29.1200    1.2170   33.7580 N   0  0  0  0  0
   28.8550    2.2250   32.7220 C   0  0  0  0  0
   28.0190    3.3310   33.3620 C   0  0  0  0  0
   28.1940    1.4800   31.5300 C   0  0  0  0  0
   28.7940    4.2260   34.3130 C   0  0  0  0  0
   31.2190    1.8920   34.3140 O   0  0  0  0  0
   30.3540    0.0080   35.4220 C   0  0  0  0  0
   30.9220    0.1570   36.7070 C   0  0  0  0  0
   30.9930   -0.9330   37.5980 C   0  0  0  0  0
   30.4800   -2.2020   37.1840 C   0  0  0  0  0
   29.9040   -2.3840   35.9040 C   0  0  0  0  0
   29.8440   -1.2630   35.0180 C   0  0  0  0  0
   28.8490    0.1540   31.2130 C   0  0  0  0  0
   30.2530    0.0640   30.9870 C   0  0  0  0  0
   30.8600   -1.1780   30.7020 C   0  0  0  0  0
   30.0720   -2.3500   30.6330 C   0  0  0  0  0
   28.6780   -2.2740   30.8550 C   0  0  0  0  0
   28.0690   -1.0260   31.1440 C   0  0  0  0  0
   27.9880    5.3780   34.7240 N   0  3  0  0  0
   27.4970    4.1580   32.3360 O   0  0  0  0  0
   29.4120   -3.6240   35.5230 N   0  0  0  0  0
   28.7940   -3.9450   34.2270 C   0  0  0  0  0
   27.2710   -3.9270   34.3460 C   0  0  0  0  0
   31.5640   -0.7590   38.8520 N   0  0  0  0  0
   32.8600   -0.0840   39.0580 C   0  0  0  0  0
   33.2480   -0.4180   40.4940 C   0  0  0  0  0
   31.9410   -0.7980   41.1910 C   0  0  0  0  0
   31.0140   -1.1720   40.0330 C   0  0  0  0  0
   29.9470   -1.7550   40.1890 O   0  0  0  0  0
   28.6540    6.5500   35.3500 C   0  0  0  0  0
   29.3290    6.0510   36.6520 C   0  0  0  0  0
   27.6200    7.6390   35.7150 C   0  0  0  0  0
   29.7290    7.1100   34.3670 C   0  0  0  0  0
   29.1920    7.6280   33.0190 C   0  0  0  0  0
   30.3070    8.1770   32.1200 C   0  0  0  0  0
   29.8180    8.7140   30.7630 C   0  0  0  0  0
   30.9960    9.3440   30.0130 C   0  0  0  0  0
   28.7040    9.7680   30.9170 C   0  0  0  0  0
   28.3821    0.5418   33.9578 H   0  0  0  0  0
   29.7413    2.7184   32.3231 H   0  0  0  0  0
   27.2453    2.8277   33.9418 H   0  0  0  0  0
   28.2940    2.1148   30.6496 H   0  0  0  0  0
   27.1581    1.2780   31.8024 H   0  0  0  0  0
   29.6868    4.5880   33.8031 H   0  0  0  0  0
   29.0572    3.6492   35.1996 H   0  0  0  0  0
   31.3106    1.1281   37.0136 H   0  0  0  0  0
   30.5337   -3.0479   37.8694 H   0  0  0  0  0
   29.4057   -1.3797   34.0269 H   0  0  0  0  0
   30.8652    0.9646   31.0348 H   0  0  0  0  0
   31.9357   -1.2336   30.5352 H   0  0  0  0  0
   30.5382   -3.3095   30.4092 H   0  0  0  0  0
   28.0695   -3.1769   30.8040 H   0  0  0  0  0
   26.9936   -0.9748   31.3141 H   0  0  0  0  0
   27.3676    5.0153   35.4478 H   0  0  0  0  0
   27.5901    5.7386   33.8568 H   0  0  0  0  0
   26.9994    3.6205   31.7154 H   0  0  0  0  0
   29.4853   -4.3812   36.2025 H   0  0  0  0  0
   29.1147   -4.9395   33.9167 H   0  0  0  0  0
   29.1021   -3.2012   33.4922 H   0  0  0  0  0
   26.9567   -4.6658   35.0832 H   0  0  0  0  0
   26.9441   -2.9359   34.6607 H   0  0  0  0  0
   26.8294   -4.1665   33.3787 H   0  0  0  0  0
   32.7879    0.9916   38.8965 H   0  0  0  0  0
   33.6119   -0.4222   38.3450 H   0  0  0  0  0
   33.7318    0.4268   40.9843 H   0  0  0  0  0
   33.9733   -1.2307   40.5336 H   0  0  0  0  0
   31.5417    0.0126   41.8006 H   0  0  0  0  0
   32.0692   -1.6130   41.9034 H   0  0  0  0  0
   28.5708    5.6389   37.3179 H   0  0  0  0  0
   30.0589    5.2790   36.4085 H   0  0  0  0  0
   29.8305    6.8853   37.1425 H   0  0  0  0  0
   27.1059    7.9674   34.8117 H   0  0  0  0  0
   26.8953    7.2289   36.4184 H   0  0  0  0  0
   28.1321    8.4860   36.1715 H   0  0  0  0  0
   30.3988    6.2817   34.1359 H   0  0  0  0  0
   30.1899    7.9629   34.8652 H   0  0  0  0  0
   28.4923    8.4385   33.2228 H   0  0  0  0  0
   28.7195    6.7938   32.5003 H   0  0  0  0  0
   30.9878    7.3515   31.9123 H   0  0  0  0  0
   30.7648    9.0123   32.6499 H   0  0  0  0  0
   29.4070    7.8712   30.2072 H   0  0  0  0  0
   31.4051   10.1633   30.6042 H   0  0  0  0  0
   31.7669    8.5906   29.8514 H   0  0  0  0  0
   30.6512    9.7248   29.0517 H   0  0  0  0  0
   27.8523    9.3222   31.4307 H   0  0  0  0  0
   29.0801   10.6101   31.4979 H   0  0  0  0  0
   28.3946   10.1145   29.9309 H   0  0  0  0  0
  1  2  1  0  0  0
  1  7  2  0  0  0
  1  8  1  0  0  0
  2  3  1  0  0  0
  3  4  1  0  0  0
  3  5  1  0  0  0
  4  6  1  0  0  0
  4 21  1  0  0  0
  5 14  1  0  0  0
  6 20  1  0  0  0
  8  9  4  0  0  0
  8 13  4  0  0  0
  9 10  4  0  0  0
 10 11  4  0  0  0
 10 25  1  0  0  0
 11 12  4  0  0  0
 12 13  4  0  0  0
 12 22  1  0  0  0
 14 15  4  0  0  0
 14 19  4  0  0  0
 15 16  4  0  0  0
 16 17  4  0  0  0
 17 18  4  0  0  0
 18 19  4  0  0  0
 20 31  1  0  0  0
 22 23  1  0  0  0
 23 24  1  0  0  0
 25 26  1  0  0  0
 25 29  1  0  0  0
 26 27  1  0  0  0
 27 28  1  0  0  0
 28 29  1  0  0  0
 29 30  2  0  0  0
 31 32  1  0  0  0
 31 33  1  0  0  0
 31 34  1  0  0  0
 34 35  1  0  0  0
 35 36  1  0  0  0
 36 37  1  0  0  0
 37 38  1  0  0  0
 37 39  1  0  0  0
  2 40  1  0  0  0
  3 41  1  0  0  0
  4 42  1  0  0  0
  5 43  1  0  0  0
  5 44  1  0  0  0
  6 45  1  0  0  0
  6 46  1  0  0  0
  9 47  1  0  0  0
 11 48  1  0  0  0
 13 49  1  0  0  0
 15 50  1  0  0  0
 16 51  1  0  0  0
 17 52  1  0  0  0
 18 53  1  0  0  0
 19 54  1  0  0  0
 20 55  1  0  0  0
 20 56  1  0  0  0
 21 57  1  0  0  0
 22 58  1  0  0  0
 23 59  1  0  0  0
 23 60  1  0  0  0
 24 61  1  0  0  0
 24 62  1  0  0  0
 24 63  1  0  0  0
 26 64  1  0  0  0
 26 65  1  0  0  0
 27 66  1  0  0  0
 27 67  1  0  0  0
 28 68  1  0  0  0
 28 69  1  0  0  0
 32 70  1  0  0  0
 32 71  1  0  0  0
 32 72  1  0  0  0
 33 73  1  0  0  0
 33 74  1  0  0  0
 33 75  1  0  0  0
 34 76  1  0  0  0
 34 77  1  0  0  0
 35 78  1  0  0  0
 35 79  1  0  0  0
 36 80  1  0  0  0
 36 81  1  0  0  0
 37 82  1  0  0  0
 38 83  1  0  0  0
 38 84  1  0  0  0
 38 85  1  0  0  0
 39 86  1  0  0  0
 39 87  1  0  0  0
 39 88  1  0  0  0
M  END
$$$$
