4ynb_ligand
  -I-interpret- 

 44 47  0  0  0  0  0  0  0  0999 V2000
   10.9160   43.5010  -34.1690 O   0  0  0  0  0
   10.7600   44.5310  -35.1530 C   0  0  0  0  0
   12.0970   45.2110  -35.3860 C   0  0  0  0  0
   12.2720   45.9360  -36.7190 C   0  0  0  0  0
   12.4680   44.8460  -38.1080 S   0  0  0  0  0
    9.8660   45.6060  -34.5540 C   0  0  0  0  0
   10.8150   46.2880  -33.6560 N   0  3  0  0  0
   12.1490   46.2810  -34.2910 C   0  0  0  0  0
   10.3970   47.6350  -33.2810 C   0  0  0  0  0
   10.4270   48.8120  -34.2490 C   0  0  0  0  0
    9.5840   49.1300  -35.4190 C   0  0  0  0  0
    8.6140   48.4230  -36.0410 N   0  0  0  0  0
    8.0250   48.9590  -37.1330 C   0  0  0  0  0
   11.2410   49.9330  -34.1020 C   0  0  0  0  0
   10.9940   50.8600  -35.0760 N   0  0  0  0  0
   10.0260   50.4410  -35.8880 C   0  0  0  0  0
    9.3520   50.9480  -37.0750 C   0  0  0  0  0
    8.3750   50.1700  -37.6510 N   0  0  0  0  0
    9.7150   52.1520  -37.5720 N   0  0  0  0  0
   14.0890   44.3700  -38.3850 C   0  0  0  0  0
   15.1510   44.8250  -37.6120 C   0  0  0  0  0
   16.3960   44.3980  -37.9010 N   0  0  0  0  0
   16.6500   43.5430  -38.9080 C   0  0  0  0  0
   15.5960   43.0890  -39.6770 C   0  0  0  0  0
   14.3530   43.5160  -39.4080 N   0  0  0  0  0
   11.4777   42.8065  -34.5207 H   0  0  0  0  0
   10.3619   44.0992  -36.0712 H   0  0  0  0  0
   12.8715   44.4440  -35.3814 H   0  0  0  0  0
   13.1792   46.5358  -36.6460 H   0  0  0  0  0
   11.3694   46.5224  -36.8909 H   0  0  0  0  0
    8.9822   45.2156  -34.0494 H   0  0  0  0  0
    9.4073   46.2623  -35.2935 H   0  0  0  0  0
   10.8459   45.7749  -32.7750 H   0  0  0  0  0
   12.3900   47.2586  -34.7086 H   0  0  0  0  0
   12.9292   46.0596  -33.5627 H   0  0  0  0  0
   11.1256   47.9190  -32.5217 H   0  0  0  0  0
    9.3347   47.5154  -33.0680 H   0  0  0  0  0
    7.2314   48.3952  -37.6233 H   0  0  0  0  0
   11.9808   50.0554  -33.3109 H   0  0  0  0  0
   10.4512   52.6910  -37.1161 H   0  0  0  0  0
    9.2526   52.5212  -38.4028 H   0  0  0  0  0
   14.9796   45.5154  -36.7862 H   0  0  0  0  0
   17.6688   43.2144  -39.1134 H   0  0  0  0  0
   15.7727   42.3903  -40.4948 H   0  0  0  0  0
  1  2  1  0  0  0
  2  3  1  0  0  0
  2  6  1  0  0  0
  3  4  1  0  0  0
  3  8  1  0  0  0
  4  5  1  0  0  0
  5 20  1  0  0  0
  6  7  1  0  0  0
  7  8  1  0  0  0
  7  9  1  0  0  0
  9 10  1  0  0  0
 10 11  4  0  0  0
 10 14  4  0  0  0
 11 12  4  0  0  0
 11 16  4  0  0  0
 12 13  4  0  0  0
 13 18  4  0  0  0
 14 15  4  0  0  0
 15 16  4  0  0  0
 16 17  4  0  0  0
 17 18  4  0  0  0
 17 19  1  0  0  0
 20 21  4  0  0  0
 20 25  4  0  0  0
 21 22  4  0  0  0
 22 23  4  0  0  0
 23 24  4  0  0  0
 24 25  4  0  0  0
  1 26  1  0  0  0
  2 27  1  0  0  0
  3 28  1  0  0  0
  4 29  1  0  0  0
  4 30  1  0  0  0
  6 31  1  0  0  0
  6 32  1  0  0  0
  7 33  1  0  0  0
  8 34  1  0  0  0
  8 35  1  0  0  0
  9 36  1  0  0  0
  9 37  1  0  0  0
 13 38  1  0  0  0
 14 39  1  0  0  0
 19 40  1  0  0  0
 19 41  1  0  0  0
 21 42  1  0  0  0
 23 43  1  0  0  0
 24 44  1  0  0  0
M  END
$$$$
