4w4x_ligand
  -I-interpret- 

 51 54  0  0  0  0  0  0  0  0999 V2000
   -1.3640   30.2640  -29.6390 C   0  0  0  0  0
   -3.9880   38.1550  -34.3360 C   0  0  0  0  0
   -2.8970   37.1010  -34.3880 C   0  0  0  0  0
   -2.9610   36.0370  -33.5050 C   0  0  0  0  0
   -1.9530   35.0870  -33.5120 C   0  0  0  0  0
   -2.1600   33.9340  -32.7180 N   0  0  0  0  0
   -1.1520   33.1160  -32.1410 C   0  0  0  0  0
    0.0430   33.3210  -32.2790 O   0  0  0  0  0
   -1.6230   31.8950  -31.3750 C   0  0  0  0  0
   -0.9120   31.4060  -30.2790 C   0  0  0  0  0
   -2.4880   29.5880  -30.1140 C   0  0  0  0  0
   -3.1900   30.0660  -31.2100 C   0  0  0  0  0
   -2.7150   31.1820  -31.8700 C   0  0  0  0  0
   -4.2210   29.3850  -31.7520 N   0  0  0  0  0
   -4.1920   28.0710  -32.0140 C   0  0  0  0  0
   -5.3730   27.7190  -32.6490 C   0  0  0  0  0
   -5.7900   26.4240  -33.0710 N   0  0  0  0  0
   -5.1420   25.2110  -32.6630 C   0  0  0  0  0
   -4.2260   25.2260  -31.8830 O   0  0  0  0  0
   -5.5240   23.9140  -33.0700 N   0  0  0  0  0
   -6.5330   23.6790  -34.0180 C   0  0  0  0  0
   -7.4710   22.6620  -33.8010 C   0  0  0  0  0
   -8.4450   22.4800  -34.7760 C   0  0  0  0  0
   -8.4090   23.2500  -35.9670 C   0  0  0  0  0
   -9.3430   23.1330  -36.9110 F   0  0  0  0  0
   -7.4130   24.1780  -36.2080 C   0  0  0  0  0
   -6.4330   24.3400  -35.2560 C   0  0  0  0  0
   -6.0760   28.8930  -32.8390 C   0  0  0  0  0
   -5.3500   29.8900  -32.2960 N   0  0  0  0  0
   -0.9580   35.1790  -34.4780 C   0  0  0  0  0
   -0.9150   36.2710  -35.3380 C   0  0  0  0  0
   -1.8830   37.2060  -35.2790 N   0  0  0  0  0
   -0.8387   29.8915  -28.7596 H   0  0  0  0  0
   -4.9527   37.6876  -34.5334 H   0  0  0  0  0
   -4.0008   38.6144  -33.3476 H   0  0  0  0  0
   -3.7912   38.9173  -35.0898 H   0  0  0  0  0
   -3.7966   35.9476  -32.8108 H   0  0  0  0  0
   -3.1278   33.6638  -32.5428 H   0  0  0  0  0
   -0.0134   31.9155  -29.9312 H   0  0  0  0  0
   -2.8177   28.6748  -29.6186 H   0  0  0  0  0
   -3.1996   31.5100  -32.7896 H   0  0  0  0  0
   -3.3755   27.3919  -31.7686 H   0  0  0  0  0
   -6.5925   26.3555  -33.6969 H   0  0  0  0  0
   -5.0462   23.1128  -32.6574 H   0  0  0  0  0
   -7.4388   22.0401  -32.9064 H   0  0  0  0  0
   -9.2364   21.7457  -34.6254 H   0  0  0  0  0
   -7.4044   24.7649  -37.1265 H   0  0  0  0  0
   -5.5766   24.9823  -35.4615 H   0  0  0  0  0
   -7.0405   28.9942  -33.3366 H   0  0  0  0  0
   -0.2084   34.3921  -34.5619 H   0  0  0  0  0
   -0.1015   36.3700  -36.0567 H   0  0  0  0  0
 10  1  4  0  0  0
  1 11  4  0  0  0
  3  2  1  0  0  0
  4  3  4  0  0  0
  3 32  4  0  0  0
  5  4  4  0  0  0
  6  5  1  0  0  0
  5 30  4  0  0  0
  7  6  1  0  0  0
  7  8  2  0  0  0
  9  7  1  0  0  0
  9 10  4  0  0  0
  9 13  4  0  0  0
 11 12  4  0  0  0
 12 13  4  0  0  0
 12 14  1  0  0  0
 14 15  4  0  0  0
 14 29  4  0  0  0
 15 16  4  0  0  0
 16 17  1  0  0  0
 16 28  4  0  0  0
 17 18  1  0  0  0
 18 19  2  0  0  0
 18 20  1  0  0  0
 20 21  1  0  0  0
 21 22  4  0  0  0
 21 27  4  0  0  0
 22 23  4  0  0  0
 23 24  4  0  0  0
 24 25  1  0  0  0
 24 26  4  0  0  0
 26 27  4  0  0  0
 28 29  4  0  0  0
 30 31  4  0  0  0
 31 32  4  0  0  0
  1 33  1  0  0  0
  2 34  1  0  0  0
  2 35  1  0  0  0
  2 36  1  0  0  0
  4 37  1  0  0  0
  6 38  1  0  0  0
 10 39  1  0  0  0
 11 40  1  0  0  0
 13 41  1  0  0  0
 15 42  1  0  0  0
 17 43  1  0  0  0
 20 44  1  0  0  0
 22 45  1  0  0  0
 23 46  1  0  0  0
 26 47  1  0  0  0
 27 48  1  0  0  0
 28 49  1  0  0  0
 30 50  1  0  0  0
 31 51  1  0  0  0
M  END
$$$$
