4l7b_ligand
  -I-interpret- 

 59 63  0  0  0  0  0  0  0  0999 V2000
   -6.4000   -0.5420  -24.2500 C   0  0  0  0  0
   -6.1430    0.4420  -23.3090 C   0  0  0  0  0
   -2.9530    6.8750  -31.3880 C   0  0  0  0  0
   -3.4830    7.3060  -30.1960 C   0  0  0  0  0
   -6.3710   -0.2630  -25.6010 C   0  0  0  0  0
   -5.8490    1.7380  -23.6850 C   0  0  0  0  0
   -2.7080    5.5360  -31.5760 C   0  0  0  0  0
   -3.7640    6.3980  -29.2020 C   0  0  0  0  0
   -6.0780    1.0280  -25.9550 C   0  0  0  0  0
   -5.8250    1.9950  -25.0320 C   0  0  0  0  0
   -2.9870    4.6260  -30.5800 C   0  0  0  0  0
   -3.5210    5.0540  -29.3790 C   0  0  0  0  0
   -5.9790    1.5970  -27.2850 C   0  0  0  0  0
   -5.5490    3.2450  -25.7180 C   0  0  0  0  0
   -2.6820    2.1050  -27.5840 C   0  0  0  0  0
    0.0910    2.2570  -27.6220 C   0  0  0  0  0
   -2.6940    3.1960  -30.8520 C   0  0  0  0  0
   -2.6650   -0.7730  -26.4780 C   0  0  0  0  0
   -1.4490   -0.6050  -25.6090 C   0  0  0  0  0
   -2.2800   -0.4910  -27.9110 C   0  0  0  0  0
   -0.8250    0.7470  -25.8520 C   0  0  0  0  0
   -3.5140    2.3620  -29.9120 C   0  0  0  0  0
   -3.8720    4.1840  -28.2330 C   0  0  0  0  0
   -1.8440    0.9830  -28.1160 C   0  0  0  0  0
   -0.5170    0.9470  -27.3030 C   0  0  0  0  0
   -5.3310    3.8360  -28.1100 C   0  0  0  0  0
   -5.6500    2.9160  -27.0540 N   0  0  0  0  0
   -3.3120    2.8700  -28.5690 N   0  0  0  0  0
   -6.1510    0.9690  -28.3180 O   0  0  0  0  0
   -5.2840    4.2990  -25.1580 O   0  0  0  0  0
   -2.8220    2.3330  -26.3920 O   0  0  0  0  0
   -0.2310    3.0350  -28.5080 O   0  0  0  0  0
    1.1280    2.4960  -26.7800 O   0  0  0  0  0
   -6.6291   -1.5543  -23.9172 H   0  0  0  0  0
   -6.1735    0.1879  -22.2495 H   0  0  0  0  0
   -2.7284    7.5903  -32.1792 H   0  0  0  0  0
   -3.6805    8.3663  -30.0383 H   0  0  0  0  0
   -6.5710   -1.0305  -26.3487 H   0  0  0  0  0
   -5.6465    2.5163  -22.9493 H   0  0  0  0  0
   -2.2893    5.1909  -32.5213 H   0  0  0  0  0
   -4.1856    6.7475  -28.2595 H   0  0  0  0  0
   -1.6331    2.9959  -30.7020 H   0  0  0  0  0
   -2.9442    2.9522  -31.8845 H   0  0  0  0  0
   -3.4446   -0.0802  -26.1612 H   0  0  0  0  0
   -3.0445   -1.7910  -26.3904 H   0  0  0  0  0
   -0.7249   -1.3831  -25.8505 H   0  0  0  0  0
   -1.7426   -0.6819  -24.5621 H   0  0  0  0  0
   -3.1491   -0.6801  -28.5410 H   0  0  0  0  0
   -1.4395   -1.1344  -28.1711 H   0  0  0  0  0
    0.1051    0.8079  -25.2869 H   0  0  0  0  0
   -1.5286    1.5172  -25.5359 H   0  0  0  0  0
   -3.2068    1.3178  -29.9696 H   0  0  0  0  0
   -4.5687    2.4185  -30.1811 H   0  0  0  0  0
   -3.5316    4.7072  -27.3394 H   0  0  0  0  0
   -1.8566    1.2198  -29.1799 H   0  0  0  0  0
    0.1639    0.1314  -27.5465 H   0  0  0  0  0
   -5.6189    3.3540  -29.0443 H   0  0  0  0  0
   -5.8577    4.7641  -27.8880 H   0  0  0  0  0
    1.2121    1.7659  -26.1624 H   0  0  0  0  0
  2  1  4  0  0  0
  5  1  4  0  0  0
  6  2  4  0  0  0
  4  3  4  0  0  0
  7  3  4  0  0  0
  8  4  4  0  0  0
  9  5  4  0  0  0
 10  6  4  0  0  0
 11  7  4  0  0  0
 12  8  4  0  0  0
 10  9  4  0  0  0
 13  9  1  0  0  0
 14 10  1  0  0  0
 12 11  4  0  0  0
 11 17  1  0  0  0
 23 12  1  0  0  0
 27 13  1  0  0  0
 13 29  2  0  0  0
 27 14  1  0  0  0
 14 30  2  0  0  0
 15 24  1  0  0  0
 28 15  1  0  0  0
 15 31  2  0  0  0
 25 16  1  0  0  0
 16 32  2  0  0  0
 16 33  1  0  0  0
 22 17  1  0  0  0
 18 19  1  0  0  0
 20 18  1  0  0  0
 21 19  1  0  0  0
 24 20  1  0  0  0
 25 21  1  0  0  0
 28 22  1  0  0  0
 26 23  1  0  0  0
 23 28  1  0  0  0
 24 25  1  0  0  0
 26 27  1  0  0  0
  1 34  1  0  0  0
  2 35  1  0  0  0
  3 36  1  0  0  0
  4 37  1  0  0  0
  5 38  1  0  0  0
  6 39  1  0  0  0
  7 40  1  0  0  0
  8 41  1  0  0  0
 17 42  1  0  0  0
 17 43  1  0  0  0
 18 44  1  0  0  0
 18 45  1  0  0  0
 19 46  1  0  0  0
 19 47  1  0  0  0
 20 48  1  0  0  0
 20 49  1  0  0  0
 21 50  1  0  0  0
 21 51  1  0  0  0
 22 52  1  0  0  0
 22 53  1  0  0  0
 23 54  1  0  0  0
 24 55  1  0  0  0
 25 56  1  0  0  0
 26 57  1  0  0  0
 26 58  1  0  0  0
 33 59  1  0  0  0
M  END
$$$$
