3dgq_ligand
  -I-interpret- 

 31 31  0  0  0  0  0  0  0  0999 V2000
    5.7560    6.5380   23.0450 C   0  0  0  0  0
    4.5330    7.1250   22.8830 O   0  0  0  0  0
    5.9240    5.4080   23.9900 C   0  0  0  0  0
    4.5410    4.8050   24.9530 Cl  0  0  0  0  0
    7.2590    4.7850   24.1370 C   0  0  0  0  0
    7.4260    3.4210   25.2910 Cl  0  0  0  0  0
    8.3700    5.3430   23.3070 C   0  0  0  0  0
    8.1040    6.4140   22.4490 C   0  0  0  0  0
    6.8480    6.9950   22.3140 C   0  0  0  0  0
    9.7950    4.8600   23.3030 C   0  0  0  0  0
   10.5650    5.4430   22.5620 O   0  0  0  0  0
   10.3100    3.7580   24.1140 C   0  0  0  0  0
   10.4520    3.8960   25.6170 C   0  0  0  0  0
   11.6810    4.6970   25.9860 C   0  0  0  0  0
   10.6750    2.6360   23.5200 C   0  0  0  0  0
    3.6840    6.6430   21.8390 C   0  0  0  0  0
    3.9340    7.4150   20.5620 C   0  0  0  0  0
    4.9600    7.1700   19.8850 O   0  0  0  0  0
    3.0900    8.2750   20.2310 O   0  0  0  0  0
    8.9247    6.8149   21.8542 H   0  0  0  0  0
    6.7162    7.8259   21.6210 H   0  0  0  0  0
   10.5470    2.8993   26.0480 H   0  0  0  0  0
    9.5735    4.4147   26.0008 H   0  0  0  0  0
   12.5688    4.1967   25.5993 H   0  0  0  0  0
   11.6067    5.6944   25.5527 H   0  0  0  0  0
   11.7500    4.7751   27.0710 H   0  0  0  0  0
   10.5905    2.5399   22.4375 H   0  0  0  0  0
   11.0607    1.8063   24.1123 H   0  0  0  0  0
    2.6437    6.7741   22.1367 H   0  0  0  0  0
    3.8968    5.5882   21.6651 H   0  0  0  0  0
    5.4691    6.4796   20.3160 H   0  0  0  0  0
  1  2  1  0  0  0
  1  3  4  0  0  0
  1  9  4  0  0  0
  2 16  1  0  0  0
  3  4  1  0  0  0
  3  5  4  0  0  0
  5  6  1  0  0  0
  5  7  4  0  0  0
  7  8  4  0  0  0
  7 10  1  0  0  0
  8  9  4  0  0  0
 10 11  2  0  0  0
 10 12  1  0  0  0
 12 13  1  0  0  0
 12 15  2  0  0  0
 13 14  1  0  0  0
 16 17  1  0  0  0
 17 18  1  0  0  0
 17 19  2  0  0  0
  8 20  1  0  0  0
  9 21  1  0  0  0
 13 22  1  0  0  0
 13 23  1  0  0  0
 14 24  1  0  0  0
 14 25  1  0  0  0
 14 26  1  0  0  0
 15 27  1  0  0  0
 15 28  1  0  0  0
 16 29  1  0  0  0
 16 30  1  0  0  0
 18 31  1  0  0  0
M  END
$$$$
