3upi_ligand
  -I-interpret- 

 57 61  0  0  0  0  0  0  0  0999 V2000
   25.7920   41.2730   47.3400 C   0  0  0  0  0
   25.8660   41.5750   45.9750 C   0  0  0  0  0
   29.6660   44.6500   42.4700 C   0  0  0  0  0
   29.1770   43.7120   41.5600 C   0  0  0  0  0
   27.6630   44.3770   43.8100 C   0  0  0  0  0
   24.4860   43.6040   46.3660 C   0  0  0  0  0
   23.9460   44.6510   45.5750 C   0  0  0  0  0
   25.1050   42.1320   48.1930 C   0  0  0  0  0
   27.1530   43.4250   42.9060 C   0  0  0  0  0
   25.2050   42.7370   45.5150 C   0  0  0  0  0
   24.4650   43.2710   47.7240 C   0  0  0  0  0
   28.9000   44.9750   43.5850 C   0  0  0  0  0
   27.9340   43.1090   41.7840 C   0  0  0  0  0
   24.3780   44.4390   44.2670 C   0  0  0  0  0
   22.6100   47.7060   47.4040 C   0  0  0  0  0
   23.4550   46.6000   47.0110 C   0  0  0  0  0
   21.4680   47.9420   46.7420 C   0  0  0  0  0
   23.1290   45.7680   45.9970 C   0  0  0  0  0
   21.8150   46.0400   45.2670 C   0  0  0  0  0
   24.1490   45.2830   43.1130 C   0  0  0  0  0
   24.0950   43.3030   49.9280 C   0  0  0  0  0
   24.9190   42.0370   49.6590 C   0  0  0  0  0
   24.1610   40.7980   50.0860 C   0  0  0  0  0
   26.1200   45.5830   40.1860 C   0  0  0  0  0
   25.8180   42.7410   43.0900 C   0  0  0  0  0
   25.1300   43.2780   44.2590 N   0  0  0  0  0
   21.0820   47.1360   45.7080 N   0  0  0  0  0
   24.4530   44.6190   41.9120 N   0  0  0  0  0
   21.4260   45.3230   44.3380 O   0  0  0  0  0
   24.0260   46.4970   43.1680 O   0  0  0  0  0
   23.9960   44.2770   39.4340 O   0  0  0  0  0
   23.7620   46.6030   40.4530 O   0  0  0  0  0
   23.8420   44.0160   48.7090 O   0  0  0  0  0
   29.3480   45.8720   44.4650 F   0  0  0  0  0
   27.4760   42.2330   40.8890 F   0  0  0  0  0
   24.3790   45.2950   40.3810 S   0  0  0  0  0
   26.2679   40.3737   47.7311 H   0  0  0  0  0
   26.4169   40.9333   45.2873 H   0  0  0  0  0
   30.6353   45.1219   42.3094 H   0  0  0  0  0
   29.7610   43.4498   40.6778 H   0  0  0  0  0
   27.0844   44.6479   44.6932 H   0  0  0  0  0
   22.9009   48.3464   48.2367 H   0  0  0  0  0
   24.3867   46.4317   47.5511 H   0  0  0  0  0
   20.8411   48.7854   47.0315 H   0  0  0  0  0
   24.0906   45.3853   46.3390 H   0  0  0  0  0
   24.6553   43.9497   50.6032 H   0  0  0  0  0
   23.1415   43.0140   50.3700 H   0  0  0  0  0
   25.8582   41.9640   50.2074 H   0  0  0  0  0
   23.1719   40.8029   49.6280 H   0  0  0  0  0
   24.7070   39.9109   49.7650 H   0  0  0  0  0
   24.0603   40.7913   51.1713 H   0  0  0  0  0
   26.6639   44.6587   40.3805 H   0  0  0  0  0
   26.3200   45.9163   39.1677 H   0  0  0  0  0
   26.4412   46.3502   40.8905 H   0  0  0  0  0
   25.9824   41.6731   43.2336 H   0  0  0  0  0
   25.2048   42.9144   42.2057 H   0  0  0  0  0
   24.7431   43.6434   41.9782 H   0  0  0  0  0
  2  1  4  0  0  0
  1  8  4  0  0  0
 10  2  4  0  0  0
  4  3  4  0  0  0
 12  3  4  0  0  0
 13  4  4  0  0  0
  9  5  4  0  0  0
  5 12  4  0  0  0
  7  6  4  0  0  0
 10  6  4  0  0  0
  6 11  4  0  0  0
 14  7  4  0  0  0
  7 18  1  0  0  0
 11  8  4  0  0  0
  8 22  1  0  0  0
  9 13  4  0  0  0
 25  9  1  0  0  0
 26 10  4  0  0  0
 11 33  1  0  0  0
 12 34  1  0  0  0
 13 35  1  0  0  0
 20 14  1  0  0  0
 14 26  4  0  0  0
 16 15  2  0  0  0
 15 17  1  0  0  0
 18 16  1  0  0  0
 27 17  2  0  0  0
 18 19  1  0  0  0
 19 27  1  0  0  0
 19 29  2  0  0  0
 28 20  1  0  0  0
 20 30  2  0  0  0
 21 22  1  0  0  0
 33 21  1  0  0  0
 22 23  1  0  0  0
 36 24  1  0  0  0
 26 25  1  0  0  0
 28 36  1  0  0  0
 36 31  2  0  0  0
 36 32  2  0  0  0
  1 37  1  0  0  0
  2 38  1  0  0  0
  3 39  1  0  0  0
  4 40  1  0  0  0
  5 41  1  0  0  0
 15 42  1  0  0  0
 16 43  1  0  0  0
 17 44  1  0  0  0
 18 45  1  0  0  0
 21 46  1  0  0  0
 21 47  1  0  0  0
 22 48  1  0  0  0
 23 49  1  0  0  0
 23 50  1  0  0  0
 23 51  1  0  0  0
 24 52  1  0  0  0
 24 53  1  0  0  0
 24 54  1  0  0  0
 25 55  1  0  0  0
 25 56  1  0  0  0
 28 57  1  0  0  0
M  END
$$$$
