4zzz_ligand
  -I-interpret- 

 34 35  0  0  0  0  0  0  0  0999 V2000
   62.8020    6.6400    9.3510 C   0  0  0  0  0
   61.8780    6.2450   10.2280 N   0  0  0  0  0
   63.7250    5.6810    9.1240 C   0  0  0  0  0
   63.3280    4.6380    9.9090 C   0  0  0  0  0
   64.8520    5.5880    8.3210 C   0  0  0  0  0
   62.2010    4.9840   10.5800 C   0  0  0  0  0
   65.3700    6.5490    7.4100 C   0  0  0  0  0
   62.7250    7.8790    8.8350 O   0  0  0  0  0
   66.2530    6.2480    6.5850 O   0  0  0  0  0
   64.8370    7.7840    7.4100 N   0  0  0  0  0
   60.6770    7.0400   10.7410 C   0  0  0  0  0
   64.0230    3.4720    9.9640 C   0  0  0  0  0
   65.5880    4.3820    8.3670 C   0  0  0  0  0
   60.9170    7.6670   12.1330 C   0  0  0  0  0
   65.1650    3.3300    9.1750 C   0  0  0  0  0
   61.9000    9.7880   11.6040 O   0  0  0  0  0
   62.1860    8.4780   12.1490 C   0  0  0  0  0
   62.9840   10.3140   10.7940 C   0  0  0  0  0
   61.3883    4.3025   10.3284 H   0  0  0  0  0
   62.3692    4.9242   11.6553 H   0  0  0  0  0
   65.1559    8.4771    6.7330 H   0  0  0  0  0
   64.1139    8.0274    8.0870 H   0  0  0  0  0
   59.8361    6.3519   10.8275 H   0  0  0  0  0
   60.4924    7.8526   10.0384 H   0  0  0  0  0
   63.6940    2.6609   10.6136 H   0  0  0  0  0
   66.4915    4.2751    7.7667 H   0  0  0  0  0
   61.0052    6.8657   12.8667 H   0  0  0  0  0
   60.0797    8.3236   12.3695 H   0  0  0  0  0
   65.7259    2.3956    9.1912 H   0  0  0  0  0
   62.9509    7.9843   11.5496 H   0  0  0  0  0
   62.5548    8.5721   13.1704 H   0  0  0  0  0
   63.8839   10.3973   11.4034 H   0  0  0  0  0
   63.1710    9.6403    9.9578 H   0  0  0  0  0
   62.7081   11.2980   10.4148 H   0  0  0  0  0
  1  2  1  0  0  0
  1  3  1  0  0  0
  1  8  2  0  0  0
  2  6  1  0  0  0
  2 11  1  0  0  0
  3  4  4  0  0  0
  3  5  4  0  0  0
  4  6  1  0  0  0
  4 12  4  0  0  0
  5  7  1  0  0  0
  5 13  4  0  0  0
  7  9  2  0  0  0
  7 10  1  0  0  0
 11 14  1  0  0  0
 12 15  4  0  0  0
 13 15  4  0  0  0
 14 17  1  0  0  0
 17 16  1  0  0  0
 16 18  1  0  0  0
  6 19  1  0  0  0
  6 20  1  0  0  0
 10 21  1  0  0  0
 10 22  1  0  0  0
 11 23  1  0  0  0
 11 24  1  0  0  0
 12 25  1  0  0  0
 13 26  1  0  0  0
 14 27  1  0  0  0
 14 28  1  0  0  0
 15 29  1  0  0  0
 17 30  1  0  0  0
 17 31  1  0  0  0
 18 32  1  0  0  0
 18 33  1  0  0  0
 18 34  1  0  0  0
M  END
$$$$
