5nhp_ligand
  -I-interpret- 

 51 54  0  0  0  0  0  0  0  0999 V2000
  -19.6150   14.1980   43.3820 C   0  0  0  0  0
  -18.4970   14.4400   44.1670 C   0  0  0  0  0
  -18.7660   15.6590   44.7820 C   0  0  0  0  0
  -11.0330   13.9520   40.5510 N   0  0  0  0  0
  -16.8540   12.3290   40.8890 C   0  0  0  0  0
  -15.4820   12.8910   40.8440 C   0  0  0  0  0
  -14.3680   12.1990   40.4050 C   0  0  0  0  0
  -13.2370   13.0650   40.5030 C   0  0  0  0  0
  -13.7120   14.2600   41.0280 C   0  0  0  0  0
  -15.9240   15.2390   41.7980 C   0  0  0  0  0
  -12.8450   15.4370   41.3540 C   0  0  0  0  0
  -11.4380   14.9140   41.5870 C   0  0  0  0  0
  -11.8130   12.9090   40.1660 C   0  0  0  0  0
   -9.6580   14.0800   40.0410 C   0  0  0  0  0
  -11.3600   11.8740   39.6910 O   0  0  0  0  0
   -9.5520   14.6420   38.6480 C   0  0  0  0  0
  -10.1750   15.9020   38.6260 O   0  0  0  0  0
  -10.1040   16.5030   37.3530 C   0  0  0  0  0
  -15.0650   14.1680   41.2660 N   0  0  0  0  0
  -17.1670   11.1520   40.2140 C   0  0  0  0  0
  -18.4490   10.6690   40.3860 C   0  0  0  0  0
  -19.3940   11.3080   41.1030 N   0  0  0  0  0
  -17.7480   12.9660   41.6610 N   0  0  0  0  0
  -18.9870   12.4350   41.7120 C   0  0  0  0  0
  -19.9090   13.1290   42.4810 N   0  0  0  0  0
  -19.9580   16.1430   44.4540 N   0  0  0  0  0
  -20.4610   15.2350   43.5730 N   0  0  0  0  0
  -21.7860   15.4680   43.0140 C   0  0  0  0  0
  -17.6095   13.8169   44.2770 H   0  0  0  0  0
  -18.0743   16.1611   45.4584 H   0  0  0  0  0
  -14.3555   11.1699   40.0461 H   0  0  0  0  0
  -16.6683   15.5114   41.0498 H   0  0  0  0  0
  -16.4253   14.8869   42.6996 H   0  0  0  0  0
  -15.3121   16.1088   42.0371 H   0  0  0  0  0
  -13.2143   15.9491   42.2426 H   0  0  0  0  0
  -12.8544   16.1568   40.5355 H   0  0  0  0  0
  -10.7497   15.7587   41.5574 H   0  0  0  0  0
  -11.4168   14.4070   42.5517 H   0  0  0  0  0
   -9.2367   13.0752   40.0101 H   0  0  0  0  0
   -9.1379   14.7728   40.7026 H   0  0  0  0  0
  -10.0404   13.9733   37.9391 H   0  0  0  0  0
   -8.5038   14.7405   38.3656 H   0  0  0  0  0
   -9.0590   16.6340   37.0722 H   0  0  0  0  0
  -10.6004   15.8640   36.6227 H   0  0  0  0  0
  -10.5979   17.4742   37.3831 H   0  0  0  0  0
  -16.4396   10.6399   39.5842 H   0  0  0  0  0
  -18.7104    9.7205   39.9169 H   0  0  0  0  0
  -20.8866   12.8507   42.3955 H   0  0  0  0  0
  -21.7184   15.5081   41.9268 H   0  0  0  0  0
  -22.4510   14.6560   43.3082 H   0  0  0  0  0
  -22.1765   16.4136   43.3902 H   0  0  0  0  0
  1  2  4  0  0  0
 25  1  1  0  0  0
  1 27  4  0  0  0
  2  3  4  0  0  0
  3 26  4  0  0  0
 12  4  1  0  0  0
 13  4  1  0  0  0
  4 14  1  0  0  0
  5  6  1  0  0  0
  5 20  4  0  0  0
 23  5  4  0  0  0
  6  7  4  0  0  0
  6 19  4  0  0  0
  7  8  4  0  0  0
  9  8  4  0  0  0
  8 13  1  0  0  0
  9 11  1  0  0  0
 19  9  4  0  0  0
 19 10  1  0  0  0
 11 12  1  0  0  0
 13 15  2  0  0  0
 14 16  1  0  0  0
 16 17  1  0  0  0
 17 18  1  0  0  0
 21 20  4  0  0  0
 22 21  4  0  0  0
 24 22  4  0  0  0
 24 23  4  0  0  0
 24 25  1  0  0  0
 26 27  4  0  0  0
 27 28  1  0  0  0
  2 29  1  0  0  0
  3 30  1  0  0  0
  7 31  1  0  0  0
 10 32  1  0  0  0
 10 33  1  0  0  0
 10 34  1  0  0  0
 11 35  1  0  0  0
 11 36  1  0  0  0
 12 37  1  0  0  0
 12 38  1  0  0  0
 14 39  1  0  0  0
 14 40  1  0  0  0
 16 41  1  0  0  0
 16 42  1  0  0  0
 18 43  1  0  0  0
 18 44  1  0  0  0
 18 45  1  0  0  0
 20 46  1  0  0  0
 21 47  1  0  0  0
 25 48  1  0  0  0
 28 49  1  0  0  0
 28 50  1  0  0  0
 28 51  1  0  0  0
M  END
$$$$
