2ay6_ligand
  -I-interpret- 

 27 28  0  0  0  0  0  0  0  0999 V2000
  100.4040   42.3310   10.8140 N   0  0  0  0  0
  100.9530   43.4760   10.2900 C   0  0  0  0  0
  100.5870   44.5620   11.0390 C   0  0  0  0  0
   99.0940   44.6580   13.1670 C   0  0  0  0  0
   98.3690   43.8550   14.0220 C   0  0  0  0  0
   98.2950   42.4640   13.8310 C   0  0  0  0  0
   98.9370   41.8500   12.7870 C   0  0  0  0  0
   99.6700   42.6600   11.9230 C   0  0  0  0  0
   99.7620   44.0590   12.0920 C   0  0  0  0  0
  100.9800   45.9940   10.8120 C   0  0  0  0  0
  102.4890   46.2260   10.7960 C   0  0  0  0  0
  103.1290   46.0350   12.1730 C   0  0  0  0  0
  102.7800   47.1430   13.1550 C   0  0  0  0  0
  103.0070   46.9670   14.3710 O   0  0  0  0  0
  102.2670   48.1950   12.7220 O   0  0  0  0  0
  101.5885   43.5144    9.4053 H   0  0  0  0  0
   99.1459   45.7353   13.3245 H   0  0  0  0  0
   97.8429   44.3076   14.8625 H   0  0  0  0  0
   97.7143   41.8605   14.5285 H   0  0  0  0  0
   98.8763   40.7718   12.6390 H   0  0  0  0  0
  100.5710   46.5772   11.6370 H   0  0  0  0  0
  100.5969   46.2842    9.8337 H   0  0  0  0  0
  102.6667   47.2550   10.4836 H   0  0  0  0  0
  102.9328   45.4986   10.1163 H   0  0  0  0  0
  104.2106   46.0417   12.0383 H   0  0  0  0  0
  102.7533   45.0983   12.5848 H   0  0  0  0  0
  103.4011   46.1012   14.4998 H   0  0  0  0  0
  2  1  4  0  0  0
  1  8  4  0  0  0
  3  2  4  0  0  0
  9  3  4  0  0  0
  3 10  1  0  0  0
  4  5  4  0  0  0
  4  9  4  0  0  0
  5  6  4  0  0  0
  6  7  4  0  0  0
  7  8  4  0  0  0
  8  9  4  0  0  0
 10 11  1  0  0  0
 11 12  1  0  0  0
 12 13  1  0  0  0
 13 14  1  0  0  0
 13 15  2  0  0  0
  2 16  1  0  0  0
  4 17  1  0  0  0
  5 18  1  0  0  0
  6 19  1  0  0  0
  7 20  1  0  0  0
 10 21  1  0  0  0
 10 22  1  0  0  0
 11 23  1  0  0  0
 11 24  1  0  0  0
 12 25  1  0  0  0
 12 26  1  0  0  0
 14 27  1  0  0  0
M  END
$$$$
