4h1j_ligand
  -I-interpret- 

 63 66  0  0  0  0  0  0  0  0999 V2000
   -9.4640    0.9050   17.0560 C   0  0  0  0  0
   -0.1920   -7.4860   11.7500 C   0  0  0  0  0
   -7.4180    2.3900    8.0780 C   0  0  0  0  0
   -4.9570    1.9950    7.8880 C   0  0  0  0  0
   -5.8120    3.7630    9.4080 C   0  0  0  0  0
    0.9480  -10.5010    7.7840 C   0  0  0  0  0
   -7.5360    0.1640   15.6210 C   0  0  0  0  0
   -9.3820    1.3300   14.5790 C   0  0  0  0  0
   -6.8730    0.0930   14.3920 C   0  0  0  0  0
   -8.7470    1.2270   13.3460 C   0  0  0  0  0
   -2.3060   -8.7890    8.2250 C   0  0  0  0  0
   -2.9340   -7.8970    9.0800 C   0  0  0  0  0
   -0.3630   -8.7860    9.6590 C   0  0  0  0  0
   -3.8690   -5.4380   10.7500 C   0  0  0  0  0
   -5.9210    0.0370   10.0700 C   0  0  0  0  0
   -8.7710    0.7980   15.7150 C   0  0  0  0  0
   -0.9840   -7.9080   10.5380 C   0  0  0  0  0
   -7.4850    0.6130   13.2460 C   0  0  0  0  0
   -1.0140   -9.2380    8.4990 C   0  0  0  0  0
   -2.2870   -7.4430   10.2410 C   0  0  0  0  0
   -3.0530   -6.5310   11.1350 C   0  0  0  0  0
   -6.2760    1.3910   10.0010 C   0  0  0  0  0
   -4.3900   -4.9100   11.8920 C   0  0  0  0  0
   -6.2990   -0.4470   11.3010 C   0  0  0  0  0
   -5.2340   -2.6570   11.4270 C   0  0  0  0  0
   -6.0970    2.3650    8.8530 C   0  0  0  0  0
   -3.9400   -5.6460   12.9360 N   0  0  0  0  0
   -3.1300   -6.6560   12.4360 N   0  0  0  0  0
   -6.8510    1.7060   11.1360 N   0  0  0  0  0
   -5.2730   -3.8470   12.0580 N   0  0  0  0  0
   -6.1630   -1.7520   11.8010 N   0  0  0  0  0
   -6.8700    0.5960   11.9850 N   0  0  0  0  0
   -4.4050   -2.4250   10.5670 O   0  0  0  0  0
   -0.4230  -10.1010    7.6150 O   0  0  0  0  0
   -9.6487   -0.0948   17.4489 H   0  0  0  0  0
   -8.8290    1.4574   17.7486 H   0  0  0  0  0
  -10.4117    1.4292   16.9330 H   0  0  0  0  0
    0.0618   -8.3660   12.3410 H   0  0  0  0  0
    0.7220   -6.9862   11.4292 H   0  0  0  0  0
   -0.7894   -6.8019   12.3527 H   0  0  0  0  0
   -7.6379    1.3897    7.7049 H   0  0  0  0  0
   -8.2200    2.7167    8.7400 H   0  0  0  0  0
   -7.3329    3.0813    7.2396 H   0  0  0  0  0
   -4.0147    1.9659    8.4351 H   0  0  0  0  0
   -5.1555    1.0162    7.4514 H   0  0  0  0  0
   -4.8961    2.7418    7.0963 H   0  0  0  0  0
   -6.6483    4.0833   10.0294 H   0  0  0  0  0
   -4.9019    3.7361   10.0072 H   0  0  0  0  0
   -5.6837    4.4616    8.5812 H   0  0  0  0  0
    1.5889   -9.6200    7.7505 H   0  0  0  0  0
    1.0637  -10.9997    8.7463 H   0  0  0  0  0
    1.2269  -11.1854    6.9828 H   0  0  0  0  0
   -7.0838   -0.2788   16.5084 H   0  0  0  0  0
  -10.3509    1.8232   14.6574 H   0  0  0  0  0
   -5.8858   -0.3645   14.3270 H   0  0  0  0  0
   -9.2293    1.6239   12.4527 H   0  0  0  0  0
   -2.8246   -9.1416    7.3335 H   0  0  0  0  0
   -3.9393   -7.5446    8.8492 H   0  0  0  0  0
    0.6486   -9.1309    9.8732 H   0  0  0  0  0
   -4.0459   -5.0869    9.7334 H   0  0  0  0  0
   -5.4295   -0.5348    9.2829 H   0  0  0  0  0
   -6.0297   -3.9832   12.7282 H   0  0  0  0  0
   -6.8301   -2.0441   12.5152 H   0  0  0  0  0
 16  1  1  0  0  0
 17  2  1  0  0  0
 26  3  1  0  0  0
 26  4  1  0  0  0
 26  5  1  0  0  0
 34  6  1  0  0  0
  9  7  4  0  0  0
  7 16  4  0  0  0
 10  8  4  0  0  0
  8 16  4  0  0  0
 18  9  4  0  0  0
 18 10  4  0  0  0
 12 11  4  0  0  0
 11 19  4  0  0  0
 20 12  4  0  0  0
 17 13  4  0  0  0
 13 19  4  0  0  0
 14 21  4  0  0  0
 23 14  4  0  0  0
 15 22  4  0  0  0
 24 15  4  0  0  0
 20 17  4  0  0  0
 32 18  1  0  0  0
 19 34  1  0  0  0
 21 20  1  0  0  0
 21 28  4  0  0  0
 22 26  1  0  0  0
 22 29  4  0  0  0
 23 27  4  0  0  0
 30 23  1  0  0  0
 31 24  1  0  0  0
 24 32  4  0  0  0
 25 30  1  0  0  0
 25 31  1  0  0  0
 25 33  2  0  0  0
 27 28  4  0  0  0
 29 32  4  0  0  0
  1 35  1  0  0  0
  1 36  1  0  0  0
  1 37  1  0  0  0
  2 38  1  0  0  0
  2 39  1  0  0  0
  2 40  1  0  0  0
  3 41  1  0  0  0
  3 42  1  0  0  0
  3 43  1  0  0  0
  4 44  1  0  0  0
  4 45  1  0  0  0
  4 46  1  0  0  0
  5 47  1  0  0  0
  5 48  1  0  0  0
  5 49  1  0  0  0
  6 50  1  0  0  0
  6 51  1  0  0  0
  6 52  1  0  0  0
  7 53  1  0  0  0
  8 54  1  0  0  0
  9 55  1  0  0  0
 10 56  1  0  0  0
 11 57  1  0  0  0
 12 58  1  0  0  0
 13 59  1  0  0  0
 14 60  1  0  0  0
 15 61  1  0  0  0
 30 62  1  0  0  0
 31 63  1  0  0  0
M  END
$$$$
