### 
### Created by X-TOOL on Mon Sep 10 21:13:09 2018
### 

@<TRIPOS>MOLECULE
3v31_ligand
  269   273     1     0     0
SMALL
GAST_HUCK


@<TRIPOS>ATOM
      1 C         -16.6370    3.5410   35.1700 C.2       1 ACE         0.1751
      2 O         -16.1370    2.4830   35.5330 O.2       1 ACE        -0.3972
      3 CH3       -16.1690    4.8860   35.6840 C.3       1 ACE         0.0258
      4 N         -17.5510    3.5420   34.2200 N.am      1 LEU        -0.2658
      5 CA        -18.0490    2.2710   33.6860 C.3       1 LEU         0.1313
      6 C         -17.1990    1.8140   32.4970 C.2       1 LEU         0.2064
      7 O         -16.4350    2.6050   31.9730 O.2       1 LEU        -0.3942
      8 CB        -19.5070    2.4170   33.2640 C.3       1 LEU        -0.0101
      9 CG        -20.4730    2.7710   34.3970 C.3       1 LEU        -0.0425
     10 CD1       -21.8470    2.9740   33.8030 C.3       1 LEU        -0.0625
     11 CD2       -20.5010    1.6440   35.4200 C.3       1 LEU        -0.0625
     12 N         -17.3490    0.5430   32.0630 N.am      1 PRO        -0.2498
     13 CA        -16.5610    0.1280   30.8870 C.3       1 PRO         0.1338
     14 C         -16.9030    0.9050   29.6220 C.2       1 PRO         0.2041
     15 O         -18.0480    1.3300   29.4410 O.2       1 PRO        -0.3944
     16 CB        -16.9630   -1.3410   30.6990 C.3       1 PRO        -0.0104
     17 CG        -17.3790   -1.7640   32.0770 C.3       1 PRO        -0.0281
     18 CD        -18.1030   -0.5910   32.6330 C.3       1 PRO         0.0369
     19 N         -15.9070    1.0780   28.7690 N.am      1 LEU        -0.2637
     20 CA        -16.1200    1.5110   27.3870 C.3       1 LEU         0.1312
     21 C         -16.6210    0.3390   26.5700 C.2       1 LEU         0.2040
     22 O         -16.0650   -0.7630   26.6490 O.2       1 LEU        -0.3944
     23 CB        -14.8090    2.0330   26.7920 C.3       1 LEU        -0.0101
     24 CG        -14.0740    3.1380   27.5450 C.3       1 LEU        -0.0425
     25 CD1       -12.7960    3.5270   26.8330 C.3       1 LEU        -0.0625
     26 CD2       -14.9390    4.3690   27.7360 C.3       1 LEU        -0.0625
     27 N         -17.6400    0.5860   25.7590 N.am      1 TYR        -0.2621
     28 CA        -18.1620   -0.4360   24.8420 C.3       1 TYR         0.1390
     29 C         -17.5030   -0.3980   23.4600 C.2       1 TYR         0.2058
     30 O         -17.8520   -1.1940   22.6030 O.2       1 TYR        -0.3942
     31 CB        -19.6930   -0.3400   24.6960 C.3       1 TYR         0.0163
     32 CG        -20.1510    1.0570   24.3530 C.ar      1 TYR        -0.0493
     33 CD1       -20.0720    1.5360   23.0410 C.ar      1 TYR        -0.0685
     34 CD2       -20.6110    1.9130   25.3480 C.ar      1 TYR        -0.0685
     35 CE1       -20.4410    2.8300   22.7340 C.ar      1 TYR        -0.0398
     36 CE2       -21.0000    3.2060   25.0430 C.ar      1 TYR        -0.0398
     37 CZ        -20.9030    3.6530   23.7440 C.ar      1 TYR         0.0805
     38 OH        -21.2710    4.9400   23.4300 O.3       1 TYR        -0.3376
     39 N         -16.5630    0.5260   23.2500 N.am      1 THR        -0.2612
     40 CA        -15.8430    0.6640   21.9770 C.3       1 THR         0.1565
     41 C         -14.6970   -0.3510   21.8640 C.2       1 THR         0.2065
     42 O         -13.5150    0.0160   21.9320 O.2       1 THR        -0.3943
     43 CB        -15.2950    2.1130   21.8200 C.3       1 THR         0.0924
     44 OG1       -14.7350    2.5460   23.0660 O.3       1 THR        -0.3874
     45 CG2       -16.4270    3.0730   21.4410 C.3       1 THR        -0.0346
     46 N         -15.0370   -1.6320   21.6980 N.am      1 SER        -0.2615
     47 CA        -13.9910   -2.6520   21.5940 C.3       1 SER         0.1541
     48 C         -13.1450   -2.4190   20.3460 C.2       1 SER         0.2087
     49 O         -13.6510   -1.9420   19.3260 O.2       1 SER        -0.3941
     50 CB        -14.5630   -4.0770   21.6120 C.3       1 SER         0.0843
     51 OG        -15.6350   -4.2110   20.7250 O.3       1 SER        -0.3903
     52 N         -11.8490   -2.7340   20.4260 N.am      1 PRO        -0.2498
     53 CA        -10.9820   -2.6180   19.2660 C.3       1 PRO         0.1338
     54 C         -11.5630   -3.2780   18.0150 C.2       1 PRO         0.2042
     55 O         -12.1210   -4.3820   18.0720 O.2       1 PRO        -0.3944
     56 CB         -9.6980   -3.3110   19.7200 C.3       1 PRO        -0.0104
     57 CG         -9.6670   -3.0580   21.2270 C.3       1 PRO        -0.0281
     58 CD        -11.1240   -3.1760   21.6350 C.3       1 PRO         0.0369
     59 N         -11.4330   -2.5820   16.8840 N.am      1 SER        -0.2616
     60 CA        -11.9820   -3.0620   15.6380 C.3       1 SER         0.1539
     61 C         -11.2160   -2.4670   14.4880 C.2       1 SER         0.2062
     62 O         -10.7640   -1.3220   14.5610 O.2       1 SER        -0.3943
     63 CB        -13.4600   -2.6670   15.5290 C.3       1 SER         0.0843
     64 OG        -14.0100   -3.1590   14.3250 O.3       1 SER        -0.3903
     65 N         -11.0570   -3.2620   13.4340 N.am      1 LEU        -0.2636
     66 CA        -10.4950   -2.7580   12.1740 C.3       1 LEU         0.1314
     67 C         -11.6160   -2.6570   11.1470 C.2       1 LEU         0.2064
     68 O         -12.5070   -3.5280   11.1120 O.2       1 LEU        -0.3942
     69 CB         -9.3980   -3.6810   11.6680 C.3       1 LEU        -0.0101
     70 CG         -8.1510   -3.7800   12.5410 C.3       1 LEU        -0.0425
     71 CD1        -7.3130   -4.9770   12.1460 C.3       1 LEU        -0.0625
     72 CD2        -7.3300   -2.4740   12.4730 C.3       1 LEU        -0.0625
     73 N         -11.6000   -1.5840   10.3330 N.am      1 PRO        -0.2498
     74 CA        -12.6940   -1.3610    9.3960 C.3       1 PRO         0.1338
     75 C         -12.6450   -2.2750    8.1870 C.2       1 PRO         0.2042
     76 O         -11.6190   -2.9250    7.9160 O.2       1 PRO        -0.3944
     77 CB        -12.4740    0.0860    8.9580 C.3       1 PRO        -0.0104
     78 CG        -10.9740    0.2290    9.0160 C.3       1 PRO        -0.0281
     79 CD        -10.6270   -0.4750   10.2980 C.3       1 PRO         0.0369
     80 N         -13.7770   -2.3140    7.4840 N.am      1 ASN        -0.2616
     81 CA        -13.8870   -2.9100    6.1650 C.3       1 ASN         0.1476
     82 C         -13.1980   -2.0180    5.1300 C.2       1 ASN         0.2063
     83 O         -13.5780   -0.8530    4.9330 O.2       1 ASN        -0.3942
     84 CB        -15.3640   -3.1020    5.8170 C.3       1 ASN         0.0773
     85 CG        -15.5760   -3.7610    4.4640 C.2       1 ASN         0.1780
     86 OD1       -14.6620   -3.8530    3.6370 O.2       1 ASN        -0.3970
     87 ND2       -16.7980   -4.2310    4.2350 N.am      1 ASN        -0.3007
     88 N         -12.1800   -2.5690    4.4720 N.am      1 ILE        -0.2633
     89 CA        -11.3860   -1.7770    3.5320 C.3       1 ILE         0.1335
     90 C         -11.5410   -2.1900    2.0690 C.2       1 ILE         0.2042
     91 O         -10.7490   -1.7800    1.2190 O.2       1 ILE        -0.3944
     92 CB         -9.8900   -1.7170    3.9250 C.3       1 ILE        -0.0037
     93 CG1        -9.2770   -3.1140    4.0660 C.3       1 ILE        -0.0491
     94 CG2        -9.7110   -0.9230    5.2040 C.3       1 ILE        -0.0582
     95 CD1        -7.7320   -3.1080    4.1960 C.3       1 ILE        -0.0648
     96 N         -12.5660   -2.9810    1.7830 N.am      1 THR        -0.2613
     97 CA        -12.7730   -3.5280    0.4450 C.3       1 THR         0.1565
     98 C         -13.2870   -2.4880   -0.5630 C.2       1 THR         0.2065
     99 O         -13.9130   -1.4840   -0.1960 O.2       1 THR        -0.3943
    100 CB        -13.7580   -4.7340    0.4670 C.3       1 THR         0.0924
    101 OG1       -15.0820   -4.2690    0.7420 O.3       1 THR        -0.3874
    102 CG2       -13.3560   -5.7860    1.5170 C.3       1 THR        -0.0346
    103 N         -13.0020   -2.7380   -1.8350 N.am      1 LEU        -0.2636
    104 CA        -13.5720   -1.9600   -2.9280 C.3       1 LEU         0.1312
    105 C         -14.4330   -2.8780   -3.7770 C.2       1 LEU         0.2037
    106 O         -14.3530   -4.1110   -3.6560 O.2       1 LEU        -0.3944
    107 CB        -12.4700   -1.3330   -3.7840 C.3       1 LEU        -0.0101
    108 CG        -11.5190   -0.3310   -3.1130 C.3       1 LEU        -0.0425
    109 CD1       -10.3440   -0.0410   -4.0300 C.3       1 LEU        -0.0625
    110 CD2       -12.2500    0.9710   -2.6970 C.3       1 LEU        -0.0625
    111 N         -15.2580   -2.2780   -4.6340 N.am      1 GLY        -0.2664
    112 CA        -16.2440   -3.0270   -5.4080 C.3       1 GLY         0.1201
    113 C         -17.4020   -3.4340   -4.5200 C.2       1 GLY         0.2007
    114 O         -17.4580   -3.0590   -3.3480 O.2       1 GLY        -0.3947
    115 N         -18.3280   -4.2100   -5.0670 N.am      1 LEU        -0.2639
    116 CA        -19.4730   -4.6450   -4.2790 C.3       1 LEU         0.1314
    117 C         -19.0560   -5.7240   -3.2910 C.2       1 LEU         0.2058
    118 O         -18.1730   -6.5340   -3.6000 O.2       1 LEU        -0.3942
    119 CB        -20.6020   -5.1480   -5.1820 C.3       1 LEU        -0.0101
    120 CG        -21.1800   -4.0830   -6.1140 C.3       1 LEU        -0.0425
    121 CD1       -22.1600   -4.7040   -7.0800 C.3       1 LEU        -0.0625
    122 CD2       -21.8310   -2.9490   -5.3220 C.3       1 LEU        -0.0625
    123 N         -19.6670   -5.7250   -2.0860 N.am      1 PRO        -0.2556
    124 CA        -19.4680   -6.8440   -1.1660 C.3       1 PRO         0.0972
    125 C         -19.8700   -8.1600   -1.8410 C.2       1 PRO         0.0603
    126 O         -19.0570   -9.0720   -2.0210 O.co2     1 PRO        -0.5666
    127 CB        -20.4210   -6.5160   -0.0130 C.3       1 PRO        -0.0159
    128 CG        -20.5140   -5.0230   -0.0240 C.3       1 PRO        -0.0288
    129 CD        -20.4800   -4.6510   -1.4800 C.3       1 PRO         0.0362
    130 OXT       -21.0140   -8.3370   -2.2570 O.co2     1 PRO        -0.5666
    131 H1        -16.7646    5.6843   35.2172 H         1 ACE         0.0467
    132 H2        -15.1074    5.0256   35.4322 H         1 ACE         0.0467
    133 H3        -16.2951    4.9253   36.7760 H         1 ACE         0.0467
    134 H4        -17.9037    4.4076   33.8646 H         1 LEU         0.1882
    135 H5        -17.9850    1.5088   34.4765 H         1 LEU         0.0800
    136 H6        -19.8323    1.4632   32.8230 H         1 LEU         0.0315
    137 H7        -19.5652    3.2108   32.5048 H         1 LEU         0.0315
    138 H8        -20.1436    3.6986   34.8880 H         1 LEU         0.0298
    139 H9        -22.5579    3.2298   34.6025 H         1 LEU         0.0232
    140 H10       -22.1720    2.0482   33.3058 H         1 LEU         0.0232
    141 H11       -21.8117    3.7918   33.0682 H         1 LEU         0.0232
    142 H12       -19.4949    1.5080   35.8433 H         1 LEU         0.0232
    143 H13       -20.8218    0.7125   34.9307 H         1 LEU         0.0232
    144 H14       -21.2064    1.8971   36.2252 H         1 LEU         0.0232
    145 H15       -15.4848    0.2251   31.0925 H         1 PRO         0.0802
    146 H16       -16.1119   -1.9400   30.3431 H         1 PRO         0.0313
    147 H17       -17.7985   -1.4332   29.9895 H         1 PRO         0.0313
    148 H18       -16.4983   -2.0024   32.6914 H         1 PRO         0.0287
    149 H19       -18.0413   -2.6410   32.0296 H         1 PRO         0.0287
    150 H20       -19.1523   -0.5777   32.3033 H         1 PRO         0.0524
    151 H21       -18.0639   -0.5831   33.7323 H         1 PRO         0.0524
    152 H22       -14.9723    0.9063   29.0803 H         1 LEU         0.1883
    153 H23       -16.8704    2.3151   27.3695 H         1 LEU         0.0800
    154 H24       -15.0354    2.4165   25.7862 H         1 LEU         0.0315
    155 H25       -14.1218    1.1778   26.7123 H         1 LEU         0.0315
    156 H26       -13.8101    2.7483   28.5392 H         1 LEU         0.0298
    157 H27       -12.2894    4.3234   27.3979 H         1 LEU         0.0232
    158 H28       -13.0350    3.8895   25.8224 H         1 LEU         0.0232
    159 H29       -12.1348    2.6508   26.7614 H         1 LEU         0.0232
    160 H30       -15.8681    4.0876   28.2533 H         1 LEU         0.0232
    161 H31       -15.1826    4.8019   26.7546 H         1 LEU         0.0232
    162 H32       -14.3939    5.1103   28.3387 H         1 LEU         0.0232
    163 H33       -18.0643    1.4914   25.7718 H         1 TYR         0.1885
    164 H34       -17.9312   -1.4149   25.2876 H         1 TYR         0.0821
    165 H35       -20.1582   -0.6411   25.6462 H         1 TYR         0.0453
    166 H36       -20.0154   -1.0238   23.8969 H         1 TYR         0.0453
    167 H37       -19.7157    0.8812   22.2540 H         1 TYR         0.0530
    168 H38       -20.6655    1.5641   26.3729 H         1 TYR         0.0530
    169 H39       -20.3696    3.1955   21.7160 H         1 TYR         0.0525
    170 H40       -21.3777    3.8610   25.8198 H         1 TYR         0.0525
    171 H41       -21.1440    5.0865   22.5000 H         1 TYR         0.2458
    172 H42       -16.3381    1.1543   23.9948 H         1 THR         0.1884
    173 H43       -16.5533    0.4711   21.1595 H         1 THR         0.0826
    174 H44       -14.5212    2.1282   21.0383 H         1 THR         0.0639
    175 H45       -14.0269    1.9630   23.3133 H         1 THR         0.2101
    176 H46       -16.0241    4.0909   21.3340 H         1 THR         0.0257
    177 H47       -17.1949    3.0636   22.2285 H         1 THR         0.0257
    178 H48       -16.8748    2.7540   20.4883 H         1 THR         0.0257
    179 H49       -16.0008   -1.8933   21.6450 H         1 SER         0.1884
    180 H50       -13.3354   -2.5475   22.4711 H         1 SER         0.0823
    181 H51       -14.9101   -4.3098   22.6295 H         1 SER         0.0606
    182 H52       -13.7707   -4.7837   21.3241 H         1 SER         0.0606
    183 H53       -15.3410   -4.0159   19.8429 H         1 SER         0.2097
    184 H54       -10.7883   -1.5584   19.0432 H         1 PRO         0.0802
    185 H55        -8.8184   -2.8688   19.2293 H         1 PRO         0.0313
    186 H56        -9.7356   -4.3888   19.5034 H         1 PRO         0.0313
    187 H57        -9.2764   -2.0541   21.4494 H         1 PRO         0.0287
    188 H58        -9.0526   -3.8125   21.7400 H         1 PRO         0.0287
    189 H59       -11.3793   -4.2150   21.8905 H         1 PRO         0.0524
    190 H60       -11.3483   -2.5223   22.4907 H         1 PRO         0.0524
    191 H61       -10.9449   -1.7093   16.8998 H         1 SER         0.1884
    192 H62       -11.8968   -4.1581   15.6033 H         1 SER         0.0823
    193 H63       -13.5450   -1.5704   15.5456 H         1 SER         0.0606
    194 H64       -14.0128   -3.0906   16.3804 H         1 SER         0.0606
    195 H65       -14.9245   -2.9078   14.2700 H         1 SER         0.2097
    196 H66       -11.3256   -4.2229   13.5006 H         1 LEU         0.1883
    197 H67       -10.0678   -1.7587   12.3436 H         1 LEU         0.0800
    198 H68        -9.0866   -3.3213   10.6762 H         1 LEU         0.0315
    199 H69        -9.8243   -4.6907   11.5747 H         1 LEU         0.0315
    200 H70        -8.4750   -3.9223   13.5825 H         1 LEU         0.0298
    201 H71        -6.4210   -5.0279   12.7877 H         1 LEU         0.0232
    202 H72        -7.0034   -4.8772   11.0952 H         1 LEU         0.0232
    203 H73        -7.9054   -5.8957   12.2681 H         1 LEU         0.0232
    204 H74        -7.9661   -1.6254   12.7651 H         1 LEU         0.0232
    205 H75        -6.9659   -2.3228   11.4461 H         1 LEU         0.0232
    206 H76        -6.4732   -2.5433   13.1594 H         1 LEU         0.0232
    207 H77       -13.6640   -1.4818    9.9005 H         1 PRO         0.0802
    208 H78       -12.9657    0.7878    9.6477 H         1 PRO         0.0313
    209 H79       -12.8485    0.2522    7.9372 H         1 PRO         0.0313
    210 H80       -10.6771    1.2876    9.0514 H         1 PRO         0.0287
    211 H81       -10.4950   -0.2576    8.1536 H         1 PRO         0.0287
    212 H82        -9.5945   -0.8538   10.2755 H         1 PRO         0.0524
    213 H83       -10.7542    0.1918   11.1636 H         1 PRO         0.0524
    214 H84       -14.5973   -1.9095    7.8884 H         1 ASN         0.1885
    215 H85       -13.3919   -3.8922    6.1720 H         1 ASN         0.0826
    216 H86       -15.8525   -2.1165    5.8069 H         1 ASN         0.0551
    217 H87       -15.8269   -3.7328    6.5902 H         1 ASN         0.0551
    218 H88       -17.0072   -4.6769    3.3647 H         1 ASN         0.1814
    219 H89       -17.5081   -4.1387    4.9330 H         1 ASN         0.1814
    220 H90       -11.9562   -3.5321    4.6214 H         1 ILE         0.1883
    221 H91       -11.7716   -0.7493    3.6039 H         1 ILE         0.0803
    222 H92        -9.3517   -1.1942    3.1207 H         1 ILE         0.0345
    223 H93        -9.5481   -3.7032    3.1776 H         1 ILE         0.0267
    224 H94        -9.6989   -3.5891    4.9639 H         1 ILE         0.0267
    225 H95       -10.1573    0.0749    5.0815 H         1 ILE         0.0235
    226 H96        -8.6383   -0.8203    5.4248 H         1 ILE         0.0235
    227 H97       -10.2076   -1.4474    6.0337 H         1 ILE         0.0235
    228 H98        -7.3682   -4.1416    4.2927 H         1 ILE         0.0230
    229 H99        -7.4412   -2.5321    5.0869 H         1 ILE         0.0230
    230 H100       -7.2905   -2.6462    3.3006 H         1 ILE         0.0230
    231 H101      -13.2176   -3.2101    2.5061 H         1 THR         0.1884
    232 H102      -11.7979   -3.8895    0.0864 H         1 THR         0.0826
    233 H103      -13.7463   -5.2100   -0.5246 H         1 THR         0.0639
    234 H104      -15.0950   -3.8353    1.5871 H         1 THR         0.2101
    235 H105      -14.0765   -6.6170    1.4980 H         1 THR         0.0257
    236 H106      -13.3542   -5.3251    2.5158 H         1 THR         0.0257
    237 H107      -12.3502   -6.1676    1.2874 H         1 THR         0.0257
    238 H108      -12.3745   -3.4860   -2.0510 H         1 LEU         0.1883
    239 H109      -14.1979   -1.1572   -2.5112 H         1 LEU         0.0800
    240 H110      -12.9610   -0.8100   -4.6179 H         1 LEU         0.0315
    241 H111      -11.8543   -2.1549   -4.1782 H         1 LEU         0.0315
    242 H112      -11.1273   -0.7984   -2.1975 H         1 LEU         0.0298
    243 H113       -9.6675    0.6769   -3.5432 H         1 LEU         0.0232
    244 H114      -10.7126    0.3851   -4.9747 H         1 LEU         0.0232
    245 H115       -9.8006   -0.9749   -4.2363 H         1 LEU         0.0232
    246 H116      -13.0928    0.7228   -2.0351 H         1 LEU         0.0232
    247 H117      -12.6272    1.4826   -3.5947 H         1 LEU         0.0232
    248 H118      -11.5489    1.6315   -2.1659 H         1 LEU         0.0232
    249 H119      -15.2003   -1.2865   -4.7505 H         1 GLY         0.1881
    250 H120      -15.7710   -3.9283   -5.8250 H         1 GLY         0.0763
    251 H121      -16.6183   -2.3965   -6.2279 H         1 GLY         0.0763
    252 H122      -18.2400   -4.4966   -6.0210 H         1 LEU         0.1883
    253 H123      -19.8475   -3.7813   -3.7100 H         1 LEU         0.0800
    254 H124      -21.4140   -5.5241   -4.5423 H         1 LEU         0.0315
    255 H125      -20.2102   -5.9703   -5.7987 H         1 LEU         0.0315
    256 H126      -20.3513   -3.6552   -6.6973 H         1 LEU         0.0298
    257 H127      -22.5657   -3.9250   -7.7422 H         1 LEU         0.0232
    258 H128      -22.9818   -5.1723   -6.5184 H         1 LEU         0.0232
    259 H129      -21.6466   -5.4671   -7.6833 H         1 LEU         0.0232
    260 H130      -21.0949   -2.5168   -4.6282 H         1 LEU         0.0232
    261 H131      -22.6850   -3.3432   -4.7517 H         1 LEU         0.0232
    262 H132      -22.1814   -2.1710   -6.0162 H         1 LEU         0.0232
    263 H133      -18.4252   -6.9017   -0.8207 H         1 PRO         0.0728
    264 H134      -20.0130   -6.8740    0.9437 H         1 PRO         0.0306
    265 H135      -21.4088   -6.9692   -0.1829 H         1 PRO         0.0306
    266 H136      -19.6623   -4.5770    0.5106 H         1 PRO         0.0286
    267 H137      -21.4538   -4.6891    0.4401 H         1 PRO         0.0286
    268 H138      -21.4938   -4.6357   -1.9066 H         1 PRO         0.0524
    269 H139      -20.0064   -3.6688   -1.6248 H         1 PRO         0.0524
@<TRIPOS>BOND
     1    1    2 2  
     2    1    3 1  
     3    1    4 am 
     4    4    5 1  
     5    5    6 1  
     6    5    8 1  
     7    6    7 2  
     8    6   12 am 
     9    8    9 1  
    10    9   10 1  
    11    9   11 1  
    12   12   13 1  
    13   12   18 1  
    14   13   14 1  
    15   13   16 1  
    16   14   15 2  
    17   14   19 am 
    18   16   17 1  
    19   17   18 1  
    20   19   20 1  
    21   20   21 1  
    22   20   23 1  
    23   21   22 2  
    24   21   27 am 
    25   23   24 1  
    26   24   25 1  
    27   24   26 1  
    28   27   28 1  
    29   28   29 1  
    30   28   31 1  
    31   29   30 2  
    32   29   39 am 
    33   31   32 1  
    34   32   33 ar 
    35   32   34 ar 
    36   33   35 ar 
    37   34   36 ar 
    38   35   37 ar 
    39   36   37 ar 
    40   37   38 1  
    41   39   40 1  
    42   40   41 1  
    43   40   43 1  
    44   41   42 2  
    45   41   46 am 
    46   43   44 1  
    47   43   45 1  
    48   46   47 1  
    49   47   48 1  
    50   47   50 1  
    51   48   49 2  
    52   48   52 am 
    53   50   51 1  
    54   52   53 1  
    55   52   58 1  
    56   53   54 1  
    57   53   56 1  
    58   54   55 2  
    59   54   59 am 
    60   56   57 1  
    61   57   58 1  
    62   59   60 1  
    63   60   61 1  
    64   60   63 1  
    65   61   62 2  
    66   61   65 am 
    67   63   64 1  
    68   65   66 1  
    69   66   67 1  
    70   66   69 1  
    71   67   68 2  
    72   67   73 am 
    73   69   70 1  
    74   70   71 1  
    75   70   72 1  
    76   73   74 1  
    77   73   79 1  
    78   74   75 1  
    79   74   77 1  
    80   75   76 2  
    81   75   80 am 
    82   77   78 1  
    83   78   79 1  
    84   80   81 1  
    85   81   82 1  
    86   81   84 1  
    87   82   83 2  
    88   82   88 am 
    89   84   85 1  
    90   85   86 2  
    91   85   87 am 
    92   88   89 1  
    93   89   90 1  
    94   89   92 1  
    95   90   91 2  
    96   90   96 am 
    97   92   93 1  
    98   92   94 1  
    99   93   95 1  
   100   96   97 1  
   101   97   98 1  
   102   97  100 1  
   103   98   99 2  
   104   98  103 am 
   105  100  101 1  
   106  100  102 1  
   107  103  104 1  
   108  104  105 1  
   109  104  107 1  
   110  105  106 2  
   111  105  111 am 
   112  107  108 1  
   113  108  109 1  
   114  108  110 1  
   115  111  112 1  
   116  112  113 1  
   117  113  114 2  
   118  113  115 am 
   119  115  116 1  
   120  116  117 1  
   121  116  119 1  
   122  117  118 2  
   123  117  123 am 
   124  119  120 1  
   125  120  121 1  
   126  120  122 1  
   127  123  124 1  
   128  123  129 1  
   129  124  125 1  
   130  124  127 1  
   131  125  126 ar 
   132  125  130 ar 
   133  127  128 1  
   134  128  129 1  
   135    3  131 1  
   136    3  132 1  
   137    3  133 1  
   138    4  134 1  
   139    5  135 1  
   140    8  136 1  
   141    8  137 1  
   142    9  138 1  
   143   10  139 1  
   144   10  140 1  
   145   10  141 1  
   146   11  142 1  
   147   11  143 1  
   148   11  144 1  
   149   13  145 1  
   150   16  146 1  
   151   16  147 1  
   152   17  148 1  
   153   17  149 1  
   154   18  150 1  
   155   18  151 1  
   156   19  152 1  
   157   20  153 1  
   158   23  154 1  
   159   23  155 1  
   160   24  156 1  
   161   25  157 1  
   162   25  158 1  
   163   25  159 1  
   164   26  160 1  
   165   26  161 1  
   166   26  162 1  
   167   27  163 1  
   168   28  164 1  
   169   31  165 1  
   170   31  166 1  
   171   33  167 1  
   172   34  168 1  
   173   35  169 1  
   174   36  170 1  
   175   38  171 1  
   176   39  172 1  
   177   40  173 1  
   178   43  174 1  
   179   44  175 1  
   180   45  176 1  
   181   45  177 1  
   182   45  178 1  
   183   46  179 1  
   184   47  180 1  
   185   50  181 1  
   186   50  182 1  
   187   51  183 1  
   188   53  184 1  
   189   56  185 1  
   190   56  186 1  
   191   57  187 1  
   192   57  188 1  
   193   58  189 1  
   194   58  190 1  
   195   59  191 1  
   196   60  192 1  
   197   63  193 1  
   198   63  194 1  
   199   64  195 1  
   200   65  196 1  
   201   66  197 1  
   202   69  198 1  
   203   69  199 1  
   204   70  200 1  
   205   71  201 1  
   206   71  202 1  
   207   71  203 1  
   208   72  204 1  
   209   72  205 1  
   210   72  206 1  
   211   74  207 1  
   212   77  208 1  
   213   77  209 1  
   214   78  210 1  
   215   78  211 1  
   216   79  212 1  
   217   79  213 1  
   218   80  214 1  
   219   81  215 1  
   220   84  216 1  
   221   84  217 1  
   222   87  218 1  
   223   87  219 1  
   224   88  220 1  
   225   89  221 1  
   226   92  222 1  
   227   93  223 1  
   228   93  224 1  
   229   94  225 1  
   230   94  226 1  
   231   94  227 1  
   232   95  228 1  
   233   95  229 1  
   234   95  230 1  
   235   96  231 1  
   236   97  232 1  
   237  100  233 1  
   238  101  234 1  
   239  102  235 1  
   240  102  236 1  
   241  102  237 1  
   242  103  238 1  
   243  104  239 1  
   244  107  240 1  
   245  107  241 1  
   246  108  242 1  
   247  109  243 1  
   248  109  244 1  
   249  109  245 1  
   250  110  246 1  
   251  110  247 1  
   252  110  248 1  
   253  111  249 1  
   254  112  250 1  
   255  112  251 1  
   256  115  252 1  
   257  116  253 1  
   258  119  254 1  
   259  119  255 1  
   260  120  256 1  
   261  121  257 1  
   262  121  258 1  
   263  121  259 1  
   264  122  260 1  
   265  122  261 1  
   266  122  262 1  
   267  124  263 1  
   268  127  264 1  
   269  127  265 1  
   270  128  266 1  
   271  128  267 1  
   272  129  268 1  
   273  129  269 1  
@<TRIPOS>SUBSTRUCTURE
     1 ACE         1

