3v31_ligand
  -I-interpret- 

270274  0  0  0  0  0  0  0  0999 V2000
  -16.6370    3.5410   35.1700 C   0  0  0  0  0
  -16.1370    2.4830   35.5330 O   0  0  0  0  0
  -16.1690    4.8860   35.6840 C   0  0  0  0  0
  -17.5510    3.5420   34.2200 N   0  0  0  0  0
  -18.0490    2.2710   33.6860 C   0  0  0  0  0
  -17.1990    1.8140   32.4970 C   0  0  0  0  0
  -16.4350    2.6050   31.9730 O   0  0  0  0  0
  -19.5070    2.4170   33.2640 C   0  0  0  0  0
  -20.4730    2.7710   34.3970 C   0  0  0  0  0
  -21.8470    2.9740   33.8030 C   0  0  0  0  0
  -20.5010    1.6440   35.4200 C   0  0  0  0  0
  -17.3490    0.5430   32.0630 N   0  0  0  0  0
  -16.5610    0.1280   30.8870 C   0  0  0  0  0
  -16.9030    0.9050   29.6220 C   0  0  0  0  0
  -18.0480    1.3300   29.4410 O   0  0  0  0  0
  -16.9630   -1.3410   30.6990 C   0  0  0  0  0
  -17.3790   -1.7640   32.0770 C   0  0  0  0  0
  -18.1030   -0.5910   32.6330 C   0  0  0  0  0
  -15.9070    1.0780   28.7690 N   0  0  0  0  0
  -16.1200    1.5110   27.3870 C   0  0  0  0  0
  -16.6210    0.3390   26.5700 C   0  0  0  0  0
  -16.0650   -0.7630   26.6490 O   0  0  0  0  0
  -14.8090    2.0330   26.7920 C   0  0  0  0  0
  -14.0740    3.1380   27.5450 C   0  0  0  0  0
  -12.7960    3.5270   26.8330 C   0  0  0  0  0
  -14.9390    4.3690   27.7360 C   0  0  0  0  0
  -17.6400    0.5860   25.7590 N   0  0  0  0  0
  -18.1620   -0.4360   24.8420 C   0  0  0  0  0
  -17.5030   -0.3980   23.4600 C   0  0  0  0  0
  -17.8520   -1.1940   22.6030 O   0  0  0  0  0
  -19.6930   -0.3400   24.6960 C   0  0  0  0  0
  -20.1510    1.0570   24.3530 C   0  0  0  0  0
  -20.0720    1.5360   23.0410 C   0  0  0  0  0
  -20.6110    1.9130   25.3480 C   0  0  0  0  0
  -20.4410    2.8300   22.7340 C   0  0  0  0  0
  -21.0000    3.2060   25.0430 C   0  0  0  0  0
  -20.9030    3.6530   23.7440 C   0  0  0  0  0
  -21.2710    4.9400   23.4300 O   0  0  0  0  0
  -16.5630    0.5260   23.2500 N   0  0  0  0  0
  -15.8430    0.6640   21.9770 C   0  0  0  0  0
  -14.6970   -0.3510   21.8640 C   0  0  0  0  0
  -13.5150    0.0160   21.9320 O   0  0  0  0  0
  -15.2950    2.1130   21.8200 C   0  0  0  0  0
  -14.7350    2.5460   23.0660 O   0  0  0  0  0
  -16.4270    3.0730   21.4410 C   0  0  0  0  0
  -15.0370   -1.6320   21.6980 N   0  0  0  0  0
  -13.9910   -2.6520   21.5940 C   0  0  0  0  0
  -13.1450   -2.4190   20.3460 C   0  0  0  0  0
  -13.6510   -1.9420   19.3260 O   0  0  0  0  0
  -14.5630   -4.0770   21.6120 C   0  0  0  0  0
  -15.6350   -4.2110   20.7250 O   0  0  0  0  0
  -11.8490   -2.7340   20.4260 N   0  0  0  0  0
  -10.9820   -2.6180   19.2660 C   0  0  0  0  0
  -11.5630   -3.2780   18.0150 C   0  0  0  0  0
  -12.1210   -4.3820   18.0720 O   0  0  0  0  0
   -9.6980   -3.3110   19.7200 C   0  0  0  0  0
   -9.6670   -3.0580   21.2270 C   0  0  0  0  0
  -11.1240   -3.1760   21.6350 C   0  0  0  0  0
  -11.4330   -2.5820   16.8840 N   0  0  0  0  0
  -11.9820   -3.0620   15.6380 C   0  0  0  0  0
  -11.2160   -2.4670   14.4880 C   0  0  0  0  0
  -10.7640   -1.3220   14.5610 O   0  0  0  0  0
  -13.4600   -2.6670   15.5290 C   0  0  0  0  0
  -14.0100   -3.1590   14.3250 O   0  0  0  0  0
  -11.0570   -3.2620   13.4340 N   0  0  0  0  0
  -10.4950   -2.7580   12.1740 C   0  0  0  0  0
  -11.6160   -2.6570   11.1470 C   0  0  0  0  0
  -12.5070   -3.5280   11.1120 O   0  0  0  0  0
   -9.3980   -3.6810   11.6680 C   0  0  0  0  0
   -8.1510   -3.7800   12.5410 C   0  0  0  0  0
   -7.3130   -4.9770   12.1460 C   0  0  0  0  0
   -7.3300   -2.4740   12.4730 C   0  0  0  0  0
  -11.6000   -1.5840   10.3330 N   0  0  0  0  0
  -12.6940   -1.3610    9.3960 C   0  0  0  0  0
  -12.6450   -2.2750    8.1870 C   0  0  0  0  0
  -11.6190   -2.9250    7.9160 O   0  0  0  0  0
  -12.4740    0.0860    8.9580 C   0  0  0  0  0
  -10.9740    0.2290    9.0160 C   0  0  0  0  0
  -10.6270   -0.4750   10.2980 C   0  0  0  0  0
  -13.7770   -2.3140    7.4840 N   0  0  0  0  0
  -13.8870   -2.9100    6.1650 C   0  0  0  0  0
  -13.1980   -2.0180    5.1300 C   0  0  0  0  0
  -13.5780   -0.8530    4.9330 O   0  0  0  0  0
  -15.3640   -3.1020    5.8170 C   0  0  0  0  0
  -15.5760   -3.7610    4.4640 C   0  0  0  0  0
  -14.6620   -3.8530    3.6370 O   0  0  0  0  0
  -16.7980   -4.2310    4.2350 N   0  0  0  0  0
  -12.1800   -2.5690    4.4720 N   0  0  0  0  0
  -11.3860   -1.7770    3.5320 C   0  0  0  0  0
  -11.5410   -2.1900    2.0690 C   0  0  0  0  0
  -10.7490   -1.7800    1.2190 O   0  0  0  0  0
   -9.8900   -1.7170    3.9250 C   0  0  0  0  0
   -9.2770   -3.1140    4.0660 C   0  0  0  0  0
   -9.7110   -0.9230    5.2040 C   0  0  0  0  0
   -7.7320   -3.1080    4.1960 C   0  0  0  0  0
  -12.5660   -2.9810    1.7830 N   0  0  0  0  0
  -12.7730   -3.5280    0.4450 C   0  0  0  0  0
  -13.2870   -2.4880   -0.5630 C   0  0  0  0  0
  -13.9130   -1.4840   -0.1960 O   0  0  0  0  0
  -13.7580   -4.7340    0.4670 C   0  0  0  0  0
  -15.0820   -4.2690    0.7420 O   0  0  0  0  0
  -13.3560   -5.7860    1.5170 C   0  0  0  0  0
  -13.0020   -2.7380   -1.8350 N   0  0  0  0  0
  -13.5720   -1.9600   -2.9280 C   0  0  0  0  0
  -14.4330   -2.8780   -3.7770 C   0  0  0  0  0
  -14.3530   -4.1110   -3.6560 O   0  0  0  0  0
  -12.4700   -1.3330   -3.7840 C   0  0  0  0  0
  -11.5190   -0.3310   -3.1130 C   0  0  0  0  0
  -10.3440   -0.0410   -4.0300 C   0  0  0  0  0
  -12.2500    0.9710   -2.6970 C   0  0  0  0  0
  -15.2580   -2.2780   -4.6340 N   0  0  0  0  0
  -16.2440   -3.0270   -5.4080 C   0  0  0  0  0
  -17.4020   -3.4340   -4.5200 C   0  0  0  0  0
  -17.4580   -3.0590   -3.3480 O   0  0  0  0  0
  -18.3280   -4.2100   -5.0670 N   0  0  0  0  0
  -19.4730   -4.6450   -4.2790 C   0  0  0  0  0
  -19.0560   -5.7240   -3.2910 C   0  0  0  0  0
  -18.1730   -6.5340   -3.6000 O   0  0  0  0  0
  -20.6020   -5.1480   -5.1820 C   0  0  0  0  0
  -21.1800   -4.0830   -6.1140 C   0  0  0  0  0
  -22.1600   -4.7040   -7.0800 C   0  0  0  0  0
  -21.8310   -2.9490   -5.3220 C   0  0  0  0  0
  -19.6670   -5.7250   -2.0860 N   0  0  0  0  0
  -19.4680   -6.8440   -1.1660 C   0  0  0  0  0
  -19.8700   -8.1600   -1.8410 C   0  0  0  0  0
  -19.0570   -9.0720   -2.0210 O   0  0  0  0  0
  -20.4210   -6.5160   -0.0130 C   0  0  0  0  0
  -20.5140   -5.0230   -0.0240 C   0  0  0  0  0
  -20.4800   -4.6510   -1.4800 C   0  0  0  0  0
  -21.0140   -8.3370   -2.2570 O   0  0  0  0  0
  -16.2944    4.9237   36.7661 H   0  0  0  0  0
  -15.1170    5.0231   35.4339 H   0  0  0  0  0
  -16.7598    5.6762   35.2207 H   0  0  0  0  0
  -17.9107    4.4249   33.8575 H   0  0  0  0  0
  -17.9793    1.5159   34.4689 H   0  0  0  0  0
  -19.8207    1.4493   32.8725 H   0  0  0  0  0
  -19.5475    3.2369   32.5469 H   0  0  0  0  0
  -20.1499    3.6827   34.8996 H   0  0  0  0  0
  -21.8106    3.7846   33.0751 H   0  0  0  0  0
  -22.1678    2.0560   33.3107 H   0  0  0  0  0
  -22.5505    3.2274   34.5961 H   0  0  0  0  0
  -20.8318    0.7246   34.9369 H   0  0  0  0  0
  -19.5008    1.5014   35.8290 H   0  0  0  0  0
  -21.1904    1.9019   36.2240 H   0  0  0  0  0
  -15.4971    0.3010   31.0493 H   0  0  0  0  0
  -16.1520   -1.9502   30.2999 H   0  0  0  0  0
  -17.7573   -1.4679   29.9634 H   0  0  0  0  0
  -16.5226   -2.0406   32.6920 H   0  0  0  0  0
  -18.0067   -2.6549   32.0554 H   0  0  0  0  0
  -19.1612   -0.5769   32.3720 H   0  0  0  0  0
  -18.1324   -0.5821   33.7226 H   0  0  0  0  0
  -14.9536    0.9029   29.0865 H   0  0  0  0  0
  -16.8578    2.3131   27.3695 H   0  0  0  0  0
  -15.0798    2.4680   25.8299 H   0  0  0  0  0
  -14.1301    1.1802   26.7927 H   0  0  0  0  0
  -13.8303    2.7340   28.5276 H   0  0  0  0  0
  -12.1418    2.6580   26.7627 H   0  0  0  0  0
  -13.0342    3.8860   25.8318 H   0  0  0  0  0
  -12.2950    4.3161   27.3937 H   0  0  0  0  0
  -15.2342    4.7588   26.7618 H   0  0  0  0  0
  -15.8285    4.1015   28.3064 H   0  0  0  0  0
  -14.3739    5.1283   28.2765 H   0  0  0  0  0
  -18.0728    1.5095   25.7720 H   0  0  0  0  0
  -17.9078   -1.3930   25.2978 H   0  0  0  0  0
  -20.1411   -0.6175   25.6501 H   0  0  0  0  0
  -19.9971   -1.0033   23.8863 H   0  0  0  0  0
  -19.7138    0.8776   22.2496 H   0  0  0  0  0
  -20.6658    1.5621   26.3785 H   0  0  0  0  0
  -20.3692    3.1975   21.7104 H   0  0  0  0  0
  -21.3798    3.8646   25.8241 H   0  0  0  0  0
  -21.5687    5.3893   24.2244 H   0  0  0  0  0
  -16.3336    1.1669   24.0097 H   0  0  0  0  0
  -16.5499    0.4602   21.1728 H   0  0  0  0  0
  -14.5367    2.1149   21.0370 H   0  0  0  0  0
  -14.3968    3.4393   22.9703 H   0  0  0  0  0
  -16.8699    2.7558   20.4969 H   0  0  0  0  0
  -17.1872    3.0627   22.2221 H   0  0  0  0  0
  -16.0265    4.0812   21.3353 H   0  0  0  0  0
  -16.0201   -1.8986   21.6439 H   0  0  0  0  0
  -13.3544   -2.5577   22.4737 H   0  0  0  0  0
  -14.9197   -4.2928   22.6191 H   0  0  0  0  0
  -13.7764   -4.7682   21.3093 H   0  0  0  0  0
  -15.9680   -5.1107   20.7609 H   0  0  0  0  0
  -10.8352   -1.5800   18.9676 H   0  0  0  0  0
   -8.8137   -2.9236   19.2139 H   0  0  0  0  0
   -9.6885   -4.3731   19.4752 H   0  0  0  0  0
   -9.2393   -2.0877   21.4794 H   0  0  0  0  0
   -9.0261   -3.7631   21.7563 H   0  0  0  0  0
  -11.3945   -4.1863   21.9421 H   0  0  0  0  0
  -11.3650   -2.5766   22.5129 H   0  0  0  0  0
  -10.9352   -1.6919   16.9001 H   0  0  0  0  0
  -11.9002   -4.1485   15.6076 H   0  0  0  0  0
  -13.5400   -1.5800   15.5393 H   0  0  0  0  0
  -14.0058   -3.0935   16.3706 H   0  0  0  0  0
  -14.9341   -2.9051   14.2694 H   0  0  0  0  0
  -11.3310   -4.2422   13.5019 H   0  0  0  0  0
  -10.0538   -1.7751   12.3397 H   0  0  0  0  0
   -9.0706   -3.2717   10.7123 H   0  0  0  0  0
   -9.8300   -4.6813   11.6371 H   0  0  0  0  0
   -8.4666   -3.9212   13.5747 H   0  0  0  0  0
   -7.9012   -5.8866   12.2674 H   0  0  0  0  0
   -7.0070   -4.8769   11.1046 H   0  0  0  0  0
   -6.4295   -5.0264   12.7825 H   0  0  0  0  0
   -7.0251   -2.2913   11.4426 H   0  0  0  0  0
   -7.9415   -1.6432   12.8251 H   0  0  0  0  0
   -6.4459   -2.5689   13.1035 H   0  0  0  0  0
  -13.6615   -1.5608    9.8565 H   0  0  0  0  0
  -12.9933    0.8046    9.5922 H   0  0  0  0  0
  -12.8821    0.2965    7.9694 H   0  0  0  0  0
  -10.6439    1.2676    8.9973 H   0  0  0  0  0
  -10.4715   -0.1958    8.1470 H   0  0  0  0  0
   -9.5922   -0.8162   10.3290 H   0  0  0  0  0
  -10.6915    0.1748   11.1707 H   0  0  0  0  0
  -14.6137   -1.9015    7.8965 H   0  0  0  0  0
  -13.3945   -3.8824    6.1596 H   0  0  0  0  0
  -15.8272   -2.1159    5.7817 H   0  0  0  0  0
  -15.8013   -3.7522    6.5746 H   0  0  0  0  0
  -17.0105   -4.6888    3.3487 H   0  0  0  0  0
  -17.5233   -4.1338    4.9456 H   0  0  0  0  0
  -11.9517   -3.5514    4.6244 H   0  0  0  0  0
  -11.8046   -0.7737    3.6114 H   0  0  0  0  0
   -9.3594   -1.2117    3.1180 H   0  0  0  0  0
   -9.5254   -3.6711    3.1626 H   0  0  0  0  0
   -9.6786   -3.5550    4.9783 H   0  0  0  0  0
  -10.0805    0.0916    5.0550 H   0  0  0  0  0
  -10.2710   -1.4006    6.0080 H   0  0  0  0  0
   -8.6533   -0.8911    5.4653 H   0  0  0  0  0
   -7.2957   -2.6502    3.3082 H   0  0  0  0  0
   -7.4452   -2.5370    5.0791 H   0  0  0  0  0
   -7.3727   -4.1326    4.2918 H   0  0  0  0  0
  -13.2306   -3.2147    2.5206 H   0  0  0  0  0
  -11.7875   -3.8587    0.1171 H   0  0  0  0  0
  -13.7212   -5.2087   -0.5135 H   0  0  0  0  0
  -15.6858   -5.0152    0.7547 H   0  0  0  0  0
  -12.3592   -6.1632    1.2884 H   0  0  0  0  0
  -13.3545   -5.3281    2.5061 H   0  0  0  0  0
  -14.0706   -6.6088    1.4972 H   0  0  0  0  0
  -12.3619   -3.5010   -2.0553 H   0  0  0  0  0
  -14.1765   -1.1508   -2.5182 H   0  0  0  0  0
  -12.9904   -0.7658   -4.5557 H   0  0  0  0  0
  -11.8393   -2.1646   -4.0984 H   0  0  0  0  0
  -11.1421   -0.7811   -2.1946 H   0  0  0  0  0
   -9.8065   -0.9671   -4.2337 H   0  0  0  0  0
  -10.7106    0.3811   -4.9657 H   0  0  0  0  0
   -9.6744    0.6704   -3.5466 H   0  0  0  0  0
  -12.6772    1.4446   -3.5809 H   0  0  0  0  0
  -13.0456    0.7301   -1.9919 H   0  0  0  0  0
  -11.5394    1.6507   -2.2267 H   0  0  0  0  0
  -15.1992   -1.2667   -4.7528 H   0  0  0  0  0
  -15.7741   -3.9219   -5.8160 H   0  0  0  0  0
  -16.6168   -2.3984   -6.2167 H   0  0  0  0  0
  -18.2383   -4.5023   -6.0401 H   0  0  0  0  0
  -19.8475   -3.7873   -3.7203 H   0  0  0  0  0
  -21.4111   -5.4795   -4.5312 H   0  0  0  0  0
  -20.1847   -5.9341   -5.8113 H   0  0  0  0  0
  -20.3598   -3.6520   -6.6882 H   0  0  0  0  0
  -21.6501   -5.4600   -7.6772 H   0  0  0  0  0
  -22.9737   -5.1677   -6.5223 H   0  0  0  0  0
  -22.5613   -3.9311   -7.7355 H   0  0  0  0  0
  -22.6384   -3.3516   -4.7103 H   0  0  0  0  0
  -21.0850   -2.4815   -4.6794 H   0  0  0  0  0
  -22.2322   -2.2082   -6.0136 H   0  0  0  0  0
  -18.4335   -6.9664   -0.8451 H   0  0  0  0  0
  -18.2065   -8.8177   -1.6555 H   0  0  0  0  0
  -20.0575   -6.8976    0.9411 H   0  0  0  0  0
  -21.3951   -6.9888   -0.1385 H   0  0  0  0  0
  -19.6999   -4.5601    0.5337 H   0  0  0  0  0
  -21.4205   -4.6678    0.4661 H   0  0  0  0  0
  -21.4754   -4.5800   -1.9184 H   0  0  0  0  0
  -20.0599   -3.6597   -1.6502 H   0  0  0  0  0
  1  2  2  0  0  0
  1  3  1  0  0  0
  1  4  1  0  0  0
  4  5  1  0  0  0
  5  6  1  0  0  0
  5  8  1  0  0  0
  6  7  2  0  0  0
  6 12  1  0  0  0
  8  9  1  0  0  0
  9 10  1  0  0  0
  9 11  1  0  0  0
 12 13  1  0  0  0
 12 18  1  0  0  0
 13 14  1  0  0  0
 13 16  1  0  0  0
 14 15  2  0  0  0
 14 19  1  0  0  0
 16 17  1  0  0  0
 17 18  1  0  0  0
 19 20  1  0  0  0
 20 21  1  0  0  0
 20 23  1  0  0  0
 21 22  2  0  0  0
 21 27  1  0  0  0
 23 24  1  0  0  0
 24 25  1  0  0  0
 24 26  1  0  0  0
 27 28  1  0  0  0
 28 29  1  0  0  0
 28 31  1  0  0  0
 29 30  2  0  0  0
 29 39  1  0  0  0
 31 32  1  0  0  0
 32 33  4  0  0  0
 32 34  4  0  0  0
 33 35  4  0  0  0
 34 36  4  0  0  0
 35 37  4  0  0  0
 36 37  4  0  0  0
 37 38  1  0  0  0
 39 40  1  0  0  0
 40 41  1  0  0  0
 40 43  1  0  0  0
 41 42  2  0  0  0
 41 46  1  0  0  0
 43 44  1  0  0  0
 43 45  1  0  0  0
 46 47  1  0  0  0
 47 48  1  0  0  0
 47 50  1  0  0  0
 48 49  2  0  0  0
 48 52  1  0  0  0
 50 51  1  0  0  0
 52 53  1  0  0  0
 52 58  1  0  0  0
 53 54  1  0  0  0
 53 56  1  0  0  0
 54 55  2  0  0  0
 54 59  1  0  0  0
 56 57  1  0  0  0
 57 58  1  0  0  0
 59 60  1  0  0  0
 60 61  1  0  0  0
 60 63  1  0  0  0
 61 62  2  0  0  0
 61 65  1  0  0  0
 63 64  1  0  0  0
 65 66  1  0  0  0
 66 67  1  0  0  0
 66 69  1  0  0  0
 67 68  2  0  0  0
 67 73  1  0  0  0
 69 70  1  0  0  0
 70 71  1  0  0  0
 70 72  1  0  0  0
 73 74  1  0  0  0
 73 79  1  0  0  0
 74 75  1  0  0  0
 74 77  1  0  0  0
 75 76  2  0  0  0
 75 80  1  0  0  0
 77 78  1  0  0  0
 78 79  1  0  0  0
 80 81  1  0  0  0
 81 82  1  0  0  0
 81 84  1  0  0  0
 82 83  2  0  0  0
 82 88  1  0  0  0
 84 85  1  0  0  0
 85 86  2  0  0  0
 85 87  1  0  0  0
 88 89  1  0  0  0
 89 90  1  0  0  0
 89 92  1  0  0  0
 90 91  2  0  0  0
 90 96  1  0  0  0
 92 93  1  0  0  0
 92 94  1  0  0  0
 93 95  1  0  0  0
 96 97  1  0  0  0
 97 98  1  0  0  0
 97100  1  0  0  0
 98 99  2  0  0  0
 98103  1  0  0  0
100101  1  0  0  0
100102  1  0  0  0
103104  1  0  0  0
104105  1  0  0  0
104107  1  0  0  0
105106  2  0  0  0
105111  1  0  0  0
107108  1  0  0  0
108109  1  0  0  0
108110  1  0  0  0
111112  1  0  0  0
112113  1  0  0  0
113114  2  0  0  0
113115  1  0  0  0
115116  1  0  0  0
116117  1  0  0  0
116119  1  0  0  0
117118  2  0  0  0
117123  1  0  0  0
119120  1  0  0  0
120121  1  0  0  0
120122  1  0  0  0
123124  1  0  0  0
123129  1  0  0  0
124125  1  0  0  0
124127  1  0  0  0
125126  1  0  0  0
125130  2  0  0  0
127128  1  0  0  0
128129  1  0  0  0
  3131  1  0  0  0
  3132  1  0  0  0
  3133  1  0  0  0
  4134  1  0  0  0
  5135  1  0  0  0
  8136  1  0  0  0
  8137  1  0  0  0
  9138  1  0  0  0
 10139  1  0  0  0
 10140  1  0  0  0
 10141  1  0  0  0
 11142  1  0  0  0
 11143  1  0  0  0
 11144  1  0  0  0
 13145  1  0  0  0
 16146  1  0  0  0
 16147  1  0  0  0
 17148  1  0  0  0
 17149  1  0  0  0
 18150  1  0  0  0
 18151  1  0  0  0
 19152  1  0  0  0
 20153  1  0  0  0
 23154  1  0  0  0
 23155  1  0  0  0
 24156  1  0  0  0
 25157  1  0  0  0
 25158  1  0  0  0
 25159  1  0  0  0
 26160  1  0  0  0
 26161  1  0  0  0
 26162  1  0  0  0
 27163  1  0  0  0
 28164  1  0  0  0
 31165  1  0  0  0
 31166  1  0  0  0
 33167  1  0  0  0
 34168  1  0  0  0
 35169  1  0  0  0
 36170  1  0  0  0
 38171  1  0  0  0
 39172  1  0  0  0
 40173  1  0  0  0
 43174  1  0  0  0
 44175  1  0  0  0
 45176  1  0  0  0
 45177  1  0  0  0
 45178  1  0  0  0
 46179  1  0  0  0
 47180  1  0  0  0
 50181  1  0  0  0
 50182  1  0  0  0
 51183  1  0  0  0
 53184  1  0  0  0
 56185  1  0  0  0
 56186  1  0  0  0
 57187  1  0  0  0
 57188  1  0  0  0
 58189  1  0  0  0
 58190  1  0  0  0
 59191  1  0  0  0
 60192  1  0  0  0
 63193  1  0  0  0
 63194  1  0  0  0
 64195  1  0  0  0
 65196  1  0  0  0
 66197  1  0  0  0
 69198  1  0  0  0
 69199  1  0  0  0
 70200  1  0  0  0
 71201  1  0  0  0
 71202  1  0  0  0
 71203  1  0  0  0
 72204  1  0  0  0
 72205  1  0  0  0
 72206  1  0  0  0
 74207  1  0  0  0
 77208  1  0  0  0
 77209  1  0  0  0
 78210  1  0  0  0
 78211  1  0  0  0
 79212  1  0  0  0
 79213  1  0  0  0
 80214  1  0  0  0
 81215  1  0  0  0
 84216  1  0  0  0
 84217  1  0  0  0
 87218  1  0  0  0
 87219  1  0  0  0
 88220  1  0  0  0
 89221  1  0  0  0
 92222  1  0  0  0
 93223  1  0  0  0
 93224  1  0  0  0
 94225  1  0  0  0
 94226  1  0  0  0
 94227  1  0  0  0
 95228  1  0  0  0
 95229  1  0  0  0
 95230  1  0  0  0
 96231  1  0  0  0
 97232  1  0  0  0
100233  1  0  0  0
101234  1  0  0  0
102235  1  0  0  0
102236  1  0  0  0
102237  1  0  0  0
103238  1  0  0  0
104239  1  0  0  0
107240  1  0  0  0
107241  1  0  0  0
108242  1  0  0  0
109243  1  0  0  0
109244  1  0  0  0
109245  1  0  0  0
110246  1  0  0  0
110247  1  0  0  0
110248  1  0  0  0
111249  1  0  0  0
112250  1  0  0  0
112251  1  0  0  0
115252  1  0  0  0
116253  1  0  0  0
119254  1  0  0  0
119255  1  0  0  0
120256  1  0  0  0
121257  1  0  0  0
121258  1  0  0  0
121259  1  0  0  0
122260  1  0  0  0
122261  1  0  0  0
122262  1  0  0  0
124263  1  0  0  0
126264  1  0  0  0
127265  1  0  0  0
127266  1  0  0  0
128267  1  0  0  0
128268  1  0  0  0
129269  1  0  0  0
129270  1  0  0  0
M  END
$$$$
