### 
### Created by X-TOOL on Mon Sep 10 21:12:45 2018
### 

@<TRIPOS>MOLECULE
1epp_ligand
  104   104     1     0     0
SMALL
GAST_HUCK


@<TRIPOS>ATOM
      1 H1          3.3535   24.2824   21.9229 H         1 1Z1         0.0442
      2 H2          3.0135   26.0043   22.3047 H         1 1Z1         0.0442
      3 H3          4.4027   25.5756   21.2497 H         1 1Z1         0.0442
      4 H4          0.9973   24.1166   21.2049 H         1 1Z1         0.0442
      5 H5          0.3563   25.3066   20.0218 H         1 1Z1         0.0442
      6 H6          0.8545   25.8483   21.6604 H         1 1Z1         0.0442
      7 H7          4.4099   26.3672   18.4405 H         1 1Z1         0.1721
      8 H8          4.1259   29.1842   19.1846 H         1 1Z1         0.0777
      9 H9          5.9787   29.4622   17.4028 H         1 1Z1         0.0470
     10 H10         5.9285   27.6784   17.1973 H         1 1Z1         0.0470
     11 H11         6.4468   26.3051   19.3357 H         1 1Z1         0.0557
     12 H12         7.2771   30.4492   19.0288 H         1 1Z1         0.0557
     13 H13         8.0299   26.0133   21.2337 H         1 1Z1         0.0599
     14 H14         8.8728   30.2086   20.9047 H         1 1Z1         0.0599
     15 H15         9.2732   28.0429   22.0160 H         1 1Z1         0.0559
     16 H16         3.4675   30.8074   17.8768 H         1 1Z1         0.1883
     17 H17         2.6787   30.3127   15.1633 H         1 1Z1         0.0800
     18 H18         0.5796   31.9080   15.8925 H         1 1Z1         0.0312
     19 H19         0.6515   30.5911   17.1121 H         1 1Z1         0.0312
     20 H20         0.6699   28.8917   15.4065 H         1 1Z1         0.0268
     21 H21         0.9717   30.0989   14.1110 H         1 1Z1         0.0268
     22 H22        -1.5333   29.4615   14.3234 H         1 1Z1         0.0286
     23 H23        -1.2429   31.2107   14.6111 H         1 1Z1         0.0286
     24 H24        -0.5904   30.1234   17.1017 H         1 1Z1         0.0542
     25 H25        -1.9192   29.0305   16.5853 H         1 1Z1         0.0542
     26 H26        -2.3775   31.9898   16.4487 H         1 1Z1         0.1973
     27 H27         4.2294   31.4216   14.1891 H         1 1Z1         0.1856
     28 H28         4.5851   34.2758   15.2241 H         1 1Z1         0.0583
     29 H29         6.9863   34.0145   15.0755 H         1 1Z1         0.0291
     30 H30         6.8043   32.3553   14.4118 H         1 1Z1         0.0291
     31 H31         5.9248   31.6571   16.5777 H         1 1Z1         0.0296
     32 H32         8.0283   31.6227   17.8247 H         1 1Z1         0.0232
     33 H33         8.7112   32.8441   16.6985 H         1 1Z1         0.0232
     34 H34         8.2568   31.2162   16.0900 H         1 1Z1         0.0232
     35 H35         5.2529   33.9582   17.5517 H         1 1Z1         0.0232
     36 H36         6.9953   34.3669   17.7049 H         1 1Z1         0.0232
     37 H37         6.3019   33.0159   18.6644 H         1 1Z1         0.0232
     38 H38         5.7645   34.6097   12.9227 H         1 1Z1         0.0642
     39 H39         5.4384   32.8014   11.4990 H         1 1Z1         0.2101
     40 H40         2.8572   33.5892   13.0927 H         1 1Z1         0.0529
     41 H41         3.5553   34.1290   11.5281 H         1 1Z1         0.0529
     42 H42         4.0902   36.5299   11.2660 H         1 1Z1         0.1851
     43 H43         4.8543   38.1155   13.4124 H         1 1Z1         0.0522
     44 H44         3.0620   38.1518   13.5272 H         1 1Z1         0.0522
     45 H45         4.7839   39.1420   11.1660 H         1 1Z1         0.0317
     46 H46         2.6060   39.7391   10.1453 H         1 1Z1         0.0233
     47 H47         1.7348   39.0075   11.5354 H         1 1Z1         0.0233
     48 H48         2.6777   37.9650   10.4171 H         1 1Z1         0.0233
     49 H49         4.1600   40.3465   13.5901 H         1 1Z1         0.0266
     50 H50         2.6213   40.6771   12.7242 H         1 1Z1         0.0266
     51 H51         4.2165   42.5487   12.4675 H         1 1Z1         0.0230
     52 H52         3.8852   41.7558   10.8901 H         1 1Z1         0.0230
     53 H53         5.4239   41.4251   11.7560 H         1 1Z1         0.0230
     54 H54        -2.7923   28.5470   17.7707 H         1 1Z1         0.1969
     55 H55        -4.5884   27.7995   19.1654 H         1 1Z1         0.0506
     56 H56        -5.5807   29.0424   18.3305 H         1 1Z1         0.0506
     57 H57        -4.6308   29.4831   19.7900 H         1 1Z1         0.0506
     58 S           2.5630   27.0290   19.7660 S.o2      1 1Z1         0.1200
     59 O1          2.9330   27.8050   21.0240 O.2       1 1Z1        -0.1352
     60 O2          1.3660   27.5080   19.2970 O.2       1 1Z1        -0.1352
     61 N           2.4870   25.4020   20.3270 N.am      1 1Z1        -0.2281
     62 C1          3.3730   25.3100   21.5310 C.3       1 1Z1         0.0191
     63 C2          1.0760   25.1510   20.8390 C.3       1 1Z1         0.0191
     64 N           3.9000   27.1710   18.7470 N.am      1 1Z1        -0.2113
     65 CA          4.2750   28.4980   18.3380 C.3       1 1Z1         0.1370
     66 C           3.4770   28.9910   17.1450 C.2       1 1Z1         0.2021
     67 O           3.0630   28.1880   16.3340 O.2       1 1Z1        -0.3947
     68 CB          5.7680   28.5060   17.9040 C.3       1 1Z1         0.0179
     69 CG          6.7390   28.3460   19.0560 C.ar      1 1Z1        -0.0390
     70 CD1         6.9860   27.1770   19.6880 C.ar      1 1Z1        -0.0601
     71 CD2         7.4330   29.4840   19.4970 C.ar      1 1Z1        -0.0601
     72 CE1         7.8860   26.9830   20.7710 C.ar      1 1Z1        -0.0686
     73 CE2         8.3320   29.3350   20.5590 C.ar      1 1Z1        -0.0686
     74 CZ          8.5660   28.1080   21.1970 C.ar      1 1Z1        -0.0687
     75 N           3.1770   30.2500   17.0990 N.am      1 1Z1        -0.2639
     76 CA          2.4710   30.9310   16.0490 C.3       1 1Z1         0.1308
     77 C           3.1160   32.2470   15.7100 C.2       1 1Z1         0.2020
     78 O           2.7850   33.2590   16.2730 O.2       1 1Z1        -0.3945
     79 CB          0.9780   30.9060   16.1100 C.3       1 1Z1        -0.0123
     80 CG          0.4810   29.9250   15.0800 C.3       1 1Z1        -0.0469
     81 CD         -1.0370   30.1940   14.9770 C.3       1 1Z1        -0.0308
     82 CE         -1.4680   30.0240   16.4460 C.3       1 1Z1         0.0365
     83 NZ         -2.4360   31.0460   16.7740 N.am      1 1Z1        -0.2826
     84 N           4.0980   32.2220   14.7740 N.am      1 1Z1        -0.2794
     85 CA          4.9880   33.4360   14.6390 C.3       1 1Z1         0.0703
     86 CB          6.3970   33.0870   15.1250 C.3       1 1Z1        -0.0250
     87 CG          6.6100   32.5140   16.4990 C.3       1 1Z1        -0.0446
     88 CD1         7.9940   32.0160   16.7980 C.3       1 1Z1        -0.0626
     89 CD2         6.2620   33.5470   17.7020 C.3       1 1Z1        -0.0626
     90 CH          5.0380   33.8050   13.1090 C.3       1 1Z1         0.0946
     91 OH          5.3950   32.6280   12.4320 O.3       1 1Z1        -0.3872
     92 CM          3.6240   34.2220   12.6220 C.3       1 1Z1         0.0654
     93 C           3.4380   35.6740   13.0400 C.2       1 1Z1         0.1785
     94 O           2.9290   35.9070   14.1210 O.2       1 1Z1        -0.3970
     95 N           3.8490   36.6850   12.2240 N.am      1 1Z1        -0.2866
     96 C1          3.9160   38.0280   12.8450 C.3       1 1Z1         0.0334
     97 C2          3.8700   39.1310   11.7780 C.3       1 1Z1        -0.0239
     98 C2'         2.6370   38.9480   10.9090 C.3       1 1Z1        -0.0606
     99 C3          3.6940   40.4670   12.6010 C.3       1 1Z1        -0.0515
    100 C4          4.3500   41.6290   11.8790 C.3       1 1Z1        -0.0650
    101 C          -3.4860   30.5610   17.6140 C.2       1 1Z1         0.1357
    102 S          -4.7240   31.5600   18.1150 S.2       1 1Z1        -0.3119
    103 N          -3.4980   29.2060   18.0310 N.am      1 1Z1        -0.2857
    104 CM         -4.6470   28.8610   18.8830 C.3       1 1Z1         0.0253
@<TRIPOS>BOND
     1   62    1 1  
     2   62    2 1  
     3   62    3 1  
     4   63    4 1  
     5   63    5 1  
     6   63    6 1  
     7   64    7 1  
     8   65    8 1  
     9   68    9 1  
    10   68   10 1  
    11   70   11 1  
    12   71   12 1  
    13   72   13 1  
    14   73   14 1  
    15   74   15 1  
    16   75   16 1  
    17   76   17 1  
    18   79   18 1  
    19   79   19 1  
    20   80   20 1  
    21   80   21 1  
    22   81   22 1  
    23   81   23 1  
    24   82   24 1  
    25   82   25 1  
    26   83   26 1  
    27   84   27 1  
    28   85   28 1  
    29   86   29 1  
    30   86   30 1  
    31   87   31 1  
    32   88   32 1  
    33   88   33 1  
    34   88   34 1  
    35   89   35 1  
    36   89   36 1  
    37   89   37 1  
    38   90   38 1  
    39   91   39 1  
    40   92   40 1  
    41   92   41 1  
    42   95   42 1  
    43   96   43 1  
    44   96   44 1  
    45   97   45 1  
    46   98   46 1  
    47   98   47 1  
    48   98   48 1  
    49   99   49 1  
    50   99   50 1  
    51  100   51 1  
    52  100   52 1  
    53  100   53 1  
    54  103   54 1  
    55  104   55 1  
    56  104   56 1  
    57  104   57 1  
    58   65   64 1  
    59   65   68 1  
    60   66   65 1  
    61   66   67 2  
    62   68   69 1  
    63   69   70 ar 
    64   69   71 ar 
    65   71   73 ar 
    66   73   74 ar 
    67   72   74 ar 
    68   70   72 ar 
    69   76   75 1  
    70   79   76 1  
    71   76   77 1  
    72   77   78 2  
    73   80   79 1  
    74   81   80 1  
    75   82   81 1  
    76   83   82 1  
    77   75   66 am 
    78   58   59 2  
    79   58   60 2  
    80   58   61 am 
    81   64   58 am 
    82   61   62 1  
    83   61   63 1  
    84   77   84 am 
    85  101   83 am 
    86   84   85 1  
    87   85   86 1  
    88   85   90 1  
    89   86   87 1  
    90   87   88 1  
    91   87   89 1  
    92   90   91 1  
    93   90   92 1  
    94   92   93 1  
    95   93   94 2  
    96   93   95 am 
    97   95   96 1  
    98   96   97 1  
    99   97   98 1  
   100   97   99 1  
   101   99  100 1  
   102  101  102 2  
   103  103  101 am 
   104  103  104 1  
@<TRIPOS>SUBSTRUCTURE
     1 1Z1         1

