1epp_ligand
  -I-interpret- 

104104  0  0  0  0  0  0  0  0999 V2000
    2.5630   27.0290   19.7660 S   0  0  0  0  0
    2.9330   27.8050   21.0240 O   0  0  0  0  0
    1.3660   27.5080   19.2970 O   0  0  0  0  0
    2.4870   25.4020   20.3270 N   0  0  0  0  0
    3.3730   25.3100   21.5310 C   0  0  0  0  0
    1.0760   25.1510   20.8390 C   0  0  0  0  0
    3.9000   27.1710   18.7470 N   0  0  0  0  0
    4.2750   28.4980   18.3380 C   0  0  0  0  0
    3.4770   28.9910   17.1450 C   0  0  0  0  0
    3.0630   28.1880   16.3340 O   0  0  0  0  0
    5.7680   28.5060   17.9040 C   0  0  0  0  0
    6.7390   28.3460   19.0560 C   0  0  0  0  0
    6.9860   27.1770   19.6880 C   0  0  0  0  0
    7.4330   29.4840   19.4970 C   0  0  0  0  0
    7.8860   26.9830   20.7710 C   0  0  0  0  0
    8.3320   29.3350   20.5590 C   0  0  0  0  0
    8.5660   28.1080   21.1970 C   0  0  0  0  0
    3.1770   30.2500   17.0990 N   0  0  0  0  0
    2.4710   30.9310   16.0490 C   0  0  0  0  0
    3.1160   32.2470   15.7100 C   0  0  0  0  0
    2.7850   33.2590   16.2730 O   0  0  0  0  0
    0.9780   30.9060   16.1100 C   0  0  0  0  0
    0.4810   29.9250   15.0800 C   0  0  0  0  0
   -1.0370   30.1940   14.9770 C   0  0  0  0  0
   -1.4680   30.0240   16.4460 C   0  0  0  0  0
   -2.4360   31.0460   16.7740 N   0  0  0  0  0
    4.0980   32.2220   14.7740 N   0  0  0  0  0
    4.9880   33.4360   14.6390 C   0  0  0  0  0
    6.3970   33.0870   15.1250 C   0  0  0  0  0
    6.6100   32.5140   16.4990 C   0  0  0  0  0
    7.9940   32.0160   16.7980 C   0  0  0  0  0
    6.2620   33.5470   17.7020 C   0  0  0  0  0
    5.0380   33.8050   13.1090 C   0  0  0  0  0
    5.3950   32.6280   12.4320 O   0  0  0  0  0
    3.6240   34.2220   12.6220 C   0  0  0  0  0
    3.4380   35.6740   13.0400 C   0  0  0  0  0
    2.9290   35.9070   14.1210 O   0  0  0  0  0
    3.8490   36.6850   12.2240 N   0  0  0  0  0
    3.9160   38.0280   12.8450 C   0  0  0  0  0
    3.8700   39.1310   11.7780 C   0  0  0  0  0
    2.6370   38.9480   10.9090 C   0  0  0  0  0
    3.6940   40.4670   12.6010 C   0  0  0  0  0
    4.3500   41.6290   11.8790 C   0  0  0  0  0
   -3.4860   30.5610   17.6140 C   0  0  0  0  0
   -4.7240   31.5600   18.1150 S   0  0  0  0  0
   -3.4980   29.2060   18.0310 N   0  0  0  0  0
   -4.6470   28.8610   18.8830 C   0  0  0  0  0
    3.0736   26.0637   22.2593 H   0  0  0  0  0
    3.2805   24.3182   21.9737 H   0  0  0  0  0
    4.4074   25.4813   21.2332 H   0  0  0  0  0
    1.0269   24.1622   21.2950 H   0  0  0  0  0
    0.8200   25.9077   21.5806 H   0  0  0  0  0
    0.3741   25.2040   20.0068 H   0  0  0  0  0
    4.4200   26.3511   18.4344 H   0  0  0  0  0
    4.0848   29.1468   19.1930 H   0  0  0  0  0
    5.9675   29.4728   17.4419 H   0  0  0  0  0
    5.9166   27.6599   17.2331 H   0  0  0  0  0
    6.4438   26.3003   19.3337 H   0  0  0  0  0
    7.2762   30.4545   19.0262 H   0  0  0  0  0
    8.0307   26.0080   21.2363 H   0  0  0  0  0
    8.8757   30.2134   20.9066 H   0  0  0  0  0
    9.2771   28.0425   22.0205 H   0  0  0  0  0
    3.4733   30.8185   17.8923 H   0  0  0  0  0
    2.5989   30.3082   15.1636 H   0  0  0  0  0
    0.5780   31.8991   15.9053 H   0  0  0  0  0
    0.6486   30.6044   17.1043 H   0  0  0  0  0
    0.6915   28.8947   15.3668 H   0  0  0  0  0
    0.9818   30.0559   14.1208 H   0  0  0  0  0
   -1.5560   29.5296   14.2862 H   0  0  0  0  0
   -1.2839   31.1685   14.5557 H   0  0  0  0  0
   -0.5990   30.1184   17.0972 H   0  0  0  0  0
   -1.9120   29.0386   16.5870 H   0  0  0  0  0
   -2.3764   32.0087   16.4422 H   0  0  0  0  0
    4.2320   31.4056   14.1774 H   0  0  0  0  0
    4.6080   34.2695   15.2298 H   0  0  0  0  0
    6.9173   34.0445   15.1497 H   0  0  0  0  0
    6.7256   32.2963   14.4504 H   0  0  0  0  0
    5.9163   31.6739   16.4664 H   0  0  0  0  0
    8.2532   31.2236   16.0958 H   0  0  0  0  0
    8.7036   32.8374   16.6990 H   0  0  0  0  0
    8.0267   31.6266   17.8155 H   0  0  0  0  0
    6.8969   34.4289   17.6169 H   0  0  0  0  0
    5.2153   33.8433   17.6334 H   0  0  0  0  0
    6.4410   33.0600   18.6606 H   0  0  0  0  0
    5.7372   34.6219   12.9304 H   0  0  0  0  0
    5.4388   32.8033   11.4892 H   0  0  0  0  0
    2.8552   33.5864   13.0613 H   0  0  0  0  0
    3.5333   34.1108   11.5415 H   0  0  0  0  0
    4.0951   36.5268   11.2468 H   0  0  0  0  0
    4.8534   38.1125   13.3948 H   0  0  0  0  0
    3.0606   38.1488   13.5097 H   0  0  0  0  0
    4.7539   39.1238   11.1402 H   0  0  0  0  0
    2.6785   37.9736   10.4222 H   0  0  0  0  0
    1.7438   39.0071   11.5309 H   0  0  0  0  0
    2.6074   39.7324   10.1528 H   0  0  0  0  0
    4.1652   40.3458   13.5764 H   0  0  0  0  0
    2.6300   40.6757   12.7125 H   0  0  0  0  0
    5.4140   41.4257   11.7577 H   0  0  0  0  0
    3.8886   41.7535   10.8994 H   0  0  0  0  0
    4.2171   42.5397   12.4630 H   0  0  0  0  0
   -2.7782   28.5338   17.7655 H   0  0  0  0  0
   -4.6298   29.4781   19.7813 H   0  0  0  0  0
   -5.5715   29.0412   18.3345 H   0  0  0  0  0
   -4.5878   27.8090   19.1621 H   0  0  0  0  0
  8  7  1  0  0  0
  8 11  1  0  0  0
  9  8  1  0  0  0
  9 10  2  0  0  0
 11 12  1  0  0  0
 12 13  4  0  0  0
 12 14  4  0  0  0
 14 16  4  0  0  0
 16 17  4  0  0  0
 15 17  4  0  0  0
 13 15  4  0  0  0
 19 18  1  0  0  0
 22 19  1  0  0  0
 19 20  1  0  0  0
 20 21  2  0  0  0
 23 22  1  0  0  0
 24 23  1  0  0  0
 25 24  1  0  0  0
 26 25  1  0  0  0
 18  9  1  0  0  0
  1  2  2  0  0  0
  1  3  2  0  0  0
  1  4  1  0  0  0
  7  1  1  0  0  0
  4  5  1  0  0  0
  4  6  1  0  0  0
 20 27  1  0  0  0
 44 26  1  0  0  0
 27 28  1  0  0  0
 28 29  1  0  0  0
 28 33  1  0  0  0
 29 30  1  0  0  0
 30 31  1  0  0  0
 30 32  1  0  0  0
 33 34  1  0  0  0
 33 35  1  0  0  0
 35 36  1  0  0  0
 36 37  2  0  0  0
 36 38  1  0  0  0
 38 39  1  0  0  0
 39 40  1  0  0  0
 40 41  1  0  0  0
 40 42  1  0  0  0
 42 43  1  0  0  0
 44 45  2  0  0  0
 46 44  1  0  0  0
 46 47  1  0  0  0
  5 48  1  0  0  0
  5 49  1  0  0  0
  5 50  1  0  0  0
  6 51  1  0  0  0
  6 52  1  0  0  0
  6 53  1  0  0  0
  7 54  1  0  0  0
  8 55  1  0  0  0
 11 56  1  0  0  0
 11 57  1  0  0  0
 13 58  1  0  0  0
 14 59  1  0  0  0
 15 60  1  0  0  0
 16 61  1  0  0  0
 17 62  1  0  0  0
 18 63  1  0  0  0
 19 64  1  0  0  0
 22 65  1  0  0  0
 22 66  1  0  0  0
 23 67  1  0  0  0
 23 68  1  0  0  0
 24 69  1  0  0  0
 24 70  1  0  0  0
 25 71  1  0  0  0
 25 72  1  0  0  0
 26 73  1  0  0  0
 27 74  1  0  0  0
 28 75  1  0  0  0
 29 76  1  0  0  0
 29 77  1  0  0  0
 30 78  1  0  0  0
 31 79  1  0  0  0
 31 80  1  0  0  0
 31 81  1  0  0  0
 32 82  1  0  0  0
 32 83  1  0  0  0
 32 84  1  0  0  0
 33 85  1  0  0  0
 34 86  1  0  0  0
 35 87  1  0  0  0
 35 88  1  0  0  0
 38 89  1  0  0  0
 39 90  1  0  0  0
 39 91  1  0  0  0
 40 92  1  0  0  0
 41 93  1  0  0  0
 41 94  1  0  0  0
 41 95  1  0  0  0
 42 96  1  0  0  0
 42 97  1  0  0  0
 43 98  1  0  0  0
 43 99  1  0  0  0
 43100  1  0  0  0
 46101  1  0  0  0
 47102  1  0  0  0
 47103  1  0  0  0
 47104  1  0  0  0
M  END
$$$$
