3h0s_ligand
  -I-interpret- 

 48 52  0  0  0  0  0  0  0  0999 V2000
    5.9620   28.5060   20.9620 C   0  0  0  0  0
    4.5020   30.6440   18.0100 C   0  0  0  0  0
    6.9980   31.0010   18.5030 C   0  0  0  0  0
    6.1290   31.0880   22.3840 C   0  0  0  0  0
    5.7590   32.3850   16.9030 C   0  0  0  0  0
    6.8940   28.7000   22.1880 C   0  0  0  0  0
    6.9520   34.2860   15.6850 C   0  0  0  0  0
    5.7920   29.7940   20.1100 C   0  0  0  0  0
    7.0360   30.0080   19.3730 O   0  0  0  0  0
    4.6830   29.5370   19.0550 C   0  0  0  0  0
    5.3240   30.9470   21.0670 C   0  0  0  0  0
    5.7770   31.3800   17.7450 C   0  0  0  0  0
    8.0960   31.6790   18.3080 C   0  0  0  0  0
    3.3900   31.1840   17.7910 O   0  0  0  0  0
    8.0950   32.8120   17.3250 C   0  0  0  0  0
    6.9930   33.1390   16.6620 C   0  0  0  0  0
    6.3460   29.7750   23.0600 N   0  0  0  0  0
    5.3600   30.5870   25.2420 C   0  0  0  0  0
    5.2910   32.7490   26.3790 C   0  0  0  0  0
    3.3630   31.2570   26.4710 C   0  0  0  0  0
    4.0420   30.3320   25.6840 C   0  0  0  0  0
    6.0470   29.5450   24.3940 C   0  0  0  0  0
    3.9830   32.4680   26.8070 C   0  0  0  0  0
    6.0000   31.8040   25.6020 C   0  0  0  0  0
    7.2350   32.3440   25.3530 N   0  0  0  0  0
    7.3220   33.5500   25.9270 N   0  0  0  0  0
    6.1570   33.8350   26.5700 C   0  0  0  0  0
    6.3100   28.4740   24.9370 O   0  0  0  0  0
    4.9775   28.2268   21.3373 H   0  0  0  0  0
    6.4113   27.7454   20.3235 H   0  0  0  0  0
    5.5607   31.7263   23.0605 H   0  0  0  0  0
    7.1050   31.5076   22.1400 H   0  0  0  0  0
    4.8374   32.6567   16.3883 H   0  0  0  0  0
    7.8906   28.9804   21.8470 H   0  0  0  0  0
    6.9531   27.7688   22.7514 H   0  0  0  0  0
    6.6536   33.9157   14.7042 H   0  0  0  0  0
    6.2322   35.0288   16.0287 H   0  0  0  0  0
    7.9407   34.7401   15.6180 H   0  0  0  0  0
    4.9732   28.6386   18.5103 H   0  0  0  0  0
    3.7426   29.4678   19.6018 H   0  0  0  0  0
    5.4590   31.8795   20.5191 H   0  0  0  0  0
    4.2980   30.7159   21.3533 H   0  0  0  0  0
    9.0045   31.4245   18.8539 H   0  0  0  0  0
    9.0125   33.3747   17.1528 H   0  0  0  0  0
    2.3547   31.0409   26.8241 H   0  0  0  0  0
    3.5515   29.3994   25.4050 H   0  0  0  0  0
    3.4438   33.2006   27.4076 H   0  0  0  0  0
    5.9370   34.7429   27.1316 H   0  0  0  0  0
  6  1  1  0  0  0
  1  8  1  0  0  0
 10  2  1  0  0  0
  2 12  1  0  0  0
  2 14  2  0  0  0
  9  3  1  0  0  0
  3 12  4  0  0  0
  3 13  4  0  0  0
  4 11  1  0  0  0
 17  4  1  0  0  0
 12  5  4  0  0  0
  5 16  4  0  0  0
 17  6  1  0  0  0
 16  7  1  0  0  0
  8  9  1  0  0  0
  8 10  1  0  0  0
 11  8  1  0  0  0
 13 15  4  0  0  0
 15 16  4  0  0  0
 22 17  1  0  0  0
 18 21  4  0  0  0
 18 22  1  0  0  0
 24 18  4  0  0  0
 19 23  4  0  0  0
 19 24  4  0  0  0
 19 27  4  0  0  0
 21 20  4  0  0  0
 20 23  4  0  0  0
 22 28  2  0  0  0
 24 25  4  0  0  0
 25 26  4  0  0  0
 26 27  4  0  0  0
  1 29  1  0  0  0
  1 30  1  0  0  0
  4 31  1  0  0  0
  4 32  1  0  0  0
  5 33  1  0  0  0
  6 34  1  0  0  0
  6 35  1  0  0  0
  7 36  1  0  0  0
  7 37  1  0  0  0
  7 38  1  0  0  0
 10 39  1  0  0  0
 10 40  1  0  0  0
 11 41  1  0  0  0
 11 42  1  0  0  0
 13 43  1  0  0  0
 15 44  1  0  0  0
 20 45  1  0  0  0
 21 46  1  0  0  0
 23 47  1  0  0  0
 27 48  1  0  0  0
M  END
$$$$
