### 
### Created by X-TOOL on Mon Sep 10 21:13:07 2018
### 

@<TRIPOS>MOLECULE
3pj1_ligand
   63    66     1     0     0
SMALL
GAST_HUCK


@<TRIPOS>ATOM
      1 N1        -21.0620    4.9110  -18.9260 N.ar      1 LHL        -0.2833
      2 C2        -19.8070    5.3620  -19.1740 C.ar      1 LHL         0.1806
      3 N2        -19.4460    5.5690  -20.4630 N.pl3     1 LHL        -0.2549
      4 N3        -18.9550    5.6060  -18.1530 N.ar      1 LHL        -0.2456
      5 C4        -19.3310    5.3980  -16.8730 C.ar      1 LHL         0.1509
      6 C5        -17.0800    6.1510  -16.0980 C.3       1 LHL         0.0505
      7 N5        -18.4340    5.6570  -15.8140 N.am      1 LHL        -0.1839
      8 C6        -18.8470    5.4200  -14.4810 C.2       1 LHL         0.3311
      9 O6        -18.0620    5.6360  -13.5280 O.2       1 LHL        -0.3766
     10 N7        -20.1550    4.9570  -14.2290 N.am      1 LHL        -0.1879
     11 C8        -21.0340    4.7140  -15.3010 C.3       1 LHL         0.0920
     12 C9        -20.6180    4.9360  -16.6110 C.ar      1 LHL         0.0439
     13 C10       -21.4820    4.6970  -17.6720 C.ar      1 LHL        -0.0000
     14 C21       -18.2090    5.8720  -20.9360 C.ar      1 LHL         0.0533
     15 C22       -17.2980    6.6400  -20.2080 C.ar      1 LHL        -0.0465
     16 C23       -16.0450    6.9440  -20.7430 C.ar      1 LHL        -0.0421
     17 C24       -15.7010    6.4920  -22.0140 C.ar      1 LHL         0.0794
     18 O24       -14.4610    6.8120  -22.5170 O.3       1 LHL        -0.3274
     19 C25       -16.6120    5.7310  -22.7510 C.ar      1 LHL        -0.0421
     20 C26       -17.8620    5.4250  -22.2130 C.ar      1 LHL        -0.0465
     21 C27       -14.0920    6.5170  -23.8660 C.3       1 LHL         0.0496
     22 C28       -12.7620    7.1900  -24.2170 C.3       1 LHL        -0.0850
     23 N28       -11.6060    6.8010  -23.3730 N.4       1 LHL         0.4043
     24 C29       -11.3920    7.7960  -22.3030 C.3       1 LHL        -0.1158
     25 C30       -10.2090    8.6870  -22.6280 C.3       1 LHL        -0.0840
     26 C31       -11.7340    5.4550  -22.7830 C.3       1 LHL        -0.1158
     27 C32       -10.6400    4.5420  -23.2920 C.3       1 LHL        -0.0840
     28 C71       -20.5540    4.6950  -12.9080 C.ar      1 LHL         0.1005
     29 C72       -20.5060    3.3710  -12.4950 C.ar      1 LHL         0.0602
     30 CL72      -19.9750    2.1150  -13.6650 Cl        1 LHL        -0.0831
     31 C73       -20.8670    3.0280  -11.1930 C.ar      1 LHL        -0.0615
     32 C74       -21.2780    4.0230  -10.3030 C.ar      1 LHL        -0.0761
     33 C75       -21.3190    5.3540  -10.7190 C.ar      1 LHL        -0.0615
     34 C76       -20.9500    5.6770  -12.0210 C.ar      1 LHL         0.0602
     35 CL76      -20.9940    7.3610  -12.5880 Cl        1 LHL        -0.0831
     36 H         -20.1879    5.4881  -21.1583 H         1 LHL         0.2129
     37 H         -16.9352    7.1131  -15.6067 H         1 LHL         0.0561
     38 H         -16.3477    5.4361  -15.7228 H         1 LHL         0.0561
     39 H         -16.9560    6.2690  -17.1745 H         1 LHL         0.0561
     40 H         -21.8474    5.4238  -15.1509 H         1 LHL         0.0722
     41 H         -21.2270    3.6422  -15.2558 H         1 LHL         0.0722
     42 H         -22.4942    4.3380  -17.4857 H         1 LHL         0.0760
     43 H         -17.5667    7.0042  -19.2164 H         1 LHL         0.0510
     44 H         -15.3352    7.5359  -20.1650 H         1 LHL         0.0515
     45 H         -16.3458    5.3763  -23.7467 H         1 LHL         0.0515
     46 H         -18.5716    4.8340  -22.7921 H         1 LHL         0.0510
     47 H         -14.8663    6.8920  -24.5352 H         1 LHL         0.0589
     48 H         -13.9829    5.4380  -23.9757 H         1 LHL         0.0589
     49 H         -12.9076    8.2601  -24.0692 H         1 LHL         0.0043
     50 H         -12.5193    6.8848  -25.2349 H         1 LHL         0.0043
     51 H         -11.1916    7.2712  -21.3689 H         1 LHL         0.0014
     52 H         -12.2849    8.4147  -22.2136 H         1 LHL         0.0014
     53 H          -9.3117    8.0760  -22.7261 H         1 LHL         0.0210
     54 H         -10.3973    9.2114  -23.5648 H         1 LHL         0.0210
     55 H         -10.0706    9.4119  -21.8258 H         1 LHL         0.0210
     56 H         -12.7008    5.0374  -23.0641 H         1 LHL         0.0014
     57 H         -11.6499    5.5357  -21.6993 H         1 LHL         0.0014
     58 H         -10.7120    4.4603  -24.3765 H         1 LHL         0.0210
     59 H          -9.6684    4.9552  -23.0212 H         1 LHL         0.0210
     60 H         -10.7543    3.5551  -22.8437 H         1 LHL         0.0210
     61 H         -20.8287    1.9874  -10.8707 H         1 LHL         0.0584
     62 H         -21.5662    3.7600   -9.2852 H         1 LHL         0.0488
     63 H         -21.6378    6.1352  -10.0290 H         1 LHL         0.0584
@<TRIPOS>BOND
     1    1    2 ar 
     2    1   13 ar 
     3    2    3 1  
     4    2    4 ar 
     5    3   14 1  
     6    4    5 ar 
     7    5    7 1  
     8    5   12 ar 
     9    7    6 1  
    10    7    8 am 
    11    8    9 2  
    12    8   10 am 
    13   10   11 1  
    14   10   28 1  
    15   11   12 1  
    16   12   13 ar 
    17   14   15 ar 
    18   14   20 ar 
    19   15   16 ar 
    20   16   17 ar 
    21   17   18 1  
    22   17   19 ar 
    23   18   21 1  
    24   19   20 ar 
    25   21   22 1  
    26   22   23 1  
    27   23   24 1  
    28   23   26 1  
    29   24   25 1  
    30   26   27 1  
    31   28   29 ar 
    32   28   34 ar 
    33   29   30 1  
    34   29   31 ar 
    35   31   32 ar 
    36   32   33 ar 
    37   33   34 ar 
    38   34   35 1  
    39    3   36 1  
    40    6   37 1  
    41    6   38 1  
    42    6   39 1  
    43   11   40 1  
    44   11   41 1  
    45   13   42 1  
    46   15   43 1  
    47   16   44 1  
    48   19   45 1  
    49   20   46 1  
    50   21   47 1  
    51   21   48 1  
    52   22   49 1  
    53   22   50 1  
    54   24   51 1  
    55   24   52 1  
    56   25   53 1  
    57   25   54 1  
    58   25   55 1  
    59   26   56 1  
    60   26   57 1  
    61   27   58 1  
    62   27   59 1  
    63   27   60 1  
    64   31   61 1  
    65   32   62 1  
    66   33   63 1  
@<TRIPOS>SUBSTRUCTURE
     1 LHL         1

