3pj1_ligand
  -I-interpret- 

 64 67  0  0  0  0  0  0  0  0999 V2000
  -21.0620    4.9110  -18.9260 N   0  0  0  0  0
  -19.8070    5.3620  -19.1740 C   0  0  0  0  0
  -19.4460    5.5690  -20.4630 N   0  0  0  0  0
  -18.9550    5.6060  -18.1530 N   0  0  0  0  0
  -19.3310    5.3980  -16.8730 C   0  0  0  0  0
  -17.0800    6.1510  -16.0980 C   0  0  0  0  0
  -18.4340    5.6570  -15.8140 N   0  0  0  0  0
  -18.8470    5.4200  -14.4810 C   0  0  0  0  0
  -18.0620    5.6360  -13.5280 O   0  0  0  0  0
  -20.1550    4.9570  -14.2290 N   0  0  0  0  0
  -21.0340    4.7140  -15.3010 C   0  0  0  0  0
  -20.6180    4.9360  -16.6110 C   0  0  0  0  0
  -21.4820    4.6970  -17.6720 C   0  0  0  0  0
  -18.2090    5.8720  -20.9360 C   0  0  0  0  0
  -17.2980    6.6400  -20.2080 C   0  0  0  0  0
  -16.0450    6.9440  -20.7430 C   0  0  0  0  0
  -15.7010    6.4920  -22.0140 C   0  0  0  0  0
  -14.4610    6.8120  -22.5170 O   0  0  0  0  0
  -16.6120    5.7310  -22.7510 C   0  0  0  0  0
  -17.8620    5.4250  -22.2130 C   0  0  0  0  0
  -14.0920    6.5170  -23.8660 C   0  0  0  0  0
  -12.7620    7.1900  -24.2170 C   0  0  0  0  0
  -11.6060    6.8010  -23.3730 N   0  3  0  0  0
  -11.3920    7.7960  -22.3030 C   0  0  0  0  0
  -10.2090    8.6870  -22.6280 C   0  0  0  0  0
  -11.7340    5.4550  -22.7830 C   0  0  0  0  0
  -10.6400    4.5420  -23.2920 C   0  0  0  0  0
  -20.5540    4.6950  -12.9080 C   0  0  0  0  0
  -20.5060    3.3710  -12.4950 C   0  0  0  0  0
  -19.9750    2.1150  -13.6650 Cl  0  0  0  0  0
  -20.8670    3.0280  -11.1930 C   0  0  0  0  0
  -21.2780    4.0230  -10.3030 C   0  0  0  0  0
  -21.3190    5.3540  -10.7190 C   0  0  0  0  0
  -20.9500    5.6770  -12.0210 C   0  0  0  0  0
  -20.9940    7.3610  -12.5880 Cl  0  0  0  0  0
  -20.1879    5.4881  -21.1583 H   0  0  0  0  0
  -16.9352    7.1131  -15.6067 H   0  0  0  0  0
  -16.3477    5.4361  -15.7228 H   0  0  0  0  0
  -16.9560    6.2690  -17.1745 H   0  0  0  0  0
  -21.8474    5.4238  -15.1509 H   0  0  0  0  0
  -21.2270    3.6422  -15.2558 H   0  0  0  0  0
  -22.4942    4.3380  -17.4857 H   0  0  0  0  0
  -17.5667    7.0042  -19.2164 H   0  0  0  0  0
  -15.3352    7.5359  -20.1650 H   0  0  0  0  0
  -16.3458    5.3763  -23.7467 H   0  0  0  0  0
  -18.5716    4.8340  -22.7921 H   0  0  0  0  0
  -14.8663    6.8920  -24.5352 H   0  0  0  0  0
  -13.9829    5.4380  -23.9757 H   0  0  0  0  0
  -12.9076    8.2601  -24.0692 H   0  0  0  0  0
  -12.5193    6.8848  -25.2349 H   0  0  0  0  0
  -10.7982    6.7745  -23.9952 H   0  0  0  0  0
  -11.1916    7.2712  -21.3689 H   0  0  0  0  0
  -12.2849    8.4147  -22.2136 H   0  0  0  0  0
   -9.3117    8.0760  -22.7261 H   0  0  0  0  0
  -10.3973    9.2114  -23.5648 H   0  0  0  0  0
  -10.0706    9.4119  -21.8258 H   0  0  0  0  0
  -12.7008    5.0374  -23.0641 H   0  0  0  0  0
  -11.6499    5.5357  -21.6993 H   0  0  0  0  0
  -10.7120    4.4603  -24.3765 H   0  0  0  0  0
   -9.6684    4.9552  -23.0212 H   0  0  0  0  0
  -10.7543    3.5551  -22.8437 H   0  0  0  0  0
  -20.8287    1.9874  -10.8707 H   0  0  0  0  0
  -21.5662    3.7600   -9.2852 H   0  0  0  0  0
  -21.6378    6.1352  -10.0290 H   0  0  0  0  0
  1  2  4  0  0  0
  1 13  4  0  0  0
  2  3  1  0  0  0
  2  4  4  0  0  0
  3 14  1  0  0  0
  4  5  4  0  0  0
  5  7  1  0  0  0
  5 12  4  0  0  0
  7  6  1  0  0  0
  7  8  1  0  0  0
  8  9  2  0  0  0
  8 10  1  0  0  0
 10 11  1  0  0  0
 10 28  1  0  0  0
 11 12  1  0  0  0
 12 13  4  0  0  0
 14 15  4  0  0  0
 14 20  4  0  0  0
 15 16  4  0  0  0
 16 17  4  0  0  0
 17 18  1  0  0  0
 17 19  4  0  0  0
 18 21  1  0  0  0
 19 20  4  0  0  0
 21 22  1  0  0  0
 22 23  1  0  0  0
 23 24  1  0  0  0
 23 26  1  0  0  0
 24 25  1  0  0  0
 26 27  1  0  0  0
 28 29  4  0  0  0
 28 34  4  0  0  0
 29 30  1  0  0  0
 29 31  4  0  0  0
 31 32  4  0  0  0
 32 33  4  0  0  0
 33 34  4  0  0  0
 34 35  1  0  0  0
  3 36  1  0  0  0
  6 37  1  0  0  0
  6 38  1  0  0  0
  6 39  1  0  0  0
 11 40  1  0  0  0
 11 41  1  0  0  0
 13 42  1  0  0  0
 15 43  1  0  0  0
 16 44  1  0  0  0
 19 45  1  0  0  0
 20 46  1  0  0  0
 21 47  1  0  0  0
 21 48  1  0  0  0
 22 49  1  0  0  0
 22 50  1  0  0  0
 23 51  1  0  0  0
 24 52  1  0  0  0
 24 53  1  0  0  0
 25 54  1  0  0  0
 25 55  1  0  0  0
 25 56  1  0  0  0
 26 57  1  0  0  0
 26 58  1  0  0  0
 27 59  1  0  0  0
 27 60  1  0  0  0
 27 61  1  0  0  0
 31 62  1  0  0  0
 32 63  1  0  0  0
 33 64  1  0  0  0
M  END
$$$$
