5kr1_ligand
  -I-interpret- 

 73 76  0  0  0  0  0  0  0  0999 V2000
  -10.3220   -7.9870  -17.8700 N   0  0  0  0  0
   -9.5960   -6.9780  -17.1550 C   0  0  0  0  0
   -8.4720   -7.3600  -16.4440 C   0  0  0  0  0
   -7.7500   -6.4090  -15.7380 C   0  0  0  0  0
   -8.1580   -5.0840  -15.7410 C   0  0  0  0  0
   -9.2830   -4.6860  -16.4510 C   0  0  0  0  0
  -10.0090   -5.6520  -17.1670 C   0  0  0  0  0
   -7.1370   -3.9150  -14.8100 S   0  0  0  0  0
   -7.9170   -2.8380  -14.2920 O   0  0  0  0  0
   -6.4820   -4.6090  -13.7510 O   0  0  0  0  0
   -5.9610   -3.2900  -15.8390 N   0  0  0  0  0
   -5.0990   -4.2670  -16.5160 C   0  0  0  0  0
   -3.5910   -3.8980  -16.5190 C   0  0  0  0  0
   -3.0520   -3.9650  -15.0970 C   0  0  0  0  0
   -2.8540   -4.8860  -17.3940 C   0  0  0  0  0
   -6.2730   -1.9850  -16.4750 C   0  0  0  0  0
   -5.3710   -0.8830  -15.9180 C   0  0  0  0  0
   -5.2990    0.1790  -16.8160 O   0  0  0  0  0
   -5.8370   -0.3700  -14.5590 C   0  0  0  0  0
   -4.8500    0.5530  -14.1160 N   0  0  0  0  0
   -3.8770    0.2420  -13.1050 C   0  0  0  0  0
   -3.8590   -0.8110  -12.4820 O   0  0  0  0  0
   -2.9270    1.2790  -12.9030 O   0  0  0  0  0
   -2.1350    1.2880  -11.7600 C   0  0  0  0  0
   -0.8400    1.8660  -12.1530 C   0  0  0  0  0
   -1.0550    3.1620  -12.1270 O   0  0  0  0  0
   -2.0650    3.4060  -10.9330 C   0  0  0  0  0
   -3.1020    4.3440  -11.5050 O   0  0  0  0  0
   -4.3970    3.5940  -11.4960 C   0  0  0  0  0
   -4.2030    2.5770  -10.7420 C   0  0  0  0  0
   -2.6200    2.3070  -10.6820 C   0  0  0  0  0
   -7.1470    0.4130  -14.5830 C   0  0  0  0  0
   -7.4160    2.1630  -12.9130 C   0  0  0  0  0
   -7.6690    2.6970  -11.6440 C   0  0  0  0  0
   -7.9770    1.8500  -10.5880 C   0  0  0  0  0
   -8.0340    0.4760  -10.7990 C   0  0  0  0  0
   -7.7790   -0.0590  -12.0630 C   0  0  0  0  0
   -7.4730    0.7880  -13.1220 C   0  0  0  0  0
  -10.0059   -8.9565  -17.8457 H   0  0  0  0  0
  -11.1545   -7.7352  -18.4029 H   0  0  0  0  0
   -8.1555   -8.4030  -16.4387 H   0  0  0  0  0
   -6.8610   -6.7037  -15.1803 H   0  0  0  0  0
   -9.5972   -3.6423  -16.4527 H   0  0  0  0  0
  -10.8952   -5.3614  -17.7312 H   0  0  0  0  0
   -5.4200   -4.3098  -17.5568 H   0  0  0  0  0
   -5.1969   -5.2086  -15.9757 H   0  0  0  0  0
   -3.4510   -2.8882  -16.9047 H   0  0  0  0  0
   -3.5986   -3.2614  -14.4691 H   0  0  0  0  0
   -3.1796   -4.9755  -14.7087 H   0  0  0  0  0
   -1.9932   -3.7060  -15.0986 H   0  0  0  0  0
   -2.9895   -5.8922  -16.9974 H   0  0  0  0  0
   -3.2504   -4.8374  -18.4082 H   0  0  0  0  0
   -1.7926   -4.6383  -17.4051 H   0  0  0  0  0
   -7.3117   -1.7300  -16.2649 H   0  0  0  0  0
   -6.1063   -2.0676  -17.5490 H   0  0  0  0  0
   -4.3844   -1.3253  -15.7797 H   0  0  0  0  0
   -4.7306    0.8635  -16.4554 H   0  0  0  0  0
   -5.9868   -1.2459  -13.9278 H   0  0  0  0  0
   -4.8317    1.4820  -14.5367 H   0  0  0  0  0
   -2.1347    0.2702  -11.3699 H   0  0  0  0  0
   -0.5107    1.5193  -13.1325 H   0  0  0  0  0
   -0.0318    1.5657  -11.4861 H   0  0  0  0  0
   -1.5924    3.7994  -10.0330 H   0  0  0  0  0
   -5.3145    3.8583  -12.0218 H   0  0  0  0  0
   -4.9735    1.9984  -10.2324 H   0  0  0  0  0
   -2.3745    1.8957   -9.7029 H   0  0  0  0  0
   -7.9477   -0.1867  -15.0158 H   0  0  0  0  0
   -7.0515    1.3070  -15.1993 H   0  0  0  0  0
   -7.1730    2.8276  -13.7421 H   0  0  0  0  0
   -7.6243    3.7745  -11.4855 H   0  0  0  0  0
   -8.1734    2.2599   -9.5973 H   0  0  0  0  0
   -8.2798   -0.1883   -9.9705 H   0  0  0  0  0
   -7.8197   -1.1370  -12.2190 H   0  0  0  0  0
  2  1  1  0  0  0
  3  2  4  0  0  0
  7  2  4  0  0  0
  4  3  4  0  0  0
  5  4  4  0  0  0
  5  6  4  0  0  0
  8  5  1  0  0  0
  6  7  4  0  0  0
  8  9  2  0  0  0
  8 10  2  0  0  0
 11  8  1  0  0  0
 11 12  1  0  0  0
 16 11  1  0  0  0
 12 13  1  0  0  0
 13 14  1  0  0  0
 13 15  1  0  0  0
 17 16  1  0  0  0
 17 18  1  0  0  0
 19 17  1  0  0  0
 19 20  1  0  0  0
 32 19  1  0  0  0
 20 21  1  0  0  0
 21 22  2  0  0  0
 21 23  1  0  0  0
 23 24  1  0  0  0
 24 25  1  0  0  0
 24 31  1  0  0  0
 25 26  1  0  0  0
 27 26  1  0  0  0
 27 28  1  0  0  0
 31 27  1  0  0  0
 29 28  1  0  0  0
 30 29  2  0  0  0
 31 30  1  0  0  0
 38 32  1  0  0  0
 33 34  4  0  0  0
 33 38  4  0  0  0
 34 35  4  0  0  0
 35 36  4  0  0  0
 36 37  4  0  0  0
 37 38  4  0  0  0
  1 39  1  0  0  0
  1 40  1  0  0  0
  3 41  1  0  0  0
  4 42  1  0  0  0
  6 43  1  0  0  0
  7 44  1  0  0  0
 12 45  1  0  0  0
 12 46  1  0  0  0
 13 47  1  0  0  0
 14 48  1  0  0  0
 14 49  1  0  0  0
 14 50  1  0  0  0
 15 51  1  0  0  0
 15 52  1  0  0  0
 15 53  1  0  0  0
 16 54  1  0  0  0
 16 55  1  0  0  0
 17 56  1  0  0  0
 18 57  1  0  0  0
 19 58  1  0  0  0
 20 59  1  0  0  0
 24 60  1  0  0  0
 25 61  1  0  0  0
 25 62  1  0  0  0
 27 63  1  0  0  0
 29 64  1  0  0  0
 30 65  1  0  0  0
 31 66  1  0  0  0
 32 67  1  0  0  0
 32 68  1  0  0  0
 33 69  1  0  0  0
 34 70  1  0  0  0
 35 71  1  0  0  0
 36 72  1  0  0  0
 37 73  1  0  0  0
M  END
$$$$
