1ik4_ligand
  -I-interpret- 

 16 15  0  0  0  0  0  0  0  0999 V2000
   86.1180  -15.6070   65.3720 C   0  0  0  0  0
   85.7010  -14.6110   66.4400 C   0  0  0  0  0
   87.2920  -16.1290   65.5670 N   0  0  0  0  0
   87.7330  -17.0480   64.6530 O   0  0  0  0  0
   85.2920  -15.8030   64.4670 O   0  0  0  0  0
   84.9090  -13.6700   65.7870 O   0  0  0  0  0
   82.6140  -12.9430   66.6190 O   0  0  0  0  0
   84.7290  -12.3590   68.3190 O   0  0  0  0  0
   84.1870  -11.0950   65.8320 O   0  0  0  0  0
   84.2080  -12.4360   66.7460 P   0  0  0  0  0
   86.5672  -14.1451   66.9098 H   0  0  0  0  0
   85.1554  -15.0987   67.2479 H   0  0  0  0  0
   87.8628  -15.8643   66.3698 H   0  0  0  0  0
   88.6059  -17.3565   64.9067 H   0  0  0  0  0
   82.4938  -13.7478   67.1284 H   0  0  0  0  0
   84.6786  -13.2322   68.7147 H   0  0  0  0  0
  1  5  2  0  0  0
  1  3  1  0  0  0
  1  2  1  0  0  0
  2  6  1  0  0  0
  6 10  1  0  0  0
 10  7  1  0  0  0
 10  8  1  0  0  0
 10  9  2  0  0  0
  3  4  1  0  0  0
  2 11  1  0  0  0
  2 12  1  0  0  0
  3 13  1  0  0  0
  4 14  1  0  0  0
  7 15  1  0  0  0
  8 16  1  0  0  0
M  END
$$$$
