1elr_ligand
  -I-interpret- 

 86 85  0  0  0  0  0  0  0  0999 V2000
   29.7870    6.1460   14.2530 C   0  0  0  0  0
   29.5220    5.6090   13.1770 O   0  0  0  0  0
   31.0170    7.0030   14.4080 C   0  0  0  0  0
   29.0240    6.0220   15.3310 N   0  0  0  0  0
   27.8120    5.2070   15.3320 C   0  0  0  0  0
   26.6740    5.8570   14.5360 C   0  0  0  0  0
   26.6340    7.0800   14.3640 O   0  0  0  0  0
   27.3210    5.0030   16.7750 C   0  0  0  0  0
   28.3160    4.3950   17.7330 C   0  0  0  0  0
   27.6370    4.3870   19.4090 S   0  0  0  0  0
   26.4770    3.0390   19.2830 C   0  0  0  0  0
   25.7430    5.0300   14.0640 N   0  0  0  0  0
   24.5780    5.5300   13.3420 C   0  0  0  0  0
   23.8740    6.5100   14.2830 C   0  0  0  0  0
   23.8990    6.3250   15.4980 O   0  0  0  0  0
   23.6290    4.3700   12.9940 C   0  0  0  0  0
   24.1060    3.5000   11.8420 C   0  0  0  0  0
   24.1450    4.2770   10.5440 C   0  0  0  0  0
   23.0660    4.5980   10.0060 O   0  0  0  0  0
   25.2520    4.5890   10.0680 O   0  0  0  0  0
   23.2470    7.5410   13.7280 N   0  0  0  0  0
   22.5480    8.5480   14.5320 C   0  0  0  0  0
   21.1190    8.1540   14.8850 C   0  0  0  0  0
   20.3790    7.6990   14.0230 O   0  0  0  0  0
   22.4880    9.8810   13.7700 C   0  0  0  0  0
   23.8170   10.6070   13.6400 C   0  0  0  0  0
   23.7290   11.8320   12.7290 C   0  0  0  0  0
   22.7620   12.6220   12.8640 O   0  0  0  0  0
   24.6360   12.0030   11.8820 O   0  0  0  0  0
   20.7260    8.3320   16.1460 N   0  0  0  0  0
   19.3450    8.0420   16.5340 C   0  0  0  0  0
   18.6250    9.3680   16.7440 C   0  0  0  0  0
   19.2470   10.3740   17.1100 O   0  0  0  0  0
   19.2250    7.1830   17.8150 C   0  0  0  0  0
   19.6210    5.7350   17.5080 C   0  0  0  0  0
   20.0750    7.7570   18.9310 C   0  0  0  0  0
   17.3160    9.3620   16.5120 N   0  0  0  0  0
   16.4950   10.5580   16.6300 C   0  0  0  0  0
   15.5980   10.5480   17.8720 C   0  0  0  0  0
   15.4870    9.4870   18.5080 O   0  0  0  0  0
   15.6340   10.6840   15.3730 C   0  0  0  0  0
   16.4670   10.7630   14.1100 C   0  0  0  0  0
   17.1010   11.8130   13.8980 O   0  0  0  0  0
   16.5050    9.7720   13.3360 O   0  0  0  0  0
   15.0060   11.6050   18.1750 O   0  0  0  0  0
   31.9036    6.4056   14.1957 H   0  0  0  0  0
   30.9656    7.8395   13.7111 H   0  0  0  0  0
   31.0682    7.3815   15.4289 H   0  0  0  0  0
   29.2919    6.5107   16.1853 H   0  0  0  0  0
   28.0710    4.2573   14.8640 H   0  0  0  0  0
   26.4854    4.3054   16.7181 H   0  0  0  0  0
   27.0899    5.9952   17.1627 H   0  0  0  0  0
   29.2322    4.9853   17.7204 H   0  0  0  0  0
   28.5277    3.3704   17.4273 H   0  0  0  0  0
   25.7409    3.2656   18.5117 H   0  0  0  0  0
   27.0106    2.1255   19.0206 H   0  0  0  0  0
   25.9727    2.9046   20.2400 H   0  0  0  0  0
   25.8466    4.0259   14.2103 H   0  0  0  0  0
   24.8718    6.0115   12.4093 H   0  0  0  0  0
   22.6788    4.8108   12.6925 H   0  0  0  0  0
   23.5649    3.7311   13.8748 H   0  0  0  0  0
   23.4125    2.6671   11.7265 H   0  0  0  0  0
   25.1134    3.1495   12.0665 H   0  0  0  0  0
   22.3357    4.2611   10.5301 H   0  0  0  0  0
   23.2520    7.6349   12.7123 H   0  0  0  0  0
   23.1173    8.6368   15.4573 H   0  0  0  0  0
   21.8252   10.5367   14.3347 H   0  0  0  0  0
   22.1552    9.6503   12.7580 H   0  0  0  0  0
   24.5369    9.9146   13.2036 H   0  0  0  0  0
   24.1129   10.9468   14.6325 H   0  0  0  0  0
   22.1873   12.3057   13.5649 H   0  0  0  0  0
   21.3895    8.6712   16.8425 H   0  0  0  0  0
   18.8953    7.4553   15.7330 H   0  0  0  0  0
   18.1887    7.1958   18.1526 H   0  0  0  0  0
   18.9590    5.3335   16.7408 H   0  0  0  0  0
   20.6506    5.7091   17.1511 H   0  0  0  0  0
   19.5341    5.1359   18.4145 H   0  0  0  0  0
   21.1188    7.7768   18.6175 H   0  0  0  0  0
   19.7422    8.7705   19.1549 H   0  0  0  0  0
   19.9731    7.1350   19.8203 H   0  0  0  0  0
   16.8699    8.4857   16.2409 H   0  0  0  0  0
   17.1642   11.4118   16.7360 H   0  0  0  0  0
   15.0527   11.6026   15.4523 H   0  0  0  0  0
   15.0021    9.7984   15.3061 H   0  0  0  0  0
   15.9471    9.0731   13.6851 H   0  0  0  0  0
   15.2397   12.2926   17.5472 H   0  0  0  0  0
  1  2  2  0  0  0
  1  3  1  0  0  0
  5  4  1  0  0  0
  5  8  1  0  0  0
  6  5  1  0  0  0
  6  7  2  0  0  0
  8  9  1  0  0  0
  9 10  1  0  0  0
 10 11  1  0  0  0
  4  1  1  0  0  0
 13 12  1  0  0  0
 13 16  1  0  0  0
 14 13  1  0  0  0
 14 15  2  0  0  0
 16 17  1  0  0  0
 17 18  1  0  0  0
 18 20  2  0  0  0
 18 19  1  0  0  0
 12  6  1  0  0  0
 22 21  1  0  0  0
 22 25  1  0  0  0
 23 22  1  0  0  0
 23 24  2  0  0  0
 25 26  1  0  0  0
 26 27  1  0  0  0
 27 29  2  0  0  0
 27 28  1  0  0  0
 21 14  1  0  0  0
 31 30  1  0  0  0
 31 34  1  0  0  0
 32 31  1  0  0  0
 32 33  2  0  0  0
 34 36  1  0  0  0
 34 35  1  0  0  0
 30 23  1  0  0  0
 37 38  1  0  0  0
 38 41  1  0  0  0
 38 39  1  0  0  0
 39 40  2  0  0  0
 39 45  1  0  0  0
 41 42  1  0  0  0
 42 43  2  0  0  0
 42 44  1  0  0  0
 32 37  1  0  0  0
  3 46  1  0  0  0
  3 47  1  0  0  0
  3 48  1  0  0  0
  4 49  1  0  0  0
  5 50  1  0  0  0
  8 51  1  0  0  0
  8 52  1  0  0  0
  9 53  1  0  0  0
  9 54  1  0  0  0
 11 55  1  0  0  0
 11 56  1  0  0  0
 11 57  1  0  0  0
 12 58  1  0  0  0
 13 59  1  0  0  0
 16 60  1  0  0  0
 16 61  1  0  0  0
 17 62  1  0  0  0
 17 63  1  0  0  0
 19 64  1  0  0  0
 21 65  1  0  0  0
 22 66  1  0  0  0
 25 67  1  0  0  0
 25 68  1  0  0  0
 26 69  1  0  0  0
 26 70  1  0  0  0
 28 71  1  0  0  0
 30 72  1  0  0  0
 31 73  1  0  0  0
 34 74  1  0  0  0
 35 75  1  0  0  0
 35 76  1  0  0  0
 35 77  1  0  0  0
 36 78  1  0  0  0
 36 79  1  0  0  0
 36 80  1  0  0  0
 37 81  1  0  0  0
 38 82  1  0  0  0
 41 83  1  0  0  0
 41 84  1  0  0  0
 44 85  1  0  0  0
 45 86  1  0  0  0
M  END
$$$$
