6hqy_ligand
  -I-interpret- 

 36 38  0  0  0  0  0  0  0  0999 V2000
   41.8470   37.5780   91.9670 C   0  0  0  0  0
   42.9870   38.2650   91.6030 O   0  0  0  0  0
   43.5150   38.1290   90.3300 C   0  0  0  0  0
   44.8460   38.4850   90.0760 C   0  0  0  0  0
   45.3690   38.3420   88.7730 C   0  0  0  0  0
   44.5570   37.8450   87.7150 C   0  0  0  0  0
   45.1750   37.7130   86.3420 C   0  0  0  0  0
   44.4180   36.9430   85.3410 N   0  0  0  0  0
   43.4050   37.4080   84.5730 C   0  0  0  0  0
   42.9670   36.3770   83.7290 C   0  0  0  0  0
   43.7910   35.2190   84.0180 C   0  0  0  0  0
   43.8370   33.8990   83.5070 C   0  0  0  0  0
   44.7600   32.9800   83.9890 C   0  0  0  0  0
   45.6720   33.3540   85.0000 C   0  0  0  0  0
   46.7180   32.3220   85.5540 C   0  0  0  0  0
   47.2940   32.5340   86.6360 O   0  0  0  0  0
   47.0200   31.1060   84.8280 N   0  0  0  0  0
   47.8770   30.2450   85.2730 O   0  0  0  0  0
   45.6190   34.6590   85.4980 C   0  0  0  0  0
   44.6700   35.5960   84.9980 C   0  0  0  0  0
   43.2330   37.4890   87.9650 C   0  0  0  0  0
   42.7050   37.6310   89.2760 C   0  0  0  0  0
   41.0246   37.8693   91.3136 H   0  0  0  0  0
   42.0247   36.5066   91.8740 H   0  0  0  0  0
   41.5943   37.8174   92.9999 H   0  0  0  0  0
   45.4737   38.8700   90.8797 H   0  0  0  0  0
   46.4055   38.6150   88.5749 H   0  0  0  0  0
   46.1112   37.1740   86.4871 H   0  0  0  0  0
   45.2448   38.7268   85.9478 H   0  0  0  0  0
   42.9966   38.4181   84.6052 H   0  0  0  0  0
   42.1619   36.4349   82.9965 H   0  0  0  0  0
   43.1388   33.6004   82.7251 H   0  0  0  0  0
   44.7804   31.9675   83.5858 H   0  0  0  0  0
   46.3140   34.9640   86.2803 H   0  0  0  0  0
   42.6069   37.1042   87.1600 H   0  0  0  0  0
   41.6693   37.3553   89.4743 H   0  0  0  0  0
  1  2  1  0  0  0
  2  3  1  0  0  0
  3  4  4  0  0  0
  3 22  4  0  0  0
  4  5  4  0  0  0
  5  6  4  0  0  0
  6  7  1  0  0  0
  6 21  4  0  0  0
  7  8  1  0  0  0
  8  9  4  0  0  0
  8 20  4  0  0  0
  9 10  4  0  0  0
 10 11  4  0  0  0
 11 12  4  0  0  0
 11 20  4  0  0  0
 12 13  4  0  0  0
 13 14  4  0  0  0
 14 15  1  0  0  0
 14 19  4  0  0  0
 15 16  2  0  0  0
 15 17  1  0  0  0
 17 18  2  0  0  0
 19 20  4  0  0  0
 21 22  4  0  0  0
  1 23  1  0  0  0
  1 24  1  0  0  0
  1 25  1  0  0  0
  4 26  1  0  0  0
  5 27  1  0  0  0
  7 28  1  0  0  0
  7 29  1  0  0  0
  9 30  1  0  0  0
 10 31  1  0  0  0
 12 32  1  0  0  0
 13 33  1  0  0  0
 19 34  1  0  0  0
 21 35  1  0  0  0
 22 36  1  0  0  0
M  END
$$$$
