3qu0_ligand
  -I-interpret- 

 38 40  0  0  0  0  0  0  0  0999 V2000
  -38.6610  -81.9650  -50.6080 N   0  0  0  0  0
  -37.3580  -82.5350  -48.8450 N   0  0  0  0  0
  -43.4120  -77.5010  -47.6610 N   0  0  0  0  0
  -40.1910  -81.1210  -52.1010 N   0  0  0  0  0
  -34.6580  -80.8710  -42.8680 N   0  0  0  0  0
  -40.2480  -80.3860  -49.8870 C   0  0  0  0  0
  -39.7270  -81.1550  -50.9270 C   0  0  0  0  0
  -38.3540  -81.8390  -49.3480 C   0  0  0  0  0
  -36.6270  -82.2800  -47.7930 C   0  0  0  0  0
  -41.3170  -79.4950  -49.9960 C   0  0  0  0  0
  -41.6580  -78.6140  -48.9690 C   0  0  0  0  0
  -40.6770  -77.9230  -48.1810 C   0  0  0  0  0
  -41.0640  -77.0430  -47.1460 C   0  0  0  0  0
  -42.4370  -76.8620  -46.9180 C   0  0  0  0  0
  -43.0090  -78.3590  -48.6610 C   0  0  0  0  0
  -36.6640  -81.0350  -47.0570 C   0  0  0  0  0
  -35.8240  -80.8420  -45.9320 C   0  0  0  0  0
  -34.9370  -81.8780  -45.5220 C   0  0  0  0  0
  -34.8900  -83.1110  -46.2330 C   0  0  0  0  0
  -35.7300  -83.3080  -47.3580 C   0  0  0  0  0
  -41.9690  -79.4700  -51.0430 O   0  0  0  0  0
  -32.7880  -80.7960  -44.5770 O   0  0  0  0  0
  -33.3470  -82.9200  -43.7010 O   0  0  0  0  0
  -39.3450  -80.7300  -48.4600 S   0  0  0  0  0
  -33.8640  -81.6350  -44.1430 S   0  0  0  0  0
  -37.1240  -83.3924  -49.3455 H   0  0  0  0  0
  -39.7752  -81.6998  -52.8307 H   0  0  0  0  0
  -40.9816  -80.5147  -52.3196 H   0  0  0  0  0
  -34.3377  -79.9597  -42.5405 H   0  0  0  0  0
  -35.4589  -81.3199  -42.4237 H   0  0  0  0  0
  -39.6177  -78.0797  -48.3844 H   0  0  0  0  0
  -40.3202  -76.5213  -46.5438 H   0  0  0  0  0
  -42.7482  -76.1879  -46.1200 H   0  0  0  0  0
  -43.7762  -78.8675  -49.2449 H   0  0  0  0  0
  -37.3419  -80.2408  -47.3696 H   0  0  0  0  0
  -35.8568  -79.9019  -45.3813 H   0  0  0  0  0
  -34.2103  -83.9009  -45.9133 H   0  0  0  0  0
  -35.6926  -84.2538  -47.8986 H   0  0  0  0  0
  1  7  4  0  0  0
  8  1  4  0  0  0
  2  8  1  0  0  0
  9  2  1  0  0  0
  3 14  4  0  0  0
 15  3  4  0  0  0
  7  4  1  0  0  0
 25  5  1  0  0  0
  6  7  4  0  0  0
  6 10  1  0  0  0
 24  6  4  0  0  0
  8 24  4  0  0  0
 16  9  4  0  0  0
  9 20  4  0  0  0
 10 11  1  0  0  0
 10 21  2  0  0  0
 11 12  4  0  0  0
 11 15  4  0  0  0
 12 13  4  0  0  0
 13 14  4  0  0  0
 17 16  4  0  0  0
 18 17  4  0  0  0
 18 19  4  0  0  0
 18 25  1  0  0  0
 19 20  4  0  0  0
 25 22  2  0  0  0
 25 23  2  0  0  0
  2 26  1  0  0  0
  4 27  1  0  0  0
  4 28  1  0  0  0
  5 29  1  0  0  0
  5 30  1  0  0  0
 12 31  1  0  0  0
 13 32  1  0  0  0
 14 33  1  0  0  0
 15 34  1  0  0  0
 16 35  1  0  0  0
 17 36  1  0  0  0
 19 37  1  0  0  0
 20 38  1  0  0  0
M  END
$$$$
