6f8t_ligand
  -I-interpret- 

 64 66  0  0  0  0  0  0  0  0999 V2000
   32.1970  231.3920  149.3320 C   0  0  0  0  0
   32.7790  233.1550  150.3090 C   0  0  0  0  0
   32.5190  231.3540  145.6670 C   0  0  0  0  0
   31.9130  230.7810  144.6600 C   0  0  0  0  0
   26.6920  228.3920  153.7540 C   0  0  0  0  0
   26.2310  227.5310  154.9200 C   0  0  0  0  0
   24.8800  228.2760  150.3640 C   0  0  0  0  0
   25.9850  232.0350  153.3560 C   0  0  0  0  0
   26.3820  230.6250  152.9520 C   0  0  0  0  0
   25.5690  230.1170  151.7620 C   0  0  0  0  0
   25.9430  228.7590  151.2760 N   0  3  0  0  0
   25.0560  228.2060  148.8000 C   0  0  0  0  0
   26.5690  228.1300  148.5280 C   0  0  0  0  0
   27.1350  228.0780  147.1540 O   0  0  0  0  0
   28.2490  228.8760  147.0540 N   0  0  0  0  0
   29.1050  228.8450  146.1000 C   0  0  0  0  0
   30.3220  229.7420  145.9970 C   0  0  0  0  0
   30.8910  230.2820  147.0360 C   0  0  0  0  0
   32.0100  231.1170  146.9570 C   0  0  0  0  0
   32.6440  231.7260  148.0590 O   0  0  0  0  0
   33.1700  230.9490  150.5120 C   0  0  0  0  0
   33.7960  232.0710  150.6000 C   0  0  0  0  0
   31.6600  232.3750  149.7910 C   0  0  0  0  0
   33.5990  232.1420  145.4750 O   0  0  0  0  0
   33.9800  232.7180  144.4320 C   0  0  0  0  0
   30.8250  229.9810  144.8230 C   0  0  0  0  0
   24.4480  229.3690  148.2160 O   0  0  0  0  0
   26.1320  227.8240  152.4250 C   0  0  0  0  0
   26.2750  229.7320  154.0640 O   0  0  0  0  0
   31.6288  230.4926  149.0946 H   0  0  0  0  0
   33.1386  233.9149  149.6152 H   0  0  0  0  0
   32.5235  233.7579  151.1804 H   0  0  0  0  0
   32.2937  230.9506  143.6528 H   0  0  0  0  0
   27.7728  228.3922  153.6126 H   0  0  0  0  0
   25.1417  227.5287  154.9599 H   0  0  0  0  0
   26.5930  226.5120  154.7830 H   0  0  0  0  0
   26.6291  227.9374  155.8498 H   0  0  0  0  0
   24.0894  229.0154  150.4915 H   0  0  0  0  0
   24.7668  227.2297  150.6476 H   0  0  0  0  0
   26.1502  232.7119  152.5177 H   0  0  0  0  0
   24.9310  232.0489  153.6337 H   0  0  0  0  0
   26.5900  232.3522  154.2054 H   0  0  0  0  0
   27.4241  230.6597  152.6343 H   0  0  0  0  0
   25.7526  230.8071  150.9385 H   0  0  0  0  0
   24.5319  230.0580  152.0922 H   0  0  0  0  0
   26.8283  228.8018  150.7713 H   0  0  0  0  0
   24.5715  227.3358  148.3572 H   0  0  0  0  0
   26.8525  227.1671  148.9530 H   0  0  0  0  0
   26.9421  229.0772  148.9176 H   0  0  0  0  0
   28.9453  228.1187  145.3030 H   0  0  0  0  0
   30.4727  230.0720  148.0204 H   0  0  0  0  0
   33.7797  230.0630  150.3346 H   0  0  0  0  0
   32.6965  230.5821  151.4226 H   0  0  0  0  0
   34.2298  232.1990  151.5917 H   0  0  0  0  0
   34.6239  232.1125  149.8922 H   0  0  0  0  0
   30.9251  232.1328  150.5588 H   0  0  0  0  0
   31.0754  232.9196  149.0496 H   0  0  0  0  0
   34.1709  231.9753  143.6573 H   0  0  0  0  0
   33.2048  233.4059  144.0945 H   0  0  0  0  0
   34.8952  233.2729  144.6385 H   0  0  0  0  0
   30.3629  229.5285  143.9456 H   0  0  0  0  0
   24.5494  229.3368  147.2619 H   0  0  0  0  0
   25.1323  227.4635  152.6673 H   0  0  0  0  0
   26.8759  227.1026  152.0868 H   0  0  0  0  0
 20  1  1  0  0  0
  1 21  1  0  0  0
  1 23  1  0  0  0
  2 22  1  0  0  0
 23  2  1  0  0  0
  3  4  4  0  0  0
 19  3  4  0  0  0
  3 24  1  0  0  0
  4 26  4  0  0  0
  5  6  1  0  0  0
 28  5  1  0  0  0
  5 29  1  0  0  0
  7 11  1  0  0  0
 12  7  1  0  0  0
  9  8  1  0  0  0
 10  9  1  0  0  0
  9 29  1  0  0  0
 11 10  1  0  0  0
 11 28  1  0  0  0
 13 12  1  0  0  0
 12 27  1  0  0  0
 14 13  1  0  0  0
 15 14  1  0  0  0
 16 15  2  0  0  0
 17 16  1  0  0  0
 18 17  4  0  0  0
 17 26  4  0  0  0
 19 18  4  0  0  0
 19 20  1  0  0  0
 21 22  1  0  0  0
 24 25  1  0  0  0
  1 30  1  0  0  0
  2 31  1  0  0  0
  2 32  1  0  0  0
  4 33  1  0  0  0
  5 34  1  0  0  0
  6 35  1  0  0  0
  6 36  1  0  0  0
  6 37  1  0  0  0
  7 38  1  0  0  0
  7 39  1  0  0  0
  8 40  1  0  0  0
  8 41  1  0  0  0
  8 42  1  0  0  0
  9 43  1  0  0  0
 10 44  1  0  0  0
 10 45  1  0  0  0
 11 46  1  0  0  0
 12 47  1  0  0  0
 13 48  1  0  0  0
 13 49  1  0  0  0
 16 50  1  0  0  0
 18 51  1  0  0  0
 21 52  1  0  0  0
 21 53  1  0  0  0
 22 54  1  0  0  0
 22 55  1  0  0  0
 23 56  1  0  0  0
 23 57  1  0  0  0
 25 58  1  0  0  0
 25 59  1  0  0  0
 25 60  1  0  0  0
 26 61  1  0  0  0
 27 62  1  0  0  0
 28 63  1  0  0  0
 28 64  1  0  0  0
M  END
$$$$
