1csh_ligand
  -I-interpret- 

 90 92  0  0  0  0  0  0  0  0999 V2000
   19.5310   -8.0470   13.3050 N   0  0  0  0  0
   18.9600   -8.6180   14.3530 C   0  0  0  0  0
   18.1290   -9.6530   14.4150 N   0  0  0  0  0
   17.8920  -10.1670   13.2050 C   0  0  0  0  0
   18.4010   -9.6910   12.0120 C   0  0  0  0  0
   19.2770   -8.5790   12.0910 C   0  0  0  0  0
   19.8380   -7.9660   11.0820 N   0  0  0  0  0
   17.9130  -10.4720   10.9690 N   0  0  0  0  0
   17.1490  -11.3960   11.5470 C   0  0  0  0  0
   17.1350  -11.2870   12.9110 N   0  0  0  0  0
   16.2420  -12.0640   13.7730 C   0  0  0  0  0
   14.8150  -11.7830   13.3210 C   0  0  0  0  0
   14.3730  -10.4850   13.6240 O   0  0  0  0  0
   14.0950  -12.9540   14.0050 C   0  0  0  0  0
   14.0630  -12.8570   15.4090 O   0  0  0  0  0
   12.6530  -13.0890   16.1900 P   0  0  0  0  0
   11.5980  -12.3870   15.4030 O   0  0  0  0  0
   12.8000  -12.7470   17.6310 O   0  0  0  0  0
   12.4330  -14.5650   16.0650 O   0  0  0  0  0
   15.0530  -14.0750   13.6510 C   0  0  0  0  0
   16.3460  -13.4220   13.4910 O   0  0  0  0  0
   14.7030  -14.8190   12.3890 C   0  0  0  0  0
   14.4470  -13.8800   11.3430 O   0  0  0  0  0
   14.8200  -14.3300    9.8540 P   0  0  0  0  0
   13.9920  -15.5380    9.4760 O   0  0  0  0  0
   16.2870  -14.4280    9.8330 O   0  0  0  0  0
   14.4490  -12.9480    9.1570 O   0  0  0  0  0
   13.0590  -12.6270    8.4050 P   0  0  0  0  0
   13.0450  -13.3120    7.0780 O   0  0  0  0  0
   11.8820  -12.5240    9.3010 O   0  0  0  0  0
   13.3990  -11.0580    8.1290 O   0  0  0  0  0
   14.7340   -9.1790    7.5410 C   0  0  0  0  0
   14.3590  -10.6040    7.1850 C   0  0  0  0  0
   15.4280   -8.5100    6.3300 C   0  0  0  0  0
   13.4440   -8.4740    7.9950 C   0  0  0  0  0
   15.7000   -9.2850    8.7440 C   0  0  0  0  0
   16.8720   -9.9930    8.3440 O   0  0  0  0  0
   16.0340   -7.9320    9.3490 C   0  0  0  0  0
   15.2770   -7.4750   10.2310 O   0  0  0  0  0
   17.1050   -7.2930    8.9050 N   0  0  0  0  0
   17.4550   -5.9600    9.4400 C   0  0  0  0  0
   16.7600   -4.8650    8.6080 C   0  0  0  0  0
   17.2610   -4.7440    7.1710 C   0  0  0  0  0
   18.4730   -4.7490    6.9350 O   0  0  0  0  0
   16.3270   -4.6060    6.2030 N   0  0  0  0  0
   16.6820   -4.4400    4.8050 C   0  0  0  0  0
   16.3880   -5.6700    3.9290 C   0  0  0  0  0
   16.7360   -5.3280    2.4470 C   0  0  0  0  0
   15.6670   -4.4430    1.8070 C   0  0  0  0  0
   14.4920   -4.7950    1.8900 O   0  0  0  0  0
   16.0230   -3.2490    1.3530 N   0  0  0  0  0
   19.2100   -8.1699   15.3147 H   0  0  0  0  0
   20.4208   -7.1448   11.2443 H   0  0  0  0  0
   19.6929   -8.3089   10.1324 H   0  0  0  0  0
   16.5956  -12.1556   10.9949 H   0  0  0  0  0
   16.4818  -11.8158   14.8069 H   0  0  0  0  0
   14.6429  -11.7573   12.2450 H   0  0  0  0  0
   13.4712  -10.3747   13.3138 H   0  0  0  0  0
   13.0532  -13.0433   13.6972 H   0  0  0  0  0
   11.6144  -12.7015   14.4961 H   0  0  0  0  0
   12.3369  -14.7957   15.1381 H   0  0  0  0  0
   15.0277  -14.8340   14.4329 H   0  0  0  0  0
   13.8147  -15.4276   12.5586 H   0  0  0  0  0
   15.5333  -15.4652   12.1042 H   0  0  0  0  0
   13.0597  -15.3177    9.5381 H   0  0  0  0  0
   13.9162  -13.2526    6.6793 H   0  0  0  0  0
   13.9426  -10.6421    6.1784 H   0  0  0  0  0
   15.2422  -11.2422    7.2114 H   0  0  0  0  0
   16.3275   -9.0697    6.0735 H   0  0  0  0  0
   14.7465   -8.5052    5.4793 H   0  0  0  0  0
   15.6970   -7.4856    6.5874 H   0  0  0  0  0
   12.7175   -8.4901    7.1826 H   0  0  0  0  0
   13.0336   -8.9927    8.8614 H   0  0  0  0  0
   13.6702   -7.4416    8.2615 H   0  0  0  0  0
   15.1994   -9.8408    9.5368 H   0  0  0  0  0
   17.4737  -10.0604    9.0890 H   0  0  0  0  0
   17.6919   -7.7227    8.1899 H   0  0  0  0  0
   18.5350   -5.8224    9.3866 H   0  0  0  0  0
   17.1247   -5.8894   10.4764 H   0  0  0  0  0
   16.9671   -3.9137    9.0981 H   0  0  0  0  0
   15.7035   -5.1281    8.5553 H   0  0  0  0  0
   15.3409   -4.6189    6.4634 H   0  0  0  0  0
   17.7573   -4.2663    4.7648 H   0  0  0  0  0
   16.0815   -3.6176    4.4163 H   0  0  0  0  0
   15.3340   -5.9362    4.0085 H   0  0  0  0  0
   16.9906   -6.5142    4.2641 H   0  0  0  0  0
   16.7943   -6.2592    1.8835 H   0  0  0  0  0
   17.6833   -4.7890    2.4316 H   0  0  0  0  0
   15.3099   -2.5828    1.0564 H   0  0  0  0  0
   17.0099   -2.9968    1.3004 H   0  0  0  0  0
  1  2  4  0  0  0
  1  6  4  0  0  0
  2  3  4  0  0  0
  3  4  4  0  0  0
  4  5  4  0  0  0
  4 10  4  0  0  0
  5  6  4  0  0  0
  5  8  4  0  0  0
  6  7  1  0  0  0
  8  9  4  0  0  0
  9 10  4  0  0  0
 10 11  1  0  0  0
 11 12  1  0  0  0
 11 21  1  0  0  0
 12 13  1  0  0  0
 12 14  1  0  0  0
 14 15  1  0  0  0
 14 20  1  0  0  0
 15 16  1  0  0  0
 16 17  1  0  0  0
 16 18  2  0  0  0
 16 19  1  0  0  0
 20 21  1  0  0  0
 20 22  1  0  0  0
 22 23  1  0  0  0
 23 24  1  0  0  0
 24 25  1  0  0  0
 24 26  2  0  0  0
 24 27  1  0  0  0
 27 28  1  0  0  0
 28 29  1  0  0  0
 28 30  2  0  0  0
 28 31  1  0  0  0
 31 33  1  0  0  0
 33 32  1  0  0  0
 32 34  1  0  0  0
 32 35  1  0  0  0
 32 36  1  0  0  0
 36 37  1  0  0  0
 36 38  1  0  0  0
 38 39  2  0  0  0
 38 40  1  0  0  0
 40 41  1  0  0  0
 41 42  1  0  0  0
 42 43  1  0  0  0
 43 44  2  0  0  0
 43 45  1  0  0  0
 45 46  1  0  0  0
 46 47  1  0  0  0
 47 48  1  0  0  0
 48 49  1  0  0  0
 49 50  2  0  0  0
 49 51  1  0  0  0
  2 52  1  0  0  0
  7 53  1  0  0  0
  7 54  1  0  0  0
  9 55  1  0  0  0
 11 56  1  0  0  0
 12 57  1  0  0  0
 13 58  1  0  0  0
 14 59  1  0  0  0
 17 60  1  0  0  0
 19 61  1  0  0  0
 20 62  1  0  0  0
 22 63  1  0  0  0
 22 64  1  0  0  0
 25 65  1  0  0  0
 29 66  1  0  0  0
 33 67  1  0  0  0
 33 68  1  0  0  0
 34 69  1  0  0  0
 34 70  1  0  0  0
 34 71  1  0  0  0
 35 72  1  0  0  0
 35 73  1  0  0  0
 35 74  1  0  0  0
 36 75  1  0  0  0
 37 76  1  0  0  0
 40 77  1  0  0  0
 41 78  1  0  0  0
 41 79  1  0  0  0
 42 80  1  0  0  0
 42 81  1  0  0  0
 45 82  1  0  0  0
 46 83  1  0  0  0
 46 84  1  0  0  0
 47 85  1  0  0  0
 47 86  1  0  0  0
 48 87  1  0  0  0
 48 88  1  0  0  0
 51 89  1  0  0  0
 51 90  1  0  0  0
M  END
$$$$
