### 
### Created by X-TOOL on Fri Nov 18 11:55:30 2016
### 

@<TRIPOS>MOLECULE
1csh_ligand
   86    88     1     0     0
SMALL
GAST_HUCK


@<TRIPOS>ATOM
      1 AN1        19.5310   -8.0470   13.3050 N.ar      1 AMX        -0.2698
      2 AC2        18.9600   -8.6180   14.3530 C.ar      1 AMX         0.0533
      3 AN3        18.1290   -9.6530   14.4150 N.ar      1 AMX        -0.2714
      4 AC4        17.8920  -10.1670   13.2050 C.ar      1 AMX         0.1613
      5 AC5        18.4010   -9.6910   12.0120 C.ar      1 AMX         0.1045
      6 AC6        19.2770   -8.5790   12.0910 C.ar      1 AMX         0.1298
      7 AN6        19.8380   -7.9660   11.0820 N.pl3     1 AMX        -0.3152
      8 AN7        17.9130  -10.4720   10.9690 N.2       1 AMX        -0.2958
      9 AC8        17.1490  -11.3960   11.5470 C.2       1 AMX         0.1123
     10 AN9        17.1350  -11.2870   12.9110 N.pl3     1 AMX        -0.1919
     11 AC1        16.2420  -12.0640   13.7730 C.3       1 AMX         0.2013
     12 AC2        14.8150  -11.7830   13.3210 C.3       1 AMX         0.1432
     13 AO2        14.3730  -10.4850   13.6240 O.3       1 AMX        -0.3832
     14 AC3        14.0950  -12.9540   14.0050 C.3       1 AMX         0.1487
     15 AO3        14.0630  -12.8570   15.4090 O.3       1 AMX        -0.2674
     16 AP3        12.6530  -13.0890   16.1900 P.3       1 AMX         0.2013
     17 AO7        11.5980  -12.3870   15.4030 O.co2     1 AMX        -0.5537
     18 AO8        12.8000  -12.7470   17.6310 O.co2     1 AMX        -0.5537
     19 AO9        12.4330  -14.5650   16.0650 O.co2     1 AMX        -0.5537
     20 AC4        15.0530  -14.0750   13.6510 C.3       1 AMX         0.1235
     21 AO4        16.3460  -13.4220   13.4910 O.3       1 AMX        -0.3360
     22 AC5        14.7030  -14.8190   12.3890 C.3       1 AMX         0.1131
     23 AO5        14.4470  -13.8800   11.3430 O.3       1 AMX        -0.2476
     24 AP1        14.8200  -14.3300    9.8540 P.3       1 AMX         0.2972
     25 AO1        13.9920  -15.5380    9.4760 O.co2     1 AMX        -0.6127
     26 AO2        16.2870  -14.4280    9.8330 O.co2     1 AMX        -0.6127
     27 AO3        14.4490  -12.9480    9.1570 O.3       1 AMX        -0.1319
     28 AP2        13.0590  -12.6270    8.4050 P.3       1 AMX         0.2971
     29 AO4        13.0450  -13.3120    7.0780 O.co2     1 AMX        -0.6127
     30 AO5        11.8820  -12.5240    9.3010 O.co2     1 AMX        -0.6127
     31 AO6        13.3990  -11.0580    8.1290 O.3       1 AMX        -0.2496
     32 PC11       14.7340   -9.1790    7.5410 C.3       1 AMX         0.0367
     33 PC12       14.3590  -10.6040    7.1850 C.3       1 AMX         0.0936
     34 PC13       15.4280   -8.5100    6.3300 C.3       1 AMX        -0.0528
     35 PC14       13.4440   -8.4740    7.9950 C.3       1 AMX        -0.0528
     36 PC10       15.7000   -9.2850    8.7440 C.3       1 AMX         0.1510
     37 PO10       16.8720   -9.9930    8.3440 O.3       1 AMX        -0.3708
     38 PC9        16.0340   -7.9320    9.3490 C.2       1 AMX         0.2057
     39 PO9        15.2770   -7.4750   10.2310 O.2       1 AMX        -0.3942
     40 PN8        17.1050   -7.2930    8.9050 N.am      1 AMX        -0.2826
     41 PC7        17.4550   -5.9600    9.4400 C.3       1 AMX         0.0477
     42 PC6        16.7600   -4.8650    8.6080 C.3       1 AMX         0.0574
     43 PC5        17.2610   -4.7440    7.1710 C.2       1 AMX         0.1779
     44 PO5        18.4730   -4.7490    6.9350 O.2       1 AMX        -0.3970
     45 PN4        16.3270   -4.6060    6.2030 N.am      1 AMX        -0.2868
     46 PC3        16.6820   -4.4400    4.8050 C.3       1 AMX         0.0329
     47 PC2        16.3880   -5.6700    3.9290 C.3       1 AMX        -0.0158
     48 C1         16.7360   -5.3280    2.4470 C.3       1 AMX         0.0389
     49 C2         15.6670   -4.4430    1.8070 C.2       1 AMX         0.1736
     50 O2         14.4920   -4.7950    1.8900 O.2       1 AMX        -0.3973
     51 N2         16.0230   -3.2490    1.3530 N.am      1 AMX        -0.3009
     52 H1         19.2086   -8.1724   15.3094 H         1 AMX         0.0996
     53 H2         19.6915   -8.3122   10.1231 H         1 AMX         0.1820
     54 H3         20.4265   -7.1367   11.2459 H         1 AMX         0.1820
     55 H4         16.5961  -12.1549   10.9954 H         1 AMX         0.1349
     56 H5         16.4147  -11.8382   14.8356 H         1 AMX         0.0996
     57 H6         14.7354  -11.8956   12.2297 H         1 AMX         0.0680
     58 H7         13.4806  -10.3758   13.3170 H         1 AMX         0.2101
     59 H8         13.0808  -13.1040   13.6063 H         1 AMX         0.0704
     60 H9         15.0900  -14.7970   14.4800 H         1 AMX         0.0654
     61 H10        13.8057  -15.4317   12.5605 H         1 AMX         0.0648
     62 H11        15.5419  -15.4698   12.1014 H         1 AMX         0.0648
     63 H12        13.9296  -10.6345    6.1728 H         1 AMX         0.0628
     64 H13        15.2520  -11.2451    7.2239 H         1 AMX         0.0628
     65 H14        15.7000   -7.4760    6.5885 H         1 AMX         0.0238
     66 H15        14.7412   -8.5045    5.4708 H         1 AMX         0.0238
     67 H16        16.3360   -9.0739    6.0701 H         1 AMX         0.0238
     68 H17        13.0165   -9.0100    8.8552 H         1 AMX         0.0238
     69 H18        12.7183   -8.4694    7.1684 H         1 AMX         0.0238
     70 H19        13.6749   -7.4387    8.2861 H         1 AMX         0.0238
     71 H20        15.1987   -9.8755    9.5250 H         1 AMX         0.0844
     72 H21        17.4674  -10.0597    9.0813 H         1 AMX         0.2133
     73 H22        17.6804   -7.7142    8.2039 H         1 AMX         0.1853
     74 H23        18.5449   -5.8207    9.3892 H         1 AMX         0.0545
     75 H24        17.1246   -5.8883   10.4867 H         1 AMX         0.0545
     76 H25        16.9205   -3.8993    9.1096 H         1 AMX         0.0522
     77 H26        15.6833   -5.0883    8.5782 H         1 AMX         0.0522
     78 H27        15.3602   -4.6187    6.4583 H         1 AMX         0.1851
     79 H28        17.7590   -4.2240    4.7459 H         1 AMX         0.0521
     80 H29        16.1144   -3.5874    4.4039 H         1 AMX         0.0521
     81 H30        15.3228   -5.9332    4.0071 H         1 AMX         0.0309
     82 H31        17.0011   -6.5188    4.2661 H         1 AMX         0.0309
     83 H32        16.8146   -6.2636    1.8739 H         1 AMX         0.0503
     84 H33        17.7001   -4.7992    2.4198 H         1 AMX         0.0503
     85 H34        15.3418   -2.6514    0.9301 H         1 AMX         0.1814
     86 H35        16.9727   -2.9462    1.4335 H         1 AMX         0.1814
@<TRIPOS>BOND
     1    1    2 ar 
     2    1    6 ar 
     3    2    3 ar 
     4    3    4 ar 
     5    4    5 ar 
     6    4   10 1  
     7    5    6 ar 
     8    5    8 1  
     9    6    7 1  
    10    8    9 2  
    11    9   10 1  
    12   10   11 1  
    13   11   12 1  
    14   11   21 1  
    15   12   13 1  
    16   12   14 1  
    17   14   15 1  
    18   14   20 1  
    19   15   16 1  
    20   16   17 ar 
    21   16   18 ar 
    22   16   19 ar 
    23   20   21 1  
    24   20   22 1  
    25   22   23 1  
    26   23   24 1  
    27   24   25 ar 
    28   24   26 ar 
    29   24   27 1  
    30   27   28 1  
    31   28   29 ar 
    32   28   30 ar 
    33   28   31 1  
    34   31   33 1  
    35   33   32 1  
    36   32   34 1  
    37   32   35 1  
    38   32   36 1  
    39   36   37 1  
    40   36   38 1  
    41   38   39 2  
    42   38   40 am 
    43   40   41 1  
    44   41   42 1  
    45   42   43 1  
    46   43   44 2  
    47   43   45 am 
    48   45   46 1  
    49   46   47 1  
    50   47   48 1  
    51   48   49 1  
    52   49   50 2  
    53   49   51 am 
    54    2   52 1  
    55    7   53 1  
    56    7   54 1  
    57    9   55 1  
    58   11   56 1  
    59   12   57 1  
    60   13   58 1  
    61   14   59 1  
    62   20   60 1  
    63   22   61 1  
    64   22   62 1  
    65   33   63 1  
    66   33   64 1  
    67   34   65 1  
    68   34   66 1  
    69   34   67 1  
    70   35   68 1  
    71   35   69 1  
    72   35   70 1  
    73   36   71 1  
    74   37   72 1  
    75   40   73 1  
    76   41   74 1  
    77   41   75 1  
    78   42   76 1  
    79   42   77 1  
    80   45   78 1  
    81   46   79 1  
    82   46   80 1  
    83   47   81 1  
    84   47   82 1  
    85   48   83 1  
    86   48   84 1  
    87   51   85 1  
    88   51   86 1  
@<TRIPOS>SUBSTRUCTURE
     1 AMX         1

