5y21_ligand
  -I-interpret- 

236235  0  0  0  0  0  0  0  0999 V2000
   -6.5920   20.5110   45.2290 N   0  3  0  0  0
   -6.7960   20.2670   46.6540 C   0  0  0  0  0
   -5.4990   19.8890   47.3460 C   0  0  0  0  0
   -4.5420   19.4740   46.6840 O   0  0  0  0  0
   -7.8300   19.1580   46.8650 C   0  0  0  0  0
   -9.2010   19.4940   46.3030 C   0  0  0  0  0
  -10.2410   18.4460   46.6450 C   0  0  0  0  0
   -9.8570   17.3120   46.9990 O   0  0  0  0  0
  -11.4450   18.7640   46.5690 O   0  0  0  0  0
   -5.4810   20.0370   48.6750 N   0  0  0  0  0
   -4.3580   19.6180   49.5100 C   0  0  0  0  0
   -4.6110   18.1950   49.9820 C   0  0  0  0  0
   -5.7220   17.8590   50.4130 O   0  0  0  0  0
   -4.1750   20.5610   50.7120 C   0  0  0  0  0
   -3.0890   20.0250   51.6500 C   0  0  0  0  0
   -3.8440   21.9720   50.2540 C   0  0  0  0  0
   -3.5830   17.3570   49.9100 N   0  0  0  0  0
   -3.6800   15.9530   50.2970 C   0  0  0  0  0
   -2.6490   15.6820   51.3810 C   0  0  0  0  0
   -1.4660   15.4920   51.0870 O   0  0  0  0  0
   -3.4680   15.0430   49.0980 C   0  0  0  0  0
   -4.6100   15.0850   48.1190 C   0  0  0  0  0
   -5.7820   14.2520   48.6070 C   0  0  0  0  0
   -6.7870   14.1320   47.5570 N   0  0  0  0  0
   -7.8160   14.9570   47.4170 C   0  0  0  0  0
   -7.9840   15.9590   48.2700 N   0  0  0  0  0
   -8.6810   14.7780   46.4270 N   0  0  0  0  0
   -3.0990   15.6650   52.6280 N   0  0  0  0  0
   -2.2170   15.2960   53.7210 C   0  0  0  0  0
   -1.9830   13.7900   53.7190 C   0  0  0  0  0
   -2.7300   13.0190   53.1140 O   0  0  0  0  0
   -2.8130   15.7320   55.0570 C   0  0  0  0  0
   -3.0960   17.2130   55.1340 C   0  0  0  0  0
   -3.4240   17.6670   56.5370 C   0  0  0  0  0
   -2.7910   17.2460   57.5060 O   0  0  0  0  0
   -4.4330   18.5180   56.6570 N   0  0  0  0  0
   -0.9200   13.3720   54.3990 N   0  0  0  0  0
   -0.7020   11.9430   54.5790 C   0  0  0  0  0
   -1.8870   11.3220   55.3060 C   0  0  0  0  0
   -2.5330   11.9580   56.1410 O   0  0  0  0  0
    0.5840   11.6800   55.3600 C   0  0  0  0  0
    1.8490   11.8310   54.5510 C   0  0  0  0  0
    3.0540   11.7140   55.4640 C   0  0  0  0  0
    3.2310   10.2960   55.9990 C   0  0  0  0  0
    4.4360   10.1820   56.8760 N   0  3  0  0  0
   -2.1910   10.1040   54.8710 N   0  0  0  0  0
   -3.2730    9.2540   55.4080 C   0  0  0  0  0
   -2.7790    8.0330   56.2380 C   0  0  0  0  0
   -3.5820    7.3350   56.7220 O   0  0  0  0  0
   -4.2670    8.6950   54.3650 C   0  0  0  0  0
   -4.6230    9.5310   53.1670 C   0  0  0  0  0
   -5.6350    8.8040   52.3140 C   0  0  0  0  0
   -5.1830    8.7530   50.8830 C   0  0  0  0  0
   -5.1510   10.1140   50.2980 N   0  3  0  0  0
   -1.4800    7.7910   56.2000 N   0  0  0  0  0
   -0.8400    6.8040   57.0460 C   0  0  0  0  0
    0.3980    7.4400   57.6460 C   0  0  0  0  0
    0.9070    8.4430   57.1400 O   0  0  0  0  0
   -0.4600    5.5480   56.2620 C   0  0  0  0  0
   -1.6350    4.8030   55.7110 C   0  0  0  0  0
   -1.2190    3.4570   55.1600 C   0  0  0  0  0
   -2.3590    2.7210   54.6280 N   0  0  0  0  0
   -2.5960    2.5600   53.3310 C   0  0  0  0  0
   -1.7700    3.0850   52.4400 N   0  0  0  0  0
   -3.6530    1.8740   52.9230 N   0  0  0  0  0
    0.8840    6.8330   58.7240 N   0  0  0  0  0
    2.1040    7.2750   59.3800 C   0  0  0  0  0
    2.7400    6.0540   60.0230 C   0  0  0  0  0
    2.0610    5.0630   60.3030 O   0  0  0  0  0
    1.8090    8.3670   60.4130 C   0  0  0  0  0
    3.0200    9.0190   61.0310 C   0  0  0  0  0
    2.5950    9.8850   62.1900 C   0  0  0  0  0
    1.4820   10.7520   61.8240 N   0  0  0  0  0
    0.8080   11.4950   62.6930 C   0  0  0  0  0
    1.1390   11.4710   63.9780 N   0  0  0  0  0
   -0.1930   12.2590   62.2800 N   0  0  0  0  0
    4.0530    6.1180   60.2370 N   0  0  0  0  0
    4.7380    4.9880   60.8490 C   0  0  0  0  0
    4.1520    4.7210   62.2290 C   0  0  0  0  0
    3.7740    5.6490   62.9520 O   0  0  0  0  0
    6.2470    5.2480   60.9360 C   0  0  0  0  0
    6.6910    6.1780   62.0460 C   0  0  0  0  0
    8.2030    6.3630   61.9980 C   0  0  0  0  0
    8.6790    7.3990   63.0000 C   0  0  0  0  0
   10.1120    7.7500   62.7770 N   0  3  0  0  0
    4.0170    3.4420   62.5710 N   0  0  0  0  0
    3.4480    3.1020   63.8630 C   0  0  0  0  0
    4.3100    3.6900   64.9740 C   0  0  0  0  0
    5.5210    3.8800   64.8190 O   0  0  0  0  0
    3.2970    1.5840   64.0080 C   0  0  0  0  0
    4.5820    0.7870   63.9510 C   0  0  0  0  0
    4.2930   -0.7060   64.1590 C   0  0  0  0  0
    3.3860   -1.2130   63.1350 N   0  0  0  0  0
    2.2900   -1.9270   63.3730 C   0  0  0  0  0
    1.9470   -2.2450   64.6190 N   0  0  0  0  0
    1.5300   -2.3220   62.3600 N   0  0  0  0  0
    3.6610    4.0130   66.0950 N   0  0  0  0  0
    4.3030    4.8400   67.1130 C   0  0  0  0  0
    5.5210    4.1620   67.7230 C   0  0  0  0  0
    6.4350    4.8480   68.2020 O   0  0  0  0  0
    3.2930    5.2030   68.2000 C   0  0  0  0  0
    2.3090    6.0720   67.6710 O   0  0  0  0  0
    5.5640    2.8360   67.7170 N   0  0  0  0  0
    6.7480    2.1480   68.2200 C   0  0  0  0  0
    7.9360    2.3420   67.2820 C   0  0  0  0  0
    9.0510    1.9120   67.5840 O   0  0  0  0  0
    6.5050    0.6430   68.4100 C   0  0  0  0  0
    6.0360    0.0630   67.1870 O   0  0  0  0  0
    5.4980    0.3880   69.5180 C   0  0  0  0  0
    7.7980    2.9320   66.2080 O   0  0  0  0  0
   -5.9012   21.2516   45.1076 H   0  0  0  0  0
   -6.2580   19.6564   44.7833 H   0  0  0  0  0
   -7.4748   20.7948   44.8041 H   0  0  0  0  0
   -7.1627   21.1945   47.0937 H   0  0  0  0  0
   -7.9423   19.0145   47.9397 H   0  0  0  0  0
   -7.4704   18.2708   46.3438 H   0  0  0  0  0
   -9.1168   19.5426   45.2173 H   0  0  0  0  0
   -9.5208   20.4402   46.7395 H   0  0  0  0  0
   -8.8975   17.2824   46.9881 H   0  0  0  0  0
   -6.2901   20.4628   49.1272 H   0  0  0  0  0
   -3.4394   19.6588   48.9247 H   0  0  0  0  0
   -5.1164   20.6011   51.2599 H   0  0  0  0  0
   -3.3782   19.0386   52.0125 H   0  0  0  0  0
   -2.1461   19.9523   51.1080 H   0  0  0  0  0
   -2.9726   20.7041   52.4946 H   0  0  0  0  0
   -2.9194   21.9578   49.6769 H   0  0  0  0  0
   -4.6557   22.3508   49.6329 H   0  0  0  0  0
   -3.7204   22.6157   51.1249 H   0  0  0  0  0
   -2.6882   17.7094   49.5700 H   0  0  0  0  0
   -4.6781   15.7441   50.6819 H   0  0  0  0  0
   -3.3847   14.0209   49.4674 H   0  0  0  0  0
   -2.5721   15.3821   48.5780 H   0  0  0  0  0
   -4.2674   14.6796   47.1670 H   0  0  0  0  0
   -4.9385   16.1187   48.0116 H   0  0  0  0  0
   -6.2286   14.7384   49.4742 H   0  0  0  0  0
   -5.4256   13.2574   48.8748 H   0  0  0  0  0
   -6.6928   13.3667   46.8893 H   0  0  0  0  0
   -7.3217   16.0951   49.0337 H   0  0  0  0  0
   -9.4743   15.4105   46.3223 H   0  0  0  0  0
   -8.5527   14.0079   45.7706 H   0  0  0  0  0
   -4.0696   15.9124   52.8206 H   0  0  0  0  0
   -1.2620   15.8032   53.5839 H   0  0  0  0  0
   -2.0853   15.4962   55.8335 H   0  0  0  0  0
   -3.7620   15.2099   55.1789 H   0  0  0  0  0
   -3.9586   17.4239   54.5019 H   0  0  0  0  0
   -2.2010   17.7438   54.8093 H   0  0  0  0  0
   -4.7129   18.8503   57.5798 H   0  0  0  0  0
   -4.9296   18.8407   55.8265 H   0  0  0  0  0
   -0.2627   14.0461   54.7914 H   0  0  0  0  0
   -0.6041   11.4866   53.5940 H   0  0  0  0  0
    0.5446   10.6453   55.7006 H   0  0  0  0  0
    0.6275   12.4179   56.1611 H   0  0  0  0  0
    1.8549   12.8077   54.0670 H   0  0  0  0  0
    1.8906   11.0475   53.7943 H   0  0  0  0  0
    2.9047   12.3820   56.3123 H   0  0  0  0  0
    3.9430   11.9749   54.8898 H   0  0  0  0  0
    3.3584    9.6227   55.1513 H   0  0  0  0  0
    2.3513   10.0395   56.5893 H   0  0  0  0  0
    4.5203    9.2230   57.2130 H   0  0  0  0  0
    5.2686   10.4303   56.3417 H   0  0  0  0  0
    4.3385   10.8152   57.6697 H   0  0  0  0  0
   -1.6329    9.7259   54.1055 H   0  0  0  0  0
   -3.7861    9.9739   56.0456 H   0  0  0  0  0
   -5.2037    8.5751   54.9093 H   0  0  0  0  0
   -3.7733    7.8146   53.9536 H   0  0  0  0  0
   -3.7244    9.7164   52.5786 H   0  0  0  0  0
   -5.0492   10.4764   53.5027 H   0  0  0  0  0
   -6.5855    9.3350   52.3649 H   0  0  0  0  0
   -5.7431    7.7852   52.6862 H   0  0  0  0  0
   -5.8814    8.1398   50.3134 H   0  0  0  0  0
   -4.1800    8.3280   50.8441 H   0  0  0  0  0
   -4.8421   10.0584   49.3275 H   0  0  0  0  0
   -6.0855   10.5211   50.3359 H   0  0  0  0  0
   -4.5035   10.6960   50.8293 H   0  0  0  0  0
   -0.9035    8.3218   55.5471 H   0  0  0  0  0
   -1.5345    6.4932   57.8265 H   0  0  0  0  0
    0.0563    4.8786   56.9500 H   0  0  0  0  0
    0.1505    5.8645   55.4163 H   0  0  0  0  0
   -2.0717    5.3900   54.9031 H   0  0  0  0  0
   -2.3539    4.6432   56.5146 H   0  0  0  0  0
   -0.7793    2.8740   55.9693 H   0  0  0  0  0
   -0.5064    3.6206   54.3516 H   0  0  0  0  0
   -3.0134    2.3051   55.2907 H   0  0  0  0  0
   -0.9535    3.6119   52.7499 H   0  0  0  0  0
   -3.8279    1.7520   51.9255 H   0  0  0  0  0
   -4.2921    1.4677   53.6063 H   0  0  0  0  0
    0.3839    6.0294   59.1042 H   0  0  0  0  0
    2.7898    7.7165   58.6570 H   0  0  0  0  0
    1.2657    7.8864   61.2266 H   0  0  0  0  0
    1.2669    9.1533   59.8877 H   0  0  0  0  0
    3.5195    9.6353   60.2835 H   0  0  0  0  0
    3.7031    8.2480   61.3874 H   0  0  0  0  0
    3.4387   10.5093   62.4840 H   0  0  0  0  0
    2.2764    9.2383   63.0075 H   0  0  0  0  0
    1.2050   10.7899   60.8431 H   0  0  0  0  0
    0.6229   12.0408   64.6483 H   0  0  0  0  0
    1.9095   10.8828   64.2953 H   0  0  0  0  0
   -0.4470   12.2769   61.2923 H   0  0  0  0  0
    4.5756    6.9535   59.9738 H   0  0  0  0  0
    4.5905    4.1052   60.2270 H   0  0  0  0  0
    6.5319    5.7275   59.9995 H   0  0  0  0  0
    6.7151    4.2840   61.1355 H   0  0  0  0  0
    6.4130    5.7467   63.0077 H   0  0  0  0  0
    6.2071    7.1462   61.9175 H   0  0  0  0  0
    8.4738    6.7044   60.9989 H   0  0  0  0  0
    8.6717    5.4100   62.2432 H   0  0  0  0  0
    8.5750    6.9852   64.0030 H   0  0  0  0  0
    8.0780    8.3003   62.8794 H   0  0  0  0  0
   10.4011    8.4463   63.4640 H   0  0  0  0  0
   10.6856    6.9126   62.8777 H   0  0  0  0  0
   10.2254    8.1302   61.8373 H   0  0  0  0  0
    4.3113    2.7054   61.9298 H   0  0  0  0  0
    2.4497    3.5329   63.9399 H   0  0  0  0  0
    2.6911    1.2526   63.1647 H   0  0  0  0  0
    2.8698    1.4097   64.9955 H   0  0  0  0  0
    5.2505    1.1331   64.7393 H   0  0  0  0  0
    5.0444    0.9270   62.9739 H   0  0  0  0  0
    3.8260   -0.8382   65.1350 H   0  0  0  0  0
    5.2324   -1.2552   64.0958 H   0  0  0  0  0
    3.6098   -1.0037   62.1621 H   0  0  0  0  0
    1.1026   -2.7904   64.7921 H   0  0  0  0  0
    2.5285   -1.9433   65.4008 H   0  0  0  0  0
    1.7875   -2.0778   61.4037 H   0  0  0  0  0
    2.7084    3.6792   66.2417 H   0  0  0  0  0
    4.6556    5.7489   66.6254 H   0  0  0  0  0
    3.8102    5.7015   69.0198 H   0  0  0  0  0
    2.8129    4.2943   68.5632 H   0  0  0  0  0
    1.6781    6.2958   68.3591 H   0  0  0  0  0
    4.7723    2.2997   67.3621 H   0  0  0  0  0
    6.9703    2.5905   69.1910 H   0  0  0  0  0
    7.4510    0.1806   68.6918 H   0  0  0  0  0
    5.8873   -0.8766   67.3161 H   0  0  0  0  0
    5.8759    0.8018   70.4529 H   0  0  0  0  0
    4.5516    0.8655   69.2641 H   0  0  0  0  0
    5.3463   -0.6856   69.6294 H   0  0  0  0  0
    6.8834    3.2070   66.1104 H   0  0  0  0  0
  1  2  1  0  0  0
  2  3  1  0  0  0
  2  5  1  0  0  0
  3  4  2  0  0  0
  3 10  1  0  0  0
  5  6  1  0  0  0
  6  7  1  0  0  0
  7  8  1  0  0  0
  7  9  2  0  0  0
 10 11  1  0  0  0
 11 12  1  0  0  0
 11 14  1  0  0  0
 12 13  2  0  0  0
 12 17  1  0  0  0
 14 15  1  0  0  0
 14 16  1  0  0  0
 17 18  1  0  0  0
 18 19  1  0  0  0
 18 21  1  0  0  0
 19 20  2  0  0  0
 19 28  1  0  0  0
 21 22  1  0  0  0
 22 23  1  0  0  0
 23 24  1  0  0  0
 24 25  1  0  0  0
 25 26  2  0  0  0
 25 27  1  0  0  0
 28 29  1  0  0  0
 29 30  1  0  0  0
 29 32  1  0  0  0
 30 31  2  0  0  0
 30 37  1  0  0  0
 32 33  1  0  0  0
 33 34  1  0  0  0
 34 35  2  0  0  0
 34 36  1  0  0  0
 37 38  1  0  0  0
 38 39  1  0  0  0
 38 41  1  0  0  0
 39 40  2  0  0  0
 39 46  1  0  0  0
 41 42  1  0  0  0
 42 43  1  0  0  0
 43 44  1  0  0  0
 44 45  1  0  0  0
 46 47  1  0  0  0
 47 48  1  0  0  0
 47 50  1  0  0  0
 48 49  2  0  0  0
 48 55  1  0  0  0
 50 51  1  0  0  0
 51 52  1  0  0  0
 52 53  1  0  0  0
 53 54  1  0  0  0
 55 56  1  0  0  0
 56 57  1  0  0  0
 56 59  1  0  0  0
 57 58  2  0  0  0
 57 66  1  0  0  0
 59 60  1  0  0  0
 60 61  1  0  0  0
 61 62  1  0  0  0
 62 63  1  0  0  0
 63 64  2  0  0  0
 63 65  1  0  0  0
 66 67  1  0  0  0
 67 68  1  0  0  0
 67 70  1  0  0  0
 68 69  2  0  0  0
 68 77  1  0  0  0
 70 71  1  0  0  0
 71 72  1  0  0  0
 72 73  1  0  0  0
 73 74  1  0  0  0
 74 75  1  0  0  0
 74 76  2  0  0  0
 77 78  1  0  0  0
 78 79  1  0  0  0
 78 81  1  0  0  0
 79 80  2  0  0  0
 79 86  1  0  0  0
 81 82  1  0  0  0
 82 83  1  0  0  0
 83 84  1  0  0  0
 84 85  1  0  0  0
 86 87  1  0  0  0
 87 88  1  0  0  0
 87 90  1  0  0  0
 88 89  2  0  0  0
 88 97  1  0  0  0
 90 91  1  0  0  0
 91 92  1  0  0  0
 92 93  1  0  0  0
 93 94  1  0  0  0
 94 95  1  0  0  0
 94 96  2  0  0  0
 97 98  1  0  0  0
 98 99  1  0  0  0
 98101  1  0  0  0
 99100  2  0  0  0
 99103  1  0  0  0
101102  1  0  0  0
103104  1  0  0  0
104105  1  0  0  0
104107  1  0  0  0
105106  2  0  0  0
105110  1  0  0  0
107108  1  0  0  0
107109  1  0  0  0
  1111  1  0  0  0
  1112  1  0  0  0
  1113  1  0  0  0
  2114  1  0  0  0
  5115  1  0  0  0
  5116  1  0  0  0
  6117  1  0  0  0
  6118  1  0  0  0
  8119  1  0  0  0
 10120  1  0  0  0
 11121  1  0  0  0
 14122  1  0  0  0
 15123  1  0  0  0
 15124  1  0  0  0
 15125  1  0  0  0
 16126  1  0  0  0
 16127  1  0  0  0
 16128  1  0  0  0
 17129  1  0  0  0
 18130  1  0  0  0
 21131  1  0  0  0
 21132  1  0  0  0
 22133  1  0  0  0
 22134  1  0  0  0
 23135  1  0  0  0
 23136  1  0  0  0
 24137  1  0  0  0
 26138  1  0  0  0
 27139  1  0  0  0
 27140  1  0  0  0
 28141  1  0  0  0
 29142  1  0  0  0
 32143  1  0  0  0
 32144  1  0  0  0
 33145  1  0  0  0
 33146  1  0  0  0
 36147  1  0  0  0
 36148  1  0  0  0
 37149  1  0  0  0
 38150  1  0  0  0
 41151  1  0  0  0
 41152  1  0  0  0
 42153  1  0  0  0
 42154  1  0  0  0
 43155  1  0  0  0
 43156  1  0  0  0
 44157  1  0  0  0
 44158  1  0  0  0
 45159  1  0  0  0
 45160  1  0  0  0
 45161  1  0  0  0
 46162  1  0  0  0
 47163  1  0  0  0
 50164  1  0  0  0
 50165  1  0  0  0
 51166  1  0  0  0
 51167  1  0  0  0
 52168  1  0  0  0
 52169  1  0  0  0
 53170  1  0  0  0
 53171  1  0  0  0
 54172  1  0  0  0
 54173  1  0  0  0
 54174  1  0  0  0
 55175  1  0  0  0
 56176  1  0  0  0
 59177  1  0  0  0
 59178  1  0  0  0
 60179  1  0  0  0
 60180  1  0  0  0
 61181  1  0  0  0
 61182  1  0  0  0
 62183  1  0  0  0
 64184  1  0  0  0
 65185  1  0  0  0
 65186  1  0  0  0
 66187  1  0  0  0
 67188  1  0  0  0
 70189  1  0  0  0
 70190  1  0  0  0
 71191  1  0  0  0
 71192  1  0  0  0
 72193  1  0  0  0
 72194  1  0  0  0
 73195  1  0  0  0
 75196  1  0  0  0
 75197  1  0  0  0
 76198  1  0  0  0
 77199  1  0  0  0
 78200  1  0  0  0
 81201  1  0  0  0
 81202  1  0  0  0
 82203  1  0  0  0
 82204  1  0  0  0
 83205  1  0  0  0
 83206  1  0  0  0
 84207  1  0  0  0
 84208  1  0  0  0
 85209  1  0  0  0
 85210  1  0  0  0
 85211  1  0  0  0
 86212  1  0  0  0
 87213  1  0  0  0
 90214  1  0  0  0
 90215  1  0  0  0
 91216  1  0  0  0
 91217  1  0  0  0
 92218  1  0  0  0
 92219  1  0  0  0
 93220  1  0  0  0
 95221  1  0  0  0
 95222  1  0  0  0
 96223  1  0  0  0
 97224  1  0  0  0
 98225  1  0  0  0
101226  1  0  0  0
101227  1  0  0  0
102228  1  0  0  0
103229  1  0  0  0
104230  1  0  0  0
107231  1  0  0  0
108232  1  0  0  0
109233  1  0  0  0
109234  1  0  0  0
109235  1  0  0  0
110236  1  0  0  0
M  END
$$$$
