### 
### Created by X-TOOL on Mon Aug  2 16:11:41 2021
### 

@<TRIPOS>MOLECULE
5y21_ligand
  238   237     1     0     0
SMALL
GAST_HUCK


@<TRIPOS>ATOM
      1 N          -6.5920   20.5110   45.2290 N.4       1 GLU         0.2380
      2 CA         -6.7960   20.2670   46.6540 C.3       1 GLU         0.0665
      3 C          -5.4990   19.8890   47.3460 C.2       1 GLU         0.2268
      4 O          -4.5420   19.4740   46.6840 O.2       1 GLU        -0.3907
      5 CB         -7.8300   19.1580   46.8650 C.3       1 GLU         0.0194
      6 CG         -9.2010   19.4940   46.3030 C.3       1 GLU         0.0075
      7 CD        -10.2410   18.4460   46.6450 C.2       1 GLU         0.0351
      8 OE1        -9.8570   17.3120   46.9990 O.co2     1 GLU        -0.5690
      9 OE2       -11.4450   18.7640   46.5690 O.co2     1 GLU        -0.5690
     10 N          -5.4810   20.0370   48.6750 N.am      1 GLU        -0.2608
     11 CA         -4.3580   19.6180   49.5100 C.3       1 GLU         0.1334
     12 C          -4.6110   18.1950   49.9820 C.2       1 GLU         0.2042
     13 O          -5.7220   17.8590   50.4130 O.2       1 GLU        -0.3944
     14 CB         -4.1750   20.5610   50.7120 C.3       1 GLU        -0.0063
     15 CG1        -3.0890   20.0250   51.6500 C.3       1 GLU        -0.0584
     16 CG2        -3.8440   21.9720   50.2540 C.3       1 GLU        -0.0584
     17 N          -3.5830   17.3570   49.9100 N.am      1 GLU        -0.2637
     18 CA         -3.6800   15.9530   50.2970 C.3       1 GLU         0.1311
     19 C          -2.6490   15.6820   51.3810 C.2       1 GLU         0.2039
     20 O          -1.4660   15.4920   51.0870 O.2       1 GLU        -0.3944
     21 CB         -3.4680   15.0430   49.0980 C.3       1 GLU        -0.0092
     22 CG         -4.6100   15.0850   48.1190 C.3       1 GLU        -0.0156
     23 CD         -5.7820   14.2520   48.6070 C.3       1 GLU         0.0627
     24 NE         -6.7870   14.1320   47.5570 N.pl3     1 GLU        -0.2723
     25 CZ         -7.8160   14.9570   47.4170 C.cat     1 GLU         0.2882
     26 NH1        -7.9840   15.9590   48.2700 N.pl3     1 GLU        -0.2849
     27 NH2        -8.6810   14.7780   46.4270 N.pl3     1 GLU        -0.2849
     28 N          -3.0990   15.6650   52.6280 N.am      1 GLU        -0.2636
     29 CA         -2.2170   15.2960   53.7210 C.3       1 GLU         0.1330
     30 C          -1.9830   13.7900   53.7190 C.2       1 GLU         0.2040
     31 O          -2.7300   13.0190   53.1140 O.2       1 GLU        -0.3944
     32 CB         -2.8130   15.7320   55.0570 C.3       1 GLU         0.0045
     33 CG         -3.0960   17.2130   55.1340 C.3       1 GLU         0.0412
     34 CD         -3.4240   17.6670   56.5370 C.2       1 GLU         0.1737
     35 OE1        -2.7910   17.2460   57.5060 O.2       1 GLU        -0.3973
     36 NE2        -4.4330   18.5180   56.6570 N.am      1 GLU        -0.3009
     37 N          -0.9200   13.3720   54.3990 N.am      1 GLU        -0.2637
     38 CA         -0.7020   11.9430   54.5790 C.3       1 GLU         0.1310
     39 C          -1.8870   11.3220   55.3060 C.2       1 GLU         0.2039
     40 O          -2.5330   11.9580   56.1410 O.2       1 GLU        -0.3944
     41 CB          0.5840   11.6800   55.3600 C.3       1 GLU        -0.0122
     42 CG          1.8490   11.8310   54.5510 C.3       1 GLU        -0.0440
     43 CD          3.0540   11.7140   55.4640 C.3       1 GLU        -0.0124
     44 CE          3.2310   10.2960   55.9990 C.3       1 GLU        -0.0354
     45 NZ          4.4360   10.1820   56.8760 N.4       1 GLU         0.2185
     46 N          -2.1910   10.1040   54.8710 N.am      1 GLU        -0.2637
     47 CA         -3.2730    9.2540   55.4080 C.3       1 GLU         0.1310
     48 C          -2.7790    8.0330   56.2380 C.2       1 GLU         0.2039
     49 O          -3.5820    7.3350   56.7220 O.2       1 GLU        -0.3944
     50 CB         -4.2670    8.6950   54.3650 C.3       1 GLU        -0.0122
     51 CG         -4.6230    9.5310   53.1670 C.3       1 GLU        -0.0440
     52 CD         -5.6350    8.8040   52.3140 C.3       1 GLU        -0.0124
     53 CE         -5.1830    8.7530   50.8830 C.3       1 GLU        -0.0354
     54 NZ         -5.1510   10.1140   50.2980 N.4       1 GLU         0.2185
     55 N          -1.4800    7.7910   56.2000 N.am      1 GLU        -0.2637
     56 CA         -0.8400    6.8040   57.0460 C.3       1 GLU         0.1311
     57 C           0.3980    7.4400   57.6460 C.2       1 GLU         0.2039
     58 O           0.9070    8.4430   57.1400 O.2       1 GLU        -0.3944
     59 CB         -0.4600    5.5480   56.2620 C.3       1 GLU        -0.0092
     60 CG         -1.6350    4.8030   55.7110 C.3       1 GLU        -0.0156
     61 CD         -1.2190    3.4570   55.1600 C.3       1 GLU         0.0627
     62 NE         -2.3590    2.7210   54.6280 N.pl3     1 GLU        -0.2723
     63 CZ         -2.5960    2.5600   53.3310 C.cat     1 GLU         0.2882
     64 NH1        -1.7700    3.0850   52.4400 N.pl3     1 GLU        -0.2849
     65 NH2        -3.6530    1.8740   52.9230 N.pl3     1 GLU        -0.2849
     66 N           0.8840    6.8330   58.7240 N.am      1 GLU        -0.2637
     67 CA          2.1040    7.2750   59.3800 C.3       1 GLU         0.1311
     68 C           2.7400    6.0540   60.0230 C.2       1 GLU         0.2039
     69 O           2.0610    5.0630   60.3030 O.2       1 GLU        -0.3944
     70 CB          1.8090    8.3670   60.4130 C.3       1 GLU        -0.0092
     71 CG          3.0200    9.0190   61.0310 C.3       1 GLU        -0.0156
     72 CD          2.5950    9.8850   62.1900 C.3       1 GLU         0.0627
     73 NE          1.4820   10.7520   61.8240 N.pl3     1 GLU        -0.2723
     74 CZ          0.8080   11.4950   62.6930 C.cat     1 GLU         0.2882
     75 NH1         1.1390   11.4710   63.9780 N.pl3     1 GLU        -0.2849
     76 NH2        -0.1930   12.2590   62.2800 N.pl3     1 GLU        -0.2849
     77 N           4.0530    6.1180   60.2370 N.am      1 GLU        -0.2637
     78 CA          4.7380    4.9880   60.8490 C.3       1 GLU         0.1310
     79 C           4.1520    4.7210   62.2290 C.2       1 GLU         0.2039
     80 O           3.7740    5.6490   62.9520 O.2       1 GLU        -0.3944
     81 CB          6.2470    5.2480   60.9360 C.3       1 GLU        -0.0122
     82 CG          6.6910    6.1780   62.0460 C.3       1 GLU        -0.0440
     83 CD          8.2030    6.3630   61.9980 C.3       1 GLU        -0.0124
     84 CE          8.6790    7.3990   63.0000 C.3       1 GLU        -0.0354
     85 NZ         10.1120    7.7500   62.7770 N.4       1 GLU         0.2185
     86 N           4.0170    3.4420   62.5710 N.am      1 GLU        -0.2637
     87 CA          3.4480    3.1020   63.8630 C.3       1 GLU         0.1311
     88 C           4.3100    3.6900   64.9740 C.2       1 GLU         0.2040
     89 O           5.5210    3.8800   64.8190 O.2       1 GLU        -0.3944
     90 CB          3.2970    1.5840   64.0080 C.3       1 GLU        -0.0092
     91 CG          4.5820    0.7870   63.9510 C.3       1 GLU        -0.0156
     92 CD          4.2930   -0.7060   64.1590 C.3       1 GLU         0.0627
     93 NE          3.3860   -1.2130   63.1350 N.pl3     1 GLU        -0.2723
     94 CZ          2.2900   -1.9270   63.3730 C.cat     1 GLU         0.2882
     95 NH1         1.9470   -2.2450   64.6190 N.pl3     1 GLU        -0.2849
     96 NH2         1.5300   -2.3220   62.3600 N.pl3     1 GLU        -0.2849
     97 N           3.6610    4.0130   66.0950 N.am      1 GLU        -0.2616
     98 CA          4.3030    4.8400   67.1130 C.3       1 GLU         0.1539
     99 C           5.5210    4.1620   67.7230 C.2       1 GLU         0.2057
    100 O           6.4350    4.8480   68.2020 O.2       1 GLU        -0.3943
    101 CB          3.2930    5.2030   68.2000 C.3       1 GLU         0.0843
    102 OG          2.3090    6.0720   67.6710 O.3       1 GLU        -0.3903
    103 N           5.5640    2.8360   67.7170 N.am      1 GLU        -0.2669
    104 CA          6.7480    2.1480   68.2200 C.3       1 GLU         0.1198
    105 C           7.9360    2.3420   67.2820 C.2       1 GLU         0.0626
    106 O           9.0510    1.9120   67.5840 O.co2     1 GLU        -0.5665
    107 CB          6.5050    0.6430   68.4100 C.3       1 GLU         0.0869
    108 OG1         6.0360    0.0630   67.1870 O.3       1 GLU        -0.3880
    109 CG2         5.4980    0.3880   69.5180 C.3       1 GLU        -0.0352
    110 OXT         7.7980    2.9320   66.2080 O.co2     1 GLU        -0.5665
    111 H1         -7.4705   20.7589   44.8014 H         1 GLU         0.2015
    112 H2         -6.2300   19.6770   44.7937 H         1 GLU         0.2015
    113 H3         -5.9347   21.2656   45.1080 H         1 GLU         0.2015
    114 H4         -7.1761   21.1929   47.1104 H         1 GLU         0.1099
    115 H5         -7.9312   18.9770   47.9453 H         1 GLU         0.0363
    116 H6         -7.4661   18.2442   46.3726 H         1 GLU         0.0363
    117 H7         -9.1244   19.5709   45.2084 H         1 GLU         0.0434
    118 H8         -9.5248   20.4604   46.7168 H         1 GLU         0.0434
    119 H9         -6.2742   20.4545   49.1183 H         1 GLU         0.1885
    120 H10        -3.4383   19.6382   48.9070 H         1 GLU         0.0802
    121 H11        -5.1234   20.5961   51.2681 H         1 GLU         0.0343
    122 H12        -2.9706   20.7096   52.5029 H         1 GLU         0.0234
    123 H13        -2.1368   19.9512   51.1042 H         1 GLU         0.0234
    124 H14        -3.3797   19.0295   52.0166 H         1 GLU         0.0234
    125 H15        -4.6364   22.3350   49.5829 H         1 GLU         0.0234
    126 H16        -2.8833   21.9678   49.7183 H         1 GLU         0.0234
    127 H17        -3.7729   22.6344   51.1293 H         1 GLU         0.0234
    128 H18        -2.7058   17.7025   49.5767 H         1 GLU         0.1883
    129 H19        -4.6840   15.7629   50.7042 H         1 GLU         0.0800
    130 H20        -3.3527   14.0100   49.4579 H         1 GLU         0.0313
    131 H21        -2.5497   15.3551   48.5790 H         1 GLU         0.0313
    132 H22        -4.2676   14.6903   47.1510 H         1 GLU         0.0301
    133 H23        -4.9379   16.1276   47.9946 H         1 GLU         0.0301
    134 H24        -6.2313   14.7370   49.4861 H         1 GLU         0.0689
    135 H25        -5.4246   13.2492   48.8840 H         1 GLU         0.0689
    136 H26        -6.6918   13.3591   46.8828 H         1 GLU         0.2642
    137 H27        -8.7832   16.5996   48.1611 H         1 GLU         0.2615
    138 H28        -7.3152   16.0964   49.0412 H         1 GLU         0.2615
    139 H29        -8.5514   14.0003   45.7642 H         1 GLU         0.2615
    140 H30        -9.4821   15.4167   46.3213 H         1 GLU         0.2615
    141 H31        -4.0506   15.9075   52.8168 H         1 GLU         0.1883
    142 H32        -1.2515   15.8046   53.5825 H         1 GLU         0.0801
    143 H33        -2.1042   15.4707   55.8566 H         1 GLU         0.0337
    144 H34        -3.7568   15.1885   55.2115 H         1 GLU         0.0337
    145 H35        -3.9499   17.4435   54.4800 H         1 GLU         0.0504
    146 H36        -2.2082   17.7605   54.7846 H         1 GLU         0.0504
    147 H37        -4.6981   18.8550   57.5604 H         1 GLU         0.1814
    148 H38        -4.9292   18.8231   55.8441 H         1 GLU         0.1814
    149 H39        -0.2755   14.0329   54.7837 H         1 GLU         0.1883
    150 H40        -0.6111   11.4755   53.5875 H         1 GLU         0.0800
    151 H41         0.5456   10.6518   55.7491 H         1 GLU         0.0312
    152 H42         0.6268   12.3887   56.2002 H         1 GLU         0.0312
    153 H43         1.8550   12.8160   54.0614 H         1 GLU         0.0269
    154 H44         1.8910   11.0413   53.7865 H         1 GLU         0.0269
    155 H45         2.9236   12.4003   56.3137 H         1 GLU         0.0317
    156 H46         3.9554   11.9957   54.9001 H         1 GLU         0.0317
    157 H47         3.3418    9.6058   55.1497 H         1 GLU         0.0813
    158 H48         2.3392   10.0208   56.5812 H         1 GLU         0.0813
    159 H49         4.5203    9.2346   57.2097 H         1 GLU         0.1994
    160 H50         4.3408   10.8074   57.6608 H         1 GLU         0.1994
    161 H51         5.2596   10.4271   56.3490 H         1 GLU         0.1994
    162 H52        -1.6439    9.7333   54.1205 H         1 GLU         0.1883
    163 H53        -3.8471    9.9017   56.0868 H         1 GLU         0.0800
    164 H54        -5.2054    8.4817   54.8979 H         1 GLU         0.0312
    165 H55        -3.8392    7.7555   53.9851 H         1 GLU         0.0312
    166 H56        -3.7167    9.7225   52.5738 H         1 GLU         0.0269
    167 H57        -5.0498   10.4873   53.5036 H         1 GLU         0.0269
    168 H58        -6.5992    9.3305   52.3697 H         1 GLU         0.0317
    169 H59        -5.7552    7.7779   52.6916 H         1 GLU         0.0317
    170 H60        -5.8798    8.1276   50.3057 H         1 GLU         0.0813
    171 H61        -4.1745    8.3161   50.8376 H         1 GLU         0.0813
    172 H62        -4.8459   10.0603   49.3388 H         1 GLU         0.1994
    173 H63        -4.5113   10.6902   50.8223 H         1 GLU         0.1994
    174 H64        -6.0740   10.5174   50.3348 H         1 GLU         0.1994
    175 H65        -0.9148    8.3114   55.5599 H         1 GLU         0.1883
    176 H66        -1.5316    6.5188   57.8524 H         1 GLU         0.0800
    177 H67         0.0944    4.8748   56.9324 H         1 GLU         0.0313
    178 H68         0.1870    5.8448   55.4234 H         1 GLU         0.0313
    179 H69        -2.0898    5.3962   54.9040 H         1 GLU         0.0301
    180 H70        -2.3716    4.6502   56.5135 H         1 GLU         0.0301
    181 H71        -0.7583    2.8677   55.9665 H         1 GLU         0.0689
    182 H72        -0.4863    3.6118   54.3543 H         1 GLU         0.0689
    183 H73        -3.0198    2.3010   55.2972 H         1 GLU         0.2642
    184 H74        -1.9517    2.9615   51.4337 H         1 GLU         0.2615
    185 H75        -0.9455    3.6171   52.7529 H         1 GLU         0.2615
    186 H76        -4.2984    1.4637   53.6130 H         1 GLU         0.2615
    187 H77        -3.8296    1.7508   51.9158 H         1 GLU         0.2615
    188 H78         0.3937    6.0452   59.0967 H         1 GLU         0.1883
    189 H79         2.7924    7.6860   58.6269 H         1 GLU         0.0800
    190 H80         1.2162    7.9165   61.2227 H         1 GLU         0.0313
    191 H81         1.2174    9.1511   59.9179 H         1 GLU         0.0313
    192 H82         3.5259    9.6398   60.2769 H         1 GLU         0.0301
    193 H83         3.7109    8.2417   61.3894 H         1 GLU         0.0301
    194 H84         3.4461   10.5076   62.5029 H         1 GLU         0.0689
    195 H85         2.2863    9.2393   63.0253 H         1 GLU         0.0689
    196 H86         1.2023   10.7903   60.8334 H         1 GLU         0.2642
    197 H87         0.6179   12.0465   64.6549 H         1 GLU         0.2615
    198 H88         1.9170   10.8769   64.2984 H         1 GLU         0.2615
    199 H89        -0.4494   12.2772   61.2826 H         1 GLU         0.2615
    200 H90        -0.7146   12.8346   62.9564 H         1 GLU         0.2615
    201 H91         4.5654    6.9371   59.9790 H         1 GLU         0.1883
    202 H92         4.5761    4.0988   60.2221 H         1 GLU         0.0800
    203 H93         6.5702    5.6850   59.9797 H         1 GLU         0.0312
    204 H94         6.7485    4.2804   61.0852 H         1 GLU         0.0312
    205 H95         6.4075    5.7470   63.0175 H         1 GLU         0.0269
    206 H96         6.2005    7.1546   61.9210 H         1 GLU         0.0269
    207 H97         8.4895    6.6883   60.9870 H         1 GLU         0.0317
    208 H98         8.6863    5.4011   62.2244 H         1 GLU         0.0317
    209 H99         8.5631    6.9944   64.0163 H         1 GLU         0.0813
    210 H100        8.0671    8.3070   62.8948 H         1 GLU         0.0813
    211 H101       10.3989    8.4381   63.4555 H         1 GLU         0.1994
    212 H102       10.2253    8.1260   61.8486 H         1 GLU         0.1994
    213 H103       10.6799    6.9231   62.8763 H         1 GLU         0.1994
    214 H104        4.3055    2.7198   61.9424 H         1 GLU         0.1883
    215 H105        2.4462    3.5513   63.9304 H         1 GLU         0.0800
    216 H106        2.6441    1.2305   63.1963 H         1 GLU         0.0313
    217 H107        2.8180    1.3834   64.9777 H         1 GLU         0.0313
    218 H108        5.2622    1.1383   64.7409 H         1 GLU         0.0301
    219 H109        5.0553    0.9314   62.9686 H         1 GLU         0.0301
    220 H110        3.8336   -0.8486   65.1482 H         1 GLU         0.0689
    221 H111        5.2389   -1.2653   64.1098 H         1 GLU         0.0689
    222 H112        3.6120   -1.0017   62.1526 H         1 GLU         0.2642
    223 H113        1.0961   -2.7985   64.7936 H         1 GLU         0.2615
    224 H114        2.5325   -1.9376   65.4087 H         1 GLU         0.2615
    225 H115        1.7917   -2.0781   61.3941 H         1 GLU         0.2615
    226 H116        0.6782   -2.8726   62.5393 H         1 GLU         0.2615
    227 H117        2.7271    3.6858   66.2388 H         1 GLU         0.1884
    228 H118        4.6409    5.7693   66.6312 H         1 GLU         0.0823
    229 H119        3.8138    5.7034   69.0296 H         1 GLU         0.0606
    230 H120        2.8098    4.2867   68.5699 H         1 GLU         0.0606
    231 H121        2.7258    6.8639   67.3522 H         1 GLU         0.2097
    232 H122        4.7878    2.3102   67.3690 H         1 GLU         0.1876
    233 H123        7.0010    2.5830   69.1981 H         1 GLU         0.0752
    234 H124        7.4576    0.1671   68.6856 H         1 GLU         0.0632
    235 H125        6.6869    0.1913   66.5070 H         1 GLU         0.2100
    236 H126        5.3441   -0.6953   69.6314 H         1 GLU         0.0256
    237 H127        4.5424    0.8694   69.2629 H         1 GLU         0.0256
    238 H128        5.8782    0.8051   70.4622 H         1 GLU         0.0256
@<TRIPOS>BOND
     1    1    2 1  
     2    2    3 1  
     3    2    5 1  
     4    3    4 2  
     5    3   10 am 
     6    5    6 1  
     7    6    7 1  
     8    7    8 ar 
     9    7    9 ar 
    10   10   11 1  
    11   11   12 1  
    12   11   14 1  
    13   12   13 2  
    14   12   17 am 
    15   14   15 1  
    16   14   16 1  
    17   17   18 1  
    18   18   19 1  
    19   18   21 1  
    20   19   20 2  
    21   19   28 am 
    22   21   22 1  
    23   22   23 1  
    24   23   24 1  
    25   24   25 ar 
    26   25   26 ar 
    27   25   27 ar 
    28   28   29 1  
    29   29   30 1  
    30   29   32 1  
    31   30   31 2  
    32   30   37 am 
    33   32   33 1  
    34   33   34 1  
    35   34   35 2  
    36   34   36 am 
    37   37   38 1  
    38   38   39 1  
    39   38   41 1  
    40   39   40 2  
    41   39   46 am 
    42   41   42 1  
    43   42   43 1  
    44   43   44 1  
    45   44   45 1  
    46   46   47 1  
    47   47   48 1  
    48   47   50 1  
    49   48   49 2  
    50   48   55 am 
    51   50   51 1  
    52   51   52 1  
    53   52   53 1  
    54   53   54 1  
    55   55   56 1  
    56   56   57 1  
    57   56   59 1  
    58   57   58 2  
    59   57   66 am 
    60   59   60 1  
    61   60   61 1  
    62   61   62 1  
    63   62   63 ar 
    64   63   64 ar 
    65   63   65 ar 
    66   66   67 1  
    67   67   68 1  
    68   67   70 1  
    69   68   69 2  
    70   68   77 am 
    71   70   71 1  
    72   71   72 1  
    73   72   73 1  
    74   73   74 ar 
    75   74   75 ar 
    76   74   76 ar 
    77   77   78 1  
    78   78   79 1  
    79   78   81 1  
    80   79   80 2  
    81   79   86 am 
    82   81   82 1  
    83   82   83 1  
    84   83   84 1  
    85   84   85 1  
    86   86   87 1  
    87   87   88 1  
    88   87   90 1  
    89   88   89 2  
    90   88   97 am 
    91   90   91 1  
    92   91   92 1  
    93   92   93 1  
    94   93   94 ar 
    95   94   95 ar 
    96   94   96 ar 
    97   97   98 1  
    98   98   99 1  
    99   98  101 1  
   100   99  100 2  
   101   99  103 am 
   102  101  102 1  
   103  103  104 1  
   104  104  105 1  
   105  104  107 1  
   106  105  106 ar 
   107  105  110 ar 
   108  107  108 1  
   109  107  109 1  
   110    1  111 1  
   111    1  112 1  
   112    1  113 1  
   113    2  114 1  
   114    5  115 1  
   115    5  116 1  
   116    6  117 1  
   117    6  118 1  
   118   10  119 1  
   119   11  120 1  
   120   14  121 1  
   121   15  122 1  
   122   15  123 1  
   123   15  124 1  
   124   16  125 1  
   125   16  126 1  
   126   16  127 1  
   127   17  128 1  
   128   18  129 1  
   129   21  130 1  
   130   21  131 1  
   131   22  132 1  
   132   22  133 1  
   133   23  134 1  
   134   23  135 1  
   135   24  136 1  
   136   26  137 1  
   137   26  138 1  
   138   27  139 1  
   139   27  140 1  
   140   28  141 1  
   141   29  142 1  
   142   32  143 1  
   143   32  144 1  
   144   33  145 1  
   145   33  146 1  
   146   36  147 1  
   147   36  148 1  
   148   37  149 1  
   149   38  150 1  
   150   41  151 1  
   151   41  152 1  
   152   42  153 1  
   153   42  154 1  
   154   43  155 1  
   155   43  156 1  
   156   44  157 1  
   157   44  158 1  
   158   45  159 1  
   159   45  160 1  
   160   45  161 1  
   161   46  162 1  
   162   47  163 1  
   163   50  164 1  
   164   50  165 1  
   165   51  166 1  
   166   51  167 1  
   167   52  168 1  
   168   52  169 1  
   169   53  170 1  
   170   53  171 1  
   171   54  172 1  
   172   54  173 1  
   173   54  174 1  
   174   55  175 1  
   175   56  176 1  
   176   59  177 1  
   177   59  178 1  
   178   60  179 1  
   179   60  180 1  
   180   61  181 1  
   181   61  182 1  
   182   62  183 1  
   183   64  184 1  
   184   64  185 1  
   185   65  186 1  
   186   65  187 1  
   187   66  188 1  
   188   67  189 1  
   189   70  190 1  
   190   70  191 1  
   191   71  192 1  
   192   71  193 1  
   193   72  194 1  
   194   72  195 1  
   195   73  196 1  
   196   75  197 1  
   197   75  198 1  
   198   76  199 1  
   199   76  200 1  
   200   77  201 1  
   201   78  202 1  
   202   81  203 1  
   203   81  204 1  
   204   82  205 1  
   205   82  206 1  
   206   83  207 1  
   207   83  208 1  
   208   84  209 1  
   209   84  210 1  
   210   85  211 1  
   211   85  212 1  
   212   85  213 1  
   213   86  214 1  
   214   87  215 1  
   215   90  216 1  
   216   90  217 1  
   217   91  218 1  
   218   91  219 1  
   219   92  220 1  
   220   92  221 1  
   221   93  222 1  
   222   95  223 1  
   223   95  224 1  
   224   96  225 1  
   225   96  226 1  
   226   97  227 1  
   227   98  228 1  
   228  101  229 1  
   229  101  230 1  
   230  102  231 1  
   231  103  232 1  
   232  104  233 1  
   233  107  234 1  
   234  108  235 1  
   235  109  236 1  
   236  109  237 1  
   237  109  238 1  
@<TRIPOS>SUBSTRUCTURE
     1 GLU         1

