1bqn_ligand
  -I-interpret- 

 42 43  0  0  0  0  0  0  0  0999 V2000
  143.9560  -27.3820   72.1070 C   0  0  0  0  0
  142.5410  -27.8860   71.4070 C   0  0  0  0  0
  142.3180  -29.5460   73.2470 C   0  0  0  0  0
  143.4460  -28.9490   74.0060 C   0  0  0  0  0
  143.9620  -29.6270   75.1350 C   0  0  0  0  0
  143.3740  -30.8700   75.5670 C   0  0  0  0  0
  142.2430  -31.4130   74.8510 C   0  0  0  0  0
  141.7250  -30.7420   73.6910 C   0  0  0  0  0
  145.0120  -26.8940   74.4610 C   0  0  0  0  0
  144.6230  -25.9730   76.8710 C   0  0  0  0  0
  145.6770  -24.8610   76.8150 C   0  0  0  0  0
  143.2270  -25.4470   76.5330 C   0  0  0  0  0
  145.2460  -27.9690   71.4050 C   0  0  0  0  0
  147.8000  -29.1520   71.6900 C   0  0  0  0  0
  143.3650  -32.9040   77.1590 C   0  0  0  0  0
  144.0030  -27.6550   73.6310 N   0  0  0  0  0
  141.8150  -28.9190   72.0630 N   0  0  0  0  0
  145.8580  -26.1200   73.8770 O   0  0  0  0  0
  144.9670  -27.1170   75.8890 O   0  0  0  0  0
  143.9250  -31.5960   76.7300 O   0  0  0  0  0
  142.0210  -27.1610   69.8910 S   0  0  0  0  0
  146.5300  -28.4160   72.7410 S   0  0  0  0  0
  143.9660  -26.3023   71.9579 H   0  0  0  0  0
  144.8075  -29.2079   75.6804 H   0  0  0  0  0
  141.7794  -32.3382   75.1932 H   0  0  0  0  0
  140.8727  -31.1595   73.1550 H   0  0  0  0  0
  144.6261  -26.3504   77.8936 H   0  0  0  0  0
  145.7032  -24.4372   75.8111 H   0  0  0  0  0
  145.4201  -24.0821   77.5330 H   0  0  0  0  0
  146.6544  -25.2759   77.0613 H   0  0  0  0  0
  142.9486  -24.6733   77.2485 H   0  0  0  0  0
  143.2317  -25.0283   75.5266 H   0  0  0  0  0
  142.5094  -26.2659   76.5839 H   0  0  0  0  0
  145.6652  -27.2265   70.7260 H   0  0  0  0  0
  144.9816  -28.8605   70.8362 H   0  0  0  0  0
  147.3820  -30.0104   71.1641 H   0  0  0  0  0
  148.1439  -28.4131   70.9663 H   0  0  0  0  0
  148.6381  -29.4753   72.3073 H   0  0  0  0  0
  142.3127  -32.7808   77.4151 H   0  0  0  0  0
  143.4606  -33.6231   76.3454 H   0  0  0  0  0
  143.9125  -33.2641   78.0301 H   0  0  0  0  0
  140.9177  -29.2187   71.6816 H   0  0  0  0  0
  1  2  1  0  0  0
  1 13  1  0  0  0
 16  1  1  0  0  0
  2 17  1  0  0  0
  2 21  2  0  0  0
  4  3  4  0  0  0
  3  8  4  0  0  0
  3 17  1  0  0  0
  4  5  4  0  0  0
 16  4  1  0  0  0
  5  6  4  0  0  0
  6  7  4  0  0  0
  6 20  1  0  0  0
  8  7  4  0  0  0
  9 16  1  0  0  0
  9 18  2  0  0  0
 19  9  1  0  0  0
 10 11  1  0  0  0
 10 12  1  0  0  0
 10 19  1  0  0  0
 13 22  1  0  0  0
 22 14  1  0  0  0
 20 15  1  0  0  0
  1 23  1  0  0  0
  5 24  1  0  0  0
  7 25  1  0  0  0
  8 26  1  0  0  0
 10 27  1  0  0  0
 11 28  1  0  0  0
 11 29  1  0  0  0
 11 30  1  0  0  0
 12 31  1  0  0  0
 12 32  1  0  0  0
 12 33  1  0  0  0
 13 34  1  0  0  0
 13 35  1  0  0  0
 14 36  1  0  0  0
 14 37  1  0  0  0
 14 38  1  0  0  0
 15 39  1  0  0  0
 15 40  1  0  0  0
 15 41  1  0  0  0
 17 42  1  0  0  0
M  END
$$$$
