1dwd_ligand
  -I-interpret- 

 68 71  0  0  0  0  0  0  0  0999 V2000
   33.4730   12.2860   22.0110 N   0  0  0  0  0
   33.6900   11.1160   21.1670 C   0  0  0  0  0
   32.9400    9.9200   21.7710 C   0  0  0  0  0
   33.3310    9.7150   23.2650 C   0  0  0  0  0
   33.0510   10.9910   24.0860 C   0  0  0  0  0
   33.7560   12.1980   23.4560 C   0  0  0  0  0
   31.5060   14.2480   23.1380 N   0  0  0  0  0
   32.7930   14.5390   22.4860 C   0  0  0  0  0
   32.9780   13.4720   21.4620 C   0  0  0  0  0
   32.7440   13.5950   20.2550 O   0  0  0  0  0
   32.7220   15.8910   21.7900 C   0  0  0  0  0
   32.6760   16.9470   22.8070 C   0  0  0  0  0
   33.8380   17.4680   23.3090 C   0  0  0  0  0
   31.4630   17.3550   23.2950 C   0  0  0  0  0
   33.7800   18.4850   24.2800 C   0  0  0  0  0
   31.3820   18.3620   24.2600 C   0  0  0  0  0
   32.5450   18.9280   24.7480 C   0  0  0  0  0
   29.9850   13.7390   26.3060 N   0  0  0  0  0
   30.0460   13.7400   24.8830 C   0  0  0  0  0
   31.4080   14.0330   24.4730 C   0  0  0  0  0
   32.3780   14.1170   25.2350 O   0  0  0  0  0
   29.3410   12.4380   27.0580 S   0  0  0  0  0
   28.3630   11.8390   26.1820 O   0  0  0  0  0
   29.0620   12.8090   28.4350 O   0  0  0  0  0
   30.5070   10.1480   26.3150 C   0  0  0  0  0
   30.6400   11.2630   27.1350 C   0  0  0  0  0
   31.7270   11.4390   27.9370 C   0  0  0  0  0
   32.7410   10.4530   27.9200 C   0  0  0  0  0
   32.5820    9.2850   27.1330 C   0  0  0  0  0
   31.4640    9.1710   26.3000 C   0  0  0  0  0
   33.8930   10.5930   28.7020 C   0  0  0  0  0
   34.8520    9.5850   28.6810 C   0  0  0  0  0
   34.6900    8.4150   27.8780 C   0  0  0  0  0
   33.5680    8.2670   27.1180 C   0  0  0  0  0
   32.4750   19.9650   25.7860 C   0  0  0  0  0
   31.2960   20.4290   26.2370 N   0  0  0  0  0
   33.5310   20.7490   26.0440 N   0  0  0  0  0
   34.7557   10.8933   21.1133 H   0  0  0  0  0
   33.3189   11.3135   20.1613 H   0  0  0  0  0
   33.2053    9.0220   21.2130 H   0  0  0  0  0
   31.8687   10.1124   21.7124 H   0  0  0  0  0
   34.3956    9.4880   23.3213 H   0  0  0  0  0
   32.7378    8.8972   23.6741 H   0  0  0  0  0
   33.4262   10.8502   25.0996 H   0  0  0  0  0
   31.9768   11.1752   24.1002 H   0  0  0  0  0
   33.3911   13.1050   23.9381 H   0  0  0  0  0
   34.8312   12.0841   23.5938 H   0  0  0  0  0
   30.6614   14.2068   22.5676 H   0  0  0  0  0
   33.6111   14.5652   23.2058 H   0  0  0  0  0
   31.8280   15.9389   21.1683 H   0  0  0  0  0
   33.5994   16.0264   21.1576 H   0  0  0  0  0
   34.8016   17.0977   22.9591 H   0  0  0  0  0
   30.5497   16.8883   22.9260 H   0  0  0  0  0
   34.6997   18.9253   24.6652 H   0  0  0  0  0
   30.4113   18.6981   24.6245 H   0  0  0  0  0
   30.3351   14.5319   26.8437 H   0  0  0  0  0
   29.3697   14.4964   24.4849 H   0  0  0  0  0
   29.7468   12.7644   24.4998 H   0  0  0  0  0
   29.6291   10.0513   25.6762 H   0  0  0  0  0
   31.8132   12.3179   28.5760 H   0  0  0  0  0
   31.3561    8.3083   25.6426 H   0  0  0  0  0
   34.0372   11.4797   29.3193 H   0  0  0  0  0
   35.7484    9.6908   29.2920 H   0  0  0  0  0
   35.4602    7.6437   27.8729 H   0  0  0  0  0
   33.4307    7.3758   26.5057 H   0  0  0  0  0
   31.2546   21.3184   26.7346 H   0  0  0  0  0
   30.4432   19.8915   26.0814 H   0  0  0  0  0
   34.3960   20.6292   25.5170 H   0  0  0  0  0
  1  2  1  0  0  0
  1  6  1  0  0  0
  9  1  1  0  0  0
  2  3  1  0  0  0
  3  4  1  0  0  0
  5  4  1  0  0  0
  6  5  1  0  0  0
  7  8  1  0  0  0
 20  7  1  0  0  0
  8  9  1  0  0  0
  8 11  1  0  0  0
  9 10  2  0  0  0
 11 12  1  0  0  0
 12 13  4  0  0  0
 12 14  4  0  0  0
 13 15  4  0  0  0
 14 16  4  0  0  0
 15 17  4  0  0  0
 16 17  4  0  0  0
 17 35  1  0  0  0
 19 18  1  0  0  0
 18 22  1  0  0  0
 19 20  1  0  0  0
 20 21  2  0  0  0
 22 23  2  0  0  0
 22 24  2  0  0  0
 22 26  1  0  0  0
 26 25  4  0  0  0
 25 30  4  0  0  0
 26 27  4  0  0  0
 27 28  4  0  0  0
 28 29  4  0  0  0
 28 31  4  0  0  0
 29 30  4  0  0  0
 29 34  4  0  0  0
 31 32  4  0  0  0
 32 33  4  0  0  0
 33 34  4  0  0  0
 35 36  1  0  0  0
 35 37  2  0  0  0
  2 38  1  0  0  0
  2 39  1  0  0  0
  3 40  1  0  0  0
  3 41  1  0  0  0
  4 42  1  0  0  0
  4 43  1  0  0  0
  5 44  1  0  0  0
  5 45  1  0  0  0
  6 46  1  0  0  0
  6 47  1  0  0  0
  7 48  1  0  0  0
  8 49  1  0  0  0
 11 50  1  0  0  0
 11 51  1  0  0  0
 13 52  1  0  0  0
 14 53  1  0  0  0
 15 54  1  0  0  0
 16 55  1  0  0  0
 18 56  1  0  0  0
 19 57  1  0  0  0
 19 58  1  0  0  0
 25 59  1  0  0  0
 27 60  1  0  0  0
 30 61  1  0  0  0
 31 62  1  0  0  0
 32 63  1  0  0  0
 33 64  1  0  0  0
 34 65  1  0  0  0
 36 66  1  0  0  0
 36 67  1  0  0  0
 37 68  1  0  0  0
M  END
$$$$
