### 
### Created by X-TOOL on Mon Sep 10 21:13:18 2018
### 

@<TRIPOS>MOLECULE
4omd_ligand
  102   103     1     0     0
SMALL
GAST_HUCK


@<TRIPOS>ATOM
      1 C1'        33.1150   25.6080   -8.8480 C.ar      1 HY1        -0.0243
      2 C2'        34.1610   25.8380   -7.9300 C.ar      1 HY1        -0.0580
      3 C3'        35.1010   24.8410   -7.6050 C.ar      1 HY1        -0.0681
      4 C4'        34.9900   23.5780   -8.2150 C.ar      1 HY1        -0.0684
      5 C5'        33.9480   23.3140   -9.1440 C.ar      1 HY1        -0.0681
      6 C6'        33.0130   24.3400   -9.4530 C.ar      1 HY1        -0.0580
      7 CA         32.1230   26.6980   -9.1690 C.3       1 HY1         0.0705
      8 C          30.8990   26.7320   -8.2790 C.2       1 HY1         0.1898
      9 O          29.9480   25.9540   -8.4210 O.2       1 HY1        -0.3939
     10 N          30.9550   27.6610   -7.3280 N.am      1 ARG        -0.2640
     11 CA         29.8700   27.8520   -6.3660 C.3       1 ARG         0.1311
     12 C          29.3230   29.2740   -6.4840 C.2       1 ARG         0.2039
     13 O          30.0820   30.2380   -6.4560 O.2       1 ARG        -0.3944
     14 CB         30.3790   27.5780   -4.9480 C.3       1 ARG        -0.0092
     15 CG         30.8650   26.1440   -4.7410 C.3       1 ARG        -0.0156
     16 CD         29.7160   25.1740   -4.8490 C.3       1 ARG         0.0627
     17 NE         30.1320   23.7830   -4.7320 N.pl3     1 ARG        -0.2723
     18 CZ         30.2660   22.9630   -5.7670 C.cat     1 ARG         0.2882
     19 NH1        30.6400   21.7030   -5.5800 N.pl3     1 ARG        -0.2849
     20 NH2        30.0250   23.4060   -6.9940 N.pl3     1 ARG        -0.2849
     21 N          28.0060   29.4110   -6.6110 N.am      1 VAL        -0.2635
     22 CA         27.3960   30.7300   -6.7830 C.3       1 VAL         0.1332
     23 C          26.3760   31.0960   -5.7170 C.2       1 VAL         0.2041
     24 O          25.7950   30.2200   -5.0710 O.2       1 VAL        -0.3944
     25 CB         26.6880   30.8060   -8.1450 C.3       1 VAL        -0.0063
     26 CG1        27.6500   30.4060   -9.2420 C.3       1 VAL        -0.0584
     27 CG2        25.4760   29.8710   -8.1620 C.3       1 VAL        -0.0584
     28 N          26.1550   32.3960   -5.5440 N.am      1 ARG        -0.2637
     29 CA         25.1790   32.8750   -4.5750 C.3       1 ARG         0.1311
     30 C          23.8120   32.4570   -5.1170 C.2       1 ARG         0.2035
     31 O          23.5520   32.5850   -6.3150 O.2       1 ARG        -0.3944
     32 CB         25.2560   34.3960   -4.4480 C.3       1 ARG        -0.0092
     33 CG         26.5780   34.9210   -3.9080 C.3       1 ARG        -0.0156
     34 CD         26.5740   36.4400   -3.8790 C.3       1 ARG         0.0627
     35 NE         27.8230   37.0210   -3.3960 N.pl3     1 ARG        -0.2723
     36 CZ         28.9990   36.8870   -4.0060 C.cat     1 ARG         0.2882
     37 NH1        29.0840   36.1790   -5.1260 N.pl3     1 ARG        -0.2849
     38 NH2        30.0870   37.4720   -3.5050 N.pl3     1 ARG        -0.2849
     39 N23        22.9430   31.9660   -4.2370 N.am      1 00S        -0.2737
     40 C16        21.6110   31.5180   -4.6180 C.3       1 00S         0.0645
     41 C17        21.6050   30.0270   -4.8000 C.ar      1 00S        -0.0210
     42 C22        21.3350   29.1770   -3.7090 C.ar      1 00S        -0.0584
     43 C21        21.4630   27.7700   -3.8310 C.ar      1 00S        -0.0633
     44 C24        21.8560   27.1860   -5.0470 C.ar      1 00S         0.0188
     45 C27        21.9940   25.6930   -5.1710 C.cat     1 00S         0.2318
     46 N35        21.3830   24.9280   -4.2690 N.pl3     1 00S        -0.2729
     47 N34        22.7170   25.1400   -6.1370 N.pl3     1 00S        -0.2729
     48 C19        22.1150   28.0280   -6.1470 C.ar      1 00S        -0.0633
     49 C18        21.9860   29.4520   -6.0260 C.ar      1 00S        -0.0584
     50 H          34.2438   26.8116   -7.4605 H         1 HY1         0.0561
     51 H          35.8965   25.0432   -6.8969 H         1 HY1         0.0600
     52 H          35.7054   22.8000   -7.9742 H         1 HY1         0.0561
     53 H          33.8665   22.3400   -9.6127 H         1 HY1         0.0600
     54 H          32.2150   24.1446  -10.1602 H         1 HY1         0.0561
     55 H          31.7863   26.5581  -10.2068 H         1 HY1         0.0659
     56 H          32.6380   27.6657   -9.0778 H         1 HY1         0.0659
     57 H          31.7636   28.2464   -7.2692 H         1 ARG         0.1884
     58 H          29.0612   27.1421   -6.5938 H         1 ARG         0.0800
     59 H          29.5600   27.7735   -4.2402 H         1 ARG         0.0313
     60 H          31.2147   28.2622   -4.7398 H         1 ARG         0.0313
     61 H          31.3193   26.0567   -3.7430 H         1 ARG         0.0301
     62 H          31.6155   25.9023   -5.5080 H         1 ARG         0.0301
     63 H          29.2303   25.3135   -5.8260 H         1 ARG         0.0689
     64 H          28.9959   25.3930   -4.0469 H         1 ARG         0.0689
     65 H          30.3339   23.4144   -3.7916 H         1 ARG         0.2642
     66 H          30.7424   21.0710   -6.3869 H         1 ARG         0.2615
     67 H          30.8278   21.3574   -4.6281 H         1 ARG         0.2615
     68 H          29.7347   24.3833   -7.1410 H         1 ARG         0.2615
     69 H          30.1281   22.7727   -7.7997 H         1 ARG         0.2615
     70 H          27.4229   28.5989   -6.5886 H         1 VAL         0.1883
     71 H          28.2029   31.4771   -6.7556 H         1 VAL         0.0802
     72 H          26.3497   31.8383   -8.3181 H         1 VAL         0.0343
     73 H          27.1401   30.4615  -10.2151 H         1 VAL         0.0234
     74 H          27.9970   29.3768   -9.0681 H         1 VAL         0.0234
     75 H          28.5123   31.0889   -9.2405 H         1 VAL         0.0234
     76 H          24.7770   30.1623   -7.3642 H         1 VAL         0.0234
     77 H          25.8092   28.8357   -7.9975 H         1 VAL         0.0234
     78 H          24.9708   29.9432   -9.1365 H         1 VAL         0.0234
     79 H          26.6691   33.0575   -6.0900 H         1 ARG         0.1883
     80 H          25.3583   32.4153   -3.5919 H         1 ARG         0.0800
     81 H          24.4541   34.7247   -3.7706 H         1 ARG         0.0313
     82 H          25.0954   34.8320   -5.4450 H         1 ARG         0.0313
     83 H          27.3971   34.5733   -4.5546 H         1 ARG         0.0301
     84 H          26.7294   34.5397   -2.8874 H         1 ARG         0.0301
     85 H          25.7586   36.7726   -3.2199 H         1 ARG         0.0689
     86 H          26.3927   36.8064   -4.9002 H         1 ARG         0.0689
     87 H          27.7926   37.5710   -2.5257 H         1 ARG         0.2642
     88 H          29.9919   36.0731   -5.6007 H         1 ARG         0.2615
     89 H          28.2420   35.7356   -5.5202 H         1 ARG         0.2615
     90 H          30.0225   38.0215   -2.6362 H         1 ARG         0.2615
     91 H          30.9922   37.3745   -3.9867 H         1 ARG         0.2615
     92 H          23.2153   31.9022   -3.2769 H         1 00S         0.1878
     93 H          21.3198   32.0017   -5.5620 H         1 00S         0.0683
     94 H          20.8947   31.7919   -3.8294 H         1 00S         0.0683
     95 H          21.0249   29.6050   -2.7626 H         1 00S         0.0557
     96 H          21.2551   27.1373   -2.9757 H         1 00S         0.0599
     97 H          21.4588   23.9025   -4.3273 H         1 00S         0.3180
     98 H          20.8344   25.3616   -3.5128 H         1 00S         0.3180
     99 H          23.1881   25.7355   -6.8329 H         1 00S         0.3180
    100 H          22.8069   24.1153   -6.1907 H         1 00S         0.3180
    101 H          22.4149   27.5953   -7.0946 H         1 00S         0.0599
    102 H          22.1828   30.0869   -6.8823 H         1 00S         0.0557
@<TRIPOS>BOND
     1    1    2 ar 
     2    1    6 ar 
     3    1    7 1  
     4    2    3 ar 
     5    3    4 ar 
     6    4    5 ar 
     7    5    6 ar 
     8    7    8 1  
     9    8    9 2  
    10    8   10 am 
    11   10   11 1  
    12   11   12 1  
    13   11   14 1  
    14   12   13 2  
    15   12   21 am 
    16   14   15 1  
    17   15   16 1  
    18   16   17 1  
    19   17   18 ar 
    20   18   19 ar 
    21   18   20 ar 
    22   21   22 1  
    23   22   23 1  
    24   22   25 1  
    25   23   24 2  
    26   23   28 am 
    27   25   26 1  
    28   25   27 1  
    29   28   29 1  
    30   29   30 1  
    31   29   32 1  
    32   30   31 2  
    33   30   39 am 
    34   32   33 1  
    35   33   34 1  
    36   34   35 1  
    37   35   36 ar 
    38   36   37 ar 
    39   36   38 ar 
    40   39   40 1  
    41   40   41 1  
    42   41   42 ar 
    43   41   49 ar 
    44   42   43 ar 
    45   43   44 ar 
    46   44   45 1  
    47   44   48 ar 
    48   45   46 ar 
    49   45   47 ar 
    50   48   49 ar 
    51    2   50 1  
    52    3   51 1  
    53    4   52 1  
    54    5   53 1  
    55    6   54 1  
    56    7   55 1  
    57    7   56 1  
    58   10   57 1  
    59   11   58 1  
    60   14   59 1  
    61   14   60 1  
    62   15   61 1  
    63   15   62 1  
    64   16   63 1  
    65   16   64 1  
    66   17   65 1  
    67   19   66 1  
    68   19   67 1  
    69   20   68 1  
    70   20   69 1  
    71   21   70 1  
    72   22   71 1  
    73   25   72 1  
    74   26   73 1  
    75   26   74 1  
    76   26   75 1  
    77   27   76 1  
    78   27   77 1  
    79   27   78 1  
    80   28   79 1  
    81   29   80 1  
    82   32   81 1  
    83   32   82 1  
    84   33   83 1  
    85   33   84 1  
    86   34   85 1  
    87   34   86 1  
    88   35   87 1  
    89   37   88 1  
    90   37   89 1  
    91   38   90 1  
    92   38   91 1  
    93   39   92 1  
    94   40   93 1  
    95   40   94 1  
    96   42   95 1  
    97   43   96 1  
    98   46   97 1  
    99   46   98 1  
   100   47   99 1  
   101   47  100 1  
   102   48  101 1  
   103   49  102 1  
@<TRIPOS>SUBSTRUCTURE
     1 HY1         1

