4omd_ligand
  -I-interpret- 

 99100  0  0  0  0  0  0  0  0999 V2000
   33.1150   25.6080   -8.8480 C   0  0  0  0  0
   34.1610   25.8380   -7.9300 C   0  0  0  0  0
   35.1010   24.8410   -7.6050 C   0  0  0  0  0
   34.9900   23.5780   -8.2150 C   0  0  0  0  0
   33.9480   23.3140   -9.1440 C   0  0  0  0  0
   33.0130   24.3400   -9.4530 C   0  0  0  0  0
   32.1230   26.6980   -9.1690 C   0  0  0  0  0
   30.8990   26.7320   -8.2790 C   0  0  0  0  0
   29.9480   25.9540   -8.4210 O   0  0  0  0  0
   30.9550   27.6610   -7.3280 N   0  0  0  0  0
   29.8700   27.8520   -6.3660 C   0  0  0  0  0
   29.3230   29.2740   -6.4840 C   0  0  0  0  0
   30.0820   30.2380   -6.4560 O   0  0  0  0  0
   30.3790   27.5780   -4.9480 C   0  0  0  0  0
   30.8650   26.1440   -4.7410 C   0  0  0  0  0
   29.7160   25.1740   -4.8490 C   0  0  0  0  0
   30.1320   23.7830   -4.7320 N   0  0  0  0  0
   30.2660   22.9630   -5.7670 C   0  0  0  0  0
   30.6400   21.7030   -5.5800 N   0  0  0  0  0
   30.0250   23.4060   -6.9940 N   0  0  0  0  0
   28.0060   29.4110   -6.6110 N   0  0  0  0  0
   27.3960   30.7300   -6.7830 C   0  0  0  0  0
   26.3760   31.0960   -5.7170 C   0  0  0  0  0
   25.7950   30.2200   -5.0710 O   0  0  0  0  0
   26.6880   30.8060   -8.1450 C   0  0  0  0  0
   27.6500   30.4060   -9.2420 C   0  0  0  0  0
   25.4760   29.8710   -8.1620 C   0  0  0  0  0
   26.1550   32.3960   -5.5440 N   0  0  0  0  0
   25.1790   32.8750   -4.5750 C   0  0  0  0  0
   23.8120   32.4570   -5.1170 C   0  0  0  0  0
   23.5520   32.5850   -6.3150 O   0  0  0  0  0
   25.2560   34.3960   -4.4480 C   0  0  0  0  0
   26.5780   34.9210   -3.9080 C   0  0  0  0  0
   26.5740   36.4400   -3.8790 C   0  0  0  0  0
   27.8230   37.0210   -3.3960 N   0  0  0  0  0
   28.9990   36.8870   -4.0060 C   0  0  0  0  0
   29.0840   36.1790   -5.1260 N   0  0  0  0  0
   30.0870   37.4720   -3.5050 N   0  0  0  0  0
   22.9430   31.9660   -4.2370 N   0  0  0  0  0
   21.6110   31.5180   -4.6180 C   0  0  0  0  0
   21.6050   30.0270   -4.8000 C   0  0  0  0  0
   21.3350   29.1770   -3.7090 C   0  0  0  0  0
   21.4630   27.7700   -3.8310 C   0  0  0  0  0
   21.8560   27.1860   -5.0470 C   0  0  0  0  0
   21.9940   25.6930   -5.1710 C   0  0  0  0  0
   21.3830   24.9280   -4.2690 N   0  0  0  0  0
   22.7170   25.1400   -6.1370 N   0  0  0  0  0
   22.1150   28.0280   -6.1470 C   0  0  0  0  0
   21.9860   29.4520   -6.0260 C   0  0  0  0  0
   34.2442   26.8169   -7.4579 H   0  0  0  0  0
   35.9009   25.0443   -6.8930 H   0  0  0  0  0
   35.7093   22.7957   -7.9729 H   0  0  0  0  0
   33.8660   22.3346   -9.6153 H   0  0  0  0  0
   32.2106   24.1435  -10.1641 H   0  0  0  0  0
   31.7694   26.5127  -10.1832 H   0  0  0  0  0
   32.6412   27.6465   -9.0276 H   0  0  0  0  0
   31.7798   28.2581   -7.2681 H   0  0  0  0  0
   29.0627   27.1520   -6.5813 H   0  0  0  0  0
   29.5470   27.7439   -4.2636 H   0  0  0  0  0
   31.2267   28.2399   -4.7707 H   0  0  0  0  0
   31.3059   26.0603   -3.7477 H   0  0  0  0  0
   31.6015   25.9062   -5.5086 H   0  0  0  0  0
   29.2636   25.3035   -5.8322 H   0  0  0  0  0
   29.0264   25.3841   -4.0315 H   0  0  0  0  0
   30.3319   23.4180   -3.8008 H   0  0  0  0  0
   30.7416   21.0772   -6.3790 H   0  0  0  0  0
   30.8257   21.3607   -4.6373 H   0  0  0  0  0
   29.7378   24.3738   -7.1396 H   0  0  0  0  0
   27.4112   28.5827   -6.5881 H   0  0  0  0  0
   28.2224   31.4365   -6.7051 H   0  0  0  0  0
   26.3507   31.8291   -8.3110 H   0  0  0  0  0
   28.5040   31.0834   -9.2394 H   0  0  0  0  0
   27.9931   29.3860   -9.0685 H   0  0  0  0  0
   27.1436   30.4614  -10.2056 H   0  0  0  0  0
   25.8062   28.8471   -7.9869 H   0  0  0  0  0
   24.7785   30.1682   -7.3789 H   0  0  0  0  0
   24.9834   29.9343   -9.1323 H   0  0  0  0  0
   26.6794   33.0708   -6.1009 H   0  0  0  0  0
   25.3626   32.4594   -3.5842 H   0  0  0  0  0
   24.4824   34.6955   -3.7410 H   0  0  0  0  0
   25.1375   34.8052   -5.4513 H   0  0  0  0  0
   27.3858   34.5809   -4.5560 H   0  0  0  0  0
   26.7202   34.5474   -2.8939 H   0  0  0  0  0
   25.7841   36.7508   -3.1952 H   0  0  0  0  0
   26.4284   36.7851   -4.9026 H   0  0  0  0  0
   27.7929   37.5657   -2.5341 H   0  0  0  0  0
   28.2502   35.7399   -5.5163 H   0  0  0  0  0
   30.9834   37.3754   -3.9820 H   0  0  0  0  0
   30.0231   38.0162   -2.6447 H   0  0  0  0  0
   23.2207   31.9009   -3.2577 H   0  0  0  0  0
   21.3258   31.9955   -5.5554 H   0  0  0  0  0
   20.9034   31.7871   -3.8337 H   0  0  0  0  0
   21.0232   29.6073   -2.7573 H   0  0  0  0  0
   21.2540   27.1338   -2.9710 H   0  0  0  0  0
   21.4695   23.9129   -4.3186 H   0  0  0  0  0
   20.8283   25.3570   -3.5282 H   0  0  0  0  0
   23.1953   25.7302   -6.8176 H   0  0  0  0  0
   22.4165   27.5929   -7.0998 H   0  0  0  0  0
   22.1839   30.0904   -6.8871 H   0  0  0  0  0
  1  2  4  0  0  0
  1  6  4  0  0  0
  1  7  1  0  0  0
  2  3  4  0  0  0
  3  4  4  0  0  0
  4  5  4  0  0  0
  5  6  4  0  0  0
  7  8  1  0  0  0
  8  9  2  0  0  0
  8 10  1  0  0  0
 10 11  1  0  0  0
 11 12  1  0  0  0
 11 14  1  0  0  0
 12 13  2  0  0  0
 12 21  1  0  0  0
 14 15  1  0  0  0
 15 16  1  0  0  0
 16 17  1  0  0  0
 17 18  1  0  0  0
 18 19  1  0  0  0
 18 20  2  0  0  0
 21 22  1  0  0  0
 22 23  1  0  0  0
 22 25  1  0  0  0
 23 24  2  0  0  0
 23 28  1  0  0  0
 25 26  1  0  0  0
 25 27  1  0  0  0
 28 29  1  0  0  0
 29 30  1  0  0  0
 29 32  1  0  0  0
 30 31  2  0  0  0
 30 39  1  0  0  0
 32 33  1  0  0  0
 33 34  1  0  0  0
 34 35  1  0  0  0
 35 36  1  0  0  0
 36 37  2  0  0  0
 36 38  1  0  0  0
 39 40  1  0  0  0
 40 41  1  0  0  0
 41 42  4  0  0  0
 41 49  4  0  0  0
 42 43  4  0  0  0
 43 44  4  0  0  0
 44 45  1  0  0  0
 44 48  4  0  0  0
 45 46  1  0  0  0
 45 47  2  0  0  0
 48 49  4  0  0  0
  2 50  1  0  0  0
  3 51  1  0  0  0
  4 52  1  0  0  0
  5 53  1  0  0  0
  6 54  1  0  0  0
  7 55  1  0  0  0
  7 56  1  0  0  0
 10 57  1  0  0  0
 11 58  1  0  0  0
 14 59  1  0  0  0
 14 60  1  0  0  0
 15 61  1  0  0  0
 15 62  1  0  0  0
 16 63  1  0  0  0
 16 64  1  0  0  0
 17 65  1  0  0  0
 19 66  1  0  0  0
 19 67  1  0  0  0
 20 68  1  0  0  0
 21 69  1  0  0  0
 22 70  1  0  0  0
 25 71  1  0  0  0
 26 72  1  0  0  0
 26 73  1  0  0  0
 26 74  1  0  0  0
 27 75  1  0  0  0
 27 76  1  0  0  0
 27 77  1  0  0  0
 28 78  1  0  0  0
 29 79  1  0  0  0
 32 80  1  0  0  0
 32 81  1  0  0  0
 33 82  1  0  0  0
 33 83  1  0  0  0
 34 84  1  0  0  0
 34 85  1  0  0  0
 35 86  1  0  0  0
 37 87  1  0  0  0
 38 88  1  0  0  0
 38 89  1  0  0  0
 39 90  1  0  0  0
 40 91  1  0  0  0
 40 92  1  0  0  0
 42 93  1  0  0  0
 43 94  1  0  0  0
 46 95  1  0  0  0
 46 96  1  0  0  0
 47 97  1  0  0  0
 48 98  1  0  0  0
 49 99  1  0  0  0
M  END
$$$$
