5ehr_ligand
  -I-interpret- 

 43 45  0  0  0  0  0  0  0  0999 V2000
   21.0510   40.7360    4.9330 C   0  0  0  0  0
   22.3040   41.9870    3.3890 C   0  0  0  0  0
   26.8860   41.3930    3.8170 C   0  0  0  0  0
   27.1970   42.7380    3.0440 C   0  0  0  0  0
   25.8660   43.5020    2.7240 C   0  0  0  0  0
   24.7590   42.6120    2.1010 C   0  0  0  0  0
   19.4320   40.7620    6.8640 C   0  0  0  0  0
   18.1370   40.5960    7.3700 C   0  0  0  0  0
   17.0850   40.1870    6.5240 C   0  0  0  0  0
   17.3520   39.8990    5.1690 C   0  0  0  0  0
   18.6480   40.1100    4.6580 C   0  0  0  0  0
   27.9810   42.4520    1.7320 C   0  0  0  0  0
   21.1390   41.7310    4.0090 N   0  0  0  0  0
   23.4310   41.1720    3.6090 C   0  0  0  0  0
   23.3420   40.1800    4.5450 N   0  0  0  0  0
   22.1830   39.9260    5.2010 C   0  0  0  0  0
   22.1780   38.8970    6.0800 N   0  0  0  0  0
   19.6960   40.5400    5.5090 C   0  0  0  0  0
   24.6090   41.4200    2.9630 N   0  0  0  0  0
   25.7670   40.5530    3.1260 C   0  0  0  0  0
   20.6820   41.3450    7.9130 Cl  0  0  0  0  0
   17.8420   40.9550    9.0520 Cl  0  0  0  0  0
   28.0860   43.5790    3.8750 N   0  3  0  0  0
   22.3770   42.8351    2.7082 H   0  0  0  0  0
   26.5427   41.6519    4.8186 H   0  0  0  0  0
   27.7967   40.7942    3.8306 H   0  0  0  0  0
   26.1058   44.2761    1.9950 H   0  0  0  0  0
   25.4788   43.8846    3.6683 H   0  0  0  0  0
   25.0321   42.3175    1.0877 H   0  0  0  0  0
   23.8185   43.1597    2.0411 H   0  0  0  0  0
   16.0718   40.0940    6.9149 H   0  0  0  0  0
   16.5621   39.5164    4.5226 H   0  0  0  0  0
   18.8459   39.9411    3.5995 H   0  0  0  0  0
   28.2106   43.3944    1.2347 H   0  0  0  0  0
   28.9078   41.9303    1.9705 H   0  0  0  0  0
   27.3722   41.8316    1.0744 H   0  0  0  0  0
   21.3264   38.6684    6.5927 H   0  0  0  0  0
   23.0258   38.3501    6.2298 H   0  0  0  0  0
   25.5114   39.6846    3.7332 H   0  0  0  0  0
   26.1081   40.1855    2.1582 H   0  0  0  0  0
   27.6192   43.7989    4.7549 H   0  0  0  0  0
   28.9510   43.0730    4.0648 H   0  0  0  0  0
   28.2986   44.4430    3.3763 H   0  0  0  0  0
 13  1  4  0  0  0
  1 16  4  0  0  0
  1 18  1  0  0  0
  2 13  4  0  0  0
 14  2  4  0  0  0
  4  3  1  0  0  0
  3 20  1  0  0  0
  5  4  1  0  0  0
  4 12  1  0  0  0
  4 23  1  0  0  0
  6  5  1  0  0  0
 19  6  1  0  0  0
  7  8  4  0  0  0
 18  7  4  0  0  0
  7 21  1  0  0  0
  8  9  4  0  0  0
  8 22  1  0  0  0
 10  9  4  0  0  0
 11 10  4  0  0  0
 18 11  4  0  0  0
 14 15  4  0  0  0
 14 19  1  0  0  0
 15 16  4  0  0  0
 16 17  1  0  0  0
 19 20  1  0  0  0
  2 24  1  0  0  0
  3 25  1  0  0  0
  3 26  1  0  0  0
  5 27  1  0  0  0
  5 28  1  0  0  0
  6 29  1  0  0  0
  6 30  1  0  0  0
  9 31  1  0  0  0
 10 32  1  0  0  0
 11 33  1  0  0  0
 12 34  1  0  0  0
 12 35  1  0  0  0
 12 36  1  0  0  0
 17 37  1  0  0  0
 17 38  1  0  0  0
 20 39  1  0  0  0
 20 40  1  0  0  0
 23 41  1  0  0  0
 23 42  1  0  0  0
 23 43  1  0  0  0
M  END
$$$$
