2oq6_ligand
  -I-interpret- 

 15 14  0  0  0  0  0  0  0  0999 V2000
  -29.1670  -21.2260  -23.6550 C   0  0  0  0  0
  -27.8010  -21.6540  -23.1310 C   0  0  0  0  0
  -25.4040  -22.0740  -23.4840 C   0  0  0  0  0
  -24.3420  -22.0250  -24.5990 C   0  0  0  0  0
  -29.2040  -20.9130  -24.8580 O   0  0  0  0  0
  -30.1300  -21.1970  -22.8020 O   0  0  0  0  0
  -27.7900  -21.9630  -21.9460 O   0  0  0  0  0
  -23.1620  -21.9840  -24.2120 O   0  0  0  0  0
  -26.7420  -21.6810  -23.9370 N   0  0  0  0  0
  -24.7070  -22.0800  -25.7910 O   0  0  0  0  0
  -25.0996  -21.3706  -22.7090 H   0  0  0  0  0
  -25.4651  -23.1043  -23.1334 H   0  0  0  0  0
  -29.8083  -21.4942  -21.9477 H   0  0  0  0  0
  -26.8670  -21.4163  -24.9141 H   0  0  0  0  0
  -25.6659  -22.1025  -25.8301 H   0  0  0  0  0
  2  1  1  0  0  0
  1  5  2  0  0  0
  1  6  1  0  0  0
  2  7  2  0  0  0
  9  2  1  0  0  0
  3  4  1  0  0  0
  3  9  1  0  0  0
  4  8  2  0  0  0
  4 10  1  0  0  0
  3 11  1  0  0  0
  3 12  1  0  0  0
  6 13  1  0  0  0
  9 14  1  0  0  0
 10 15  1  0  0  0
M  END
$$$$
