6g46_ligand
  -I-interpret- 

 27 29  0  0  0  0  0  0  0  0999 V2000
  -67.5490   35.7750  -45.1460 C   0  0  0  0  0
  -67.6070   35.3200  -43.8370 C   0  0  0  0  0
  -72.0570   34.3250  -45.8580 C   0  0  0  0  0
  -72.0970   33.8960  -44.5710 C   0  0  0  0  0
  -68.6390   35.6320  -45.9840 C   0  0  0  0  0
  -70.9030   34.9060  -46.3230 C   0  0  0  0  0
  -68.7640   34.7430  -43.3780 C   0  0  0  0  0
  -71.3780   33.1190  -40.3020 C   0  0  0  0  0
  -69.5300   31.7370  -40.1230 C   0  0  0  0  0
  -70.3160   32.5090  -40.7820 C   0  0  0  0  0
  -71.0630   33.6220  -42.5190 C   0  0  0  0  0
  -71.0210   34.0400  -43.7530 C   0  0  0  0  0
  -69.8010   35.0420  -45.5000 C   0  0  0  0  0
  -69.8580   34.5990  -44.2070 C   0  0  0  0  0
  -70.1690   32.8280  -42.0550 N   0  0  0  0  0
  -69.8130   31.3910  -38.9740 O   0  0  0  0  0
  -68.4510   31.4400  -40.6050 O   0  0  0  0  0
  -71.9670   33.9350  -41.5230 S   0  0  0  0  0
  -66.6392   36.2478  -45.5158 H   0  0  0  0  0
  -66.7428   35.4198  -43.1802 H   0  0  0  0  0
  -72.9235   34.2106  -46.5094 H   0  0  0  0  0
  -73.0046   33.4295  -44.1880 H   0  0  0  0  0
  -68.5878   35.9791  -47.0160 H   0  0  0  0  0
  -70.8556   35.2636  -47.3516 H   0  0  0  0  0
  -68.8199   34.3943  -42.3468 H   0  0  0  0  0
  -71.7673   33.0725  -39.2850 H   0  0  0  0  0
  -70.6931   31.7051  -38.7540 H   0  0  0  0  0
  1  2  4  0  0  0
  5  1  4  0  0  0
  2  7  4  0  0  0
  4  3  4  0  0  0
  3  6  4  0  0  0
 12  4  4  0  0  0
 13  5  4  0  0  0
  6 13  4  0  0  0
  7 14  4  0  0  0
 10  8  4  0  0  0
  8 18  4  0  0  0
 10  9  1  0  0  0
  9 16  1  0  0  0
  9 17  2  0  0  0
 15 10  4  0  0  0
 11 12  1  0  0  0
 11 15  4  0  0  0
 11 18  4  0  0  0
 12 14  4  0  0  0
 13 14  4  0  0  0
  1 19  1  0  0  0
  2 20  1  0  0  0
  3 21  1  0  0  0
  4 22  1  0  0  0
  5 23  1  0  0  0
  6 24  1  0  0  0
  7 25  1  0  0  0
  8 26  1  0  0  0
 16 27  1  0  0  0
M  END
$$$$
