6htn_ligand
  -I-interpret- 

 26 26  0  0  0  0  0  0  0  0999 V2000
   98.0860   53.6910   42.5560 C   0  0  0  0  0
   96.5650   53.7300   42.7240 C   0  0  0  0  0
   96.0560   54.6390   43.7930 C   0  0  0  0  0
   96.5280   56.0500   43.4790 C   0  0  0  0  0
   98.0550   55.8860   43.3910 C   0  0  0  0  0
   98.6910   57.2500   42.9760 C   0  0  0  0  0
   98.4630   53.2660   43.8190 O   0  0  0  0  0
   96.1170   52.3900   43.1480 O   0  0  0  0  0
   94.6150   54.6850   43.9100 O   0  0  0  0  0
   96.0970   56.4780   42.1650 O   0  0  0  0  0
   98.4660   55.0730   42.2850 O   0  0  0  0  0
   99.9080   53.1120   43.8710 C   0  0  0  0  0
   98.5176   53.0673   41.7732 H   0  0  0  0  0
   96.1896   54.0796   41.7623 H   0  0  0  0  0
   96.4415   54.2469   44.7341 H   0  0  0  0  0
   96.1559   56.7649   44.2129 H   0  0  0  0  0
   98.3494   55.4787   44.3582 H   0  0  0  0  0
   99.7713   57.1340   42.8883 H   0  0  0  0  0
   98.2791   57.5647   42.0172 H   0  0  0  0  0
   98.4652   58.0002   43.7338 H   0  0  0  0  0
   96.4077   51.7385   42.5056 H   0  0  0  0  0
   94.2830   53.8065   44.1088 H   0  0  0  0  0
   95.1443   56.5961   42.1647 H   0  0  0  0  0
  100.2203   52.3743   43.1318 H   0  0  0  0  0
  100.3822   54.0691   43.6538 H   0  0  0  0  0
  100.2009   52.7775   44.8662 H   0  0  0  0  0
  1  2  1  0  0  0
  1  7  1  0  0  0
  1 11  1  0  0  0
  2  3  1  0  0  0
  2  8  1  0  0  0
  3  4  1  0  0  0
  3  9  1  0  0  0
  4  5  1  0  0  0
  4 10  1  0  0  0
  5  6  1  0  0  0
  5 11  1  0  0  0
  7 12  1  0  0  0
  1 13  1  0  0  0
  2 14  1  0  0  0
  3 15  1  0  0  0
  4 16  1  0  0  0
  5 17  1  0  0  0
  6 18  1  0  0  0
  6 19  1  0  0  0
  6 20  1  0  0  0
  8 21  1  0  0  0
  9 22  1  0  0  0
 10 23  1  0  0  0
 12 24  1  0  0  0
 12 25  1  0  0  0
 12 26  1  0  0  0
M  END
$$$$
