5nob_ligand
  -I-interpret- 

 51 56  0  0  0  0  0  0  0  0999 V2000
   24.3720    8.5280  -26.3240 C   0  0  0  0  0
   24.8810    6.4120  -27.3480 C   0  0  0  0  0
   30.1990   -0.8170  -26.8870 O   0  0  0  0  0
   31.0130   -0.1580  -27.5210 C   0  0  0  0  0
   32.1820   -0.6020  -27.9250 N   0  0  0  0  0
   32.7620    0.4080  -28.5590 C   0  0  0  0  0
   33.9620    0.4620  -29.1620 C   0  0  0  0  0
   34.3490    1.6570  -29.7700 C   0  0  0  0  0
   35.5840    1.7480  -30.4140 C   0  0  0  0  0
   36.5600    1.9090  -30.9350 N   0  0  0  0  0
   33.5020    2.7630  -29.7280 C   0  0  0  0  0
   32.2700    2.6450  -29.0840 C   0  0  0  0  0
   31.9310    1.4760  -28.5170 C   0  0  0  0  0
   30.8390    1.1120  -27.8490 N   0  0  0  0  0
   29.5320    1.7610  -27.4570 C   0  0  0  0  0
   28.7560    2.1220  -28.7270 C   0  0  0  0  0
   29.6020    3.2260  -27.0520 C   0  0  0  0  0
   28.7630    3.5880  -28.2950 C   0  0  0  0  0
   27.3550    4.0940  -27.8730 C   0  0  0  0  0
   26.3650    3.3590  -27.3640 N   0  0  0  0  0
   25.3530    4.1290  -27.1260 N   0  0  0  0  0
   25.7010    5.3670  -27.4860 C   0  0  0  0  0
   25.2330    7.4300  -26.5290 N   0  0  0  0  0
   23.1400    8.5410  -26.9880 N   0  0  0  0  0
   22.7700    7.4840  -27.8240 C   0  0  0  0  0
   23.6440    6.4230  -28.0010 C   0  0  0  0  0
   26.9630    5.3640  -27.9500 N   0  0  0  0  0
   27.7130    6.3710  -28.4110 C   0  0  0  0  0
   27.4390    6.9140  -29.6660 C   0  0  0  0  0
   26.0770    6.3260  -30.6080 Cl  0  0  0  0  0
   28.2230    7.9520  -30.1620 C   0  0  0  0  0
   29.2860    8.4310  -29.3980 C   0  0  0  0  0
   29.5800    7.8810  -28.1490 C   0  0  0  0  0
   28.7920    6.8450  -27.6530 C   0  0  0  0  0
   24.6591    9.3468  -25.6643 H   0  0  0  0  0
   32.5660   -1.5358  -27.7801 H   0  0  0  0  0
   34.6183   -0.4082  -29.1758 H   0  0  0  0  0
   33.7972    3.7047  -30.1907 H   0  0  0  0  0
   31.5884    3.4946  -29.0415 H   0  0  0  0  0
   29.1637    1.0604  -26.7076 H   0  0  0  0  0
   27.8164    1.6208  -28.9595 H   0  0  0  0  0
   29.1383    1.8346  -29.7065 H   0  0  0  0  0
   30.5652    3.7053  -26.8770 H   0  0  0  0  0
   29.2817    3.5404  -26.0587 H   0  0  0  0  0
   29.0870    4.3558  -28.9975 H   0  0  0  0  0
   21.8051    7.4939  -28.3310 H   0  0  0  0  0
   23.3663    5.5938  -28.6517 H   0  0  0  0  0
   28.0077    8.3860  -31.1384 H   0  0  0  0  0
   29.8973    9.2478  -29.7818 H   0  0  0  0  0
   30.4199    8.2594  -27.5663 H   0  0  0  0  0
   29.0135    6.4054  -26.6805 H   0  0  0  0  0
 23  1  4  0  0  0
  1 24  4  0  0  0
 22  2  1  0  0  0
  2 23  4  0  0  0
  2 26  4  0  0  0
  4  3  2  0  0  0
  4  5  1  0  0  0
 14  4  1  0  0  0
  6  5  1  0  0  0
  6  7  4  0  0  0
 13  6  4  0  0  0
  7  8  4  0  0  0
  8  9  1  0  0  0
 11  8  4  0  0  0
  9 10  3  0  0  0
 12 11  4  0  0  0
 13 12  4  0  0  0
 14 13  1  0  0  0
 15 14  1  0  0  0
 16 15  1  0  0  0
 17 15  1  0  0  0
 18 16  1  0  0  0
 18 17  1  0  0  0
 19 18  1  0  0  0
 20 19  4  0  0  0
 19 27  4  0  0  0
 21 20  4  0  0  0
 21 22  4  0  0  0
 22 27  4  0  0  0
 24 25  4  0  0  0
 25 26  4  0  0  0
 27 28  1  0  0  0
 28 29  4  0  0  0
 28 34  4  0  0  0
 29 30  1  0  0  0
 29 31  4  0  0  0
 31 32  4  0  0  0
 32 33  4  0  0  0
 33 34  4  0  0  0
  1 35  1  0  0  0
  5 36  1  0  0  0
  7 37  1  0  0  0
 11 38  1  0  0  0
 12 39  1  0  0  0
 15 40  1  0  0  0
 16 41  1  0  0  0
 16 42  1  0  0  0
 17 43  1  0  0  0
 17 44  1  0  0  0
 18 45  1  0  0  0
 25 46  1  0  0  0
 26 47  1  0  0  0
 31 48  1  0  0  0
 32 49  1  0  0  0
 33 50  1  0  0  0
 34 51  1  0  0  0
M  END
$$$$
