### 
### Created by X-TOOL on Mon Sep 10 21:13:09 2018
### 

@<TRIPOS>MOLECULE
4dem_ligand
   42    43     1     0     0
SMALL
GAST_HUCK


@<TRIPOS>ATOM
      1 O5         14.8450   36.5870   -7.9400 O.co2     1 YS4        -0.5598
      2 P2         15.0580   35.3280   -7.0830 P.3       1 YS4         0.1025
      3 O6         16.4400   35.4000   -6.4240 O.co2     1 YS4        -0.5598
      4 O7         14.0780   35.1500   -5.9180 O.co2     1 YS4        -0.5598
      5 C13        14.9310   33.8420   -8.1510 C.3       1 YS4         0.1784
      6 P1         16.1540   33.8550   -9.4970 P.3       1 YS4         0.1025
      7 O3         17.5570   33.7080   -8.7730 O.co2     1 YS4        -0.5598
      8 O2         15.9720   32.5800  -10.3420 O.co2     1 YS4        -0.5598
      9 O4         16.0610   35.0730  -10.3990 O.co2     1 YS4        -0.5598
     10 N1         15.1780   32.6830   -7.2530 N.pl3     1 YS4        -0.2780
     11 C12        14.8940   31.3970   -7.5640 C.ar      1 YS4         0.1098
     12 C11        15.6940   30.3400   -7.0720 C.ar      1 YS4        -0.0132
     13 N2         13.9000   31.1470   -8.4950 N.ar      1 YS4        -0.2894
     14 C14        13.6390   29.8680   -8.8930 C.ar      1 YS4        -0.0069
     15 C15        14.3890   28.8360   -8.3600 C.ar      1 YS4        -0.0441
     16 C10        15.4330   29.0410   -7.4610 C.ar      1 YS4        -0.0185
     17 C9         16.2020   27.8970   -6.9680 C.ar      1 YS4        -0.0226
     18 C6         16.1980   26.7360   -7.6190 C.ar      1 YS4        -0.0590
     19 C5         16.9220   25.6470   -7.0950 C.ar      1 YS4        -0.0294
     20 C8         16.9600   28.0090   -5.7980 C.ar      1 YS4        -0.0590
     21 C7         17.7000   26.9200   -5.2450 C.ar      1 YS4        -0.0294
     22 C4         17.6300   25.7040   -5.9010 C.ar      1 YS4         0.0950
     23 O1         18.2850   24.5190   -5.4980 O.3       1 YS4        -0.3130
     24 C2         19.1730   24.6200   -4.4830 C.3       1 YS4         0.0766
     25 C1         20.4070   25.3410   -4.9510 C.3       1 YS4        -0.0344
     26 C3         19.6270   23.1530   -4.3230 C.3       1 YS4        -0.0344
     27 H1         13.9222   33.7799   -8.5852 H         1 YS4         0.0946
     28 H2         15.5942   32.8721   -6.3300 H         1 YS4         0.1829
     29 H3         16.5108   30.5490   -6.3906 H         1 YS4         0.0589
     30 H4         12.8566   29.6645   -9.6151 H         1 YS4         0.0771
     31 H5         14.1536   27.8200   -8.6555 H         1 YS4         0.0586
     32 H6         15.6427   26.6294   -8.5439 H         1 YS4         0.0615
     33 H7         16.9269   24.7170   -7.6519 H         1 YS4         0.0552
     34 H8         16.9870   28.9652   -5.2881 H         1 YS4         0.0615
     35 H9         18.2935   27.0415   -4.3461 H         1 YS4         0.0552
     36 H10        18.7424   25.0641   -3.5734 H         1 YS4         0.0646
     37 H11        21.1235   25.4188   -4.1200 H         1 YS4         0.0258
     38 H12        20.1341   26.3494   -5.2954 H         1 YS4         0.0258
     39 H13        20.8661   24.7822   -5.7798 H         1 YS4         0.0258
     40 H14        20.3676   23.0847   -3.5125 H         1 YS4         0.0258
     41 H15        20.0792   22.8045   -5.2632 H         1 YS4         0.0258
     42 H16        18.7577   22.5246   -4.0792 H         1 YS4         0.0258
@<TRIPOS>BOND
     1    1    2 ar 
     2    2    3 ar 
     3    2    4 ar 
     4    2    5 1  
     5    5    6 1  
     6    5   10 1  
     7    6    7 ar 
     8    6    8 ar 
     9    6    9 ar 
    10   10   11 1  
    11   11   12 ar 
    12   11   13 ar 
    13   12   16 ar 
    14   13   14 ar 
    15   14   15 ar 
    16   15   16 ar 
    17   16   17 1  
    18   17   18 ar 
    19   17   20 ar 
    20   18   19 ar 
    21   19   22 ar 
    22   20   21 ar 
    23   21   22 ar 
    24   22   23 1  
    25   23   24 1  
    26   24   25 1  
    27   24   26 1  
    28    5   27 1  
    29   10   28 1  
    30   12   29 1  
    31   14   30 1  
    32   15   31 1  
    33   18   32 1  
    34   19   33 1  
    35   20   34 1  
    36   21   35 1  
    37   24   36 1  
    38   25   37 1  
    39   25   38 1  
    40   25   39 1  
    41   26   40 1  
    42   26   41 1  
    43   26   42 1  
@<TRIPOS>SUBSTRUCTURE
     1 YS4         1

