4dem_ligand
  -I-interpret- 

 46 47  0  0  0  0  0  0  0  0999 V2000
   14.8450   36.5870   -7.9400 O   0  0  0  0  0
   15.0580   35.3280   -7.0830 P   0  0  0  0  0
   16.4400   35.4000   -6.4240 O   0  0  0  0  0
   14.0780   35.1500   -5.9180 O   0  0  0  0  0
   14.9310   33.8420   -8.1510 C   0  0  0  0  0
   16.1540   33.8550   -9.4970 P   0  0  0  0  0
   17.5570   33.7080   -8.7730 O   0  0  0  0  0
   15.9720   32.5800  -10.3420 O   0  0  0  0  0
   16.0610   35.0730  -10.3990 O   0  0  0  0  0
   15.1780   32.6830   -7.2530 N   0  0  0  0  0
   14.8940   31.3970   -7.5640 C   0  0  0  0  0
   15.6940   30.3400   -7.0720 C   0  0  0  0  0
   13.9000   31.1470   -8.4950 N   0  0  0  0  0
   13.6390   29.8680   -8.8930 C   0  0  0  0  0
   14.3890   28.8360   -8.3600 C   0  0  0  0  0
   15.4330   29.0410   -7.4610 C   0  0  0  0  0
   16.2020   27.8970   -6.9680 C   0  0  0  0  0
   16.1980   26.7360   -7.6190 C   0  0  0  0  0
   16.9220   25.6470   -7.0950 C   0  0  0  0  0
   16.9600   28.0090   -5.7980 C   0  0  0  0  0
   17.7000   26.9200   -5.2450 C   0  0  0  0  0
   17.6300   25.7040   -5.9010 C   0  0  0  0  0
   18.2850   24.5190   -5.4980 O   0  0  0  0  0
   19.1730   24.6200   -4.4830 C   0  0  0  0  0
   20.4070   25.3410   -4.9510 C   0  0  0  0  0
   19.6270   23.1530   -4.3230 C   0  0  0  0  0
   15.5019   36.6114   -8.6397 H   0  0  0  0  0
   17.1108   35.5125   -7.1014 H   0  0  0  0  0
   13.9534   33.8014   -8.6314 H   0  0  0  0  0
   17.5502   32.9227   -8.2209 H   0  0  0  0  0
   16.0306   31.8092   -9.7728 H   0  0  0  0  0
   15.5902   32.8703   -6.3390 H   0  0  0  0  0
   16.5153   30.5502   -6.3869 H   0  0  0  0  0
   12.8522   29.6634   -9.6191 H   0  0  0  0  0
   14.1523   27.8144   -8.6572 H   0  0  0  0  0
   15.6397   26.6288   -8.5490 H   0  0  0  0  0
   16.9269   24.7119   -7.6550 H   0  0  0  0  0
   16.9871   28.9705   -5.2853 H   0  0  0  0  0
   18.2968   27.0421   -4.3411 H   0  0  0  0  0
   18.7548   25.1180   -3.6082 H   0  0  0  0  0
   20.8609   24.7863   -5.7722 H   0  0  0  0  0
   20.1352   26.3400   -5.2920 H   0  0  0  0  0
   21.1162   25.4174   -4.1268 H   0  0  0  0  0
   18.7648   22.5315   -4.0815 H   0  0  0  0  0
   20.0749   22.8089   -5.2553 H   0  0  0  0  0
   20.3608   23.0866   -3.5197 H   0  0  0  0  0
  1  2  1  0  0  0
  2  3  1  0  0  0
  2  4  2  0  0  0
  2  5  1  0  0  0
  5  6  1  0  0  0
  5 10  1  0  0  0
  6  7  1  0  0  0
  6  8  1  0  0  0
  6  9  2  0  0  0
 10 11  1  0  0  0
 11 12  4  0  0  0
 11 13  4  0  0  0
 12 16  4  0  0  0
 13 14  4  0  0  0
 14 15  4  0  0  0
 15 16  4  0  0  0
 16 17  1  0  0  0
 17 18  4  0  0  0
 17 20  4  0  0  0
 18 19  4  0  0  0
 19 22  4  0  0  0
 20 21  4  0  0  0
 21 22  4  0  0  0
 22 23  1  0  0  0
 23 24  1  0  0  0
 24 25  1  0  0  0
 24 26  1  0  0  0
  1 27  1  0  0  0
  3 28  1  0  0  0
  5 29  1  0  0  0
  7 30  1  0  0  0
  8 31  1  0  0  0
 10 32  1  0  0  0
 12 33  1  0  0  0
 14 34  1  0  0  0
 15 35  1  0  0  0
 18 36  1  0  0  0
 19 37  1  0  0  0
 20 38  1  0  0  0
 21 39  1  0  0  0
 24 40  1  0  0  0
 25 41  1  0  0  0
 25 42  1  0  0  0
 25 43  1  0  0  0
 26 44  1  0  0  0
 26 45  1  0  0  0
 26 46  1  0  0  0
M  END
$$$$
