3bf1_ligand
  -I-interpret- 

 42 44  0  0  0  0  0  0  0  0999 V2000
    4.0940   15.7490   24.2380 P   0  0  0  0  0
    4.2600   15.2290   22.8310 O   0  0  0  0  0
    2.8110   16.5190   24.4500 O   0  0  0  0  0
    4.4090   14.7240   25.3090 O   0  0  0  0  0
    5.6210   17.6790   25.7150 P   0  0  0  0  0
    4.4830   17.5230   26.6930 O   0  0  0  0  0
    6.0960   19.0640   25.3410 O   0  0  0  0  0
    5.2430   16.8900   24.3510 O   0  0  0  0  0
    6.8820   16.8350   26.2610 O   0  0  0  0  0
    8.2060   17.3630   26.2400 C   0  0  0  0  0
    8.4760   18.0270   27.5840 C   0  0  0  0  0
    8.8030   17.0340   28.5570 O   0  0  0  0  0
    9.6460   18.9900   27.5270 C   0  0  0  0  0
    9.2220   20.2150   28.1400 O   0  0  0  0  0
   10.7670   18.3080   28.3050 C   0  0  0  0  0
   11.5430   19.2400   29.0740 O   0  0  0  0  0
   10.0590   17.2880   29.1880 C   0  0  0  0  0
   10.7970   16.0040   29.2820 N   0  0  0  0  0
   10.6940   14.9900   28.3980 C   0  0  0  0  0
   11.4820   13.9430   28.7460 N   0  0  0  0  0
   12.1060   14.2780   29.8880 C   0  0  0  0  0
   13.0870   13.6220   30.7890 C   0  0  0  0  0
   13.5560   12.3750   30.5200 N   0  0  0  0  0
   13.4970   14.3180   31.8740 N   0  0  0  0  0
   13.0430   15.5600   32.1390 C   0  0  0  0  0
   12.1540   16.2160   31.3650 N   0  0  0  0  0
   11.6540   15.6390   30.2410 C   0  0  0  0  0
    2.7668   16.8207   25.3603 H   0  0  0  0  0
    4.2836   15.1188   26.1750 H   0  0  0  0  0
    6.8200   18.9944   24.7144 H   0  0  0  0  0
    8.3057   18.0918   25.4356 H   0  0  0  0  0
    8.9255   16.5628   26.0665 H   0  0  0  0  0
    7.5699   18.5731   27.8467 H   0  0  0  0  0
    9.9894   19.2254   26.5196 H   0  0  0  0  0
    9.9434   20.8481   28.1197 H   0  0  0  0  0
   11.4918   17.8389   27.6397 H   0  0  0  0  0
   12.2337   18.7678   29.5448 H   0  0  0  0  0
    9.9716   17.6828   30.2002 H   0  0  0  0  0
   10.0566   15.0100   27.5140 H   0  0  0  0  0
   13.2342   11.8772   29.6899 H   0  0  0  0  0
   14.2297   11.9370   31.1482 H   0  0  0  0  0
   13.4163   16.0632   33.0309 H   0  0  0  0  0
  1  2  2  0  0  0
  1  3  1  0  0  0
  1  4  1  0  0  0
  8  1  1  0  0  0
  5  6  2  0  0  0
  5  7  1  0  0  0
  5  8  1  0  0  0
  5  9  1  0  0  0
  9 10  1  0  0  0
 10 11  1  0  0  0
 11 12  1  0  0  0
 11 13  1  0  0  0
 12 17  1  0  0  0
 13 14  1  0  0  0
 13 15  1  0  0  0
 15 16  1  0  0  0
 15 17  1  0  0  0
 17 18  1  0  0  0
 18 19  4  0  0  0
 18 27  4  0  0  0
 19 20  4  0  0  0
 20 21  4  0  0  0
 21 22  4  0  0  0
 21 27  4  0  0  0
 22 23  1  0  0  0
 22 24  4  0  0  0
 24 25  4  0  0  0
 25 26  4  0  0  0
 26 27  4  0  0  0
  3 28  1  0  0  0
  4 29  1  0  0  0
  7 30  1  0  0  0
 10 31  1  0  0  0
 10 32  1  0  0  0
 11 33  1  0  0  0
 13 34  1  0  0  0
 14 35  1  0  0  0
 15 36  1  0  0  0
 16 37  1  0  0  0
 17 38  1  0  0  0
 19 39  1  0  0  0
 23 40  1  0  0  0
 23 41  1  0  0  0
 25 42  1  0  0  0
M  END
$$$$
