4aa2_ligand
  -I-interpret- 

110112  0  0  0  0  0  0  0  0999 V2000
   25.5220    9.3440   14.3110 N   0  3  0  0  0
   25.5600    8.7300   12.9450 C   0  0  0  0  0
   24.9820    7.3020   12.9490 C   0  0  0  0  0
   24.9070    6.6750   14.0160 O   0  0  0  0  0
   26.9970    8.7220   12.4140 C   0  0  0  0  0
   27.1070    9.0270   10.9190 C   0  0  0  0  0
   28.1380    8.1350   10.2310 C   0  0  0  0  0
   29.4500    8.2470   10.8640 N   0  0  0  0  0
   30.3670    9.1580   10.5470 C   0  0  0  0  0
   30.1300   10.0490    9.5880 N   0  0  0  0  0
   31.5250    9.1790   11.1940 N   0  0  0  0  0
   24.5620    6.7850   11.7650 N   0  0  0  0  0
   24.0340    5.4210   11.6680 C   0  0  0  0  0
   25.0070    4.3470   12.1460 C   0  0  0  0  0
   26.2310    4.5170   12.0580 O   0  0  0  0  0
   23.7700    5.2440   10.1600 C   0  0  0  0  0
   24.5390    6.3380    9.4930 C   0  0  0  0  0
   24.4410    7.4720   10.4680 C   0  0  0  0  0
   24.4430    3.2490   12.6430 N   0  0  0  0  0
   25.2120    2.1170   13.1330 C   0  0  0  0  0
   25.2470    1.0480   12.0490 C   0  0  0  0  0
   24.1980    0.6370   11.5520 O   0  0  0  0  0
   24.5620    1.5540   14.3920 C   0  0  0  0  0
   24.2060    2.5750   15.4670 C   0  0  0  0  0
   25.2700    2.6340   16.5480 C   0  0  0  0  0
   26.2060    3.7960   16.3580 C   0  0  0  0  0
   25.6340    5.0430   16.9210 N   0  3  0  0  0
   26.4470    0.5920   11.7000 N   0  0  0  0  0
   26.6460   -0.2640   10.5250 C   0  0  0  0  0
   27.3650   -1.5950   10.8480 C   0  0  0  0  0
   28.0680   -1.6860   11.8580 O   0  0  0  0  0
   27.3870    0.5170    9.3990 C   0  0  0  0  0
   28.8170    0.8710    9.8180 C   0  0  0  0  0
   26.6170    1.7880    9.0240 C   0  0  0  0  0
   29.6410    1.4980    8.7160 C   0  0  0  0  0
   27.1940   -2.6320    9.9970 N   0  0  0  0  0
   27.8960   -3.8910   10.2480 C   0  0  0  0  0
   29.3980   -3.7390   10.0110 C   0  0  0  0  0
   29.8140   -2.7780    9.3500 O   0  0  0  0  0
   27.3100   -4.8520    9.1940 C   0  0  0  0  0
   26.1910   -4.1320    8.5490 C   0  0  0  0  0
   26.4520   -2.6810    8.7270 C   0  0  0  0  0
   30.2110   -4.6700   10.5510 N   0  0  0  0  0
   31.6500   -4.6520   10.3020 C   0  0  0  0  0
   31.9760   -4.8190    8.8200 C   0  0  0  0  0
   33.0810   -4.5050    8.3970 O   0  0  0  0  0
   32.1640   -5.8630   11.0870 C   0  0  0  0  0
   30.9730   -6.6830   11.3910 C   0  0  0  0  0
   29.8440   -5.7270   11.5090 C   0  0  0  0  0
   31.1490   -5.2650    8.0230 O   0  0  0  0  0
   24.5620    9.3447   14.6555 H   0  0  0  0  0
   26.1109    8.8014   14.9428 H   0  0  0  0  0
   25.8674   10.3025   14.2614 H   0  0  0  0  0
   24.9370    9.3355   12.2868 H   0  0  0  0  0
   27.3949    7.7193   12.5705 H   0  0  0  0  0
   27.5432    9.5016   12.9450 H   0  0  0  0  0
   27.4210   10.0644   10.8037 H   0  0  0  0  0
   26.1355    8.8436   10.4601 H   0  0  0  0  0
   28.2281    8.4498    9.1914 H   0  0  0  0  0
   27.8049    7.0999   10.3073 H   0  0  0  0  0
   29.6793    7.5800   11.6008 H   0  0  0  0  0
   30.8374   10.7451    9.3524 H   0  0  0  0  0
   29.2409   10.0361    9.0883 H   0  0  0  0  0
   31.7097    8.4987   11.9312 H   0  0  0  0  0
   23.1567    5.3023   12.3039 H   0  0  0  0  0
   22.7063    5.3037    9.9296 H   0  0  0  0  0
   24.0861    4.2612    9.8104 H   0  0  0  0  0
   24.1402    6.5930    8.5112 H   0  0  0  0  0
   25.5700    6.0562    9.2792 H   0  0  0  0  0
   25.2041    8.2352   10.3150 H   0  0  0  0  0
   23.5171    8.0420   10.3701 H   0  0  0  0  0
   23.4249    3.1995   12.6819 H   0  0  0  0  0
   26.2259    2.4351   13.3757 H   0  0  0  0  0
   25.2905    0.8773   14.8387 H   0  0  0  0  0
   23.6233    1.0983   14.0768 H   0  0  0  0  0
   23.2622    2.2802   15.9257 H   0  0  0  0  0
   24.1313    3.5573   15.0006 H   0  0  0  0  0
   25.8546    1.7153   16.5001 H   0  0  0  0  0
   24.7712    2.7530   17.5098 H   0  0  0  0  0
   26.3700    3.9396   15.2900 H   0  0  0  0  0
   27.1408    3.5778   16.8745 H   0  0  0  0  0
   26.2894    5.8113   16.7776 H   0  0  0  0  0
   24.7532    5.2538   16.4517 H   0  0  0  0  0
   25.4673    4.9186   17.9196 H   0  0  0  0  0
   27.2554    0.8458   12.2679 H   0  0  0  0  0
   25.6529   -0.5407   10.1711 H   0  0  0  0  0
   27.4386   -0.1328    8.5254 H   0  0  0  0  0
   29.3106   -0.0580   10.1032 H   0  0  0  0  0
   28.7471    1.6000   10.6253 H   0  0  0  0  0
   25.6223    1.5175    8.6699 H   0  0  0  0  0
   26.5299    2.4303    9.9003 H   0  0  0  0  0
   27.1532    2.3169    8.2361 H   0  0  0  0  0
   29.7120    0.8048    7.8779 H   0  0  0  0  0
   29.1629    2.4205    8.3866 H   0  0  0  0  0
   30.6399    1.7191    9.0919 H   0  0  0  0  0
   27.7708   -4.2334   11.2752 H   0  0  0  0  0
   26.9652   -5.7768    9.6566 H   0  0  0  0  0
   28.0654   -5.1372    8.4618 H   0  0  0  0  0
   25.2394   -4.4120    9.0008 H   0  0  0  0  0
   26.1262   -4.3863    7.4911 H   0  0  0  0  0
   27.0075   -2.2465    7.8959 H   0  0  0  0  0
   25.5385   -2.0868    8.7481 H   0  0  0  0  0
   32.1023   -3.7062   10.6005 H   0  0  0  0  0
   32.6761   -5.5554   11.9988 H   0  0  0  0  0
   32.8962   -6.4273   10.5095 H   0  0  0  0  0
   31.1079   -7.2530   12.3102 H   0  0  0  0  0
   30.7887   -7.4200   10.6094 H   0  0  0  0  0
   28.8779   -6.1818   11.2899 H   0  0  0  0  0
   29.7093   -5.3523   12.5237 H   0  0  0  0  0
   30.3343   -5.4674    8.4887 H   0  0  0  0  0
  1  2  1  0  0  0
  2  3  1  0  0  0
  2  5  1  0  0  0
  3  4  2  0  0  0
  3 12  1  0  0  0
  5  6  1  0  0  0
  6  7  1  0  0  0
  7  8  1  0  0  0
  8  9  1  0  0  0
  9 10  1  0  0  0
  9 11  2  0  0  0
 12 13  1  0  0  0
 12 18  1  0  0  0
 13 14  1  0  0  0
 13 16  1  0  0  0
 14 15  2  0  0  0
 14 19  1  0  0  0
 16 17  1  0  0  0
 17 18  1  0  0  0
 19 20  1  0  0  0
 20 21  1  0  0  0
 20 23  1  0  0  0
 21 22  2  0  0  0
 21 28  1  0  0  0
 23 24  1  0  0  0
 24 25  1  0  0  0
 25 26  1  0  0  0
 26 27  1  0  0  0
 28 29  1  0  0  0
 29 30  1  0  0  0
 29 32  1  0  0  0
 30 31  2  0  0  0
 30 36  1  0  0  0
 32 33  1  0  0  0
 32 34  1  0  0  0
 33 35  1  0  0  0
 36 37  1  0  0  0
 36 42  1  0  0  0
 37 38  1  0  0  0
 37 40  1  0  0  0
 38 39  2  0  0  0
 38 43  1  0  0  0
 40 41  1  0  0  0
 41 42  1  0  0  0
 43 44  1  0  0  0
 43 49  1  0  0  0
 44 45  1  0  0  0
 44 47  1  0  0  0
 45 46  2  0  0  0
 45 50  1  0  0  0
 47 48  1  0  0  0
 48 49  1  0  0  0
  1 51  1  0  0  0
  1 52  1  0  0  0
  1 53  1  0  0  0
  2 54  1  0  0  0
  5 55  1  0  0  0
  5 56  1  0  0  0
  6 57  1  0  0  0
  6 58  1  0  0  0
  7 59  1  0  0  0
  7 60  1  0  0  0
  8 61  1  0  0  0
 10 62  1  0  0  0
 10 63  1  0  0  0
 11 64  1  0  0  0
 13 65  1  0  0  0
 16 66  1  0  0  0
 16 67  1  0  0  0
 17 68  1  0  0  0
 17 69  1  0  0  0
 18 70  1  0  0  0
 18 71  1  0  0  0
 19 72  1  0  0  0
 20 73  1  0  0  0
 23 74  1  0  0  0
 23 75  1  0  0  0
 24 76  1  0  0  0
 24 77  1  0  0  0
 25 78  1  0  0  0
 25 79  1  0  0  0
 26 80  1  0  0  0
 26 81  1  0  0  0
 27 82  1  0  0  0
 27 83  1  0  0  0
 27 84  1  0  0  0
 28 85  1  0  0  0
 29 86  1  0  0  0
 32 87  1  0  0  0
 33 88  1  0  0  0
 33 89  1  0  0  0
 34 90  1  0  0  0
 34 91  1  0  0  0
 34 92  1  0  0  0
 35 93  1  0  0  0
 35 94  1  0  0  0
 35 95  1  0  0  0
 37 96  1  0  0  0
 40 97  1  0  0  0
 40 98  1  0  0  0
 41 99  1  0  0  0
 41100  1  0  0  0
 42101  1  0  0  0
 42102  1  0  0  0
 44103  1  0  0  0
 47104  1  0  0  0
 47105  1  0  0  0
 48106  1  0  0  0
 48107  1  0  0  0
 49108  1  0  0  0
 49109  1  0  0  0
 50110  1  0  0  0
M  END
$$$$
