5vb7_ligand
  -I-interpret- 

 70 73  0  0  0  0  0  0  0  0999 V2000
   -3.1270   24.5110   14.9560 C   0  0  0  0  0
   -1.7190   24.8270   15.4160 C   0  0  0  0  0
   -0.6940   24.4050   14.3660 C   0  0  0  0  0
   -2.4480   24.7660   12.5790 C   0  0  0  0  0
    2.3520   26.1040   15.8170 C   0  0  0  0  0
    2.9580   23.9910   15.2510 C   0  0  0  0  0
   -5.6590   26.1360   13.4210 C   0  0  0  0  0
   -7.8970   26.9720   12.8790 C   0  0  0  0  0
   -7.9440   28.0520   13.9120 C   0  0  0  0  0
   -8.9770   28.3760   14.6690 C   0  0  0  0  0
   -8.9190   29.4820   15.6750 C   0  0  0  0  0
   -7.1080   25.3090   15.7240 C   0  0  0  0  0
   -8.6940   23.6920   16.5230 C   0  0  0  0  0
   -5.3650   23.6970   13.3690 C   0  0  0  0  0
   -4.8480   25.0580   13.4530 N   0  0  0  0  0
   -3.4010   25.2480   13.6560 C   0  0  0  0  0
   -1.0200   25.0730   13.0270 C   0  0  0  0  0
    0.7160   24.6760   14.8420 C   0  0  0  0  0
    1.0600   25.9030   15.3810 C   0  0  0  0  0
    3.3040   25.1730   15.7610 N   0  0  0  0  0
    1.6920   23.6980   14.7870 C   0  0  0  0  0
   -5.2150   27.2590   13.5290 O   0  0  0  0  0
   -7.0100   25.8990   13.3370 N   0  0  0  0  0
  -10.2980   27.6770   14.5880 C   0  0  0  0  0
   -7.5840   25.1500   14.4230 C   0  0  0  0  0
   -7.6590   24.5750   16.7590 C   0  0  0  0  0
   -9.1700   23.5420   15.2350 C   0  0  0  0  0
  -10.2060   22.6420   15.0240 O   0  0  0  0  0
  -11.3890   23.0840   14.4520 C   0  0  0  0  0
  -11.9910   24.2380   14.9160 C   0  0  0  0  0
  -13.1720   24.6630   14.3360 C   0  0  0  0  0
  -13.7450   23.9440   13.3130 C   0  0  0  0  0
  -13.1380   22.7970   12.8560 C   0  0  0  0  0
  -11.9560   22.3560   13.4220 C   0  0  0  0  0
   -8.6260   24.2570   14.1780 C   0  0  0  0  0
   -3.8414   24.8284   15.7156 H   0  0  0  0  0
   -3.2294   23.4374   14.7980 H   0  0  0  0  0
   -1.5210   24.2805   16.3381 H   0  0  0  0  0
   -1.6355   25.9022   15.5746 H   0  0  0  0  0
   -0.7519   23.3276   14.2113 H   0  0  0  0  0
   -2.6611   25.2731   11.6379 H   0  0  0  0  0
   -2.5689   23.6935   12.4264 H   0  0  0  0  0
    2.6096   27.0790   16.2308 H   0  0  0  0  0
    3.7183   23.2118   15.1975 H   0  0  0  0  0
   -7.5199   27.3809   11.9416 H   0  0  0  0  0
   -8.8996   26.5738   12.7227 H   0  0  0  0  0
   -7.0321   28.6316   14.0552 H   0  0  0  0  0
   -8.1432   29.2636   16.4088 H   0  0  0  0  0
   -8.6889   30.4198   15.1692 H   0  0  0  0  0
   -9.8828   29.5655   16.1772 H   0  0  0  0  0
   -6.3005   26.0128   15.9257 H   0  0  0  0  0
   -9.1298   23.1206   17.3426 H   0  0  0  0  0
   -6.0439   23.5155   14.2023 H   0  0  0  0  0
   -5.9006   23.5706   12.4281 H   0  0  0  0  0
   -4.5356   22.9912   13.4140 H   0  0  0  0  0
   -3.2016   26.3196   13.6470 H   0  0  0  0  0
   -0.3323   24.6886   12.2737 H   0  0  0  0  0
   -0.9209   26.1518   13.1469 H   0  0  0  0  0
    0.3198   26.6993   15.4597 H   0  0  0  0  0
    1.4649   22.7112   14.3835 H   0  0  0  0  0
  -10.7029   27.7835   13.5816 H   0  0  0  0  0
  -10.1629   26.6198   14.8166 H   0  0  0  0  0
  -10.9869   28.1204   15.3070 H   0  0  0  0  0
   -7.2723   24.6949   17.7710 H   0  0  0  0  0
  -11.5402   24.8065   15.7295 H   0  0  0  0  0
  -13.6524   25.5744   14.6920 H   0  0  0  0  0
  -14.6791   24.2826   12.8648 H   0  0  0  0  0
  -13.5921   22.2319   12.0420 H   0  0  0  0  0
  -11.4771   21.4459   13.0608 H   0  0  0  0  0
   -9.0093   24.1220   13.1666 H   0  0  0  0  0
  1  2  1  0  0  0
 16  1  1  0  0  0
  2  3  1  0  0  0
 17  3  1  0  0  0
  3 18  1  0  0  0
 16  4  1  0  0  0
  4 17  1  0  0  0
 19  5  4  0  0  0
  5 20  4  0  0  0
  6 20  4  0  0  0
 21  6  4  0  0  0
  7 15  1  0  0  0
  7 22  2  0  0  0
 23  7  1  0  0  0
  8  9  1  0  0  0
 23  8  1  0  0  0
  9 10  2  0  0  0
 10 11  1  0  0  0
 10 24  1  0  0  0
 25 12  4  0  0  0
 12 26  4  0  0  0
 26 13  4  0  0  0
 13 27  4  0  0  0
 15 14  1  0  0  0
 15 16  1  0  0  0
 18 19  4  0  0  0
 18 21  4  0  0  0
 23 25  1  0  0  0
 25 35  4  0  0  0
 27 28  1  0  0  0
 27 35  4  0  0  0
 28 29  1  0  0  0
 29 30  4  0  0  0
 29 34  4  0  0  0
 30 31  4  0  0  0
 31 32  4  0  0  0
 32 33  4  0  0  0
 33 34  4  0  0  0
  1 36  1  0  0  0
  1 37  1  0  0  0
  2 38  1  0  0  0
  2 39  1  0  0  0
  3 40  1  0  0  0
  4 41  1  0  0  0
  4 42  1  0  0  0
  5 43  1  0  0  0
  6 44  1  0  0  0
  8 45  1  0  0  0
  8 46  1  0  0  0
  9 47  1  0  0  0
 11 48  1  0  0  0
 11 49  1  0  0  0
 11 50  1  0  0  0
 12 51  1  0  0  0
 13 52  1  0  0  0
 14 53  1  0  0  0
 14 54  1  0  0  0
 14 55  1  0  0  0
 16 56  1  0  0  0
 17 57  1  0  0  0
 17 58  1  0  0  0
 19 59  1  0  0  0
 21 60  1  0  0  0
 24 61  1  0  0  0
 24 62  1  0  0  0
 24 63  1  0  0  0
 26 64  1  0  0  0
 30 65  1  0  0  0
 31 66  1  0  0  0
 32 67  1  0  0  0
 33 68  1  0  0  0
 34 69  1  0  0  0
 35 70  1  0  0  0
M  END
$$$$
