#	Name:			6rvf_ligand
#	Creating user name:	wangrx
#	Creation time:		Thu Aug  5 18:08:56 2021

#	Modifying user name:	wangrx
#	Modification time:	Thu Aug  5 18:09:16 2021

@<TRIPOS>MOLECULE
6rvf_ligand
   37    39     1     0     0
SMALL
GAST_HUCK


@<TRIPOS>ATOM
      1 C5         -6.4230    4.5800   15.4550 C.ar      1 KKH        -0.1314 
      2 C4         -5.2640    5.1500   14.9340 C.ar      1 KKH        -0.1050 
      3 C3         -4.0930    4.4150   14.9290 C.ar      1 KKH         0.0114 
      4 C2         -4.0840    3.1160   15.4400 C.ar      1 KKH        -0.1036 
      5 C1         -5.2410    2.5130   15.9660 C.ar      1 KKH        -0.1202 
      6 C6         -6.4090    3.3040   15.9590 C.ar      1 KKH        -0.1219 
      7 C7         -7.5280    2.4960   16.5490 C.3       1 KKH        -0.1200 
      8 O1         -7.0630    1.1580   16.5080 O.3       1 KKH        -0.8470 
      9 O3         -5.2400    0.9460   18.0360 O.3       1 KKH        -0.4105 
     10 C11         0.8680    9.3910   12.8740 C.ar      1 KKH        -0.1322 
     11 C10         0.1630    8.1880   12.8810 C.ar      1 KKH        -0.0989 
     12 C12         0.6960   10.3000   13.8970 C.ar      1 KKH        -0.1274 
     13 C13        -0.1780   10.0220   14.9250 C.ar      1 KKH        -0.1322 
     14 C14        -0.8860    8.8240   14.9410 C.ar      1 KKH        -0.0989 
     15 C9         -0.7030    7.9060   13.9110 C.ar      1 KKH         0.0178 
     16 O4         -3.3040    7.2060   15.0060 O.2       1 KKH        -0.3810 
     17 N1         -2.8960    5.0140   14.4570 N.am      1 KKH        -0.2277 
     18 N2         -1.3450    6.6260   13.9880 N.am      1 KKH        -0.2242 
     19 C8         -2.5610    6.3460   14.5200 C.2       1 KKH         0.3139 
     20 B1         -5.5920    1.0890   16.6200 B         1 KKH         4.0000 
     21 O2         -5.1460   -0.1150   15.8880 O.3       1 KKH        -0.4105 
     22 H1         -7.3450    5.1500   15.4624 H         1 KKH         0.0145 
     23 H2         -5.2798    6.1585   14.5369 H         1 KKH         0.0111 
     24 H3         -3.1568    2.5545   15.4312 H         1 KKH         0.0112 
     25 H5         -8.4445    2.6070   15.9509 H         1 KKH         0.0204 
     26 H6         -7.7266    2.8064   17.5854 H         1 KKH         0.0204 
     27 H8         -5.6297    0.1505   18.3793 H         1 KKH         0.2052 
     28 H9         -5.6297    0.1505   18.3793 H         1 KKH         0.2052 
     29 H10         1.5525    9.6122   12.0631 H         1 KKH         0.0201 
     30 H11         0.2976    7.4757   12.0750 H         1 KKH         0.0125 
     31 H12         1.2483   11.2327   13.8921 H         1 KKH         0.0371 
     32 H13        -0.3149   10.7400   15.7255 H         1 KKH         0.0201 
     33 H14        -1.5748    8.6075   15.7495 H         1 KKH         0.0125 
     34 H15        -2.2262    4.4034   14.0344 H         1 KKH         0.2230 
     35 H16        -0.8391    5.8524   13.6064 H         1 KKH         0.2253 
     36 H17        -5.4069   -0.0453   14.9772 H         1 KKH         0.2052 
     37 H18        -5.4070   -0.0453   14.9772 H         1 KKH         0.2052 
@<TRIPOS>BOND
     1    2    1 ar   
     2    1    6 ar   
     3    3    2 ar   
     4    3    4 ar   
     5   17    3 1    
     6    4    5 ar   
     7    5    6 ar   
     8    5   20 1    
     9    6    7 1    
    10    8    7 1    
    11   20    8 1    
    12   20    9 1    
    13   11   10 ar   
    14   10   12 ar   
    15   15   11 ar   
    16   13   12 ar   
    17   14   13 ar   
    18   15   14 ar   
    19   18   15 1    
    20   19   16 2    
    21   19   17 am   
    22   18   19 am   
    23   20   21 1    
    24    1   22 1    
    25    2   23 1    
    26    4   24 1    
    27    7   25 1    
    28    7   26 1    
    29    9   27 1    
    30    9   28 1    
    31   10   29 1    
    32   11   30 1    
    33   12   31 1    
    34   13   32 1    
    35   14   33 1    
    36   17   34 1    
    37   18   35 1    
    38   21   36 1    
    39   21   37 1    
@<TRIPOS>SUBSTRUCTURE
     1 KKH         1 PERM              0 ****  ****    0 ROOT 
