6rvf_ligand

Created by X-TOOL on Mon Aug  2 16:17:20 2021
 39 41  0  0  0  0  0  0  0  0999 V2000
   -6.4230    4.5800   15.4550  C 0  0  0  2  0  3
   -5.2640    5.1500   14.9340  C 0  0  0  2  0  3
   -4.0930    4.4150   14.9290  C 0  0  0  1  0  3
   -4.0840    3.1160   15.4400  C 0  0  0  2  0  3
   -5.2410    2.5130   15.9660  C 0  0  0  2  0  4
   -6.4090    3.3040   15.9590  C 0  0  0  1  0  3
   -7.5280    2.4960   16.5490  C 0  0  0  3  0  4
   -7.0630    1.1580   16.5080  O 0  0  0  2  0  3
   -5.2400    0.9460   18.0360  O 0  0  0  3  0  3
    0.8680    9.3910   12.8740  C 0  0  0  2  0  3
    0.1630    8.1880   12.8810  C 0  0  0  2  0  3
    0.6960   10.3000   13.8970  C 0  0  0  2  0  3
   -0.1780   10.0220   14.9250  C 0  0  0  2  0  3
   -0.8860    8.8240   14.9410  C 0  0  0  2  0  3
   -0.7030    7.9060   13.9110  C 0  0  0  1  0  3
   -3.3040    7.2060   15.0060  O 0  0  0  1  0  1
   -2.8960    5.0140   14.4570  N 0  0  0  2  0  3
   -1.3450    6.6260   13.9880  N 0  0  0  2  0  3
   -2.5610    6.3460   14.5200  C 0  0  0  1  0  3
   -5.5920    1.0890   16.6200  B 0  0  0  1  0  4
   -5.1460   -0.1150   15.8880  O 0  0  0  3  0  3
   -7.3450    5.1500   15.4624  H 0  0  0  1  0  1
   -5.2798    6.1585   14.5369  H 0  0  0  1  0  1
   -3.1568    2.5545   15.4312  H 0  0  0  1  0  1
   -5.2354    1.5007   16.3537  H 0  0  0  1  0  1
   -8.4445    2.6070   15.9509  H 0  0  0  1  0  1
   -7.7266    2.8064   17.5854  H 0  0  0  1  0  1
   -6.2658    1.0851   17.0196  H 0  0  0  1  0  1
   -5.6297    0.1505   18.3793  H 0  0  0  1  0  1
   -5.6297    0.1505   18.3793  H 0  0  0  1  0  1
    1.5525    9.6122   12.0631  H 0  0  0  1  0  1
    0.2976    7.4757   12.0750  H 0  0  0  1  0  1
    1.2483   11.2327   13.8921  H 0  0  0  1  0  1
   -0.3149   10.7400   15.7255  H 0  0  0  1  0  1
   -1.5748    8.6075   15.7495  H 0  0  0  1  0  1
   -2.2262    4.4034   14.0344  H 0  0  0  1  0  1
   -0.8391    5.8524   13.6064  H 0  0  0  1  0  1
   -5.4069   -0.0453   14.9772  H 0  0  0  1  0  1
   -5.4070   -0.0453   14.9772  H 0  0  0  1  0  1
  2  1  4  0  0  1
  1  6  4  0  0  1
  3  2  4  0  0  1
  3  4  4  0  0  1
 17  3  1  0  0  2
  4  5  4  0  0  1
  5  6  4  0  0  1
  5 20  1  0  0  1
  6  7  1  0  0  1
  8  7  1  0  0  1
 20  8  1  0  0  1
 20  9  1  0  0  2
 11 10  4  0  0  1
 10 12  4  0  0  1
 15 11  4  0  0  1
 13 12  4  0  0  1
 14 13  4  0  0  1
 15 14  4  0  0  1
 18 15  1  0  0  2
 19 16  2  0  0  2
 19 17  1  0  0  2
 18 19  1  0  0  2
 20 21  1  0  0  2
  1 22  1  0  0  2
  2 23  1  0  0  2
  4 24  1  0  0  2
  5 25  1  0  0  2
  7 26  1  0  0  2
  7 27  1  0  0  2
  8 28  1  0  0  2
  9 29  1  0  0  2
  9 30  1  0  0  2
 10 31  1  0  0  2
 11 32  1  0  0  2
 12 33  1  0  0  2
 13 34  1  0  0  2
 14 35  1  0  0  2
 17 36  1  0  0  2
 18 37  1  0  0  2
 21 38  1  0  0  2
 21 39  1  0  0  2
M  END
> <MOLECULAR_FORMULA>
C14H18N2O4B

> <MOLECULAR_WEIGHT>
289.0

> <NUM_HB_ATOMS>
6  

> <NUM_ROTOR>
0  

> <XLOGP2>
1.18 

$$$$
