2v8w_ligand
  -I-interpret- 

 52 54  0  0  0  0  0  0  0  0999 V2000
   39.3600   13.8400   56.2030 O   0  0  0  0  0
   39.8090   12.6210   57.2090 P   0  0  0  0  0
   41.0130   13.3330   58.0940 O   0  0  0  0  0
   40.2040   11.3810   56.4510 O   0  0  0  0  0
   38.5500   12.3130   58.2410 O   0  0  0  0  0
   37.3340   13.3310   58.4920 P   0  0  0  0  0
   36.7090   12.7060   59.8420 O   0  0  0  0  0
   37.7420   14.7490   58.5860 O   0  0  0  0  0
   36.3280   13.1590   57.3020 O   0  0  0  0  0
   35.2200   12.0250   57.2250 P   0  0  0  0  0
   34.4780   12.4210   55.8210 O   0  0  0  0  0
   34.3080   12.0670   58.4000 O   0  0  0  0  0
   35.9550   10.5980   57.0580 O   0  0  0  0  0
   36.4120    9.8390   58.1740 C   0  0  0  0  0
   36.0570    8.3710   58.0920 C   0  0  0  0  0
   34.6350    8.2870   58.3110 O   0  0  0  0  0
   36.2250    7.7670   56.6950 C   0  0  0  0  0
   37.5450    7.3450   56.5120 O   0  0  0  0  0
   35.3150    6.5680   56.8060 C   0  0  0  0  0
   35.8030    5.6580   57.7750 O   0  0  0  0  0
   34.0930    7.2340   57.4170 C   0  0  0  0  0
   33.1420    7.7570   56.3560 N   0  0  0  0  0
   32.9210    9.0490   56.0020 C   0  0  0  0  0
   31.9710    9.0570   55.0420 N   0  3  0  0  0
   31.4610   10.2760   54.3840 C   0  0  0  0  0
   31.5810    7.7950   54.7680 C   0  0  0  0  0
   32.3410    6.9720   55.6160 C   0  0  0  0  0
   32.1990    5.5890   55.6020 N   0  0  0  0  0
   31.2980    5.0140   54.7280 C   0  0  0  0  0
   31.1780    3.6890   54.7130 N   0  0  0  0  0
   30.5320    5.8140   53.8530 N   0  0  0  0  0
   30.6750    7.2060   53.8620 C   0  0  0  0  0
   29.9870    7.8660   53.0900 O   0  0  0  0  0
   39.1166   14.6094   56.7231 H   0  0  0  0  0
   40.6656   14.1102   58.5377 H   0  0  0  0  0
   36.4742   11.7878   59.6893 H   0  0  0  0  0
   35.1122   12.3768   55.1017 H   0  0  0  0  0
   35.9301   10.2432   59.0642 H   0  0  0  0  0
   37.4993    9.9121   58.1965 H   0  0  0  0  0
   36.7016    7.8513   58.8008 H   0  0  0  0  0
   36.0016    8.4439   55.8704 H   0  0  0  0  0
   37.6405    6.9681   55.6342 H   0  0  0  0  0
   35.1825    6.0234   55.8711 H   0  0  0  0  0
   35.2116    4.9038   57.8306 H   0  0  0  0  0
   33.4772    6.5349   57.9828 H   0  0  0  0  0
   33.4210    9.9236   56.4182 H   0  0  0  0  0
   31.0221   10.9351   55.1330 H   0  0  0  0  0
   32.2829   10.7885   53.8841 H   0  0  0  0  0
   30.7027   10.0014   53.6507 H   0  0  0  0  0
   31.7457    3.1184   55.3395 H   0  0  0  0  0
   30.5183    3.2439   54.0750 H   0  0  0  0  0
   29.8714    5.3756   53.2113 H   0  0  0  0  0
  1  2  1  0  0  0
  2  3  1  0  0  0
  2  4  2  0  0  0
  2  5  1  0  0  0
  5  6  1  0  0  0
  6  7  1  0  0  0
  6  8  2  0  0  0
  6  9  1  0  0  0
  9 10  1  0  0  0
 10 11  1  0  0  0
 10 12  2  0  0  0
 10 13  1  0  0  0
 13 14  1  0  0  0
 14 15  1  0  0  0
 15 16  1  0  0  0
 15 17  1  0  0  0
 16 21  1  0  0  0
 17 18  1  0  0  0
 17 19  1  0  0  0
 19 20  1  0  0  0
 19 21  1  0  0  0
 21 22  1  0  0  0
 22 23  4  0  0  0
 22 27  4  0  0  0
 23 24  4  0  0  0
 24 25  1  0  0  0
 24 26  4  0  0  0
 26 27  4  0  0  0
 26 32  1  0  0  0
 27 28  1  0  0  0
 28 29  2  0  0  0
 29 30  1  0  0  0
 29 31  1  0  0  0
 31 32  1  0  0  0
 32 33  2  0  0  0
  1 34  1  0  0  0
  3 35  1  0  0  0
  7 36  1  0  0  0
 11 37  1  0  0  0
 14 38  1  0  0  0
 14 39  1  0  0  0
 15 40  1  0  0  0
 17 41  1  0  0  0
 18 42  1  0  0  0
 19 43  1  0  0  0
 20 44  1  0  0  0
 21 45  1  0  0  0
 23 46  1  0  0  0
 25 47  1  0  0  0
 25 48  1  0  0  0
 25 49  1  0  0  0
 30 50  1  0  0  0
 30 51  1  0  0  0
 31 52  1  0  0  0
M  END
$$$$
