2iiv_ligand
  -I-interpret- 

 45 46  0  0  0  0  0  0  0  0999 V2000
   34.7000   50.5500   36.5840 C   0  0  0  0  0
   36.0540   51.0710   36.7240 C   0  0  0  0  0
   37.2430   50.2260   36.5190 C   0  0  0  0  0
   37.0720   48.7950   36.1500 C   0  0  0  0  0
   35.7340   48.2770   36.0150 C   0  0  0  0  0
   34.5550   49.1490   36.2190 C   0  0  0  0  0
   35.5850   47.0200   35.6890 F   0  0  0  0  0
   36.2030   52.3330   37.0530 F   0  0  0  0  0
   38.5740   50.8570   36.6630 C   0  0  0  0  0
   39.1390   51.0660   35.1800 C   0  0  0  0  0
   40.3530   51.6800   35.4530 C   0  0  0  0  0
   41.5560   50.7780   36.0350 C   0  0  0  0  0
   42.7820   51.3560   36.2440 N   0  0  0  0  0
   38.1960   51.9020   34.3830 N   0  3  0  0  0
   41.3270   49.6030   36.2840 O   0  0  0  0  0
   43.1670   52.8320   35.9440 C   0  0  0  0  0
   43.4840   52.7220   34.5340 C   0  0  0  0  0
   44.7480   51.9710   34.1250 C   0  0  0  0  0
   45.5590   51.4650   35.3340 N   0  0  0  0  0
   45.2520   50.7720   36.5430 C   0  0  0  0  0
   43.7280   50.3240   36.8810 C   0  0  0  0  0
   43.8140   50.2170   38.4110 C   0  0  0  0  0
   46.1800   50.5780   37.2490 O   0  0  0  0  0
   33.3870   48.6660   36.0840 F   0  0  0  0  0
   33.8295   51.1855   36.7465 H   0  0  0  0  0
   37.9379   48.1537   35.9857 H   0  0  0  0  0
   39.2428   50.2286   37.2511 H   0  0  0  0  0
   38.5007   51.8078   37.1909 H   0  0  0  0  0
   39.2528   50.1674   34.5737 H   0  0  0  0  0
   40.1358   52.4061   36.2364 H   0  0  0  0  0
   40.7105   52.0461   34.4906 H   0  0  0  0  0
   38.5673   52.0274   33.4413 H   0  0  0  0  0
   37.2897   51.4366   34.3332 H   0  0  0  0  0
   38.0881   52.8119   34.8312 H   0  0  0  0  0
   43.9765   53.2227   36.5606 H   0  0  0  0  0
   42.3891   53.5589   36.1775 H   0  0  0  0  0
   43.6414   53.7468   34.1977 H   0  0  0  0  0
   42.6622   52.1509   34.1021 H   0  0  0  0  0
   45.3793   52.6602   33.5642 H   0  0  0  0  0
   44.4459   51.1032   33.5386 H   0  0  0  0  0
   46.5534   51.6760   35.2497 H   0  0  0  0  0
   43.3251   49.3923   36.4840 H   0  0  0  0  0
   44.1417   51.1715   38.8228 H   0  0  0  0  0
   42.8324   49.9646   38.8120 H   0  0  0  0  0
   44.5287   49.4392   38.6799 H   0  0  0  0  0
  1  2  4  0  0  0
  1  6  4  0  0  0
  2  3  4  0  0  0
  2  8  1  0  0  0
  3  4  4  0  0  0
  3  9  1  0  0  0
  4  5  4  0  0  0
  5  6  4  0  0  0
  5  7  1  0  0  0
  6 24  1  0  0  0
  9 10  1  0  0  0
 10 11  1  0  0  0
 10 14  1  0  0  0
 11 12  1  0  0  0
 12 13  1  0  0  0
 12 15  2  0  0  0
 13 16  1  0  0  0
 13 21  1  0  0  0
 16 17  1  0  0  0
 17 18  1  0  0  0
 18 19  1  0  0  0
 19 20  1  0  0  0
 20 21  1  0  0  0
 20 23  2  0  0  0
 21 22  1  0  0  0
  1 25  1  0  0  0
  4 26  1  0  0  0
  9 27  1  0  0  0
  9 28  1  0  0  0
 10 29  1  0  0  0
 11 30  1  0  0  0
 11 31  1  0  0  0
 14 32  1  0  0  0
 14 33  1  0  0  0
 14 34  1  0  0  0
 16 35  1  0  0  0
 16 36  1  0  0  0
 17 37  1  0  0  0
 17 38  1  0  0  0
 18 39  1  0  0  0
 18 40  1  0  0  0
 19 41  1  0  0  0
 21 42  1  0  0  0
 22 43  1  0  0  0
 22 44  1  0  0  0
 22 45  1  0  0  0
M  END
$$$$
