5fns_ligand
  -I-interpret- 

 50 52  0  0  0  0  0  0  0  0999 V2000
   13.1400   64.6650   30.3310 C   0  0  0  0  0
   17.1200   65.0610   32.6110 Cl  0  0  0  0  0
   13.9130   65.4390   31.3140 N   0  0  0  0  0
   14.9940   66.2480   30.7350 C   0  0  0  0  0
   16.0970   65.4180   30.1160 C   0  0  0  0  0
   16.1300   65.2100   28.7400 C   0  0  0  0  0
   17.1300   64.4520   28.1390 C   0  0  0  0  0
   18.1150   63.8940   28.9440 C   0  0  0  0  0
   18.1020   64.0870   30.3110 C   0  0  0  0  0
   17.1000   64.8430   30.8920 C   0  0  0  0  0
   17.1790   64.2160   26.6360 C   0  0  0  0  0
   17.8080   65.3930   25.8970 C   0  0  0  0  0
   18.0840   65.1100   24.4270 C   0  0  0  0  0
   17.7370   65.9830   23.6100 O   0  0  0  0  0
   18.6360   64.0320   24.1130 O   0  0  0  0  0
   15.8170   63.7860   26.1040 C   0  0  0  0  0
   15.0520   64.5790   25.2400 C   0  0  0  0  0
   13.8120   64.1510   24.7740 C   0  0  0  0  0
   13.3110   62.9040   25.1730 C   0  0  0  0  0
   12.1750   62.2070   24.9120 N   0  0  0  0  0
   11.0380   62.5650   24.0760 C   0  0  0  0  0
   12.1930   61.0190   25.5710 N   0  0  0  0  0
   13.3300   60.9610   26.2430 N   0  0  0  0  0
   14.0510   62.0980   26.0300 C   0  0  0  0  0
   15.3100   62.5400   26.4980 C   0  0  0  0  0
   13.1060   66.0410   32.6050 S   0  0  0  0  0
   12.2180   65.0200   33.0600 O   0  0  0  0  0
   14.0710   66.5740   33.5130 O   0  0  0  0  0
   12.1430   67.3710   31.9740 C   0  0  0  0  0
   12.6934   63.8001   30.8215 H   0  0  0  0  0
   12.3537   65.2934   29.9129 H   0  0  0  0  0
   13.8021   64.3298   29.5326 H   0  0  0  0  0
   15.4354   66.8335   31.5415 H   0  0  0  0  0
   14.5599   66.8607   29.9449 H   0  0  0  0  0
   15.3524   65.6524   28.1173 H   0  0  0  0  0
   18.9069   63.2972   28.4914 H   0  0  0  0  0
   18.8807   63.6440   30.9319 H   0  0  0  0  0
   17.8467   63.3780   26.4359 H   0  0  0  0  0
   18.7643   65.6062   26.3746 H   0  0  0  0  0
   17.1035   66.2234   25.9440 H   0  0  0  0  0
   18.8102   63.5200   24.9062 H   0  0  0  0  0
   15.4348   65.5502   24.9262 H   0  0  0  0  0
   13.2326   64.7833   24.1012 H   0  0  0  0  0
   10.5861   63.4825   24.4529 H   0  0  0  0  0
   11.3763   62.7194   23.0514 H   0  0  0  0  0
   10.3033   61.7602   24.1000 H   0  0  0  0  0
   15.8902   61.9074   27.1698 H   0  0  0  0  0
   11.5293   67.0133   31.1473 H   0  0  0  0  0
   11.5001   67.7592   32.7640 H   0  0  0  0  0
   12.8050   68.1618   31.6211 H   0  0  0  0  0
  3  1  1  0  0  0
 10  2  1  0  0  0
  4  3  1  0  0  0
  3 26  1  0  0  0
  5  4  1  0  0  0
  5  6  4  0  0  0
  5 10  4  0  0  0
  6  7  4  0  0  0
  7  8  4  0  0  0
  7 11  1  0  0  0
  8  9  4  0  0  0
  9 10  4  0  0  0
 11 12  1  0  0  0
 11 16  1  0  0  0
 12 13  1  0  0  0
 13 14  2  0  0  0
 13 15  1  0  0  0
 16 17  4  0  0  0
 16 25  4  0  0  0
 17 18  4  0  0  0
 18 19  4  0  0  0
 19 20  4  0  0  0
 19 24  4  0  0  0
 20 21  1  0  0  0
 20 22  4  0  0  0
 22 23  4  0  0  0
 23 24  4  0  0  0
 24 25  4  0  0  0
 26 27  2  0  0  0
 26 28  2  0  0  0
 26 29  1  0  0  0
  1 30  1  0  0  0
  1 31  1  0  0  0
  1 32  1  0  0  0
  4 33  1  0  0  0
  4 34  1  0  0  0
  6 35  1  0  0  0
  8 36  1  0  0  0
  9 37  1  0  0  0
 11 38  1  0  0  0
 12 39  1  0  0  0
 12 40  1  0  0  0
 15 41  1  0  0  0
 17 42  1  0  0  0
 18 43  1  0  0  0
 21 44  1  0  0  0
 21 45  1  0  0  0
 21 46  1  0  0  0
 25 47  1  0  0  0
 29 48  1  0  0  0
 29 49  1  0  0  0
 29 50  1  0  0  0
M  END
$$$$
