1me3_ligand
  -I-interpret- 

 64 66  0  0  0  0  0  0  0  0999 V2000
    5.8690   11.5780    9.0670 C   0  0  0  0  0
    5.1390   10.8090    9.9830 C   0  0  0  0  0
    5.9130   10.6730   11.1820 O   0  0  0  0  0
    7.0960   11.6420    9.1550 O   0  0  0  0  0
    5.0260   12.2840    8.0750 C   0  0  0  0  0
    4.9810   13.7480    8.4310 C   0  0  0  0  0
    4.4400   14.4970    7.1890 C   0  0  0  0  0
    4.2390   15.9670    7.4800 C   0  0  0  0  0
    5.3310   16.8290    7.2980 C   0  0  0  0  0
    5.2290   18.2100    7.4870 C   0  0  0  0  0
    4.0200   18.7260    7.9970 C   0  0  0  0  0
    2.9040   17.8820    8.1720 C   0  0  0  0  0
    3.0140   16.5040    7.9210 C   0  0  0  0  0
    3.6400   11.7770    7.8780 N   0  0  0  0  0
    3.2770   11.0980    6.7410 C   0  0  0  0  0
    4.0950   10.7790    5.8720 O   0  0  0  0  0
    1.8050   10.6980    6.6530 C   0  0  0  0  0
    1.6220    9.2260    7.0950 C   0  0  0  0  0
    0.2650    8.6130    6.7630 C   0  0  0  0  0
    0.2480    7.4030    6.0160 C   0  0  0  0  0
   -0.9860    6.8210    5.6330 C   0  0  0  0  0
   -2.1970    7.3880    6.1020 C   0  0  0  0  0
   -2.1640    8.6160    6.8020 C   0  0  0  0  0
   -0.9300    9.1680    7.1890 C   0  0  0  0  0
    1.3330   10.7910    5.2220 N   0  0  0  0  0
    1.0350   12.0050    4.6750 C   0  0  0  0  0
    0.9490   13.0560    5.3210 O   0  0  0  0  0
    0.8760   11.8610    3.3340 O   0  0  0  0  0
    0.4620   13.0530    2.5900 C   0  0  0  0  0
    0.6310   12.7150    1.1320 C   0  0  0  0  0
   -0.3280   12.0020    0.4000 C   0  0  0  0  0
   -0.0570   11.6730   -0.9370 C   0  0  0  0  0
    1.0920   12.1750   -1.5610 C   0  0  0  0  0
    2.0020   12.8780   -0.8250 N   0  0  0  0  0
    1.7980   13.1490    0.4950 C   0  0  0  0  0
    4.9312    9.8258    9.5609 H   0  0  0  0  0
    4.1904   11.2974   10.2060 H   0  0  0  0  0
    5.4240   10.1474   11.8193 H   0  0  0  0  0
    5.5105   12.0934    7.1174 H   0  0  0  0  0
    5.9730   14.1111    8.6995 H   0  0  0  0  0
    4.3374   13.9162    9.2945 H   0  0  0  0  0
    3.4791   14.0629    6.9127 H   0  0  0  0  0
    5.1649   14.3987    6.3809 H   0  0  0  0  0
    6.2908   16.4076    6.9993 H   0  0  0  0  0
    6.0620   18.8706    7.2465 H   0  0  0  0  0
    3.9477   19.7820    8.2572 H   0  0  0  0  0
    1.9532   18.2999    8.5030 H   0  0  0  0  0
    2.1530   15.8518    8.0673 H   0  0  0  0  0
    2.9432   11.9380    8.6053 H   0  0  0  0  0
    1.2367   11.3678    7.2983 H   0  0  0  0  0
    1.7153    9.2110    8.1809 H   0  0  0  0  0
    2.3694    8.6423    6.5576 H   0  0  0  0  0
    1.1858    6.9224    5.7375 H   0  0  0  0  0
   -1.0035    5.9456    4.9838 H   0  0  0  0  0
   -3.1459    6.8818    5.9246 H   0  0  0  0  0
   -3.0930    9.1336    7.0411 H   0  0  0  0  0
   -0.9138   10.0463    7.8343 H   0  0  0  0  0
    1.2366    9.9437    4.6624 H   0  0  0  0  0
    1.0643   13.9185    2.8660 H   0  0  0  0  0
   -0.5707   13.3191    2.8155 H   0  0  0  0  0
   -1.2702   11.7074    0.8622 H   0  0  0  0  0
   -0.7400   11.0275   -1.4893 H   0  0  0  0  0
    1.2582   12.0059   -2.6249 H   0  0  0  0  0
    2.5476   13.7064    1.0567 H   0  0  0  0  0
  1  2  1  0  0  0
  1  4  2  0  0  0
  1  5  1  0  0  0
  2  3  1  0  0  0
  5  6  1  0  0  0
  5 14  1  0  0  0
  6  7  1  0  0  0
  7  8  1  0  0  0
  8  9  4  0  0  0
  8 13  4  0  0  0
  9 10  4  0  0  0
 10 11  4  0  0  0
 11 12  4  0  0  0
 12 13  4  0  0  0
 14 15  1  0  0  0
 15 16  2  0  0  0
 15 17  1  0  0  0
 17 18  1  0  0  0
 17 25  1  0  0  0
 18 19  1  0  0  0
 19 20  4  0  0  0
 19 24  4  0  0  0
 20 21  4  0  0  0
 21 22  4  0  0  0
 22 23  4  0  0  0
 23 24  4  0  0  0
 25 26  1  0  0  0
 26 27  2  0  0  0
 26 28  1  0  0  0
 28 29  1  0  0  0
 29 30  1  0  0  0
 30 31  4  0  0  0
 30 35  4  0  0  0
 31 32  4  0  0  0
 32 33  4  0  0  0
 33 34  4  0  0  0
 34 35  4  0  0  0
  2 36  1  0  0  0
  2 37  1  0  0  0
  3 38  1  0  0  0
  5 39  1  0  0  0
  6 40  1  0  0  0
  6 41  1  0  0  0
  7 42  1  0  0  0
  7 43  1  0  0  0
  9 44  1  0  0  0
 10 45  1  0  0  0
 11 46  1  0  0  0
 12 47  1  0  0  0
 13 48  1  0  0  0
 14 49  1  0  0  0
 17 50  1  0  0  0
 18 51  1  0  0  0
 18 52  1  0  0  0
 20 53  1  0  0  0
 21 54  1  0  0  0
 22 55  1  0  0  0
 23 56  1  0  0  0
 24 57  1  0  0  0
 25 58  1  0  0  0
 29 59  1  0  0  0
 29 60  1  0  0  0
 31 61  1  0  0  0
 32 62  1  0  0  0
 33 63  1  0  0  0
 35 64  1  0  0  0
M  END
$$$$
