### 
### Created by X-TOOL on Mon Aug  2 16:13:30 2021
### 

@<TRIPOS>MOLECULE
6gfm_ligand
   54    56     1     0     0
SMALL
GAST_HUCK


@<TRIPOS>ATOM
      1 PD          9.4320  -19.4840  -48.9570 P.3       1 MOL         0.2069
      2 O1D         9.7710  -18.0800  -48.7390 O.co2     1 MOL        -0.5891
      3 O2D        10.5880  -20.2220  -48.4550 O.co2     1 MOL        -0.5891
      4 O3D         8.3900  -19.7510  -47.9700 O.co2     1 MOL        -0.5891
      5 PG          4.8190  -29.7990  -50.2650 P.3       1 MOL         0.1879
      6 O1G         4.8640  -30.5960  -49.0420 O.co2     1 MOL        -0.6091
      7 O2G         4.6060  -30.7800  -51.3280 O.co2     1 MOL        -0.6091
      8 O3G         3.5580  -29.0680  -50.1930 O.co2     1 MOL        -0.6091
      9 PB          6.8390  -28.6070  -51.9700 P.3       1 MOL         0.3553
     10 O1B         7.9440  -29.5400  -52.1810 O.co2     1 MOL        -0.5652
     11 O2B         5.9280  -28.9880  -53.0480 O.co2     1 MOL        -0.5652
     12 O3B         6.1390  -28.8390  -50.4950 O.3       1 MOL        -0.1546
     13 O3A         7.3310  -27.0420  -52.1300 O.3       1 MOL        -0.1171
     14 PA          6.4930  -25.8950  -52.9700 P.3       1 MOL         0.3266
     15 O1A         6.0200  -26.4060  -54.2530 O.co2     1 MOL        -0.5692
     16 O2A         7.3670  -24.8100  -53.4130 O.co2     1 MOL        -0.5692
     17 O5'         5.2480  -25.3190  -52.0580 O.3       1 MOL        -0.2441
     18 C5'         5.5410  -24.8510  -50.7720 C.3       1 MOL         0.1135
     19 C4'         5.4020  -23.3650  -50.7500 C.3       1 MOL         0.1244
     20 O4'         4.0790  -22.9870  -50.1880 O.3       1 MOL        -0.3347
     21 C3'         6.4320  -22.7220  -49.8800 C.3       1 MOL         0.1548
     22 O3'         6.8690  -21.4870  -50.4880 O.3       1 MOL        -0.2374
     23 C2'         5.7270  -22.4140  -48.6370 C.3       1 MOL         0.1456
     24 O2'         6.3950  -21.3660  -47.9110 O.3       1 MOL        -0.3831
     25 C1'         4.3990  -21.9770  -49.1490 C.3       1 MOL         0.2180
     26 N9          3.3820  -21.8620  -48.1580 N.pl3     1 MOL        -0.1121
     27 C8          2.7620  -20.7930  -48.1120 C.2       1 MOL         0.1656
     28 N7          1.8380  -20.8390  -47.1320 N.2       1 MOL        -0.2182
     29 C5          2.0840  -22.2780  -46.5910 C.2       1 MOL         0.2119
     30 C6          1.4580  -23.0350  -45.5250 C.3       1 MOL         0.2134
     31 O6          0.4250  -22.4700  -44.7690 O.3       1 MOL        -0.3453
     32 N1          1.9210  -24.3870  -45.2570 N.pl3     1 MOL        -0.2902
     33 C2          2.9030  -24.9250  -45.9750 C.cat     1 MOL         0.1692
     34 N2          3.3460  -26.2760  -45.6880 N.pl3     1 MOL        -0.3505
     35 N3          3.5690  -24.1350  -47.1000 N.pl3     1 MOL        -0.2143
     36 C4          3.1080  -22.7930  -47.3650 C.2       1 MOL         0.3063
     37 PC          8.4210  -21.3040  -51.0110 P.3       1 MOL         0.3279
     38 O1C         9.2800  -22.4010  -50.5710 O.co2     1 MOL        -0.5556
     39 O2C         8.4890  -21.4320  -52.4670 O.co2     1 MOL        -0.5556
     40 O3C         9.0170  -19.8460  -50.5120 O.3       1 MOL        -0.1548
     41 H1          6.5713  -25.1286  -50.5048 H         1 MOL         0.0648
     42 H2          4.8419  -25.2971  -50.0494 H         1 MOL         0.0648
     43 H3          5.4968  -22.9831  -51.7772 H         1 MOL         0.0655
     44 H4          7.2868  -23.3919  -49.7051 H         1 MOL         0.0712
     45 H5          5.6349  -23.3025  -47.9951 H         1 MOL         0.0681
     46 H6          6.4264  -20.5818  -48.4463 H         1 MOL         0.2102
     47 H7          4.5055  -20.9890  -49.6207 H         1 MOL         0.1015
     48 H8          2.9368  -19.9405  -48.7666 H         1 MOL         0.1696
     49 H9          2.1931  -22.6397  -44.8085 H         1 MOL         0.1220
     50 H10         0.2533  -21.5884  -45.0784 H         1 MOL         0.2187
     51 H11         1.4834  -24.9346  -44.5023 H         1 MOL         0.1767
     52 H12         4.1060  -26.6972  -46.2411 H         1 MOL         0.1660
     53 H13         2.9006  -26.8142  -44.9311 H         1 MOL         0.1660
     54 H14         4.3296  -24.5503  -47.6567 H         1 MOL         0.2388
@<TRIPOS>BOND
     1    1    2 ar 
     2    1    3 ar 
     3    1    4 ar 
     4   40    1 1  
     5    5    6 ar 
     6    5    7 ar 
     7    5    8 ar 
     8   12    5 1  
     9    9   10 ar 
    10    9   11 ar 
    11    9   12 1  
    12   13    9 1  
    13   14   13 1  
    14   14   15 ar 
    15   14   16 ar 
    16   17   14 1  
    17   18   17 1  
    18   19   18 1  
    19   19   20 1  
    20   21   19 1  
    21   25   20 1  
    22   22   21 1  
    23   21   23 1  
    24   37   22 1  
    25   23   24 1  
    26   23   25 1  
    27   25   26 1  
    28   26   27 1  
    29   26   36 1  
    30   27   28 2  
    31   29   28 1  
    32   29   30 1  
    33   36   29 2  
    34   30   31 1  
    35   30   32 1  
    36   33   32 ar 
    37   33   34 ar 
    38   35   33 ar 
    39   36   35 1  
    40   37   38 ar 
    41   37   39 ar 
    42   37   40 1  
    43   18   41 1  
    44   18   42 1  
    45   19   43 1  
    46   21   44 1  
    47   23   45 1  
    48   24   46 1  
    49   25   47 1  
    50   27   48 1  
    51   30   49 1  
    52   31   50 1  
    53   32   51 1  
    54   34   52 1  
    55   34   53 1  
    56   35   54 1  
@<TRIPOS>SUBSTRUCTURE
     1 MOL         1

