6gfm_ligand
  -I-interpret- 

 60 62  0  0  0  0  0  0  0  0999 V2000
    9.4320  -19.4840  -48.9570 P   0  0  0  0  0
    9.7710  -18.0800  -48.7390 O   0  0  0  0  0
   10.5880  -20.2220  -48.4550 O   0  0  0  0  0
    8.3900  -19.7510  -47.9700 O   0  0  0  0  0
    4.8190  -29.7990  -50.2650 P   0  0  0  0  0
    4.8640  -30.5960  -49.0420 O   0  0  0  0  0
    4.6060  -30.7800  -51.3280 O   0  0  0  0  0
    3.5580  -29.0680  -50.1930 O   0  0  0  0  0
    6.8390  -28.6070  -51.9700 P   0  0  0  0  0
    7.9440  -29.5400  -52.1810 O   0  0  0  0  0
    5.9280  -28.9880  -53.0480 O   0  0  0  0  0
    6.1390  -28.8390  -50.4950 O   0  0  0  0  0
    7.3310  -27.0420  -52.1300 O   0  0  0  0  0
    6.4930  -25.8950  -52.9700 P   0  0  0  0  0
    6.0200  -26.4060  -54.2530 O   0  0  0  0  0
    7.3670  -24.8100  -53.4130 O   0  0  0  0  0
    5.2480  -25.3190  -52.0580 O   0  0  0  0  0
    5.5410  -24.8510  -50.7720 C   0  0  0  0  0
    5.4020  -23.3650  -50.7500 C   0  0  0  0  0
    4.0790  -22.9870  -50.1880 O   0  0  0  0  0
    6.4320  -22.7220  -49.8800 C   0  0  0  0  0
    6.8690  -21.4870  -50.4880 O   0  0  0  0  0
    5.7270  -22.4140  -48.6370 C   0  0  0  0  0
    6.3950  -21.3660  -47.9110 O   0  0  0  0  0
    4.3990  -21.9770  -49.1490 C   0  0  0  0  0
    3.3820  -21.8620  -48.1580 N   0  0  0  0  0
    2.7620  -20.7930  -48.1120 C   0  0  0  0  0
    1.8380  -20.8390  -47.1320 N   0  0  0  0  0
    2.0840  -22.2780  -46.5910 C   0  0  0  0  0
    1.4580  -23.0350  -45.5250 C   0  0  0  0  0
    0.4250  -22.4700  -44.7690 O   0  0  0  0  0
    1.9210  -24.3870  -45.2570 N   0  0  0  0  0
    2.9030  -24.9250  -45.9750 C   0  0  0  0  0
    3.3460  -26.2760  -45.6880 N   0  0  0  0  0
    3.5690  -24.1350  -47.1000 N   0  0  0  0  0
    3.1080  -22.7930  -47.3650 C   0  0  0  0  0
    8.4210  -21.3040  -51.0110 P   0  0  0  0  0
    9.2800  -22.4010  -50.5710 O   0  0  0  0  0
    8.4890  -21.4320  -52.4670 O   0  0  0  0  0
    9.0170  -19.8460  -50.5120 O   0  0  0  0  0
   10.4588  -17.8186  -49.3556 H   0  0  0  0  0
   11.3289  -20.0993  -49.0530 H   0  0  0  0  0
    5.6763  -31.1072  -49.0243 H   0  0  0  0  0
    5.4003  -31.3077  -51.4388 H   0  0  0  0  0
    5.1450  -28.4336  -53.0147 H   0  0  0  0  0
    7.7532  -24.3787  -52.6472 H   0  0  0  0  0
    6.5607  -25.1280  -50.5043 H   0  0  0  0  0
    4.8510  -25.2946  -50.0542 H   0  0  0  0  0
    5.5190  -23.0267  -51.7796 H   0  0  0  0  0
    7.3032  -23.3588  -49.7265 H   0  0  0  0  0
    5.6713  -23.2432  -47.9317 H   0  0  0  0  0
    5.9138  -21.1826  -47.1008 H   0  0  0  0  0
    4.4418  -20.9588  -49.5357 H   0  0  0  0  0
    2.9370  -19.9397  -48.7672 H   0  0  0  0  0
    0.6682  -22.7827  -44.8174 H   0  0  0  0  0
    0.1279  -23.1033  -44.1115 H   0  0  0  0  0
    1.4877  -24.9293  -44.5096 H   0  0  0  0  0
    2.9049  -26.8090  -44.9385 H   0  0  0  0  0
    4.3222  -24.5463  -47.6513 H   0  0  0  0  0
    7.9508  -20.7483  -52.8727 H   0  0  0  0  0
  1  2  1  0  0  0
  1  3  1  0  0  0
  1  4  2  0  0  0
 40  1  1  0  0  0
  5  6  1  0  0  0
  5  7  1  0  0  0
  5  8  2  0  0  0
 12  5  1  0  0  0
  9 10  2  0  0  0
  9 11  1  0  0  0
  9 12  1  0  0  0
 13  9  1  0  0  0
 14 13  1  0  0  0
 14 15  2  0  0  0
 14 16  1  0  0  0
 17 14  1  0  0  0
 18 17  1  0  0  0
 19 18  1  0  0  0
 19 20  1  0  0  0
 21 19  1  0  0  0
 25 20  1  0  0  0
 22 21  1  0  0  0
 21 23  1  0  0  0
 37 22  1  0  0  0
 23 24  1  0  0  0
 23 25  1  0  0  0
 25 26  1  0  0  0
 26 27  4  0  0  0
 26 36  4  0  0  0
 27 28  4  0  0  0
 29 28  4  0  0  0
 29 30  1  0  0  0
 36 29  4  0  0  0
 30 31  1  0  0  0
 30 32  1  0  0  0
 33 32  1  0  0  0
 33 34  2  0  0  0
 35 33  1  0  0  0
 36 35  1  0  0  0
 37 38  2  0  0  0
 37 39  1  0  0  0
 37 40  1  0  0  0
  2 41  1  0  0  0
  3 42  1  0  0  0
  6 43  1  0  0  0
  7 44  1  0  0  0
 11 45  1  0  0  0
 16 46  1  0  0  0
 18 47  1  0  0  0
 18 48  1  0  0  0
 19 49  1  0  0  0
 21 50  1  0  0  0
 23 51  1  0  0  0
 24 52  1  0  0  0
 25 53  1  0  0  0
 27 54  1  0  0  0
 30 55  1  0  0  0
 31 56  1  0  0  0
 32 57  1  0  0  0
 34 58  1  0  0  0
 35 59  1  0  0  0
 39 60  1  0  0  0
M  END
$$$$
