4s2i_ligand
  -I-interpret- 

 31 31  0  0  0  0  0  0  0  0999 V2000
    8.6080   14.2430   14.9370 O   0  0  0  0  0
    8.6450   14.5330   13.7590 C   0  0  0  0  0
    9.9150   14.7630   13.0910 N   0  0  0  0  0
    9.9820   14.8500   11.6490 C   0  0  0  0  0
   11.1370   14.5810   13.8190 C   0  0  0  0  0
   11.9990   15.8500   13.7900 C   0  0  0  0  0
   11.8690   16.6830   12.8860 O   0  0  0  0  0
   12.9470   16.0610   14.8440 N   0  0  0  0  0
   11.8710   13.3090   13.3310 C   0  0  0  0  0
   11.7800   13.1220   11.8070 C   0  0  0  0  0
   10.4210   13.4310   11.2290 C   0  0  0  0  0
    9.4570   12.4890   11.7780 N   0  3  0  0  0
    9.7270   11.2050   11.4690 O   0  0  0  0  0
    9.1230   10.2850   12.5500 S   0  0  0  0  0
    7.6980   10.6490   12.7840 O   0  0  0  0  0
    9.9190   10.3670   13.8630 O   0  0  0  0  0
    9.3140    8.8880   12.0580 O   0  0  0  0  0
    7.7158   14.6219   13.1961 H   0  0  0  0  0
   10.6713   15.6217   11.3063 H   0  0  0  0  0
    9.0332   15.1459   11.2015 H   0  0  0  0  0
   10.9070   14.4159   14.8716 H   0  0  0  0  0
   13.5212   16.9040   14.8523 H   0  0  0  0  0
   13.0475   15.3682   15.5858 H   0  0  0  0  0
   11.3994   12.4474   13.8035 H   0  0  0  0  0
   12.9240   13.4072   13.5947 H   0  0  0  0  0
   11.9887   12.0729   11.5976 H   0  0  0  0  0
   12.4886   13.8154   11.3540 H   0  0  0  0  0
   10.4695   13.3603   10.1424 H   0  0  0  0  0
    8.5453   12.7156   11.3806 H   0  0  0  0  0
    9.4887   12.5738   12.7940 H   0  0  0  0  0
   10.8342   10.1300   13.6964 H   0  0  0  0  0
  1  2  2  0  0  0
  2  3  1  0  0  0
  3  4  1  0  0  0
  3  5  1  0  0  0
  4 11  1  0  0  0
  5  6  1  0  0  0
  5  9  1  0  0  0
  6  7  2  0  0  0
  6  8  1  0  0  0
  9 10  1  0  0  0
 10 11  1  0  0  0
 11 12  1  0  0  0
 12 13  1  0  0  0
 13 14  1  0  0  0
 14 15  2  0  0  0
 14 16  1  0  0  0
 14 17  2  0  0  0
  2 18  1  0  0  0
  4 19  1  0  0  0
  4 20  1  0  0  0
  5 21  1  0  0  0
  8 22  1  0  0  0
  8 23  1  0  0  0
  9 24  1  0  0  0
  9 25  1  0  0  0
 10 26  1  0  0  0
 10 27  1  0  0  0
 11 28  1  0  0  0
 12 29  1  0  0  0
 12 30  1  0  0  0
 16 31  1  0  0  0
M  END
$$$$
