4ui7_ligand
  -I-interpret- 

 31 33  0  0  0  0  0  0  0  0999 V2000
  -38.1250  -10.4700   10.1990 C   0  0  0  0  0
  -38.0680  -10.2050    8.8280 C   0  0  0  0  0
  -38.6070  -11.1160    7.9250 C   0  0  0  0  0
  -38.5710  -10.8660    6.5460 C   0  0  0  0  0
  -39.2160  -12.2710    8.4130 C   0  0  0  0  0
  -39.2430  -12.5630    9.7870 C   0  0  0  0  0
  -38.6790  -11.6730   10.7020 C   0  0  0  0  0
  -38.7440  -11.9330   12.0970 C   0  0  0  0  0
  -39.5170  -12.9380   12.6060 N   0  0  0  0  0
  -39.5780  -13.1680   13.9290 C   0  0  0  0  0
  -40.4010  -14.1750   14.3980 C   0  0  0  0  0
  -41.0690  -14.9160   13.4430 O   0  0  0  0  0
  -40.5200  -14.4060   15.7750 C   0  0  0  0  0
  -39.7950  -13.6210   16.6740 C   0  0  0  0  0
  -38.9570  -12.5840   16.2050 C   0  0  0  0  0
  -38.8480  -12.3730   14.8410 C   0  0  0  0  0
  -37.9770  -11.3960   14.3310 C   0  0  0  0  0
  -37.2340  -10.7370   15.0480 O   0  0  0  0  0
  -37.9350  -11.1760   12.9710 N   0  0  0  0  0
  -37.7332   -9.7322   10.8992 H   0  0  0  0  0
  -37.6028   -9.2876    8.4673 H   0  0  0  0  0
  -39.1094   -9.9429    6.3312 H   0  0  0  0  0
  -37.5347  -10.7673    6.2229 H   0  0  0  0  0
  -39.0410  -11.6941    6.0155 H   0  0  0  0  0
  -39.6821  -12.9637    7.7123 H   0  0  0  0  0
  -39.7049  -13.4856   10.1386 H   0  0  0  0  0
  -41.6077  -15.5824   13.8758 H   0  0  0  0  0
  -41.1758  -15.1952   16.1429 H   0  0  0  0  0
  -39.8759  -13.8093   17.7446 H   0  0  0  0  0
  -38.4045  -11.9594   16.9070 H   0  0  0  0  0
  -37.3142  -10.4603   12.5932 H   0  0  0  0  0
  1  2  4  0  0  0
  1  7  4  0  0  0
  2  3  4  0  0  0
  3  4  1  0  0  0
  3  5  4  0  0  0
  5  6  4  0  0  0
  6  7  4  0  0  0
  7  8  1  0  0  0
  8  9  2  0  0  0
  8 19  1  0  0  0
  9 10  1  0  0  0
 10 11  4  0  0  0
 10 16  4  0  0  0
 11 12  1  0  0  0
 11 13  4  0  0  0
 13 14  4  0  0  0
 14 15  4  0  0  0
 15 16  4  0  0  0
 16 17  1  0  0  0
 17 18  2  0  0  0
 17 19  1  0  0  0
  1 20  1  0  0  0
  2 21  1  0  0  0
  4 22  1  0  0  0
  4 23  1  0  0  0
  4 24  1  0  0  0
  5 25  1  0  0  0
  6 26  1  0  0  0
 12 27  1  0  0  0
 13 28  1  0  0  0
 14 29  1  0  0  0
 15 30  1  0  0  0
 19 31  1  0  0  0
M  END
$$$$
