4omc_ligand
  -I-interpret- 

109110  0  0  0  0  0  0  0  0999 V2000
   34.4530   23.8290   -7.5700 C   0  0  0  0  0
   33.8650   25.0980   -7.7100 C   0  0  0  0  0
   33.1090   23.0430   -9.4850 C   0  0  0  0  0
   35.1270   22.3540   -5.7320 N   0  0  0  0  0
   30.9410   26.7380   -7.9040 C   0  0  0  0  0
   33.9160   23.4580   -4.0880 N   0  0  0  0  0
   34.1030   21.1670   -4.0560 N   0  0  0  0  0
   32.5300   24.3310   -9.6040 C   0  0  0  0  0
   32.1850   26.6860   -8.7540 C   0  0  0  0  0
   30.0320   25.9350   -8.0290 O   0  0  0  0  0
   32.9000   25.3640   -8.7140 C   0  0  0  0  0
   34.0710   22.8000   -8.4590 C   0  0  0  0  0
   35.4650   23.5600   -6.4850 C   0  0  0  0  0
   34.3660   22.3270   -4.6370 C   0  0  0  0  0
   30.9430   27.7000   -6.9950 N   0  0  0  0  0
   29.8200   27.8810   -6.0880 C   0  0  0  0  0
   29.3380   29.3190   -6.1690 C   0  0  0  0  0
   30.1270   30.2460   -6.0440 O   0  0  0  0  0
   30.2550   27.5200   -4.6670 C   0  0  0  0  0
   30.8240   26.0830   -4.5410 C   0  0  0  0  0
   29.7710   25.0780   -4.9450 C   0  0  0  0  0
   30.1780   23.6850   -4.7720 N   0  0  0  0  0
   30.3910   22.8420   -5.7820 C   0  0  0  0  0
   30.7450   21.5830   -5.5480 N   0  0  0  0  0
   30.2620   23.2660   -7.0380 N   0  0  0  0  0
   28.0340   29.4950   -6.3740 N   0  0  0  0  0
   27.4470   30.8190   -6.5230 C   0  0  0  0  0
   26.3800   31.1630   -5.4960 C   0  0  0  0  0
   25.7580   30.2710   -4.9080 O   0  0  0  0  0
   26.8060   30.9560   -7.9190 C   0  0  0  0  0
   27.8460   30.6540   -8.9980 C   0  0  0  0  0
   25.6520   29.9840   -8.0580 C   0  0  0  0  0
   26.1730   32.4630   -5.2960 N   0  0  0  0  0
   25.1600   32.9500   -4.3740 C   0  0  0  0  0
   23.8140   32.5100   -4.9510 C   0  0  0  0  0
   23.5830   32.6120   -6.1540 O   0  0  0  0  0
   25.2230   34.4790   -4.2730 C   0  0  0  0  0
   26.5000   35.0240   -3.6450 C   0  0  0  0  0
   26.5680   36.5320   -3.8100 C   0  0  0  0  0
   27.8180   37.1200   -3.3290 N   0  0  0  0  0
   28.9920   36.9840   -3.9380 C   0  0  0  0  0
   29.0910   36.2700   -5.0590 N   0  0  0  0  0
   30.0670   37.5800   -3.4370 N   0  0  0  0  0
   22.9270   32.0290   -4.0900 N   0  0  0  0  0
   21.6200   31.5680   -4.5120 C   0  0  0  0  0
   21.6370   30.0740   -4.6870 C   0  0  0  0  0
   21.3280   29.2290   -3.6090 C   0  0  0  0  0
   21.4340   27.8220   -3.7350 C   0  0  0  0  0
   21.8510   27.2340   -4.9440 C   0  0  0  0  0
   21.9490   25.7330   -5.0810 C   0  0  0  0  0
   21.3280   24.9830   -4.1750 N   0  0  0  0  0
   22.6520   25.1610   -6.0520 N   0  0  0  0  0
   22.1500   28.0770   -6.0280 C   0  0  0  0  0
   22.0460   29.4950   -5.9030 C   0  0  0  0  0
   34.1583   25.8975   -7.0297 H   0  0  0  0  0
   32.8224   22.2455  -10.1705 H   0  0  0  0  0
   35.5009   21.4668   -6.0689 H   0  0  0  0  0
   33.3727   23.4252   -3.2254 H   0  0  0  0  0
   34.1156   24.3547   -4.5313 H   0  0  0  0  0
   33.5592   21.1403   -3.1935 H   0  0  0  0  0
   31.7958   24.5256  -10.3858 H   0  0  0  0  0
   32.8730   27.4369   -8.3656 H   0  0  0  0  0
   31.8781   26.8559   -9.7860 H   0  0  0  0  0
   34.5157   21.8097   -8.3604 H   0  0  0  0  0
   35.4723   24.4071   -5.7991 H   0  0  0  0  0
   36.4414   23.4180   -6.9482 H   0  0  0  0  0
   31.7460   28.3255   -6.9292 H   0  0  0  0  0
   28.9951   27.2265   -6.3697 H   0  0  0  0  0
   29.3733   27.5805   -4.0290 H   0  0  0  0  0
   31.0468   28.2123   -4.3808 H   0  0  0  0  0
   31.1177   25.9012   -3.5072 H   0  0  0  0  0
   31.6901   25.9799   -5.1948 H   0  0  0  0  0
   29.5737   25.2268   -6.0066 H   0  0  0  0  0
   28.9050   25.2429   -4.3039 H   0  0  0  0  0
   30.3067   23.3373   -3.8217 H   0  0  0  0  0
   30.8559   21.2543   -4.5888 H   0  0  0  0  0
   30.4347   22.6255   -7.8128 H   0  0  0  0  0
   29.9905   24.2312   -7.2251 H   0  0  0  0  0
   27.4275   28.6767   -6.4283 H   0  0  0  0  0
   28.2771   31.5097   -6.3750 H   0  0  0  0  0
   26.4387   31.9754   -8.0373 H   0  0  0  0  0
   28.6738   31.3577   -8.9101 H   0  0  0  0  0
   28.2167   29.6371   -8.8691 H   0  0  0  0  0
   27.3865   30.7526   -9.9815 H   0  0  0  0  0
   26.0189   28.9656   -7.9299 H   0  0  0  0  0
   24.9029   30.2001   -7.2963 H   0  0  0  0  0
   25.2070   30.0895   -9.0474 H   0  0  0  0  0
   26.7429   33.1382   -5.8056 H   0  0  0  0  0
   25.3111   32.5528   -3.3703 H   0  0  0  0  0
   24.3973   34.7888   -3.6324 H   0  0  0  0  0
   25.1800   34.8661   -5.2910 H   0  0  0  0  0
   27.3600   34.5732   -4.1402 H   0  0  0  0  0
   26.5046   34.7822   -2.5822 H   0  0  0  0  0
   25.7577   36.9613   -3.2207 H   0  0  0  0  0
   26.4956   36.7469   -4.8761 H   0  0  0  0  0
   27.7870   37.6701   -2.4706 H   0  0  0  0  0
   29.9915   36.1825   -5.5301 H   0  0  0  0  0
   28.2663   35.8111   -5.4459 H   0  0  0  0  0
   29.9906   38.1398   -2.5878 H   0  0  0  0  0
   23.1725   31.9823   -3.1011 H   0  0  0  0  0
   21.3614   32.0385   -5.4606 H   0  0  0  0  0
   20.8829   31.8332   -3.7541 H   0  0  0  0  0
   21.0023   29.6613   -2.6629 H   0  0  0  0  0
   21.1893   27.1861   -2.8842 H   0  0  0  0  0
   21.3910   23.9662   -4.2249 H   0  0  0  0  0
   20.7888   25.4247   -3.4303 H   0  0  0  0  0
   23.1455   25.7386   -6.7326 H   0  0  0  0  0
   22.4654   27.6423   -6.9765 H   0  0  0  0  0
   22.2846   30.1331   -6.7539 H   0  0  0  0  0
  2  1  4  0  0  0
  1 12  4  0  0  0
  1 13  1  0  0  0
 11  2  4  0  0  0
  8  3  4  0  0  0
  3 12  4  0  0  0
 13  4  1  0  0  0
  4 14  1  0  0  0
  9  5  1  0  0  0
  5 10  2  0  0  0
  5 15  1  0  0  0
 14  6  1  0  0  0
 14  7  2  0  0  0
 11  8  4  0  0  0
  9 11  1  0  0  0
 15 16  1  0  0  0
 16 17  1  0  0  0
 16 19  1  0  0  0
 17 18  2  0  0  0
 17 26  1  0  0  0
 19 20  1  0  0  0
 20 21  1  0  0  0
 21 22  1  0  0  0
 22 23  1  0  0  0
 23 24  2  0  0  0
 23 25  1  0  0  0
 26 27  1  0  0  0
 27 28  1  0  0  0
 27 30  1  0  0  0
 28 29  2  0  0  0
 28 33  1  0  0  0
 30 31  1  0  0  0
 30 32  1  0  0  0
 33 34  1  0  0  0
 34 35  1  0  0  0
 34 37  1  0  0  0
 35 36  2  0  0  0
 35 44  1  0  0  0
 37 38  1  0  0  0
 38 39  1  0  0  0
 39 40  1  0  0  0
 40 41  1  0  0  0
 41 42  1  0  0  0
 41 43  2  0  0  0
 44 45  1  0  0  0
 45 46  1  0  0  0
 46 47  4  0  0  0
 46 54  4  0  0  0
 47 48  4  0  0  0
 48 49  4  0  0  0
 49 50  1  0  0  0
 49 53  4  0  0  0
 50 51  1  0  0  0
 50 52  2  0  0  0
 53 54  4  0  0  0
  2 55  1  0  0  0
  3 56  1  0  0  0
  4 57  1  0  0  0
  6 58  1  0  0  0
  6 59  1  0  0  0
  7 60  1  0  0  0
  8 61  1  0  0  0
  9 62  1  0  0  0
  9 63  1  0  0  0
 12 64  1  0  0  0
 13 65  1  0  0  0
 13 66  1  0  0  0
 15 67  1  0  0  0
 16 68  1  0  0  0
 19 69  1  0  0  0
 19 70  1  0  0  0
 20 71  1  0  0  0
 20 72  1  0  0  0
 21 73  1  0  0  0
 21 74  1  0  0  0
 22 75  1  0  0  0
 24 76  1  0  0  0
 25 77  1  0  0  0
 25 78  1  0  0  0
 26 79  1  0  0  0
 27 80  1  0  0  0
 30 81  1  0  0  0
 31 82  1  0  0  0
 31 83  1  0  0  0
 31 84  1  0  0  0
 32 85  1  0  0  0
 32 86  1  0  0  0
 32 87  1  0  0  0
 33 88  1  0  0  0
 34 89  1  0  0  0
 37 90  1  0  0  0
 37 91  1  0  0  0
 38 92  1  0  0  0
 38 93  1  0  0  0
 39 94  1  0  0  0
 39 95  1  0  0  0
 40 96  1  0  0  0
 42 97  1  0  0  0
 42 98  1  0  0  0
 43 99  1  0  0  0
 44100  1  0  0  0
 45101  1  0  0  0
 45102  1  0  0  0
 47103  1  0  0  0
 48104  1  0  0  0
 51105  1  0  0  0
 51106  1  0  0  0
 52107  1  0  0  0
 53108  1  0  0  0
 54109  1  0  0  0
M  END
$$$$
