1e00_ligand
  -I-interpret- 

 33 32  0  0  0  0  0  0  0  0999 V2000
    1.3800   23.8270    9.5580 C   0  0  0  0  0
    1.7000   24.4500   10.8050 C   0  0  0  0  0
    1.4410   25.9270   10.9740 C   0  0  0  0  0
    0.5910   26.2120   12.2120 C   0  0  0  0  0
   -0.8610   26.3940   11.8790 C   0  0  0  0  0
   -1.5420   27.4100   12.8070 C   0  0  0  0  0
   -2.3440   26.7260   13.8750 C   0  0  0  0  0
   -1.6250   26.9260   15.1760 C   0  0  0  0  0
   -2.3040   25.2650   13.5640 C   0  0  0  0  0
    2.7700   26.5980   11.0990 C   0  0  0  0  0
   -3.7730   27.1630   14.0030 O   0  0  0  0  0
    0.3147   23.9425    9.3584 H   0  0  0  0  0
    1.9537   24.2984    8.7600 H   0  0  0  0  0
    1.6286   22.7669    9.6086 H   0  0  0  0  0
    2.7801   24.3417   10.9035 H   0  0  0  0  0
    1.0508   23.9662   11.5348 H   0  0  0  0  0
    0.8859   26.3042   10.1151 H   0  0  0  0  0
    0.9520   27.1360   12.6637 H   0  0  0  0  0
    0.6785   25.3590   12.8850 H   0  0  0  0  0
   -1.3612   25.4332   12.0005 H   0  0  0  0  0
   -0.9319   26.7657   10.8568 H   0  0  0  0  0
   -2.2148   28.0262   12.2106 H   0  0  0  0  0
   -0.7701   28.0120   13.2864 H   0  0  0  0  0
   -2.1253   26.3544   15.9577 H   0  0  0  0  0
   -0.5949   26.5839   15.0767 H   0  0  0  0  0
   -1.6342   27.9846   15.4357 H   0  0  0  0  0
   -2.7865   24.7102   14.3686 H   0  0  0  0  0
   -2.8295   25.0797   12.6272 H   0  0  0  0  0
   -1.2669   24.9431   13.4701 H   0  0  0  0  0
    2.6248   27.6741   11.1943 H   0  0  0  0  0
    3.2848   26.2199   11.9823 H   0  0  0  0  0
    3.3666   26.3878   10.2113 H   0  0  0  0  0
   -4.2231   27.0307   13.1655 H   0  0  0  0  0
  1  2  1  0  0  0
  2  3  1  0  0  0
  3  4  1  0  0  0
  3 10  1  0  0  0
  4  5  1  0  0  0
  5  6  1  0  0  0
  6  7  1  0  0  0
  7  8  1  0  0  0
  7  9  1  0  0  0
  7 11  1  0  0  0
  1 12  1  0  0  0
  1 13  1  0  0  0
  1 14  1  0  0  0
  2 15  1  0  0  0
  2 16  1  0  0  0
  3 17  1  0  0  0
  4 18  1  0  0  0
  4 19  1  0  0  0
  5 20  1  0  0  0
  5 21  1  0  0  0
  6 22  1  0  0  0
  6 23  1  0  0  0
  8 24  1  0  0  0
  8 25  1  0  0  0
  8 26  1  0  0  0
  9 27  1  0  0  0
  9 28  1  0  0  0
  9 29  1  0  0  0
 10 30  1  0  0  0
 10 31  1  0  0  0
 10 32  1  0  0  0
 11 33  1  0  0  0
M  END
$$$$
