4yha_ligand
  -I-interpret- 

 23 23  0  0  0  0  0  0  0  0999 V2000
   50.6560   41.0620   91.0810 N   0  0  0  0  0
   52.2830   41.1310   90.8950 S   0  0  0  0  0
   52.8930   41.8310   91.9820 O   0  0  0  0  0
   52.8650   39.8340   90.9260 O   0  0  0  0  0
   52.6690   41.9830   89.4110 C   0  0  0  0  0
   53.3580   43.3390   89.3260 S   0  0  0  0  0
   53.4560   43.7000   87.8430 C   0  0  0  0  0
   52.8840   42.6250   87.1270 N   0  3  0  0  0
   52.7770   42.5420   85.7210 C   0  0  0  0  0
   52.3790   41.5280   88.1220 N   0  0  0  0  0
   54.0220   44.8670   87.2420 N   0  0  0  0  0
   54.6060   45.9780   87.9280 C   0  0  0  0  0
   54.6690   46.0320   89.1350 O   0  0  0  0  0
   55.1590   47.1480   87.1420 C   0  0  0  0  0
   50.2173   41.4895   91.8966 H   0  0  0  0  0
   50.0822   40.5916   90.3811 H   0  0  0  0  0
   52.1820   43.3780   85.3532 H   0  0  0  0  0
   53.7727   42.5809   85.2792 H   0  0  0  0  0
   52.2940   41.6033   85.4494 H   0  0  0  0  0
   54.0080   44.9119   86.2231 H   0  0  0  0  0
   54.6216   48.0555   87.4173 H   0  0  0  0  0
   56.2182   47.2685   87.3691 H   0  0  0  0  0
   55.0339   46.9594   86.0758 H   0  0  0  0  0
  1  2  1  0  0  0
  2  3  2  0  0  0
  2  4  2  0  0  0
  2  5  1  0  0  0
  5  6  4  0  0  0
  5 10  4  0  0  0
  6  7  4  0  0  0
  7  8  4  0  0  0
  7 11  1  0  0  0
  8  9  1  0  0  0
  8 10  4  0  0  0
 11 12  1  0  0  0
 12 13  2  0  0  0
 12 14  1  0  0  0
  1 15  1  0  0  0
  1 16  1  0  0  0
  9 17  1  0  0  0
  9 18  1  0  0  0
  9 19  1  0  0  0
 11 20  1  0  0  0
 14 21  1  0  0  0
 14 22  1  0  0  0
 14 23  1  0  0  0
M  END
$$$$
