5hd0_ligand
  -I-interpret- 

 50 54  0  0  0  0  0  0  0  0999 V2000
   27.2710   11.3350   18.7210 C   0  0  0  0  0
   15.3730    9.8180   21.3650 C   0  0  0  0  0
   17.9000   10.4960   21.4350 C   0  0  0  0  0
   28.4320   10.5300   21.1130 C   0  0  0  0  0
   20.2670   10.1570   20.7220 C   0  0  0  0  0
   16.2660    9.1910   20.5360 C   0  0  0  0  0
   29.2370   10.9800   20.0640 C   0  0  0  0  0
   26.4580   10.8930   19.7720 C   0  0  0  0  0
   15.7750   10.8050   22.2050 C   0  0  0  0  0
   27.0490   10.4800   20.9620 C   0  0  0  0  0
   28.6510   11.3720   18.8690 C   0  0  0  0  0
   29.4620    9.7600   23.3450 N   0  0  0  0  0
   29.0240   10.1090   22.3540 C   0  0  0  0  0
   24.9730   10.9480   19.6810 C   0  0  0  0  0
   24.2660   11.3140   18.5590 C   0  0  0  0  0
   24.0800   10.6650   20.7990 C   0  0  0  0  0
   22.7760   10.8370   20.4620 C   0  0  0  0  0
   22.5760   11.3240   18.8250 S   0  0  0  0  0
   21.5650   10.6890   21.3500 C   0  0  0  0  0
   19.2210   10.8080   21.5200 N   0  0  0  0  0
   17.0650   11.1600   22.2670 N   0  0  0  0  0
   14.0820    9.3970   21.4050 F   0  0  0  0  0
   17.5620    9.5340   20.5560 N   0  0  0  0  0
   19.7160   11.8940   22.3630 C   0  0  0  0  0
   21.1410   12.1050   21.8620 C   0  0  0  0  0
   22.0090   12.6160   22.9950 C   0  0  0  0  0
   22.2690   13.8020   23.0940 O   0  0  0  0  0
   22.5320   11.6750   23.8640 N   0  0  0  0  0
   23.2240   12.1670   25.0680 C   0  0  0  0  0
   22.4100   10.3170   23.6390 C   0  0  0  0  0
   22.7840    9.5080   24.5500 N   0  0  0  0  0
   21.8380    9.8370   22.5230 N   0  0  0  0  0
   26.8179   11.6517   17.7816 H   0  0  0  0  0
   20.2012    9.0693   20.7473 H   0  0  0  0  0
   20.1890   10.3840   19.6588 H   0  0  0  0  0
   15.9214    8.4104   19.8577 H   0  0  0  0  0
   30.3196   11.0230   20.1835 H   0  0  0  0  0
   15.0431   11.3124   22.8335 H   0  0  0  0  0
   26.4266   10.1158   21.7794 H   0  0  0  0  0
   29.2766   11.7104   18.0430 H   0  0  0  0  0
   24.7308   11.5692   17.6067 H   0  0  0  0  0
   24.4189   10.3528   21.7868 H   0  0  0  0  0
   19.6759   11.6525   23.4252 H   0  0  0  0  0
   19.1069   12.7948   22.2877 H   0  0  0  0  0
   21.2367   12.8503   21.0724 H   0  0  0  0  0
   22.7108   11.7989   25.9564 H   0  0  0  0  0
   24.2531   11.8078   25.0663 H   0  0  0  0  0
   23.2182   13.2570   25.0689 H   0  0  0  0  0
   23.1651    9.8667   25.4255 H   0  0  0  0  0
   21.5837    8.8500   22.4850 H   0  0  0  0  0
  8  1  4  0  0  0
  1 11  4  0  0  0
  6  2  4  0  0  0
  9  2  4  0  0  0
  2 22  1  0  0  0
 20  3  1  0  0  0
  3 21  4  0  0  0
  3 23  4  0  0  0
  4  7  4  0  0  0
 10  4  4  0  0  0
  4 13  1  0  0  0
 19  5  1  0  0  0
  5 20  1  0  0  0
 23  6  4  0  0  0
 11  7  4  0  0  0
  8 10  4  0  0  0
 14  8  1  0  0  0
 21  9  4  0  0  0
 13 12  3  0  0  0
 15 14  4  0  0  0
 16 14  4  0  0  0
 18 15  4  0  0  0
 17 16  4  0  0  0
 17 18  4  0  0  0
 17 19  1  0  0  0
 19 25  1  0  0  0
 19 32  1  0  0  0
 20 24  1  0  0  0
 24 25  1  0  0  0
 25 26  1  0  0  0
 26 27  2  0  0  0
 26 28  1  0  0  0
 28 29  1  0  0  0
 28 30  4  0  0  0
 30 31  2  0  0  0
 30 32  1  0  0  0
  1 33  1  0  0  0
  5 34  1  0  0  0
  5 35  1  0  0  0
  6 36  1  0  0  0
  7 37  1  0  0  0
  9 38  1  0  0  0
 10 39  1  0  0  0
 11 40  1  0  0  0
 15 41  1  0  0  0
 16 42  1  0  0  0
 24 43  1  0  0  0
 24 44  1  0  0  0
 25 45  1  0  0  0
 29 46  1  0  0  0
 29 47  1  0  0  0
 29 48  1  0  0  0
 31 49  1  0  0  0
 32 50  1  0  0  0
M  END
$$$$
