3kag_ligand
  -I-interpret- 

 37 39  0  0  0  0  0  0  0  0999 V2000
  -31.6940   24.2470   26.6670 C   0  0  0  0  0
  -31.6130   23.7120   25.3860 C   0  0  0  0  0
  -32.6650   23.8830   24.4930 C   0  0  0  0  0
  -32.8260   24.9520   27.0570 C   0  0  0  0  0
  -35.0510   25.7340   26.2590 N   0  0  0  0  0
  -33.8760   25.1210   26.1630 C   0  0  0  0  0
  -33.7960   24.5890   24.8860 C   0  0  0  0  0
  -34.9260   24.9010   24.2590 N   0  0  0  0  0
  -35.6910   25.5990   25.0970 C   0  0  0  0  0
  -37.0800   26.1570   24.7780 C   0  0  0  0  0
  -36.9790   27.5190   24.0880 C   0  0  0  0  0
  -38.3560   28.1850   24.0690 C   0  0  0  0  0
  -38.7620   28.8030   25.0510 O   0  0  0  0  0
  -39.0700   28.1090   23.0700 O   0  0  0  0  0
  -36.5020   27.3360   22.7100 N   0  0  0  0  0
  -35.2570   27.6330   22.3490 C   0  0  0  0  0
  -34.9330   27.3810   20.8750 C   0  0  0  0  0
  -34.4060   28.0780   23.1180 O   0  0  0  0  0
  -35.2560   28.2180   19.8250 C   0  0  0  0  0
  -34.7990   27.6450   18.6810 O   0  0  0  0  0
  -34.2010   26.4610   19.0650 C   0  0  0  0  0
  -34.2920   26.3200   20.3930 C   0  0  0  0  0
  -35.9980   29.5520   19.9320 C   0  0  0  0  0
  -30.8684   24.1131   27.3660 H   0  0  0  0  0
  -30.7246   23.1585   25.0819 H   0  0  0  0  0
  -32.6030   23.4649   23.4883 H   0  0  0  0  0
  -32.8901   25.3711   28.0611 H   0  0  0  0  0
  -37.6309   26.2777   25.7108 H   0  0  0  0  0
  -37.5903   25.4635   24.1096 H   0  0  0  0  0
  -36.2784   28.1516   24.6330 H   0  0  0  0  0
  -38.6186   27.5990   22.3935 H   0  0  0  0  0
  -37.1458   26.9698   22.0087 H   0  0  0  0  0
  -33.7268   25.7492   18.3892 H   0  0  0  0  0
  -33.9084   25.4831   20.9766 H   0  0  0  0  0
  -36.9829   29.3845   20.3678 H   0  0  0  0  0
  -35.4297   30.2326   20.5660 H   0  0  0  0  0
  -36.1080   29.9858   18.9381 H   0  0  0  0  0
  1  2  4  0  0  0
  1  4  4  0  0  0
  2  3  4  0  0  0
  3  7  4  0  0  0
  4  6  4  0  0  0
  6  5  4  0  0  0
  5  9  4  0  0  0
  6  7  4  0  0  0
  7  8  4  0  0  0
  8  9  4  0  0  0
  9 10  1  0  0  0
 10 11  1  0  0  0
 11 12  1  0  0  0
 11 15  1  0  0  0
 12 13  2  0  0  0
 12 14  1  0  0  0
 15 16  1  0  0  0
 16 17  1  0  0  0
 16 18  2  0  0  0
 17 19  4  0  0  0
 17 22  4  0  0  0
 19 20  4  0  0  0
 19 23  1  0  0  0
 20 21  4  0  0  0
 21 22  4  0  0  0
  1 24  1  0  0  0
  2 25  1  0  0  0
  3 26  1  0  0  0
  4 27  1  0  0  0
 10 28  1  0  0  0
 10 29  1  0  0  0
 11 30  1  0  0  0
 14 31  1  0  0  0
 15 32  1  0  0  0
 21 33  1  0  0  0
 22 34  1  0  0  0
 23 35  1  0  0  0
 23 36  1  0  0  0
 23 37  1  0  0  0
M  END
$$$$
