1n94_ligand
  -I-interpret- 

 85 87  0  0  0  0  0  0  0  0999 V2000
   47.6960   52.9350   -1.5700 C   0  0  0  0  0
   47.9690   51.4130   -1.6920 C   0  0  0  0  0
   49.4790   51.0980   -1.5290 C   0  0  0  0  0
   50.3400   51.8830   -2.5440 C   0  0  0  0  0
   50.0940   53.4070   -2.4240 C   0  0  0  0  0
   48.5870   53.7630   -2.5460 C   0  0  0  0  0
   49.7340   49.5860   -1.6560 C   0  0  0  0  0
   50.4210   48.9800   -0.4140 C   0  0  0  0  0
   51.0880   47.6990   -0.7830 N   0  3  0  0  0
   50.5450   46.5510    0.0000 C   0  0  0  0  0
   49.4630   45.8440   -0.8420 C   0  0  0  0  0
   48.8230   44.6440   -0.1410 C   0  0  0  0  0
   48.0000   43.7760   -1.1100 C   0  0  0  0  0
   52.6160   47.7450   -0.8390 C   0  0  0  0  0
   53.3460   48.3930    0.3360 C   0  0  0  0  0
   53.8740   47.5700    1.3900 C   0  0  0  0  0
   54.5420   48.1890    2.4960 C   0  0  0  0  0
   54.6680   49.6220    2.5340 C   0  0  0  0  0
   54.1390   50.4430    1.4620 C   0  0  0  0  0
   53.4810   49.8040    0.3750 C   0  0  0  0  0
   54.2180   51.9260    1.4090 C   0  0  0  0  0
   53.0910   52.7250    1.7800 C   0  0  0  0  0
   53.1940   54.1440    1.7270 C   0  0  0  0  0
   54.4050   54.7820    1.3070 C   0  0  0  0  0
   55.5320   53.9920    0.9310 C   0  0  0  0  0
   55.4270   52.5750    0.9870 C   0  0  0  0  0
   55.3630   50.1820    3.7340 C   0  0  0  0  0
   54.3100   51.5240    5.7660 C   0  0  0  0  0
   56.5560   50.4810    3.7010 O   0  0  0  0  0
   52.9250   51.5820    6.3730 C   0  0  0  0  0
   52.0520   50.8970    5.8700 O   0  0  0  0  0
   52.7130   52.3130    7.3310 O   0  0  0  0  0
   54.6550   50.3620    4.9050 N   0  0  0  0  0
   54.6460   52.8460    5.0700 C   0  0  0  0  0
   54.7710   54.0290    6.0200 C   0  0  0  0  0
   55.1420   55.5470    5.1620 S   0  0  0  0  0
   55.0830   56.6070    6.6160 C   0  0  0  0  0
   51.7570   52.2490    2.3720 C   0  0  0  0  0
   47.9262   53.2438   -0.5503 H   0  0  0  0  0
   46.6512   53.1170   -1.8218 H   0  0  0  0  0
   47.6493   51.0807   -2.6796 H   0  0  0  0  0
   47.4194   50.8971   -0.9046 H   0  0  0  0  0
   49.7753   51.4192   -0.5304 H   0  0  0  0  0
   50.0692   51.5645   -3.5506 H   0  0  0  0  0
   51.3914   51.6824   -2.3378 H   0  0  0  0  0
   50.6288   53.9039   -3.2335 H   0  0  0  0  0
   50.4436   53.7331   -1.4444 H   0  0  0  0  0
   48.4695   54.8173   -2.2957 H   0  0  0  0  0
   48.2698   53.5372   -3.5641 H   0  0  0  0  0
   50.3963   49.4328   -2.5080 H   0  0  0  0  0
   48.7671   49.0961   -1.7711 H   0  0  0  0  0
   49.6729   48.7890    0.3554 H   0  0  0  0  0
   51.1666   49.6797   -0.0363 H   0  0  0  0  0
   50.8393   47.5398   -1.7593 H   0  0  0  0  0
   50.1108   46.9118    0.9324 H   0  0  0  0  0
   51.3470   45.8511    0.2346 H   0  0  0  0  0
   49.9451   45.4734   -1.7466 H   0  0  0  0  0
   48.6723   46.5699   -1.0317 H   0  0  0  0  0
   48.1518   45.0203    0.6310 H   0  0  0  0  0
   49.6210   44.0274    0.2726 H   0  0  0  0  0
   47.2035   44.3778   -1.5478 H   0  0  0  0  0
   48.6497   43.4004   -1.9005 H   0  0  0  0  0
   47.5661   42.9374   -0.5654 H   0  0  0  0  0
   52.8593   48.3559   -1.7083 H   0  0  0  0  0
   52.9406   46.7045   -0.8480 H   0  0  0  0  0
   53.7672   46.4861    1.3481 H   0  0  0  0  0
   54.9513   47.5797    3.3018 H   0  0  0  0  0
   53.0755   50.4063   -0.4380 H   0  0  0  0  0
   52.3369   54.7547    2.0108 H   0  0  0  0  0
   54.4658   55.8698    1.2746 H   0  0  0  0  0
   56.4579   54.4667    0.6063 H   0  0  0  0  0
   56.2855   51.9666    0.7025 H   0  0  0  0  0
   54.9471   51.3590    6.6349 H   0  0  0  0  0
   53.5251   52.7635    7.5742 H   0  0  0  0  0
   54.2772   49.4865    5.2672 H   0  0  0  0  0
   53.8295   53.0671    4.3826 H   0  0  0  0  0
   55.6122   52.7189    4.5818 H   0  0  0  0  0
   55.5874   53.8228    6.7121 H   0  0  0  0  0
   53.8172   54.1540    6.5326 H   0  0  0  0  0
   54.0923   56.5486    7.0667 H   0  0  0  0  0
   55.8313   56.2758    7.3361 H   0  0  0  0  0
   55.2899   57.6361    6.3224 H   0  0  0  0  0
   51.2761   51.5624    1.6752 H   0  0  0  0  0
   51.9419   51.7390    3.3174 H   0  0  0  0  0
   51.1091   53.1088    2.5422 H   0  0  0  0  0
  2  1  1  0  0  0
  1  6  1  0  0  0
  3  2  1  0  0  0
  3  4  1  0  0  0
  7  3  1  0  0  0
  4  5  1  0  0  0
  5  6  1  0  0  0
  8  7  1  0  0  0
  9  8  1  0  0  0
  9 10  1  0  0  0
 14  9  1  0  0  0
 10 11  1  0  0  0
 11 12  1  0  0  0
 12 13  1  0  0  0
 15 14  1  0  0  0
 16 15  4  0  0  0
 20 15  4  0  0  0
 17 16  4  0  0  0
 18 17  4  0  0  0
 18 19  4  0  0  0
 27 18  1  0  0  0
 19 20  4  0  0  0
 19 21  1  0  0  0
 21 22  4  0  0  0
 21 26  4  0  0  0
 22 23  4  0  0  0
 22 38  1  0  0  0
 23 24  4  0  0  0
 25 24  4  0  0  0
 26 25  4  0  0  0
 27 29  2  0  0  0
 33 27  1  0  0  0
 28 30  1  0  0  0
 28 33  1  0  0  0
 28 34  1  0  0  0
 30 31  2  0  0  0
 30 32  1  0  0  0
 34 35  1  0  0  0
 35 36  1  0  0  0
 36 37  1  0  0  0
  1 39  1  0  0  0
  1 40  1  0  0  0
  2 41  1  0  0  0
  2 42  1  0  0  0
  3 43  1  0  0  0
  4 44  1  0  0  0
  4 45  1  0  0  0
  5 46  1  0  0  0
  5 47  1  0  0  0
  6 48  1  0  0  0
  6 49  1  0  0  0
  7 50  1  0  0  0
  7 51  1  0  0  0
  8 52  1  0  0  0
  8 53  1  0  0  0
  9 54  1  0  0  0
 10 55  1  0  0  0
 10 56  1  0  0  0
 11 57  1  0  0  0
 11 58  1  0  0  0
 12 59  1  0  0  0
 12 60  1  0  0  0
 13 61  1  0  0  0
 13 62  1  0  0  0
 13 63  1  0  0  0
 14 64  1  0  0  0
 14 65  1  0  0  0
 16 66  1  0  0  0
 17 67  1  0  0  0
 20 68  1  0  0  0
 23 69  1  0  0  0
 24 70  1  0  0  0
 25 71  1  0  0  0
 26 72  1  0  0  0
 28 73  1  0  0  0
 32 74  1  0  0  0
 33 75  1  0  0  0
 34 76  1  0  0  0
 34 77  1  0  0  0
 35 78  1  0  0  0
 35 79  1  0  0  0
 37 80  1  0  0  0
 37 81  1  0  0  0
 37 82  1  0  0  0
 38 83  1  0  0  0
 38 84  1  0  0  0
 38 85  1  0  0  0
M  END
$$$$
