5oaj_ligand
  -I-interpret- 

 41 44  0  0  0  0  0  0  0  0999 V2000
   48.6370   25.4920   52.5890 C   0  0  0  0  0
   50.0190   24.2370   51.1860 O   0  0  0  0  0
   53.6610   22.6660   57.0890 C   0  0  0  0  0
   49.8030   24.7360   52.2770 C   0  0  0  0  0
   48.2330   26.0350   53.7910 C   0  0  0  0  0
   50.5560   24.6440   53.4130 O   0  0  0  0  0
   50.7450   23.2930   56.0610 C   0  0  0  0  0
   51.3830   24.6750   56.2580 C   0  0  0  0  0
   53.1210   23.0930   55.7960 N   0  3  0  0  0
   52.7900   24.5300   55.6650 C   0  0  0  0  0
   52.8380   24.8690   54.1640 C   0  0  0  0  0
   51.8480   22.4640   55.3810 C   0  0  0  0  0
   51.7840   22.5620   53.8480 C   0  0  0  0  0
   51.8820   24.0090   53.3390 C   0  0  0  0  0
   45.5790   27.1470   50.2480 C   0  0  0  0  0
   46.6680   26.6160   52.3080 C   0  0  0  0  0
   47.6510   25.8710   51.6210 C   0  0  0  0  0
   47.5950   25.7940   50.2260 C   0  0  0  0  0
   46.5650   26.4360   49.5500 C   0  0  0  0  0
   47.0500   26.6920   53.6310 N   0  0  0  0  0
   45.6250   27.2490   51.6360 C   0  0  0  0  0
   54.5855   23.2067   57.2916 H   0  0  0  0  0
   52.9345   22.8794   57.8731 H   0  0  0  0  0
   53.8634   21.5953   57.0611 H   0  0  0  0  0
   48.7795   25.9509   54.7303 H   0  0  0  0  0
   49.8362   23.3404   55.4611 H   0  0  0  0  0
   50.4192   22.8515   57.0028 H   0  0  0  0  0
   51.4079   24.9700   57.3070 H   0  0  0  0  0
   50.8112   25.4645   55.7703 H   0  0  0  0  0
   53.9171   22.8104   55.2244 H   0  0  0  0  0
   53.4727   25.2058   56.1800 H   0  0  0  0  0
   53.8512   24.6806   53.8090 H   0  0  0  0  0
   52.5408   25.9109   54.0449 H   0  0  0  0  0
   51.7441   21.4157   55.6610 H   0  0  0  0  0
   50.8229   22.1599   53.5277 H   0  0  0  0  0
   52.6303   22.0075   53.4425 H   0  0  0  0  0
   52.2576   23.9504   52.3174 H   0  0  0  0  0
   44.7679   27.6250   49.6986 H   0  0  0  0  0
   48.3517   25.2360   49.6746 H   0  0  0  0  0
   46.5230   26.3862   48.4620 H   0  0  0  0  0
   44.8655   27.8089   52.1817 H   0  0  0  0  0
  1  4  1  0  0  0
  5  1  4  0  0  0
 17  1  4  0  0  0
  4  2  2  0  0  0
  9  3  1  0  0  0
  4  6  1  0  0  0
 20  5  4  0  0  0
  6 14  1  0  0  0
  7  8  1  0  0  0
 12  7  1  0  0  0
 10  8  1  0  0  0
 10  9  1  0  0  0
 12  9  1  0  0  0
 11 10  1  0  0  0
 14 11  1  0  0  0
 13 12  1  0  0  0
 14 13  1  0  0  0
 15 19  4  0  0  0
 21 15  4  0  0  0
 16 17  4  0  0  0
 16 20  4  0  0  0
 16 21  4  0  0  0
 17 18  4  0  0  0
 18 19  4  0  0  0
  3 22  1  0  0  0
  3 23  1  0  0  0
  3 24  1  0  0  0
  5 25  1  0  0  0
  7 26  1  0  0  0
  7 27  1  0  0  0
  8 28  1  0  0  0
  8 29  1  0  0  0
  9 30  1  0  0  0
 10 31  1  0  0  0
 11 32  1  0  0  0
 11 33  1  0  0  0
 12 34  1  0  0  0
 13 35  1  0  0  0
 13 36  1  0  0  0
 14 37  1  0  0  0
 15 38  1  0  0  0
 18 39  1  0  0  0
 19 40  1  0  0  0
 21 41  1  0  0  0
M  END
$$$$
