### 
### Created by X-TOOL on Mon Sep 10 21:13:16 2018
### 

@<TRIPOS>MOLECULE
4lp9_ligand
  141   145     1     0     0
SMALL
GAST_HUCK


@<TRIPOS>ATOM
      1 N          34.5310   -2.9500   -9.1980 N.4       1 SER         0.2396
      2 CA         34.6860   -4.2750   -8.5290 C.3       1 SER         0.0885
      3 C          33.6400   -4.4990   -7.4470 C.2       1 SER         0.2290
      4 O          33.0840   -3.5450   -6.8130 O.2       1 SER        -0.3906
      5 CB         36.1040   -4.4510   -7.9140 C.3       1 SER         0.1041
      6 OG         36.6970   -3.1930   -7.4400 O.3       1 SER        -0.3870
      7 N          33.4550   -5.7830   -7.1650 N.am      1 LEU        -0.2609
      8 CA         32.6980   -6.1890   -5.9660 C.3       1 LEU         0.1313
      9 C          33.6920   -6.4220   -4.8010 C.2       1 LEU         0.2040
     10 O          34.8690   -6.6820   -5.0060 O.2       1 LEU        -0.3944
     11 CB         31.8990   -7.4640   -6.2250 C.3       1 LEU        -0.0101
     12 CG         30.8990   -7.3180   -7.3650 C.3       1 LEU        -0.0425
     13 CD1        30.4510   -8.6760   -7.7740 C.3       1 LEU        -0.0625
     14 CD2        29.7690   -6.4660   -6.9310 C.3       1 LEU        -0.0625
     15 N          33.2010   -6.3090   -3.5960 N.am      1 PHE        -0.2619
     16 CA         33.9980   -6.4730   -2.4060 C.3       1 PHE         0.1404
     17 C          33.5480   -7.6430   -1.5730 C.2       1 PHE         0.2061
     18 O          32.3380   -7.9600   -1.5410 O.2       1 PHE        -0.3942
     19 CB         33.8640   -5.1790   -1.5770 C.3       1 PHE         0.0214
     20 CG         34.5100   -3.9560   -2.2410 C.ar      1 PHE        -0.0386
     21 CD1        33.8950   -3.2850   -3.2480 C.ar      1 PHE        -0.0601
     22 CD2        35.7030   -3.5180   -1.8640 C.ar      1 PHE        -0.0601
     23 CE1        34.4750   -2.2210   -3.8560 C.ar      1 PHE        -0.0686
     24 CE2        36.2950   -2.4180   -2.4500 C.ar      1 PHE        -0.0686
     25 CZ         35.7020   -1.8190   -3.5110 C.ar      1 PHE        -0.0687
     26 N          34.4430   -8.2250   -0.8050 N.am      1 HIS        -0.2617
     27 CA         34.2350   -9.4770   -0.1260 C.3       1 HIS         0.1420
     28 C          34.9150   -9.4370    1.2250 C.2       1 HIS         0.2043
     29 O          35.5820  -10.3980    1.6300 O.2       1 HIS        -0.3943
     30 CB         34.7740  -10.5940   -0.9750 C.3       1 HIS         0.0427
     31 CG         34.2200  -10.6240   -2.3420 C.2       1 HIS         0.0561
     32 ND1        34.7880   -9.9610   -3.4260 N.pl3     1 HIS        -0.2623
     33 CD2        33.0830  -11.1800   -2.7940 C.2       1 HIS        -0.0276
     34 CE1        34.0480  -10.1750   -4.5000 C.2       1 HIS         0.0875
     35 NE2        33.0210  -10.9230   -4.1430 N.2       1 HIS        -0.3437
     36 CD1        33.6490  -12.8390    3.3930 C.ar      1 22G        -0.0684
     37 CE1        33.8260  -13.7600    2.3380 C.ar      1 22G        -0.0398
     38 CZ         34.4770  -14.9200    2.6000 C.ar      1 22G         0.0805
     39 OH         34.6310  -15.8690    1.6610 O.3       1 22G        -0.3376
     40 CE2        34.9430  -15.1900    3.9060 C.ar      1 22G        -0.0398
     41 CD2        34.8010  -14.2350    4.9170 C.ar      1 22G        -0.0684
     42 CG         34.1060  -13.0750    4.6360 C.ar      1 22G        -0.0460
     43 CB         33.9970  -12.0660    5.7230 C.3       1 22G         0.0366
     44 CA         35.0030  -10.8780    5.5170 C.3       1 22G         0.0748
     45 C1         36.4190  -11.3750    5.2770 C.2       1 22G         0.2287
     46 O          36.9620  -11.3540    4.2290 O.2       1 22G        -0.3905
     47 NAA        34.5950  -10.0830    4.3910 N.4       1 22G         0.2492
     48 CAN        35.0400   -8.6530    4.4770 C.3       1 22G        -0.0061
     49 CAU        35.7630   -8.1220    3.2070 C.3       1 22G         0.0911
     50 N          34.9100   -8.2970    2.0070 N.am      1 22G        -0.2748
     51 CAO        36.0820   -6.6880    3.3890 C.3       1 22G         0.0089
     52 CAS        36.7550   -5.9630    2.3080 C.ar      1 22G        -0.0406
     53 CAH        36.4770   -4.6110    2.1030 C.ar      1 22G        -0.0603
     54 CAF        37.1470   -3.9210    1.1240 C.ar      1 22G        -0.0686
     55 CAE        38.1770   -4.4810    0.3680 C.ar      1 22G        -0.0687
     56 CAG        38.4880   -5.8230    0.5750 C.ar      1 22G        -0.0686
     57 CAI        37.7910   -6.5170    1.5870 C.ar      1 22G        -0.0603
     58 N          37.0220  -11.7590    6.5340 N.am      1 THR        -0.2585
     59 CA         38.3000  -12.4720    6.4670 C.3       1 THR         0.1567
     60 C          38.0400  -13.9310    6.7530 C.2       1 THR         0.2084
     61 O          37.5230  -14.2760    7.8040 O.2       1 THR        -0.3941
     62 CB         39.3300  -11.8260    7.4060 C.3       1 THR         0.0924
     63 OG1        40.5910  -12.4950    7.2790 O.3       1 THR        -0.3874
     64 CG2        38.9030  -11.8190    8.8500 C.3       1 THR        -0.0346
     65 N          38.3930  -14.7930    5.7960 N.am      1 PRO        -0.2555
     66 CA         38.0770  -16.1890    5.9300 C.3       1 PRO         0.0972
     67 C          38.8860  -16.8850    6.9770 C.2       1 PRO         0.0603
     68 O          38.4980  -17.8900    7.6340 O.co2     1 PRO        -0.5666
     69 CB         38.4520  -16.8040    4.5680 C.3       1 PRO        -0.0159
     70 CG         39.0030  -15.7610    3.7370 C.3       1 PRO        -0.0288
     71 CD         38.8480  -14.4400    4.4430 C.3       1 PRO         0.0362
     72 OXT        40.0270  -16.4530    7.1270 O.co2     1 PRO        -0.5666
     73 H          35.2422   -2.8452   -9.9046 H         1 SER         0.2016
     74 H          34.6258   -2.2153   -8.5144 H         1 SER         0.2016
     75 H          33.6205   -2.8946   -9.6269 H         1 SER         0.2016
     76 H          34.5500   -5.0500   -9.2976 H         1 SER         0.1122
     77 H          36.7654   -4.8805   -8.6809 H         1 SER         0.0640
     78 H          36.0309   -5.1440   -7.0629 H         1 SER         0.0640
     79 H          37.5578   -3.3668   -7.0776 H         1 SER         0.2099
     80 H          33.8328   -6.4823   -7.7719 H         1 LEU         0.1884
     81 H          32.0011   -5.3830   -5.6928 H         1 LEU         0.0800
     82 H          31.3500   -7.7260   -5.3085 H         1 LEU         0.0315
     83 H          32.6010   -8.2728   -6.4759 H         1 LEU         0.0315
     84 H          31.3924   -6.8349   -8.2212 H         1 LEU         0.0298
     85 H          29.7271   -8.5906   -8.5978 H         1 LEU         0.0232
     86 H          29.9755   -9.1784   -6.9187 H         1 LEU         0.0232
     87 H          31.3190   -9.2634   -8.1081 H         1 LEU         0.0232
     88 H          30.1477   -5.4753   -6.6392 H         1 LEU         0.0232
     89 H          29.2659   -6.9338   -6.0719 H         1 LEU         0.0232
     90 H          29.0537   -6.3556   -7.7594 H         1 LEU         0.0232
     91 H          32.2285   -6.0993   -3.4943 H         1 PHE         0.1885
     92 H          35.0490   -6.6247   -2.6931 H         1 PHE         0.0823
     93 H          34.3451   -5.3396   -0.6009 H         1 PHE         0.0474
     94 H          32.7943   -4.9699   -1.4287 H         1 PHE         0.0474
     95 H          32.9135   -3.6086   -3.5749 H         1 PHE         0.0557
     96 H          36.2288   -4.0392   -1.0722 H         1 PHE         0.0557
     97 H          33.9364   -1.6894   -4.6321 H         1 PHE         0.0599
     98 H          37.2318   -2.0341   -2.0627 H         1 PHE         0.0599
     99 H          36.2083   -1.0362   -4.0641 H         1 PHE         0.0559
    100 H          35.3246   -7.7684   -0.6851 H         1 HIS         0.1885
    101 H          33.1565   -9.6330    0.0242 H         1 HIS         0.0824
    102 H          34.5362  -11.5489   -0.4835 H         1 HIS         0.0491
    103 H          35.8658  -10.4799   -1.0458 H         1 HIS         0.0491
    104 H          35.6475   -9.3942   -3.3960 H         1 HIS         0.2386
    105 H          32.3506  -11.7293   -2.2042 H         1 HIS         0.0324
    106 H          34.2500   -9.8003   -5.5024 H         1 HIS         0.1149
    107 H          33.1270  -11.9099    3.1948 H         1 22G         0.0530
    108 H          33.4510  -13.5453    1.3438 H         1 22G         0.0525
    109 H          35.1092  -16.6026    2.0292 H         1 22G         0.2458
    110 H          35.4128  -16.1420    4.1252 H         1 22G         0.0525
    111 H          35.2270  -14.4012    5.8998 H         1 22G         0.0530
    112 H          34.2137  -12.5536    6.6849 H         1 22G         0.0486
    113 H          32.9722  -11.6666    5.7370 H         1 22G         0.0486
    114 H          34.9960  -10.2524    6.4218 H         1 22G         0.1121
    115 H          33.5887  -10.1014    4.3350 H         1 22G         0.2037
    116 H          34.9855  -10.4891    3.5552 H         1 22G         0.2037
    117 H          35.7297   -8.5590    5.3288 H         1 22G         0.0839
    118 H          34.1524   -8.0276    4.6531 H         1 22G         0.0839
    119 H          36.6974   -8.6849    3.0653 H         1 22G         0.0632
    120 H          34.2976   -7.5496    1.7492 H         1 22G         0.1859
    121 H          36.7269   -6.6123    4.2769 H         1 22G         0.0450
    122 H          35.1313   -6.1690    3.5809 H         1 22G         0.0450
    123 H          35.7358   -4.1084    2.7138 H         1 22G         0.0557
    124 H          36.8627   -2.8933    0.9292 H         1 22G         0.0599
    125 H          38.7199   -3.8888   -0.3598 H         1 22G         0.0559
    126 H          39.2431   -6.3196   -0.0236 H         1 22G         0.0599
    127 H          38.0850   -7.5366    1.8084 H         1 22G         0.0557
    128 H          36.5865  -11.5475    7.4090 H         1 THR         0.1885
    129 H          38.6926  -12.3927    5.4425 H         1 THR         0.0826
    130 H          39.4586  -10.7800    7.0907 H         1 THR         0.0639
    131 H          40.8962  -12.4254    6.3821 H         1 THR         0.2101
    132 H          39.6846  -11.3440    9.4611 H         1 THR         0.0257
    133 H          38.7483  -12.8531    9.1917 H         1 THR         0.0257
    134 H          37.9643  -11.2548    8.9521 H         1 THR         0.0257
    135 H          37.0060  -16.3163    6.1464 H         1 PRO         0.0728
    136 H          37.5552  -17.2254    4.0904 H         1 PRO         0.0306
    137 H          39.1988  -17.5988    4.7116 H         1 PRO         0.0306
    138 H          38.4663  -15.7316    2.7773 H         1 PRO         0.0286
    139 H          40.0696  -15.9591    3.5548 H         1 PRO         0.0286
    140 H          39.8090  -13.9064    4.4835 H         1 PRO         0.0524
    141 H          38.1015  -13.8129    3.9336 H         1 PRO         0.0524
@<TRIPOS>BOND
     1    2    1 1  
     2    3    2 1  
     3    2    5 1  
     4    3    4 2  
     5    7    3 am 
     6    5    6 1  
     7    8    7 1  
     8    9    8 1  
     9    8   11 1  
    10    9   10 2  
    11   15    9 am 
    12   11   12 1  
    13   12   13 1  
    14   12   14 1  
    15   16   15 1  
    16   17   16 1  
    17   16   19 1  
    18   17   18 2  
    19   26   17 am 
    20   19   20 1  
    21   20   21 ar 
    22   20   22 ar 
    23   21   23 ar 
    24   22   24 ar 
    25   23   25 ar 
    26   24   25 ar 
    27   27   26 1  
    28   28   27 1  
    29   27   30 1  
    30   28   29 2  
    31   50   28 am 
    32   30   31 1  
    33   31   32 1  
    34   31   33 2  
    35   32   34 1  
    36   33   35 1  
    37   35   34 2  
    38   36   37 ar 
    39   42   36 ar 
    40   37   38 ar 
    41   38   39 1  
    42   40   38 ar 
    43   41   40 ar 
    44   42   41 ar 
    45   43   42 1  
    46   44   43 1  
    47   44   45 1  
    48   47   44 1  
    49   45   46 2  
    50   45   58 am 
    51   48   47 1  
    52   49   48 1  
    53   49   50 1  
    54   49   51 1  
    55   51   52 1  
    56   52   53 ar 
    57   52   57 ar 
    58   53   54 ar 
    59   54   55 ar 
    60   55   56 ar 
    61   56   57 ar 
    62   58   59 1  
    63   59   60 1  
    64   59   62 1  
    65   60   61 2  
    66   60   65 am 
    67   62   63 1  
    68   62   64 1  
    69   65   66 1  
    70   65   71 1  
    71   66   67 1  
    72   66   69 1  
    73   67   68 ar 
    74   67   72 ar 
    75   69   70 1  
    76   70   71 1  
    77    1   73 1  
    78    1   74 1  
    79    1   75 1  
    80    2   76 1  
    81    5   77 1  
    82    5   78 1  
    83    6   79 1  
    84    7   80 1  
    85    8   81 1  
    86   11   82 1  
    87   11   83 1  
    88   12   84 1  
    89   13   85 1  
    90   13   86 1  
    91   13   87 1  
    92   14   88 1  
    93   14   89 1  
    94   14   90 1  
    95   15   91 1  
    96   16   92 1  
    97   19   93 1  
    98   19   94 1  
    99   21   95 1  
   100   22   96 1  
   101   23   97 1  
   102   24   98 1  
   103   25   99 1  
   104   26  100 1  
   105   27  101 1  
   106   30  102 1  
   107   30  103 1  
   108   32  104 1  
   109   33  105 1  
   110   34  106 1  
   111   36  107 1  
   112   37  108 1  
   113   39  109 1  
   114   40  110 1  
   115   41  111 1  
   116   43  112 1  
   117   43  113 1  
   118   44  114 1  
   119   47  115 1  
   120   47  116 1  
   121   48  117 1  
   122   48  118 1  
   123   49  119 1  
   124   50  120 1  
   125   51  121 1  
   126   51  122 1  
   127   53  123 1  
   128   54  124 1  
   129   55  125 1  
   130   56  126 1  
   131   57  127 1  
   132   58  128 1  
   133   59  129 1  
   134   62  130 1  
   135   63  131 1  
   136   64  132 1  
   137   64  133 1  
   138   64  134 1  
   139   66  135 1  
   140   69  136 1  
   141   69  137 1  
   142   70  138 1  
   143   70  139 1  
   144   71  140 1  
   145   71  141 1  
@<TRIPOS>SUBSTRUCTURE
     1 SER         1

