4lp9_ligand
  -I-interpret- 

141145  0  0  0  0  0  0  0  0999 V2000
   34.5310   -2.9500   -9.1980 N   0  3  0  0  0
   34.6860   -4.2750   -8.5290 C   0  0  0  0  0
   33.6400   -4.4990   -7.4470 C   0  0  0  0  0
   33.0840   -3.5450   -6.8130 O   0  0  0  0  0
   36.1040   -4.4510   -7.9140 C   0  0  0  0  0
   36.6970   -3.1930   -7.4400 O   0  0  0  0  0
   33.4550   -5.7830   -7.1650 N   0  0  0  0  0
   32.6980   -6.1890   -5.9660 C   0  0  0  0  0
   33.6920   -6.4220   -4.8010 C   0  0  0  0  0
   34.8690   -6.6820   -5.0060 O   0  0  0  0  0
   31.8990   -7.4640   -6.2250 C   0  0  0  0  0
   30.8990   -7.3180   -7.3650 C   0  0  0  0  0
   30.4510   -8.6760   -7.7740 C   0  0  0  0  0
   29.7690   -6.4660   -6.9310 C   0  0  0  0  0
   33.2010   -6.3090   -3.5960 N   0  0  0  0  0
   33.9980   -6.4730   -2.4060 C   0  0  0  0  0
   33.5480   -7.6430   -1.5730 C   0  0  0  0  0
   32.3380   -7.9600   -1.5410 O   0  0  0  0  0
   33.8640   -5.1790   -1.5770 C   0  0  0  0  0
   34.5100   -3.9560   -2.2410 C   0  0  0  0  0
   33.8950   -3.2850   -3.2480 C   0  0  0  0  0
   35.7030   -3.5180   -1.8640 C   0  0  0  0  0
   34.4750   -2.2210   -3.8560 C   0  0  0  0  0
   36.2950   -2.4180   -2.4500 C   0  0  0  0  0
   35.7020   -1.8190   -3.5110 C   0  0  0  0  0
   34.4430   -8.2250   -0.8050 N   0  0  0  0  0
   34.2350   -9.4770   -0.1260 C   0  0  0  0  0
   34.9150   -9.4370    1.2250 C   0  0  0  0  0
   35.5820  -10.3980    1.6300 O   0  0  0  0  0
   34.7740  -10.5940   -0.9750 C   0  0  0  0  0
   34.2200  -10.6240   -2.3420 C   0  0  0  0  0
   34.7880   -9.9610   -3.4260 N   0  0  0  0  0
   33.0830  -11.1800   -2.7940 C   0  0  0  0  0
   34.0480  -10.1750   -4.5000 C   0  0  0  0  0
   33.0210  -10.9230   -4.1430 N   0  0  0  0  0
   33.6490  -12.8390    3.3930 C   0  0  0  0  0
   33.8260  -13.7600    2.3380 C   0  0  0  0  0
   34.4770  -14.9200    2.6000 C   0  0  0  0  0
   34.6310  -15.8690    1.6610 O   0  0  0  0  0
   34.9430  -15.1900    3.9060 C   0  0  0  0  0
   34.8010  -14.2350    4.9170 C   0  0  0  0  0
   34.1060  -13.0750    4.6360 C   0  0  0  0  0
   33.9970  -12.0660    5.7230 C   0  0  0  0  0
   35.0030  -10.8780    5.5170 C   0  0  0  0  0
   36.4190  -11.3750    5.2770 C   0  0  0  0  0
   36.9620  -11.3540    4.2290 O   0  0  0  0  0
   34.5950  -10.0830    4.3910 N   0  3  0  0  0
   35.0400   -8.6530    4.4770 C   0  0  0  0  0
   35.7630   -8.1220    3.2070 C   0  0  0  0  0
   34.9100   -8.2970    2.0070 N   0  0  0  0  0
   36.0820   -6.6880    3.3890 C   0  0  0  0  0
   36.7550   -5.9630    2.3080 C   0  0  0  0  0
   36.4770   -4.6110    2.1030 C   0  0  0  0  0
   37.1470   -3.9210    1.1240 C   0  0  0  0  0
   38.1770   -4.4810    0.3680 C   0  0  0  0  0
   38.4880   -5.8230    0.5750 C   0  0  0  0  0
   37.7910   -6.5170    1.5870 C   0  0  0  0  0
   37.0220  -11.7590    6.5340 N   0  0  0  0  0
   38.3000  -12.4720    6.4670 C   0  0  0  0  0
   38.0400  -13.9310    6.7530 C   0  0  0  0  0
   37.5230  -14.2760    7.8040 O   0  0  0  0  0
   39.3300  -11.8260    7.4060 C   0  0  0  0  0
   40.5910  -12.4950    7.2790 O   0  0  0  0  0
   38.9030  -11.8190    8.8500 C   0  0  0  0  0
   38.3930  -14.7930    5.7960 N   0  0  0  0  0
   38.0770  -16.1890    5.9300 C   0  0  0  0  0
   38.8860  -16.8850    6.9770 C   0  0  0  0  0
   38.4980  -17.8900    7.6340 O   0  0  0  0  0
   38.4520  -16.8040    4.5680 C   0  0  0  0  0
   39.0030  -15.7610    3.7370 C   0  0  0  0  0
   38.8480  -14.4400    4.4430 C   0  0  0  0  0
   40.0270  -16.4530    7.1270 O   0  0  0  0  0
   33.5910   -2.8746   -9.5867 H   0  0  0  0  0
   34.6787   -2.2065   -8.5155 H   0  0  0  0  0
   35.2178   -2.8665   -9.9475 H   0  0  0  0  0
   34.5432   -5.0206   -9.3111 H   0  0  0  0  0
   36.7535   -4.8456   -8.6954 H   0  0  0  0  0
   36.0082   -5.1130   -7.0533 H   0  0  0  0  0
   37.5668   -3.3686   -7.0738 H   0  0  0  0  0
   33.8404   -6.4962   -7.7840 H   0  0  0  0  0
   31.9941   -5.3974   -5.7091 H   0  0  0  0  0
   31.3386   -7.6947   -5.3190 H   0  0  0  0  0
   32.6045   -8.2480   -6.5003 H   0  0  0  0  0
   31.3574   -6.8313   -8.2259 H   0  0  0  0  0
   31.3119   -9.2569   -8.1047 H   0  0  0  0  0
   29.9801   -9.1727   -6.9257 H   0  0  0  0  0
   29.7338   -8.5901   -8.5903 H   0  0  0  0  0
   29.2767   -6.9263   -6.0743 H   0  0  0  0  0
   30.1445   -5.4819   -6.6505 H   0  0  0  0  0
   29.0567   -6.3647   -7.7498 H   0  0  0  0  0
   32.2091   -6.0951   -3.4923 H   0  0  0  0  0
   35.0304   -6.6657   -2.6979 H   0  0  0  0  0
   34.3743   -5.3439   -0.6281 H   0  0  0  0  0
   32.8000   -4.9686   -1.4684 H   0  0  0  0  0
   32.9080   -3.6104   -3.5768 H   0  0  0  0  0
   36.2317   -4.0421   -1.0679 H   0  0  0  0  0
   33.9335   -1.6864   -4.6364 H   0  0  0  0  0
   37.2370   -2.0320   -2.0606 H   0  0  0  0  0
   36.2111   -1.0319   -4.0672 H   0  0  0  0  0
   35.3422   -7.7593   -0.6827 H   0  0  0  0  0
   33.1705   -9.6481    0.0346 H   0  0  0  0  0
   34.4982  -11.5314   -0.4920 H   0  0  0  0  0
   35.8500  -10.4445   -1.0637 H   0  0  0  0  0
   32.3500  -11.7298   -2.2036 H   0  0  0  0  0
   34.2502   -9.8000   -5.5033 H   0  0  0  0  0
   33.1241  -11.9047    3.1937 H   0  0  0  0  0
   33.4489  -13.5441    1.3383 H   0  0  0  0  0
   35.1142  -16.6104    2.0331 H   0  0  0  0  0
   35.4154  -16.1473    4.1264 H   0  0  0  0  0
   35.2293  -14.4022    5.9053 H   0  0  0  0  0
   34.2315  -12.5541    6.6690 H   0  0  0  0  0
   32.9843  -11.6630    5.7167 H   0  0  0  0  0
   34.9948  -10.2808    6.4288 H   0  0  0  0  0
   33.5753  -10.0862    4.3663 H   0  0  0  0  0
   35.0226  -10.4880    3.5582 H   0  0  0  0  0
   35.7537   -8.5910    5.2985 H   0  0  0  0  0
   34.1428   -8.0482    4.6083 H   0  0  0  0  0
   36.6822   -8.6895    3.0617 H   0  0  0  0  0
   34.2854   -7.5347    1.7441 H   0  0  0  0  0
   36.7841   -6.6617    4.2223 H   0  0  0  0  0
   35.1141   -6.1977    3.4938 H   0  0  0  0  0
   35.7317   -4.1056    2.7172 H   0  0  0  0  0
   36.8611   -2.8876    0.9281 H   0  0  0  0  0
   38.7229   -3.8855   -0.3638 H   0  0  0  0  0
   39.2473   -6.3223   -0.0269 H   0  0  0  0  0
   38.0866   -7.5423    1.8096 H   0  0  0  0  0
   36.5778  -11.5433    7.4265 H   0  0  0  0  0
   38.7398  -12.4021    5.4721 H   0  0  0  0  0
   39.4176  -10.7835    7.1000 H   0  0  0  0  0
   41.2295  -12.0865    7.8681 H   0  0  0  0  0
   37.9728  -11.2597    8.9498 H   0  0  0  0  0
   38.7500  -12.8441    9.1873 H   0  0  0  0  0
   39.6782  -11.3481    9.4545 H   0  0  0  0  0
   37.0316  -16.2997    6.2182 H   0  0  0  0  0
   37.5898  -18.0935    7.3988 H   0  0  0  0  0
   37.5683  -17.2319    4.0946 H   0  0  0  0  0
   39.1848  -17.5991    4.7056 H   0  0  0  0  0
   38.4754  -15.7328    2.7836 H   0  0  0  0  0
   40.0590  -15.9575    3.5516 H   0  0  0  0  0
   39.7805  -13.8760    4.4611 H   0  0  0  0  0
   38.1405  -13.7862    3.9330 H   0  0  0  0  0
  2  1  1  0  0  0
  3  2  1  0  0  0
  2  5  1  0  0  0
  3  4  2  0  0  0
  7  3  1  0  0  0
  5  6  1  0  0  0
  8  7  1  0  0  0
  9  8  1  0  0  0
  8 11  1  0  0  0
  9 10  2  0  0  0
 15  9  1  0  0  0
 11 12  1  0  0  0
 12 13  1  0  0  0
 12 14  1  0  0  0
 16 15  1  0  0  0
 17 16  1  0  0  0
 16 19  1  0  0  0
 17 18  2  0  0  0
 26 17  1  0  0  0
 19 20  1  0  0  0
 20 21  4  0  0  0
 20 22  4  0  0  0
 21 23  4  0  0  0
 22 24  4  0  0  0
 23 25  4  0  0  0
 24 25  4  0  0  0
 27 26  1  0  0  0
 28 27  1  0  0  0
 27 30  1  0  0  0
 28 29  2  0  0  0
 50 28  1  0  0  0
 30 31  1  0  0  0
 31 32  4  0  0  0
 31 33  4  0  0  0
 32 34  4  0  0  0
 33 35  4  0  0  0
 35 34  4  0  0  0
 36 37  4  0  0  0
 42 36  4  0  0  0
 37 38  4  0  0  0
 38 39  1  0  0  0
 40 38  4  0  0  0
 41 40  4  0  0  0
 42 41  4  0  0  0
 43 42  1  0  0  0
 44 43  1  0  0  0
 44 45  1  0  0  0
 47 44  1  0  0  0
 45 46  2  0  0  0
 45 58  1  0  0  0
 48 47  1  0  0  0
 49 48  1  0  0  0
 49 50  1  0  0  0
 49 51  1  0  0  0
 51 52  1  0  0  0
 52 53  4  0  0  0
 52 57  4  0  0  0
 53 54  4  0  0  0
 54 55  4  0  0  0
 55 56  4  0  0  0
 56 57  4  0  0  0
 58 59  1  0  0  0
 59 60  1  0  0  0
 59 62  1  0  0  0
 60 61  2  0  0  0
 60 65  1  0  0  0
 62 63  1  0  0  0
 62 64  1  0  0  0
 65 66  1  0  0  0
 65 71  1  0  0  0
 66 67  1  0  0  0
 66 69  1  0  0  0
 67 68  1  0  0  0
 67 72  2  0  0  0
 69 70  1  0  0  0
 70 71  1  0  0  0
  1 73  1  0  0  0
  1 74  1  0  0  0
  1 75  1  0  0  0
  2 76  1  0  0  0
  5 77  1  0  0  0
  5 78  1  0  0  0
  6 79  1  0  0  0
  7 80  1  0  0  0
  8 81  1  0  0  0
 11 82  1  0  0  0
 11 83  1  0  0  0
 12 84  1  0  0  0
 13 85  1  0  0  0
 13 86  1  0  0  0
 13 87  1  0  0  0
 14 88  1  0  0  0
 14 89  1  0  0  0
 14 90  1  0  0  0
 15 91  1  0  0  0
 16 92  1  0  0  0
 19 93  1  0  0  0
 19 94  1  0  0  0
 21 95  1  0  0  0
 22 96  1  0  0  0
 23 97  1  0  0  0
 24 98  1  0  0  0
 25 99  1  0  0  0
 26100  1  0  0  0
 27101  1  0  0  0
 30102  1  0  0  0
 30103  1  0  0  0
 33104  1  0  0  0
 34105  1  0  0  0
 36106  1  0  0  0
 37107  1  0  0  0
 39108  1  0  0  0
 40109  1  0  0  0
 41110  1  0  0  0
 43111  1  0  0  0
 43112  1  0  0  0
 44113  1  0  0  0
 47114  1  0  0  0
 47115  1  0  0  0
 48116  1  0  0  0
 48117  1  0  0  0
 49118  1  0  0  0
 50119  1  0  0  0
 51120  1  0  0  0
 51121  1  0  0  0
 53122  1  0  0  0
 54123  1  0  0  0
 55124  1  0  0  0
 56125  1  0  0  0
 57126  1  0  0  0
 58127  1  0  0  0
 59128  1  0  0  0
 62129  1  0  0  0
 63130  1  0  0  0
 64131  1  0  0  0
 64132  1  0  0  0
 64133  1  0  0  0
 66134  1  0  0  0
 68135  1  0  0  0
 69136  1  0  0  0
 69137  1  0  0  0
 70138  1  0  0  0
 70139  1  0  0  0
 71140  1  0  0  0
 71141  1  0  0  0
M  END
$$$$
