6h8s_ligand
  -I-interpret- 

 38 39  0  0  0  0  0  0  0  0999 V2000
    2.7500   12.6240    5.9890 N   0  3  0  0  0
    3.3620   13.9300    5.6180 C   0  0  0  0  0
    3.4980   14.8190    6.8410 C   0  0  0  0  0
    4.3130   14.1310    7.9460 C   0  0  0  0  0
    5.4470   15.3030   11.3910 C   0  0  0  0  0
    4.5050   14.9890    9.1830 C   0  0  0  0  0
    4.8390   16.5470   11.4920 C   0  0  0  0  0
    3.6920   12.7640    8.2670 C   0  0  0  0  0
    3.8950   16.2370    9.2960 C   0  0  0  0  0
    4.0530   17.0150   10.4400 C   0  0  0  0  0
    3.4160   18.3670   10.5170 C   0  0  0  0  0
    5.9470   13.6040   13.0970 C   0  0  0  0  0
    3.5580   11.9120    7.0180 C   0  0  0  0  0
    5.3000   14.5440   10.2370 C   0  0  0  0  0
    2.2550   18.4310    9.8640 F   0  0  0  0  0
    3.1510   18.7510   11.7540 F   0  0  0  0  0
    4.1780   19.3230   10.0100 F   0  0  0  0  0
    4.9010   12.8790   12.7520 N   0  0  0  0  0
    6.7470   13.2090   14.0640 N   0  0  0  0  0
    6.2260   14.7760   12.4630 N   0  0  0  0  0
    2.7055   12.0403    5.1537 H   0  0  0  0  0
    1.8220   12.8008    6.3737 H   0  0  0  0  0
    2.7225   14.4265    4.8882 H   0  0  0  0  0
    4.3518   13.7510    5.1981 H   0  0  0  0  0
    2.5011   15.0312    7.2273 H   0  0  0  0  0
    4.0141   15.7334    6.5486 H   0  0  0  0  0
    5.3228   13.9774    7.5655 H   0  0  0  0  0
    4.9752   17.1534   12.3874 H   0  0  0  0  0
    2.6986   12.9240    8.6860 H   0  0  0  0  0
    4.3408   12.2453    8.9728 H   0  0  0  0  0
    3.2836   16.6106    8.4746 H   0  0  0  0  0
    4.5511   11.7134    6.6151 H   0  0  0  0  0
    3.0599   10.9777    7.2770 H   0  0  0  0  0
    5.8141   13.5864   10.1549 H   0  0  0  0  0
    4.7057   12.0028   13.2362 H   0  0  0  0  0
    4.2872   13.1944   12.0009 H   0  0  0  0  0
    6.5608   12.3344   14.5547 H   0  0  0  0  0
    7.0393   15.3080   12.7727 H   0  0  0  0  0
  2  1  1  0  0  0
 13  1  1  0  0  0
  3  2  1  0  0  0
  4  3  1  0  0  0
  6  4  1  0  0  0
  4  8  1  0  0  0
  5  7  4  0  0  0
  5 14  4  0  0  0
 20  5  1  0  0  0
  6  9  4  0  0  0
 14  6  4  0  0  0
  7 10  4  0  0  0
  8 13  1  0  0  0
 10  9  4  0  0  0
 10 11  1  0  0  0
 11 15  1  0  0  0
 11 16  1  0  0  0
 11 17  1  0  0  0
 12 18  1  0  0  0
 12 19  2  0  0  0
 12 20  1  0  0  0
  1 21  1  0  0  0
  1 22  1  0  0  0
  2 23  1  0  0  0
  2 24  1  0  0  0
  3 25  1  0  0  0
  3 26  1  0  0  0
  4 27  1  0  0  0
  7 28  1  0  0  0
  8 29  1  0  0  0
  8 30  1  0  0  0
  9 31  1  0  0  0
 13 32  1  0  0  0
 13 33  1  0  0  0
 14 34  1  0  0  0
 18 35  1  0  0  0
 18 36  1  0  0  0
 19 37  1  0  0  0
 20 38  1  0  0  0
M  END
$$$$
