5w73_ligand
  -I-interpret- 

 61 64  0  0  0  0  0  0  0  0999 V2000
  128.3100  103.0500  287.4360 C   0  0  0  0  0
  127.6960  101.4420  284.7310 C   0  0  0  0  0
  127.4890  102.9150  284.4310 C   0  0  0  0  0
  132.8870  103.0660  284.5310 C   0  0  0  0  0
  132.3740  103.1220  283.1140 C   0  0  0  0  0
  123.8750  105.5060  286.7610 C   0  0  0  0  0
  124.9730  106.0490  286.1460 C   0  0  0  0  0
  125.7220  105.2810  285.2640 C   0  0  0  0  0
  125.3750  103.9530  284.9830 C   0  0  0  0  0
  124.2520  103.4290  285.6190 C   0  0  0  0  0
  123.5140  104.2030  286.5020 C   0  0  0  0  0
  130.2720  104.1900  287.0010 C   0  0  0  0  0
  129.1310  101.9680  279.4950 C   0  0  0  0  0
  129.0990  100.9160  280.3800 C   0  0  0  0  0
  129.8750  100.9310  281.5290 C   0  0  0  0  0
  130.6970  102.0190  281.7820 C   0  0  0  0  0
  130.7290  103.0870  280.8940 C   0  0  0  0  0
  129.9450  103.0470  279.7520 C   0  0  0  0  0
  129.9010  105.2240  287.8080 C   0  0  0  0  0
  128.6710  105.1790  288.4680 C   0  0  0  0  0
  131.5850  104.1930  286.2670 C   0  0  0  0  0
  128.7940   99.9760  287.8540 C   0  0  0  0  0
  127.5660  100.7540  288.2990 C   0  0  0  0  0
  127.4540  101.8230  287.1980 C   0  0  0  0  0
  128.5060   99.7790  286.3860 C   0  0  0  0  0
  129.4890  103.1170  286.8180 N   0  0  0  0  0
  127.8940  104.0660  288.2470 N   0  0  0  0  0
  131.7750  103.1460  285.4630 N   0  0  0  0  0
  127.8660  101.0480  286.0090 N   0  0  0  0  0
  130.6630  106.3050  288.0200 O   0  0  0  0  0
  128.2500  106.0670  289.2240 O   0  0  0  0  0
  132.3990  105.1080  286.3840 O   0  0  0  0  0
  126.1490  103.2570  284.0890 O   0  0  0  0  0
  127.7130  100.6150  283.8240 O   0  0  0  0  0
  131.4640  102.0350  282.9180 O   0  0  0  0  0
  127.1040  106.0110  284.5030 Cl  0  0  0  0  0
  128.1133  103.1596  283.5716 H   0  0  0  0  0
  127.7413  103.4668  285.3365 H   0  0  0  0  0
  133.5611  103.9051  284.7027 H   0  0  0  0  0
  133.4178  102.1264  284.6844 H   0  0  0  0  0
  133.2054  103.0425  282.4136 H   0  0  0  0  0
  131.8649  104.0699  282.9395 H   0  0  0  0  0
  123.2873  106.1062  287.4556 H   0  0  0  0  0
  125.2577  107.0814  286.3487 H   0  0  0  0  0
  123.9503  102.4005  285.4208 H   0  0  0  0  0
  122.6407  103.7760  286.9951 H   0  0  0  0  0
  128.5154  101.9472  278.5957 H   0  0  0  0  0
  128.4558  100.0600  280.1758 H   0  0  0  0  0
  129.8393  100.0949  282.2274 H   0  0  0  0  0
  131.3654  103.9491  281.0939 H   0  0  0  0  0
  129.9736  103.8798  279.0494 H   0  0  0  0  0
  128.9428   99.0441  288.3995 H   0  0  0  0  0
  129.7337  100.4924  288.0499 H   0  0  0  0  0
  127.6577  101.1723  289.3014 H   0  0  0  0  0
  126.6732  100.1363  288.3956 H   0  0  0  0  0
  126.4610  102.2663  287.1242 H   0  0  0  0  0
  127.8773   98.9107  286.1888 H   0  0  0  0  0
  129.4011   99.5643  285.8022 H   0  0  0  0  0
  126.9831  103.9980  288.7010 H   0  0  0  0  0
  131.1135  102.3707  285.5039 H   0  0  0  0  0
  130.2089  106.9029  288.6183 H   0  0  0  0  0
 24  1  1  0  0  0
  1 26  2  0  0  0
  1 27  1  0  0  0
  2  3  1  0  0  0
 29  2  1  0  0  0
  2 34  2  0  0  0
  3 33  1  0  0  0
  4  5  1  0  0  0
 28  4  1  0  0  0
  5 35  1  0  0  0
  7  6  4  0  0  0
 11  6  4  0  0  0
  8  7  4  0  0  0
  9  8  4  0  0  0
  8 36  1  0  0  0
  9 10  4  0  0  0
 33  9  1  0  0  0
 10 11  4  0  0  0
 12 19  2  0  0  0
 12 21  1  0  0  0
 26 12  1  0  0  0
 14 13  4  0  0  0
 18 13  4  0  0  0
 15 14  4  0  0  0
 16 15  4  0  0  0
 16 17  4  0  0  0
 35 16  1  0  0  0
 17 18  4  0  0  0
 20 19  1  0  0  0
 19 30  1  0  0  0
 27 20  1  0  0  0
 20 31  2  0  0  0
 21 28  1  0  0  0
 21 32  2  0  0  0
 23 22  1  0  0  0
 22 25  1  0  0  0
 24 23  1  0  0  0
 24 29  1  0  0  0
 25 29  1  0  0  0
  3 37  1  0  0  0
  3 38  1  0  0  0
  4 39  1  0  0  0
  4 40  1  0  0  0
  5 41  1  0  0  0
  5 42  1  0  0  0
  6 43  1  0  0  0
  7 44  1  0  0  0
 10 45  1  0  0  0
 11 46  1  0  0  0
 13 47  1  0  0  0
 14 48  1  0  0  0
 15 49  1  0  0  0
 17 50  1  0  0  0
 18 51  1  0  0  0
 22 52  1  0  0  0
 22 53  1  0  0  0
 23 54  1  0  0  0
 23 55  1  0  0  0
 24 56  1  0  0  0
 25 57  1  0  0  0
 25 58  1  0  0  0
 27 59  1  0  0  0
 28 60  1  0  0  0
 30 61  1  0  0  0
M  END
$$$$
