1ewj_ligand
  -I-interpret- 

181186  0  0  0  0  0  0  0  0999 V2000
   38.9010   16.4710   24.9920 N   0  0  0  0  0
   36.5150   16.7230   24.2540 C   0  0  0  0  0
   37.5800   16.6830   25.3470 C   0  0  0  0  0
   37.3420   16.7990   26.5290 O   0  0  0  0  0
   36.3690   14.2990   24.8020 N   0  3  0  0  0
   35.9770   15.3320   23.8540 C   0  0  0  0  0
   37.0280   17.3380   22.9730 N   0  3  0  0  0
   33.6830   10.2580   23.6380 N   0  0  0  0  0
   35.0220   12.2950   24.0900 C   0  0  0  0  0
   34.8270   10.8150   24.0950 C   0  0  0  0  0
   35.7540   10.0440   24.5390 O   0  0  0  0  0
   37.6690   12.2070   20.8620 C   0  0  0  0  0
   39.1650   12.2690   21.0910 C   0  0  0  0  0
   39.6240   12.5310   22.2770 C   0  0  0  0  0
   38.6430   12.7760   23.3750 N   0  0  0  0  0
   37.3010   12.7120   23.1320 C   0  0  0  0  0
   36.8330   12.4650   22.0320 N   0  0  0  0  0
   36.4050   12.9060   24.3750 C   0  0  0  0  0
   37.1400   11.9110   19.6700 N   0  0  0  0  0
   40.0670   12.0680   19.8880 C   0  0  0  0  0
   40.9540   12.5750   22.8010 C   0  0  0  0  0
   41.9040   12.2940   22.0680 O   0  0  0  0  0
   41.0690   12.9090   24.1340 N   0  0  0  0  0
   42.3470   12.9910   24.8100 C   0  0  0  0  0
   42.7780   11.6340   25.3420 C   0  0  0  0  0
   43.9720   11.3510   25.4670 O   0  0  0  0  0
   42.3050   14.0190   25.9520 C   0  0  0  0  0
   41.0910   13.8640   26.8540 C   0  0  0  0  0
   42.3160   15.3120   25.3670 O   0  0  0  0  0
   39.8740   13.6010   26.4120 N   0  0  0  0  0
   41.0680   14.0790   28.2040 C   0  0  0  0  0
   39.0930   13.6560   27.4710 C   0  0  0  0  0
   39.8100   13.9430   28.5440 N   0  0  0  0  0
   41.8100   10.7630   25.6430 N   0  0  0  0  0
   40.9610   10.1530   28.4380 C   0  0  0  0  0
   39.9690    9.6010   29.4430 C   0  0  0  0  0
   40.3170    9.1780   30.5510 O   0  0  0  0  0
   41.6920    7.9660   27.9420 O   0  0  0  0  0
   42.1180    9.4440   26.1680 C   0  0  0  0  0
   42.0170    8.4190   25.0500 C   0  0  0  0  0
   41.1470    9.1190   27.3070 C   0  0  0  0  0
   42.2670   10.4770   29.1640 C   0  0  0  0  0
   38.6970    9.5820   29.0500 N   0  0  0  0  0
   37.6490    9.0540   29.9080 C   0  0  0  0  0
   37.5680    7.5320   29.7750 C   0  0  0  0  0
   37.5820    6.9840   28.6660 O   0  0  0  0  0
   36.3140    9.7070   29.5510 C   0  0  0  0  0
   36.6320   10.9850   29.0090 O   0  0  0  0  0
   35.4150    9.8430   30.7710 C   0  0  0  0  0
   37.5260    6.8240   30.9140 N   0  0  0  0  0
   36.0590    4.8290   31.1710 C   0  0  0  0  0
   34.7300   -3.5370   31.6920 C   0  0  0  0  0
   34.4550   -4.2320   32.6640 O   0  0  0  0  0
   35.8810    3.4650   30.5970 C   0  0  0  0  0
   37.4750    5.3670   30.9460 C   0  0  0  0  0
   35.9930    3.0620   28.9200 S   0  0  0  0  0
   35.7030    1.4200   29.2700 C   0  0  0  0  0
   35.5380    1.2830   30.6500 C   0  0  0  0  0
   35.6430    2.4750   31.3600 N   0  0  0  0  0
   34.8820   -1.5050   33.1190 C   0  0  0  0  0
   34.9370   -2.0490   31.8770 C   0  0  0  0  0
   35.1850   -1.1380   30.8660 N   0  0  0  0  0
   35.3140    0.0650   31.3290 C   0  0  0  0  0
   35.1530    0.2040   33.0580 S   0  0  0  0  0
   34.8180   -3.9810   30.4440 N   0  0  0  0  0
   34.6570   -5.3910   30.1850 C   0  0  0  0  0
   33.5160   -5.6800   29.2490 C   0  0  0  0  0
   33.3580   -7.1870   29.0090 C   0  0  0  0  0
   34.5560   -7.7940   27.8070 S   0  0  0  0  0
   33.6360   -8.2650   26.3660 C   0  0  0  0  0
   35.1730   -9.3350   28.4320 C   0  0  0  0  0
   44.6130   19.2020   26.0480 O   0  0  0  0  0
   41.2610   17.9680   25.3900 O   0  0  0  0  0
   44.4190   17.4950   28.4650 C   0  0  0  0  0
   43.8380   16.8010   29.5360 O   0  0  0  0  0
   42.6220   16.8580   23.1130 O   0  0  0  0  0
   43.5400   17.3500   27.2200 C   0  0  0  0  0
   44.1080   16.2970   26.4350 O   0  0  0  0  0
   43.5520   15.9860   25.1550 C   0  0  0  0  0
   43.3210   17.2560   24.2950 C   0  0  0  0  0
   42.5910   18.3610   25.1050 C   0  0  0  0  0
   43.3610   18.6450   26.4050 C   0  0  0  0  0
   41.2420   17.6990   21.2920 C   0  0  0  0  0
   41.1100   16.4120   20.4670 C   0  0  0  0  0
   42.3350   16.2110   19.5510 C   0  0  0  0  0
   43.6660   16.3380   20.3060 C   0  0  0  0  0
   43.6970   17.4770   21.1550 O   0  0  0  0  0
   42.6030   17.7620   22.0200 C   0  0  0  0  0
   39.9740   16.3010   19.6370 O   0  0  0  0  0
   42.2790   14.9150   18.9950 O   0  0  0  0  0
   41.1420   18.8250   20.4450 O   0  0  0  0  0
   37.8360   16.1620   19.0260 N   0  0  0  0  0
   38.7460   15.9720   20.0260 C   0  0  0  0  0
   38.3820   15.5530   21.0910 O   0  0  0  0  0
   46.0230   16.6040   19.9620 O   0  0  0  0  0
   44.7950   16.5460   19.2950 C   0  0  0  0  0
   39.6208   16.4191   25.7128 H   0  0  0  0  0
   39.1546   16.3667   24.0096 H   0  0  0  0  0
   35.7226   17.3212   24.7038 H   0  0  0  0  0
   35.6518   14.3283   25.5267 H   0  0  0  0  0
   37.3356   14.5209   25.0403 H   0  0  0  0  0
   36.3925   15.0744   22.8798 H   0  0  0  0  0
   34.8883   15.3812   23.8361 H   0  0  0  0  0
   37.4008   18.2670   23.1687 H   0  0  0  0  0
   37.7654   16.7490   22.5860 H   0  0  0  0  0
   36.2629   17.4117   22.3024 H   0  0  0  0  0
   33.5689    9.2445   23.6502 H   0  0  0  0  0
   32.9340   10.8513   23.2810 H   0  0  0  0  0
   34.3995   12.6489   24.9118 H   0  0  0  0  0
   34.8071   12.5889   23.0626 H   0  0  0  0  0
   36.8258   12.3754   25.2291 H   0  0  0  0  0
   37.7495   11.7172   18.8754 H   0  0  0  0  0
   36.1270   11.8790   19.5554 H   0  0  0  0  0
   39.8815   11.0843   19.4567 H   0  0  0  0  0
   39.8566   12.8374   19.1451 H   0  0  0  0  0
   41.1088   12.1384   20.2008 H   0  0  0  0  0
   40.2205   13.1060   24.6647 H   0  0  0  0  0
   43.0818   13.3203   24.0754 H   0  0  0  0  0
   43.1734   13.8594   26.5911 H   0  0  0  0  0
   41.9110   14.3123   28.8545 H   0  0  0  0  0
   38.0158   13.4897   27.4639 H   0  0  0  0  0
   40.8357   11.0297   25.5013 H   0  0  0  0  0
   40.6012   11.0760   27.9832 H   0  0  0  0  0
   41.8331    7.2782   27.2874 H   0  0  0  0  0
   43.1343    9.4201   26.5614 H   0  0  0  0  0
   41.0049    8.4231   24.6454 H   0  0  0  0  0
   42.7258    8.6722   24.2616 H   0  0  0  0  0
   42.2481    7.4294   25.4441 H   0  0  0  0  0
   40.1689    9.0396   26.8325 H   0  0  0  0  0
   42.0755   11.2175   29.9406 H   0  0  0  0  0
   42.6647    9.5686   29.6165 H   0  0  0  0  0
   42.9887   10.8751   28.4507 H   0  0  0  0  0
   38.4530    9.9451   28.1286 H   0  0  0  0  0
   37.8833    9.2871   30.9467 H   0  0  0  0  0
   35.7620    9.0964   28.8365 H   0  0  0  0  0
   35.8217   11.4393   28.7670 H   0  0  0  0  0
   35.2161    8.8550   31.1861 H   0  0  0  0  0
   35.9118   10.4598   31.5199 H   0  0  0  0  0
   34.4754   10.3113   30.4779 H   0  0  0  0  0
   37.5299    7.3292   31.8001 H   0  0  0  0  0
   35.8832    4.7719   32.2452 H   0  0  0  0  0
   35.3571    5.5006   30.6767 H   0  0  0  0  0
   38.0968    5.0288   31.7750 H   0  0  0  0  0
   37.8230    4.9990   29.9808 H   0  0  0  0  0
   35.6544    0.6123   28.5397 H   0  0  0  0  0
   34.6926   -2.0685   34.0326 H   0  0  0  0  0
   34.9974   -3.3327   29.6772 H   0  0  0  0  0
   34.4460   -5.8845   31.1337 H   0  0  0  0  0
   35.5733   -5.7534   29.7190 H   0  0  0  0  0
   33.7206   -5.1966   28.2937 H   0  0  0  0  0
   32.5967   -5.3022   29.6964 H   0  0  0  0  0
   32.3562   -7.3716   28.6212 H   0  0  0  0  0
   33.5231   -7.7060   29.9532 H   0  0  0  0  0
   32.9220   -9.0448   26.6311 H   0  0  0  0  0
   33.1015   -7.3978   25.9783 H   0  0  0  0  0
   34.3210   -8.6409   25.6060 H   0  0  0  0  0
   35.6452   -9.1699   29.4004 H   0  0  0  0  0
   34.3468  -10.0370   28.5442 H   0  0  0  0  0
   35.9048   -9.7418   27.7341 H   0  0  0  0  0
   44.4719   20.0057   25.5423 H   0  0  0  0  0
   40.8240   18.6610   25.8905 H   0  0  0  0  0
   45.4070   17.0826   28.2602 H   0  0  0  0  0
   44.5085   18.5501   28.7237 H   0  0  0  0  0
   44.3920   16.8943   30.3145 H   0  0  0  0  0
   42.5236   17.1129   27.5343 H   0  0  0  0  0
   44.2541   15.3569   24.6077 H   0  0  0  0  0
   44.2693   17.7071   24.0030 H   0  0  0  0  0
   42.5551   19.2733   24.5096 H   0  0  0  0  0
   42.8089   19.3436   27.0336 H   0  0  0  0  0
   40.4397   17.6999   22.0298 H   0  0  0  0  0
   41.0194   15.6526   21.2437 H   0  0  0  0  0
   42.2985   16.9889   18.7883 H   0  0  0  0  0
   43.7798   15.4288   20.8964 H   0  0  0  0  0
   42.7184   18.7847   22.3791 H   0  0  0  0  0
   43.0380   14.7804   18.4228 H   0  0  0  0  0
   41.2254   19.6258   20.9679 H   0  0  0  0  0
   36.8514   15.9483   19.1850 H   0  0  0  0  0
   38.1408   16.5177   18.1199 H   0  0  0  0  0
   46.7272   16.7346   19.3228 H   0  0  0  0  0
   44.6313   17.4809   18.7590 H   0  0  0  0  0
   44.8062   15.7141   18.5908 H   0  0  0  0  0
  3  1  1  0  0  0
  2  3  1  0  0  0
  6  2  1  0  0  0
  2  7  1  0  0  0
  3  4  2  0  0  0
  5  6  1  0  0  0
 18  5  1  0  0  0
 10  8  1  0  0  0
  9 10  1  0  0  0
 18  9  1  0  0  0
 10 11  2  0  0  0
 13 12  4  0  0  0
 12 17  4  0  0  0
 12 19  1  0  0  0
 14 13  4  0  0  0
 13 20  1  0  0  0
 14 15  4  0  0  0
 21 14  1  0  0  0
 15 16  4  0  0  0
 16 17  4  0  0  0
 16 18  1  0  0  0
 21 22  2  0  0  0
 23 21  1  0  0  0
 24 23  1  0  0  0
 24 25  1  0  0  0
 27 24  1  0  0  0
 25 26  2  0  0  0
 25 34  1  0  0  0
 27 28  1  0  0  0
 29 27  1  0  0  0
 28 30  4  0  0  0
 28 31  4  0  0  0
 79 29  1  0  0  0
 30 32  4  0  0  0
 31 33  4  0  0  0
 33 32  4  0  0  0
 34 39  1  0  0  0
 35 36  1  0  0  0
 41 35  1  0  0  0
 35 42  1  0  0  0
 36 37  2  0  0  0
 36 43  1  0  0  0
 41 38  1  0  0  0
 39 40  1  0  0  0
 39 41  1  0  0  0
 43 44  1  0  0  0
 44 45  1  0  0  0
 44 47  1  0  0  0
 45 46  2  0  0  0
 45 50  1  0  0  0
 47 48  1  0  0  0
 47 49  1  0  0  0
 50 55  1  0  0  0
 51 54  1  0  0  0
 55 51  1  0  0  0
 52 53  2  0  0  0
 61 52  1  0  0  0
 52 65  1  0  0  0
 54 56  4  0  0  0
 54 59  4  0  0  0
 56 57  4  0  0  0
 58 57  4  0  0  0
 59 58  4  0  0  0
 58 63  1  0  0  0
 60 61  4  0  0  0
 64 60  4  0  0  0
 62 61  4  0  0  0
 63 62  4  0  0  0
 63 64  4  0  0  0
 65 66  1  0  0  0
 66 67  1  0  0  0
 67 68  1  0  0  0
 68 69  1  0  0  0
 69 70  1  0  0  0
 69 71  1  0  0  0
 82 72  1  0  0  0
 81 73  1  0  0  0
 74 75  1  0  0  0
 77 74  1  0  0  0
 76 80  1  0  0  0
 88 76  1  0  0  0
 78 77  1  0  0  0
 82 77  1  0  0  0
 79 78  1  0  0  0
 80 79  1  0  0  0
 80 81  1  0  0  0
 81 82  1  0  0  0
 83 84  1  0  0  0
 83 88  1  0  0  0
 83 91  1  0  0  0
 84 85  1  0  0  0
 84 89  1  0  0  0
 85 86  1  0  0  0
 85 90  1  0  0  0
 86 87  1  0  0  0
 86 96  1  0  0  0
 87 88  1  0  0  0
 89 93  1  0  0  0
 93 92  1  0  0  0
 93 94  2  0  0  0
 96 95  1  0  0  0
  1 97  1  0  0  0
  1 98  1  0  0  0
  2 99  1  0  0  0
  5100  1  0  0  0
  5101  1  0  0  0
  6102  1  0  0  0
  6103  1  0  0  0
  7104  1  0  0  0
  7105  1  0  0  0
  7106  1  0  0  0
  8107  1  0  0  0
  8108  1  0  0  0
  9109  1  0  0  0
  9110  1  0  0  0
 18111  1  0  0  0
 19112  1  0  0  0
 19113  1  0  0  0
 20114  1  0  0  0
 20115  1  0  0  0
 20116  1  0  0  0
 23117  1  0  0  0
 24118  1  0  0  0
 27119  1  0  0  0
 31120  1  0  0  0
 32121  1  0  0  0
 34122  1  0  0  0
 35123  1  0  0  0
 38124  1  0  0  0
 39125  1  0  0  0
 40126  1  0  0  0
 40127  1  0  0  0
 40128  1  0  0  0
 41129  1  0  0  0
 42130  1  0  0  0
 42131  1  0  0  0
 42132  1  0  0  0
 43133  1  0  0  0
 44134  1  0  0  0
 47135  1  0  0  0
 48136  1  0  0  0
 49137  1  0  0  0
 49138  1  0  0  0
 49139  1  0  0  0
 50140  1  0  0  0
 51141  1  0  0  0
 51142  1  0  0  0
 55143  1  0  0  0
 55144  1  0  0  0
 57145  1  0  0  0
 60146  1  0  0  0
 65147  1  0  0  0
 66148  1  0  0  0
 66149  1  0  0  0
 67150  1  0  0  0
 67151  1  0  0  0
 68152  1  0  0  0
 68153  1  0  0  0
 70154  1  0  0  0
 70155  1  0  0  0
 70156  1  0  0  0
 71157  1  0  0  0
 71158  1  0  0  0
 71159  1  0  0  0
 72160  1  0  0  0
 73161  1  0  0  0
 74162  1  0  0  0
 74163  1  0  0  0
 75164  1  0  0  0
 77165  1  0  0  0
 79166  1  0  0  0
 80167  1  0  0  0
 81168  1  0  0  0
 82169  1  0  0  0
 83170  1  0  0  0
 84171  1  0  0  0
 85172  1  0  0  0
 86173  1  0  0  0
 88174  1  0  0  0
 90175  1  0  0  0
 91176  1  0  0  0
 92177  1  0  0  0
 92178  1  0  0  0
 95179  1  0  0  0
 96180  1  0  0  0
 96181  1  0  0  0
M  END
$$$$
