### 
### Created by X-TOOL on Mon Sep 10 21:12:48 2018
### 

@<TRIPOS>MOLECULE
1ewj_ligand
  182   187     1     0     0
SMALL
GAST_HUCK


@<TRIPOS>ATOM
      1 NA         38.9010   16.4710   24.9920 N.am      1 BLM        -0.2961
      2 C2         36.5150   16.7230   24.2540 C.3       1 BLM         0.1051
      3 C1         37.5800   16.6830   25.3470 C.2       1 BLM         0.2273
      4 O1         37.3420   16.7990   26.5290 O.2       1 BLM        -0.3909
      5 NC         36.3690   14.2990   24.8020 N.4       1 BLM         0.2527
      6 C3         35.9770   15.3320   23.8540 C.3       1 BLM         0.0301
      7 NB         37.0280   17.3380   22.9730 N.4       1 BLM         0.2418
      8 ND         33.6830   10.2580   23.6380 N.am      1 BLM        -0.3005
      9 C5         35.0220   12.2950   24.0900 C.3       1 BLM         0.0942
     10 C4         34.8270   10.8150   24.0950 C.2       1 BLM         0.1815
     11 O4         35.7540   10.0440   24.5390 O.2       1 BLM        -0.3968
     12 C8         37.6690   12.2070   20.8620 C.ar      1 BLM         0.1276
     13 C9         39.1650   12.2690   21.0910 C.ar      1 BLM         0.0372
     14 C10        39.6240   12.5310   22.2770 C.ar      1 BLM         0.1171
     15 NG         38.6430   12.7760   23.3750 N.ar      1 BLM        -0.2694
     16 C7         37.3010   12.7120   23.1320 C.ar      1 BLM         0.1334
     17 NE         36.8330   12.4650   22.0320 N.ar      1 BLM        -0.2506
     18 C6         36.4050   12.9060   24.3750 C.3       1 BLM         0.0566
     19 NF         37.1400   11.9110   19.6700 N.pl3     1 BLM        -0.3176
     20 CA         40.0670   12.0680   19.8880 C.3       1 BLM        -0.0229
     21 C12        40.9540   12.5750   22.8010 C.2       1 BLM         0.2230
     22 O12        41.9040   12.2940   22.0680 O.2       1 BLM        -0.3790
     23 NH         41.0690   12.9090   24.1340 N.am      1 BLM        -0.2591
     24 C13        42.3470   12.9910   24.8100 C.3       1 BLM         0.1683
     25 C30        42.7780   11.6340   25.3420 C.2       1 BLM         0.2067
     26 O30        43.9720   11.3510   25.4670 O.2       1 BLM        -0.3942
     27 C14        42.3050   14.0190   25.9520 C.3       1 BLM         0.1562
     28 C27        41.0910   13.8640   26.8540 C.2       1 BLM         0.0854
     29 OH1        42.3160   15.3120   25.3670 O.3       1 BLM        -0.3260
     30 NJ         39.8740   13.6010   26.4120 N.pl3     1 BLM        -0.2601
     31 C28        41.0680   14.0790   28.2040 C.2       1 BLM        -0.0249
     32 C29        39.0930   13.6560   27.4710 C.2       1 BLM         0.0876
     33 NI         39.8100   13.9430   28.5440 N.2       1 BLM        -0.3436
     34 NK         41.8100   10.7630   25.6430 N.am      1 BLM        -0.2794
     35 C34        40.9610   10.1530   28.4380 C.3       1 BLM         0.0740
     36 C36        39.9690    9.6010   29.4430 C.2       1 BLM         0.1837
     37 O36        40.3170    9.1780   30.5510 O.2       1 BLM        -0.3965
     38 OH2        41.6920    7.9660   27.9420 O.3       1 BLM        -0.3869
     39 C31        42.1180    9.4440   26.1680 C.3       1 BLM         0.0675
     40 CB         42.0170    8.4190   25.0500 C.3       1 BLM        -0.0394
     41 C33        41.1470    9.1190   27.3070 C.3       1 BLM         0.0969
     42 CC         42.2670   10.4770   29.1640 C.3       1 BLM        -0.0428
     43 NL         38.6970    9.5820   29.0500 N.am      1 BLM        -0.2630
     44 C37        37.6490    9.0540   29.9080 C.3       1 BLM         0.1563
     45 C40        37.5680    7.5320   29.7750 C.2       1 BLM         0.2044
     46 O40        37.5820    6.9840   28.6660 O.2       1 BLM        -0.3944
     47 C38        36.3140    9.7070   29.5510 C.3       1 BLM         0.0924
     48 OH3        36.6320   10.9850   29.0090 O.3       1 BLM        -0.3874
     49 CD         35.4150    9.8430   30.7710 C.3       1 BLM        -0.0346
     50 NM         37.5260    6.8240   30.9140 N.am      1 BLM        -0.2821
     51 C42        36.0590    4.8290   31.1710 C.3       1 BLM         0.0392
     52 C49        34.7300   -3.5370   31.6920 C.2       1 BLM         0.2011
     53 O49        34.4550   -4.2320   32.6640 O.2       1 BLM        -0.3919
     54 C43        35.8810    3.4650   30.5970 C.2       1 BLM         0.0982
     55 C41        37.4750    5.3670   30.9460 C.3       1 BLM         0.0475
     56 S43        35.9930    3.0620   28.9200 S.3       1 BLM         0.0091
     57 C44        35.7030    1.4200   29.2700 C.2       1 BLM         0.0297
     58 C45        35.5380    1.2830   30.6500 C.2       1 BLM         0.0572
     59 NN         35.6430    2.4750   31.3600 N.2       1 BLM        -0.3091
     60 C47        34.8820   -1.5050   33.1190 C.2       1 BLM         0.0342
     61 C48        34.9370   -2.0490   31.8770 C.2       1 BLM         0.0916
     62 NO         35.1850   -1.1380   30.8660 N.2       1 BLM        -0.3022
     63 C46        35.3140    0.0650   31.3290 C.2       1 BLM         0.1098
     64 S46        35.1530    0.2040   33.0580 S.3       1 BLM         0.0009
     65 NP         34.8180   -3.9810   30.4440 N.am      1 BLM        -0.2880
     66 C50        34.6570   -5.3910   30.1850 C.3       1 BLM         0.0343
     67 C51        33.5160   -5.6800   29.2490 C.3       1 BLM         0.0123
     68 C52        33.3580   -7.1870   29.0090 C.3       1 BLM         0.1111
     69 S53        34.5560   -7.7940   27.8070 S.3       1 BLM        -0.0162
     70 C55        33.6360   -8.2650   26.3660 C.3       1 BLM         0.0991
     71 C54        35.1730   -9.3350   28.4320 C.3       1 BLM         0.0991
     72 O59        44.6130   19.2020   26.0480 O.3       1 BLM        -0.3865
     73 O58        41.2610   17.9680   25.3900 O.3       1 BLM        -0.3864
     74 C61        44.4190   17.4950   28.4650 C.3       1 BLM         0.0730
     75 O61        43.8380   16.8010   29.5360 O.3       1 BLM        -0.3924
     76 O56        42.6220   16.8580   23.1130 O.3       1 BLM        -0.3377
     77 C60        43.5400   17.3500   27.2200 C.3       1 BLM         0.1130
     78 O62        44.1080   16.2970   26.4350 O.3       1 BLM        -0.3404
     79 C63        43.5520   15.9860   25.1550 C.3       1 BLM         0.1912
     80 C57        43.3210   17.2560   24.2950 C.3       1 BLM         0.1408
     81 C58        42.5910   18.3610   25.1050 C.3       1 BLM         0.1144
     82 C59        43.3610   18.6450   26.4050 C.3       1 BLM         0.1119
     83 C69        41.2420   17.6990   21.2920 C.3       1 BLM         0.1387
     84 C68        41.1100   16.4120   20.4670 C.3       1 BLM         0.1468
     85 C67        42.3350   16.2110   19.5510 C.3       1 BLM         0.1164
     86 C65        43.6660   16.3380   20.3060 C.3       1 BLM         0.1133
     87 O64        43.6970   17.4770   21.1550 O.3       1 BLM        -0.3405
     88 C64        42.6030   17.7620   22.0200 C.3       1 BLM         0.1889
     89 O68        39.9740   16.3010   19.6370 O.3       1 BLM        -0.2553
     90 O67        42.2790   14.9150   18.9950 O.3       1 BLM        -0.3861
     91 O69        41.1420   18.8250   20.4450 O.3       1 BLM        -0.3837
     92 NQ         37.8360   16.1620   19.0260 N.am      1 BLM        -0.2763
     93 C70        38.7460   15.9720   20.0260 C.2       1 BLM         0.3173
     94 O70        38.3820   15.5530   21.0910 O.2       1 BLM        -0.3777
     95 O66        46.0230   16.6040   19.9620 O.3       1 BLM        -0.3924
     96 C66        44.7950   16.5460   19.2950 C.3       1 BLM         0.0730
     97 H1         39.6097   16.4422   25.6969 H         1 BLM         0.1816
     98 H2         39.1466   16.3466   24.0306 H         1 BLM         0.1816
     99 H3         35.6788   17.3291   24.6327 H         1 BLM         0.1153
    100 H4         35.7245   14.3515   25.5753 H         1 BLM         0.2040
    101 H5         37.2965   14.5313   25.1212 H         1 BLM         0.2040
    102 H6         36.3726   15.0708   22.8614 H         1 BLM         0.0898
    103 H7         34.8787   15.3755   23.8112 H         1 BLM         0.0898
    104 H8         37.3967   18.2562   23.1653 H         1 BLM         0.2017
    105 H9         36.2728   17.4114   22.3095 H         1 BLM         0.2017
    106 H10        37.7569   16.7568   22.5896 H         1 BLM         0.2017
    107 H11        33.5713    9.2643   23.6496 H         1 BLM         0.1814
    108 H12        32.9485   10.8397   23.2884 H         1 BLM         0.1814
    109 H13        34.3357   12.7049   24.8456 H         1 BLM         0.0588
    110 H14        34.7221   12.6481   23.0923 H         1 BLM         0.0588
    111 H15        36.8502   12.3336   25.2021 H         1 BLM         0.1104
    112 H16        36.1170   11.8787   19.5542 H         1 BLM         0.1792
    113 H17        37.7555   11.7153   18.8677 H         1 BLM         0.1792
    114 H18        39.4525   11.8590   18.9999 H         1 BLM         0.0392
    115 H19        40.7429   11.2203   20.0740 H         1 BLM         0.0392
    116 H20        40.6596   12.9789   19.7177 H         1 BLM         0.0392
    117 H21        40.2371   13.1022   24.6543 H         1 BLM         0.1882
    118 H22        43.0964   13.3243   24.0771 H         1 BLM         0.0851
    119 H23        43.2069   13.8937   26.5691 H         1 BLM         0.0828
    120 H24        39.5945   13.3959   25.4421 H         1 BLM         0.2387
    121 H25        41.9102   14.3121   28.8539 H         1 BLM         0.0325
    122 H26        38.0168   13.4898   27.4639 H         1 BLM         0.1149
    123 H27        40.8548   11.0245   25.5041 H         1 BLM         0.1855
    124 H28        40.5622   11.0812   28.0027 H         1 BLM         0.0562
    125 H29        41.0864    7.6547   28.6045 H         1 BLM         0.2101
    126 H30        43.1448    9.4404   26.5624 H         1 BLM         0.0580
    127 H31        42.2501    7.4198   25.4465 H         1 BLM         0.0253
    128 H32        42.7319    8.6733   24.2537 H         1 BLM         0.0253
    129 H33        40.9959    8.4221   24.6408 H         1 BLM         0.0253
    130 H34        40.1609    8.9024   26.8703 H         1 BLM         0.0644
    131 H35        42.0729   11.2158   29.9555 H         1 BLM         0.0257
    132 H36        42.9924   10.8895   28.4473 H         1 BLM         0.0257
    133 H37        42.6752    9.5589   29.6116 H         1 BLM         0.0257
    134 H38        38.4578    9.9380   28.1466 H         1 BLM         0.1884
    135 H39        37.8910    9.2996   30.9525 H         1 BLM         0.0826
    136 H40        35.7946    9.0998   28.7950 H         1 BLM         0.0639
    137 H41        35.8301   11.4346   28.7695 H         1 BLM         0.2101
    138 H42        34.4663   10.3155   30.4765 H         1 BLM         0.0257
    139 H43        35.9152   10.4654   31.5276 H         1 BLM         0.0257
    140 H44        35.2134    8.8465   31.1909 H         1 BLM         0.0257
    141 H45        37.5299    7.3193   31.7827 H         1 BLM         0.1854
    142 H46        35.8629    4.7873   32.2526 H         1 BLM         0.0543
    143 H47        35.3401    5.5114   30.6940 H         1 BLM         0.0543
    144 H48        38.1205    5.0103   31.7621 H         1 BLM         0.0552
    145 H49        37.8496    4.9808   29.9866 H         1 BLM         0.0552
    146 H50        35.6545    0.6130   28.5404 H         1 BLM         0.0822
    147 H51        34.6928   -2.0679   34.0318 H         1 BLM         0.0857
    148 H52        34.9938   -3.3455   29.6922 H         1 BLM         0.1839
    149 H53        34.4691   -5.9053   31.1390 H         1 BLM         0.0520
    150 H54        35.5856   -5.7754   29.7378 H         1 BLM         0.0520
    151 H55        33.7073   -5.1824   28.2868 H         1 BLM         0.0330
    152 H56        32.5860   -5.2877   29.6862 H         1 BLM         0.0330
    153 H57        32.3433   -7.3846   28.6332 H         1 BLM         0.0840
    154 H58        33.5064   -7.7180   29.9608 H         1 BLM         0.0840
    155 H59        34.3262   -8.6446   25.5982 H         1 BLM         0.0803
    156 H60        33.0961   -7.3906   25.9736 H         1 BLM         0.0803
    157 H61        32.9151   -9.0520   26.6322 H         1 BLM         0.0803
    158 H62        35.7666   -9.1512   29.3397 H         1 BLM         0.0803
    159 H63        35.8066   -9.8124   27.6700 H         1 BLM         0.0803
    160 H64        34.3285   -9.9970   28.6740 H         1 BLM         0.0803
    161 H65        44.4734   19.9973   25.5476 H         1 BLM         0.2100
    162 H66        41.2712   17.1662   25.8995 H         1 BLM         0.2100
    163 H67        45.4168   17.0804   28.2586 H         1 BLM         0.0584
    164 H68        44.5110   18.5597   28.7258 H         1 BLM         0.0584
    165 H69        44.3862   16.8933   30.3064 H         1 BLM         0.2095
    166 H70        42.5376   17.0378   27.5482 H         1 BLM         0.0647
    167 H71        44.2434   15.3204   24.6174 H         1 BLM         0.0939
    168 H72        44.2994   17.6593   23.9950 H         1 BLM         0.0675
    169 H73        42.5633   19.2811   24.5028 H         1 BLM         0.0648
    170 H74        42.7997   19.3703   27.0124 H         1 BLM         0.0647
    171 H75        40.4328   17.7279   22.0365 H         1 BLM         0.0675
    172 H76        41.0723   15.5822   21.1881 H         1 BLM         0.0702
    173 H77        42.3049   16.9626   18.7484 H         1 BLM         0.0650
    174 H78        43.8376   15.4255   20.8958 H         1 BLM         0.0647
    175 H79        42.7314   18.7830   22.4086 H         1 BLM         0.0938
    176 H80        41.4625   14.8101   18.5209 H         1 BLM         0.2100
    177 H81        40.3094   18.8031   19.9880 H         1 BLM         0.2101
    178 H82        36.8705   15.9537   19.1823 H         1 BLM         0.1831
    179 H83        38.1350   16.5095   18.1373 H         1 BLM         0.1831
    180 H84        46.0141   17.3278   20.5772 H         1 BLM         0.2095
    181 H85        44.6297   17.4880   18.7516 H         1 BLM         0.0584
    182 H86        44.8058   15.7084   18.5821 H         1 BLM         0.0584
@<TRIPOS>BOND
     1    3    1 am 
     2    2    3 1  
     3    6    2 1  
     4    2    7 1  
     5    3    4 2  
     6    5    6 1  
     7   18    5 1  
     8   10    8 am 
     9    9   10 1  
    10   18    9 1  
    11   10   11 2  
    12   13   12 ar 
    13   12   17 ar 
    14   12   19 1  
    15   14   13 ar 
    16   13   20 1  
    17   14   15 ar 
    18   21   14 1  
    19   15   16 ar 
    20   16   17 ar 
    21   16   18 1  
    22   21   22 2  
    23   23   21 am 
    24   24   23 1  
    25   24   25 1  
    26   27   24 1  
    27   25   26 2  
    28   25   34 am 
    29   27   28 1  
    30   29   27 1  
    31   28   30 1  
    32   28   31 2  
    33   79   29 1  
    34   30   32 1  
    35   31   33 1  
    36   33   32 2  
    37   34   39 1  
    38   35   36 1  
    39   41   35 1  
    40   35   42 1  
    41   36   37 2  
    42   36   43 am 
    43   41   38 1  
    44   39   40 1  
    45   39   41 1  
    46   43   44 1  
    47   44   45 1  
    48   44   47 1  
    49   45   46 2  
    50   45   50 am 
    51   47   48 1  
    52   47   49 1  
    53   50   55 1  
    54   51   54 1  
    55   55   51 1  
    56   52   53 2  
    57   61   52 1  
    58   52   65 am 
    59   54   56 1  
    60   54   59 2  
    61   56   57 1  
    62   58   57 2  
    63   59   58 1  
    64   58   63 1  
    65   60   61 2  
    66   64   60 1  
    67   62   61 1  
    68   63   62 2  
    69   63   64 1  
    70   65   66 1  
    71   66   67 1  
    72   67   68 1  
    73   68   69 1  
    74   69   70 1  
    75   69   71 1  
    76   82   72 1  
    77   81   73 1  
    78   74   75 1  
    79   77   74 1  
    80   76   80 1  
    81   88   76 1  
    82   78   77 1  
    83   82   77 1  
    84   79   78 1  
    85   80   79 1  
    86   80   81 1  
    87   81   82 1  
    88   83   84 1  
    89   83   88 1  
    90   83   91 1  
    91   84   85 1  
    92   84   89 1  
    93   85   86 1  
    94   85   90 1  
    95   86   87 1  
    96   86   96 1  
    97   87   88 1  
    98   89   93 1  
    99   93   92 am 
   100   93   94 2  
   101   96   95 1  
   102    1   97 1  
   103    1   98 1  
   104    2   99 1  
   105    5  100 1  
   106    5  101 1  
   107    6  102 1  
   108    6  103 1  
   109    7  104 1  
   110    7  105 1  
   111    7  106 1  
   112    8  107 1  
   113    8  108 1  
   114    9  109 1  
   115    9  110 1  
   116   18  111 1  
   117   19  112 1  
   118   19  113 1  
   119   20  114 1  
   120   20  115 1  
   121   20  116 1  
   122   23  117 1  
   123   24  118 1  
   124   27  119 1  
   125   30  120 1  
   126   31  121 1  
   127   32  122 1  
   128   34  123 1  
   129   35  124 1  
   130   38  125 1  
   131   39  126 1  
   132   40  127 1  
   133   40  128 1  
   134   40  129 1  
   135   41  130 1  
   136   42  131 1  
   137   42  132 1  
   138   42  133 1  
   139   43  134 1  
   140   44  135 1  
   141   47  136 1  
   142   48  137 1  
   143   49  138 1  
   144   49  139 1  
   145   49  140 1  
   146   50  141 1  
   147   51  142 1  
   148   51  143 1  
   149   55  144 1  
   150   55  145 1  
   151   57  146 1  
   152   60  147 1  
   153   65  148 1  
   154   66  149 1  
   155   66  150 1  
   156   67  151 1  
   157   67  152 1  
   158   68  153 1  
   159   68  154 1  
   160   70  155 1  
   161   70  156 1  
   162   70  157 1  
   163   71  158 1  
   164   71  159 1  
   165   71  160 1  
   166   72  161 1  
   167   73  162 1  
   168   74  163 1  
   169   74  164 1  
   170   75  165 1  
   171   77  166 1  
   172   79  167 1  
   173   80  168 1  
   174   81  169 1  
   175   82  170 1  
   176   83  171 1  
   177   84  172 1  
   178   85  173 1  
   179   86  174 1  
   180   88  175 1  
   181   90  176 1  
   182   91  177 1  
   183   92  178 1  
   184   92  179 1  
   185   95  180 1  
   186   96  181 1  
   187   96  182 1  
@<TRIPOS>SUBSTRUCTURE
     1 BLM         1

