1v2k_ligand
  -I-interpret- 

 61 65  0  0  0  0  0  0  0  0999 V2000
   43.1280   73.1170  -26.4980 N   0  0  0  0  0
   43.5910   74.3980  -26.2910 C   0  0  0  0  0
   44.8300   74.8050  -26.8640 C   0  0  0  0  0
   45.0600   72.5410  -27.8450 C   0  0  0  0  0
   43.8210   72.1970  -27.2470 C   0  0  0  0  0
   45.5820   73.8620  -27.6580 C   0  0  0  0  0
   46.8470   74.2480  -28.2620 N   0  0  0  0  0
   47.5370   75.5460  -27.9140 C   0  0  0  0  0
   49.0340   75.3080  -27.5470 C   0  0  0  0  0
   49.0580   73.2220  -28.9890 C   0  0  0  0  0
   47.5430   73.3730  -29.2840 C   0  0  0  0  0
   49.7580   74.6160  -28.7490 C   0  0  0  0  0
   51.2490   74.3430  -28.4810 C   0  0  0  0  0
   51.5450   74.1550  -27.2790 O   0  0  0  0  0
   52.1920   74.2970  -29.4460 N   0  0  0  0  0
   51.9140   74.5270  -30.9120 C   0  0  0  0  0
   52.5270   73.3440  -31.7140 C   0  0  0  0  0
   54.1010   72.7510  -29.8730 C   0  0  0  0  0
   53.6210   74.0120  -29.0850 C   0  0  0  0  0
   53.9560   73.0930  -31.3260 N   0  0  0  0  0
   54.6690   71.9940  -32.3400 S   0  0  0  0  0
   56.0380   71.7780  -31.9090 O   0  0  0  0  0
   54.5250   72.5550  -33.6590 O   0  0  0  0  0
   53.8130   70.4190  -32.3510 C   0  0  0  0  0
   54.0640   69.4100  -31.3460 C   0  0  0  0  0
   52.8090   70.1820  -33.3520 C   0  0  0  0  0
   52.0750   68.9710  -33.3810 C   0  0  0  0  0
   53.3290   68.1800  -31.3660 C   0  0  0  0  0
   52.3210   67.9720  -32.4030 C   0  0  0  0  0
   51.5920   66.7890  -32.4310 C   0  0  0  0  0
   52.8000   65.9530  -30.4350 C   0  0  0  0  0
   53.5580   67.1580  -30.3880 C   0  0  0  0  0
   51.8150   65.7820  -31.4640 C   0  0  0  0  0
   50.8670   64.3550  -31.5640 Cl  0  0  0  0  0
   43.0107   75.0983  -25.6903 H   0  0  0  0  0
   45.2058   75.8158  -26.7051 H   0  0  0  0  0
   45.6081   71.8098  -28.4392 H   0  0  0  0  0
   43.4152   71.1945  -27.3827 H   0  0  0  0  0
   47.0339   75.9878  -27.0539 H   0  0  0  0  0
   47.4918   76.2071  -28.7795 H   0  0  0  0  0
   49.0964   74.6684  -26.6666 H   0  0  0  0  0
   49.5135   76.2633  -27.3335 H   0  0  0  0  0
   49.5271   72.7502  -29.8524 H   0  0  0  0  0
   49.1703   72.6249  -28.0840 H   0  0  0  0  0
   47.4324   73.8401  -30.2626 H   0  0  0  0  0
   47.0896   72.3824  -29.2481 H   0  0  0  0  0
   49.6904   75.2864  -29.6058 H   0  0  0  0  0
   52.3584   75.4686  -31.2345 H   0  0  0  0  0
   50.8393   74.5806  -31.0858 H   0  0  0  0  0
   52.4976   73.5954  -32.7742 H   0  0  0  0  0
   51.9490   72.4456  -31.4975 H   0  0  0  0  0
   53.5093   71.8734  -29.6126 H   0  0  0  0  0
   55.1329   72.5004  -29.6271 H   0  0  0  0  0
   53.7006   73.8290  -28.0134 H   0  0  0  0  0
   54.2441   74.8678  -29.3447 H   0  0  0  0  0
   54.8124   69.5851  -30.5731 H   0  0  0  0  0
   52.6091   70.9475  -34.1017 H   0  0  0  0  0
   51.3229   68.8065  -34.1526 H   0  0  0  0  0
   50.8410   66.6361  -33.2061 H   0  0  0  0  0
   52.9666   65.1687  -29.6966 H   0  0  0  0  0
   54.3091   67.3021  -29.6114 H   0  0  0  0  0
  1  2  4  0  0  0
  1  5  4  0  0  0
  2  3  4  0  0  0
  3  6  4  0  0  0
  5  4  4  0  0  0
  4  6  4  0  0  0
  6  7  1  0  0  0
  7  8  1  0  0  0
  7 11  1  0  0  0
  8  9  1  0  0  0
  9 12  1  0  0  0
 11 10  1  0  0  0
 10 12  1  0  0  0
 12 13  1  0  0  0
 13 14  2  0  0  0
 13 15  1  0  0  0
 15 16  1  0  0  0
 15 19  1  0  0  0
 16 17  1  0  0  0
 17 20  1  0  0  0
 19 18  1  0  0  0
 18 20  1  0  0  0
 20 21  1  0  0  0
 21 22  2  0  0  0
 21 23  2  0  0  0
 21 24  1  0  0  0
 24 25  4  0  0  0
 24 26  4  0  0  0
 25 28  4  0  0  0
 26 27  4  0  0  0
 27 29  4  0  0  0
 28 29  4  0  0  0
 28 32  4  0  0  0
 29 30  4  0  0  0
 30 33  4  0  0  0
 32 31  4  0  0  0
 31 33  4  0  0  0
 33 34  1  0  0  0
  2 35  1  0  0  0
  3 36  1  0  0  0
  4 37  1  0  0  0
  5 38  1  0  0  0
  8 39  1  0  0  0
  8 40  1  0  0  0
  9 41  1  0  0  0
  9 42  1  0  0  0
 10 43  1  0  0  0
 10 44  1  0  0  0
 11 45  1  0  0  0
 11 46  1  0  0  0
 12 47  1  0  0  0
 16 48  1  0  0  0
 16 49  1  0  0  0
 17 50  1  0  0  0
 17 51  1  0  0  0
 18 52  1  0  0  0
 18 53  1  0  0  0
 19 54  1  0  0  0
 19 55  1  0  0  0
 25 56  1  0  0  0
 26 57  1  0  0  0
 27 58  1  0  0  0
 30 59  1  0  0  0
 31 60  1  0  0  0
 32 61  1  0  0  0
M  END
$$$$
