5ey8_ligand
  -I-interpret- 

 76 78  0  0  0  0  0  0  0  0999 V2000
   37.6130   20.2030  308.1790 C   0  0  0  0  0
   38.3450   18.0560  308.1470 C   0  0  0  0  0
   37.5340   19.0640  310.2080 C   0  0  0  0  0
   38.0630   17.9200  309.5370 C   0  0  0  0  0
   37.3030   20.2320  309.5100 N   0  0  0  0  0
   38.1280   19.1980  307.4140 N   0  0  0  0  0
   38.8560   15.9980  308.8960 C   0  0  0  0  0
   39.9550   11.4690  310.3180 C   0  0  0  0  0
   39.0830   12.3170  311.2780 C   0  0  0  0  0
   39.6020   12.2650  312.7140 C   0  0  0  0  0
   38.6910   13.0090  313.6940 C   0  0  0  0  0
   39.0370   12.6680  315.1540 C   0  0  0  0  0
   38.4750   11.2990  315.5970 C   0  0  0  0  0
   38.9910   10.9220  317.0020 C   0  0  0  0  0
   38.9250   10.4480  307.2200 O   0  0  0  0  0
   40.0420   11.2980  307.6000 P   0  0  0  0  0
   41.4610   10.6350  307.8200 O   0  0  0  0  0
   40.4000   12.4540  306.5580 O   0  0  0  0  0
   41.2840   13.5340  306.7080 C   0  0  0  0  0
   40.8050   14.7540  305.8750 C   0  0  0  0  0
   39.4820   15.1270  306.2560 O   0  0  0  0  0
   41.7180   15.9850  306.0650 C   0  0  0  0  0
   42.5820   15.9550  304.9690 O   0  0  0  0  0
   40.7190   17.1890  306.0900 C   0  0  0  0  0
   40.6920   17.7550  304.8230 O   0  0  0  0  0
   39.3330   16.5320  306.3690 C   0  0  0  0  0
   38.8620   16.8270  307.7390 N   0  0  0  0  0
   38.3860   16.6220  309.9850 N   0  0  0  0  0
   37.2600   19.0460  311.5360 N   0  0  0  0  0
   39.8910   12.0190  309.0180 O   0  0  0  0  0
   37.8670   10.6500  318.0060 C   0  0  0  0  0
   37.4740    9.1880  318.2490 C   0  0  0  0  0
   36.3630    9.1120  319.3120 C   0  0  0  0  0
   36.0600    7.6700  319.6990 C   0  0  0  0  0
   34.9500    7.5920  320.7530 C   0  0  0  0  0
   34.8450    6.2030  321.4060 C   0  0  0  0  0
   37.4173   21.1318  307.6431 H   0  0  0  0  0
   39.1981   14.9631  308.8963 H   0  0  0  0  0
   39.5844   10.4441  310.2986 H   0  0  0  0  0
   40.9883   11.4731  310.6649 H   0  0  0  0  0
   38.0702   11.9144  311.2656 H   0  0  0  0  0
   39.1122   13.3532  310.9411 H   0  0  0  0  0
   40.5810   12.7437  312.7353 H   0  0  0  0  0
   39.6419   11.2194  313.0195 H   0  0  0  0  0
   37.6605   12.7088  313.5039 H   0  0  0  0  0
   38.8278   14.0804  313.5476 H   0  0  0  0  0
   38.5928   13.4334  315.7903 H   0  0  0  0  0
   40.1229   12.6270  315.2393 H   0  0  0  0  0
   38.8020   10.5390  314.8873 H   0  0  0  0  0
   37.3871   11.3592  315.6271 H   0  0  0  0  0
   39.5717   11.7647  317.3772 H   0  0  0  0  0
   39.5747   10.0067  316.9044 H   0  0  0  0  0
   42.0951   11.3128  308.0652 H   0  0  0  0  0
   42.2712   13.2331  306.3572 H   0  0  0  0  0
   41.3195   13.8172  307.7600 H   0  0  0  0  0
   40.8365   14.4460  304.8299 H   0  0  0  0  0
   42.3331   16.0345  306.9635 H   0  0  0  0  0
   43.1865   16.6991  305.0190 H   0  0  0  0  0
   40.9824   17.9529  306.8215 H   0  0  0  0  0
   40.0831   18.4972  304.8182 H   0  0  0  0  0
   38.6108   16.9278  305.6549 H   0  0  0  0  0
   37.4314   18.2008  312.0807 H   0  0  0  0  0
   36.8825   19.8776  311.9902 H   0  0  0  0  0
   36.9798   11.1272  317.5898 H   0  0  0  0  0
   38.2336   11.0186  318.9641 H   0  0  0  0  0
   38.3455    8.6358  318.6006 H   0  0  0  0  0
   37.1097    8.7547  317.3175 H   0  0  0  0  0
   35.4578    9.5564  318.8983 H   0  0  0  0  0
   36.6984    9.6455  320.2014 H   0  0  0  0  0
   36.9643    7.2276  320.1169 H   0  0  0  0  0
   35.7283    7.1362  318.8084 H   0  0  0  0  0
   34.0024    7.7999  320.2560 H   0  0  0  0  0
   35.1826    8.3128  321.5369 H   0  0  0  0  0
   34.6306    5.4580  320.6398 H   0  0  0  0  0
   35.7881    5.9611  321.8960 H   0  0  0  0  0
   34.0422    6.2093  322.1432 H   0  0  0  0  0
  1  5  4  0  0  0
  6  1  4  0  0  0
  2  4  4  0  0  0
  2  6  4  0  0  0
 27  2  4  0  0  0
  4  3  4  0  0  0
  3  5  4  0  0  0
  3 29  1  0  0  0
 28  4  4  0  0  0
 27  7  4  0  0  0
  7 28  4  0  0  0
  8  9  1  0  0  0
 30  8  1  0  0  0
  9 10  1  0  0  0
 10 11  1  0  0  0
 11 12  1  0  0  0
 12 13  1  0  0  0
 13 14  1  0  0  0
 14 31  1  0  0  0
 16 15  2  0  0  0
 16 17  1  0  0  0
 18 16  1  0  0  0
 16 30  1  0  0  0
 19 18  1  0  0  0
 20 19  1  0  0  0
 21 20  1  0  0  0
 22 20  1  0  0  0
 26 21  1  0  0  0
 22 23  1  0  0  0
 24 22  1  0  0  0
 24 25  1  0  0  0
 26 24  1  0  0  0
 26 27  1  0  0  0
 31 32  1  0  0  0
 32 33  1  0  0  0
 33 34  1  0  0  0
 34 35  1  0  0  0
 35 36  1  0  0  0
  1 37  1  0  0  0
  7 38  1  0  0  0
  8 39  1  0  0  0
  8 40  1  0  0  0
  9 41  1  0  0  0
  9 42  1  0  0  0
 10 43  1  0  0  0
 10 44  1  0  0  0
 11 45  1  0  0  0
 11 46  1  0  0  0
 12 47  1  0  0  0
 12 48  1  0  0  0
 13 49  1  0  0  0
 13 50  1  0  0  0
 14 51  1  0  0  0
 14 52  1  0  0  0
 17 53  1  0  0  0
 19 54  1  0  0  0
 19 55  1  0  0  0
 20 56  1  0  0  0
 22 57  1  0  0  0
 23 58  1  0  0  0
 24 59  1  0  0  0
 25 60  1  0  0  0
 26 61  1  0  0  0
 29 62  1  0  0  0
 29 63  1  0  0  0
 31 64  1  0  0  0
 31 65  1  0  0  0
 32 66  1  0  0  0
 32 67  1  0  0  0
 33 68  1  0  0  0
 33 69  1  0  0  0
 34 70  1  0  0  0
 34 71  1  0  0  0
 35 72  1  0  0  0
 35 73  1  0  0  0
 36 74  1  0  0  0
 36 75  1  0  0  0
 36 76  1  0  0  0
M  END
$$$$
