### 
### Created by X-TOOL on Mon Sep 10 21:13:25 2018
### 

@<TRIPOS>MOLECULE
5ey8_ligand
   75    77     1     0     0
SMALL
GAST_HUCK


@<TRIPOS>ATOM
      1 C2         37.6130   20.2030  308.1790 C.ar      1 5SV         0.0533
      2 C4         38.3450   18.0560  308.1470 C.ar      1 5SV         0.1613
      3 C6         37.5340   19.0640  310.2080 C.ar      1 5SV         0.1298
      4 C5         38.0630   17.9200  309.5370 C.ar      1 5SV         0.1045
      5 N1         37.3030   20.2320  309.5100 N.ar      1 5SV        -0.2698
      6 N3         38.1280   19.1980  307.4140 N.ar      1 5SV        -0.2714
      7 C8         38.8560   15.9980  308.8960 C.2       1 5SV         0.1123
      8 C9         39.9550   11.4690  310.3180 C.3       1 5SV         0.0837
      9 C10        39.0830   12.3170  311.2780 C.3       1 5SV        -0.0243
     10 C11        39.6020   12.2650  312.7140 C.3       1 5SV        -0.0506
     11 C12        38.6910   13.0090  313.6940 C.3       1 5SV        -0.0530
     12 C13        39.0370   12.6680  315.1540 C.3       1 5SV        -0.0531
     13 C14        38.4750   11.2990  315.5970 C.3       1 5SV        -0.0531
     14 C15        38.9910   10.9220  317.0020 C.3       1 5SV        -0.0531
     15 O2P        38.9250   10.4480  307.2200 O.co2     1 5SV        -0.6177
     16 P          40.0420   11.2980  307.6000 P.3       1 5SV         0.2552
     17 O1P        41.4610   10.6350  307.8200 O.co2     1 5SV        -0.6177
     18 O5'        40.4000   12.4540  306.5580 O.3       1 5SV        -0.2514
     19 C5'        41.2840   13.5340  306.7080 C.3       1 5SV         0.1124
     20 C4'        40.8050   14.7540  305.8750 C.3       1 5SV         0.1189
     21 O4'        39.4820   15.1270  306.2560 O.3       1 5SV        -0.3364
     22 C3'        41.7180   15.9850  306.0650 C.3       1 5SV         0.1149
     23 O3'        42.5820   15.9550  304.9690 O.3       1 5SV        -0.3864
     24 C2'        40.7190   17.1890  306.0900 C.3       1 5SV         0.1385
     25 O2'        40.6920   17.7550  304.8230 O.3       1 5SV        -0.3836
     26 C1'        39.3330   16.5320  306.3690 C.3       1 5SV         0.2010
     27 N9         38.8620   16.8270  307.7390 N.pl3     1 5SV        -0.1919
     28 N7         38.3860   16.6220  309.9850 N.2       1 5SV        -0.2958
     29 N6         37.2600   19.0460  311.5360 N.pl3     1 5SV        -0.3152
     30 O3P        39.8910   12.0190  309.0180 O.3       1 5SV        -0.2541
     31 C16        37.8670   10.6500  318.0060 C.3       1 5SV        -0.0531
     32 C17        37.4740    9.1880  318.2490 C.3       1 5SV        -0.0531
     33 C18        36.3630    9.1120  319.3120 C.3       1 5SV        -0.0531
     34 C19        36.0600    7.6700  319.6990 C.3       1 5SV        -0.0533
     35 C20        34.9500    7.5920  320.7530 C.3       1 5SV        -0.0559
     36 C21        34.8450    6.2030  321.4060 C.3       1 5SV        -0.0653
     37 H1         37.4184   21.1267  307.6461 H         1 5SV         0.0996
     38 H2         39.1978   14.9640  308.8963 H         1 5SV         0.1349
     39 H3         39.5801   10.4351  310.2981 H         1 5SV         0.0620
     40 H4         40.9978   11.4742  310.6679 H         1 5SV         0.0620
     41 H5         38.0532   11.9310  311.2578 H         1 5SV         0.0291
     42 H6         39.0896   13.3621  310.9350 H         1 5SV         0.0291
     43 H7         40.6017   12.7230  312.7446 H         1 5SV         0.0266
     44 H8         39.6711   11.2125  313.0262 H         1 5SV         0.0266
     45 H9         37.6467   12.7242  313.4981 H         1 5SV         0.0265
     46 H10        38.8105   14.0918  313.5417 H         1 5SV         0.0265
     47 H11        38.6175   13.4481  315.8063 H         1 5SV         0.0265
     48 H12        40.1316   12.6501  315.2611 H         1 5SV         0.0265
     49 H13        38.7924   10.5294  314.8780 H         1 5SV         0.0265
     50 H14        37.3764   11.3502  315.6183 H         1 5SV         0.0265
     51 H15        39.6061   11.7508  317.3823 H         1 5SV         0.0265
     52 H16        39.6091   10.0162  316.9158 H         1 5SV         0.0265
     53 H17        42.2845   13.2324  306.3644 H         1 5SV         0.0647
     54 H18        41.3310   13.8176  307.7698 H         1 5SV         0.0647
     55 H19        40.8087   14.4702  304.8123 H         1 5SV         0.0651
     56 H20        42.2919   15.9442  307.0025 H         1 5SV         0.0648
     57 H21        43.1802   16.6913  305.0185 H         1 5SV         0.2100
     58 H22        40.9853   17.9335  306.8547 H         1 5SV         0.0676
     59 H23        41.5631   18.0570  304.5937 H         1 5SV         0.2101
     60 H24        38.5972   16.8983  305.6380 H         1 5SV         0.0996
     61 H25        36.8788   19.8858  311.9946 H         1 5SV         0.1820
     62 H26        37.4331   18.1925  312.0860 H         1 5SV         0.1820
     63 H27        36.9704   11.1771  317.6478 H         1 5SV         0.0265
     64 H28        38.1791   11.0724  318.9725 H         1 5SV         0.0265
     65 H29        38.3532    8.6278  318.6001 H         1 5SV         0.0265
     66 H30        37.1098    8.7475  317.3092 H         1 5SV         0.0265
     67 H31        35.4497    9.5734  318.9084 H         1 5SV         0.0265
     68 H32        36.6868    9.6622  320.2078 H         1 5SV         0.0265
     69 H33        36.9724    7.2101  320.1063 H         1 5SV         0.0265
     70 H34        35.7405    7.1189  318.8022 H         1 5SV         0.0265
     71 H35        33.9899    7.8270  320.2704 H         1 5SV         0.0263
     72 H36        35.1575    8.3345  321.5376 H         1 5SV         0.0263
     73 H37        34.0350    6.2081  322.1503 H         1 5SV         0.0230
     74 H38        35.7962    5.9576  321.9010 H         1 5SV         0.0230
     75 H39        34.6286    5.4502  320.6337 H         1 5SV         0.0230
@<TRIPOS>BOND
     1    1    5 ar 
     2    6    1 ar 
     3    2    4 ar 
     4    2    6 ar 
     5   27    2 1  
     6    4    3 ar 
     7    3    5 ar 
     8    3   29 1  
     9   28    4 1  
    10   27    7 1  
    11    7   28 2  
    12    8    9 1  
    13   30    8 1  
    14    9   10 1  
    15   10   11 1  
    16   11   12 1  
    17   12   13 1  
    18   13   14 1  
    19   14   31 1  
    20   16   15 ar 
    21   16   17 ar 
    22   18   16 1  
    23   16   30 1  
    24   19   18 1  
    25   20   19 1  
    26   21   20 1  
    27   22   20 1  
    28   26   21 1  
    29   22   23 1  
    30   24   22 1  
    31   24   25 1  
    32   26   24 1  
    33   26   27 1  
    34   31   32 1  
    35   32   33 1  
    36   33   34 1  
    37   34   35 1  
    38   35   36 1  
    39    1   37 1  
    40    7   38 1  
    41    8   39 1  
    42    8   40 1  
    43    9   41 1  
    44    9   42 1  
    45   10   43 1  
    46   10   44 1  
    47   11   45 1  
    48   11   46 1  
    49   12   47 1  
    50   12   48 1  
    51   13   49 1  
    52   13   50 1  
    53   14   51 1  
    54   14   52 1  
    55   19   53 1  
    56   19   54 1  
    57   20   55 1  
    58   22   56 1  
    59   23   57 1  
    60   24   58 1  
    61   25   59 1  
    62   26   60 1  
    63   29   61 1  
    64   29   62 1  
    65   31   63 1  
    66   31   64 1  
    67   32   65 1  
    68   32   66 1  
    69   33   67 1  
    70   33   68 1  
    71   34   69 1  
    72   34   70 1  
    73   35   71 1  
    74   35   72 1  
    75   36   73 1  
    76   36   74 1  
    77   36   75 1  
@<TRIPOS>SUBSTRUCTURE
     1 5SV         1

