6o1g_ligand
  -I-interpret- 

 56 59  0  0  0  0  0  0  0  0999 V2000
  -48.2790   19.2130   36.5760 C   0  0  0  0  0
  -48.6330   17.7250   36.3990 C   0  0  0  0  0
  -49.7150   15.7260   37.3290 C   0  0  0  0  0
  -50.4750   15.0300   38.3980 N   0  0  0  0  0
  -48.6610   15.6330   35.2340 C   0  0  0  0  0
  -48.2860   16.9980   35.3020 C   0  0  0  0  0
  -47.4670   17.6470   34.1070 C   0  0  0  0  0
  -47.9540   19.3530   32.4490 C   0  0  0  0  0
  -48.8510   19.9450   31.3180 C   0  0  0  0  0
  -48.8600   21.2530   30.8880 C   0  0  0  0  0
  -51.3300   19.8130   28.7150 C   0  0  0  0  0
  -52.6550   19.9620   29.4740 C   0  0  0  0  0
  -53.6300   18.8770   29.5110 C   0  0  0  0  0
  -55.0380   20.2730   30.8970 C   0  0  0  0  0
  -56.3510   20.4630   31.6800 C   0  0  0  0  0
  -58.8420   18.1360   30.3310 C   0  0  0  0  0
  -58.9600   19.1940   29.4790 C   0  0  0  0  0
  -54.1020   21.2890   30.8610 C   0  0  0  0  0
  -49.7850   19.2440   30.5350 C   0  0  0  0  0
  -49.3690   17.0810   37.4540 C   0  0  0  0  0
  -49.3710   15.0530   36.2620 N   0  0  0  0  0
  -48.3220   14.7520   34.0470 C   0  0  0  0  0
  -48.3270   18.1820   33.0730 N   0  0  0  0  0
  -46.8820   19.9330   32.7920 O   0  0  0  0  0
  -49.7650   21.3480   29.9040 N   0  0  0  0  0
  -50.3070   20.1040   29.6930 N   0  0  0  0  0
  -54.7890   19.0400   30.1960 C   0  0  0  0  0
  -57.4070   19.7110   30.9620 N   0  0  0  0  0
  -57.8390   18.5020   31.2780 C   0  0  0  0  0
  -58.0760   20.1570   29.8690 N   0  0  0  0  0
  -52.8940   21.1270   30.1410 C   0  0  0  0  0
  -47.1958   19.3326   36.5540 H   0  0  0  0  0
  -48.7260   19.7903   35.7667 H   0  0  0  0  0
  -48.6654   19.5658   37.5322 H   0  0  0  0  0
  -50.7534   15.5367   39.2383 H   0  0  0  0  0
  -50.7187   14.0452   38.2920 H   0  0  0  0  0
  -46.8485   16.8683   33.6608 H   0  0  0  0  0
  -46.8755   18.4685   34.5113 H   0  0  0  0  0
  -48.2435   22.0634   31.2769 H   0  0  0  0  0
  -51.2755   20.4862   27.8595 H   0  0  0  0  0
  -51.2149   18.8144   28.2935 H   0  0  0  0  0
  -53.4279   17.9406   28.9909 H   0  0  0  0  0
  -56.6095   21.5201   31.7422 H   0  0  0  0  0
  -56.2448   20.0935   32.6999 H   0  0  0  0  0
  -59.4004   17.2005   30.2959 H   0  0  0  0  0
  -59.6431   19.2591   28.6321 H   0  0  0  0  0
  -54.2952   22.2218   31.3908 H   0  0  0  0  0
  -50.0295   18.1846   30.6130 H   0  0  0  0  0
  -49.6560   17.6410   38.3440 H   0  0  0  0  0
  -48.7732   15.1685   33.1464 H   0  0  0  0  0
  -47.2396   14.7084   33.9259 H   0  0  0  0  0
  -48.7104   13.7481   34.2186 H   0  0  0  0  0
  -49.1892   17.7035   32.8121 H   0  0  0  0  0
  -55.5296   18.2404   30.2159 H   0  0  0  0  0
  -57.4912   17.8935   32.1128 H   0  0  0  0  0
  -52.1577   21.9305   30.1199 H   0  0  0  0  0
  2  1  1  0  0  0
  6  2  4  0  0  0
  2 20  4  0  0  0
  3  4  1  0  0  0
 20  3  4  0  0  0
 21  3  4  0  0  0
  6  5  4  0  0  0
  5 21  4  0  0  0
  5 22  1  0  0  0
  7  6  1  0  0  0
 23  7  1  0  0  0
  9  8  1  0  0  0
  8 23  1  0  0  0
  8 24  2  0  0  0
 10  9  4  0  0  0
 19  9  4  0  0  0
 25 10  4  0  0  0
 12 11  1  0  0  0
 11 26  1  0  0  0
 13 12  4  0  0  0
 31 12  4  0  0  0
 27 13  4  0  0  0
 15 14  1  0  0  0
 14 18  4  0  0  0
 14 27  4  0  0  0
 28 15  1  0  0  0
 16 17  4  0  0  0
 29 16  4  0  0  0
 17 30  4  0  0  0
 18 31  4  0  0  0
 26 19  4  0  0  0
 26 25  4  0  0  0
 28 29  4  0  0  0
 28 30  4  0  0  0
  1 32  1  0  0  0
  1 33  1  0  0  0
  1 34  1  0  0  0
  4 35  1  0  0  0
  4 36  1  0  0  0
  7 37  1  0  0  0
  7 38  1  0  0  0
 10 39  1  0  0  0
 11 40  1  0  0  0
 11 41  1  0  0  0
 13 42  1  0  0  0
 15 43  1  0  0  0
 15 44  1  0  0  0
 16 45  1  0  0  0
 17 46  1  0  0  0
 18 47  1  0  0  0
 19 48  1  0  0  0
 20 49  1  0  0  0
 22 50  1  0  0  0
 22 51  1  0  0  0
 22 52  1  0  0  0
 23 53  1  0  0  0
 27 54  1  0  0  0
 29 55  1  0  0  0
 31 56  1  0  0  0
M  END
$$$$
