### 
### Created by X-TOOL on Mon Sep 10 21:13:24 2018
### 

@<TRIPOS>MOLECULE
4rac_ligand
   47    48     1     0     0
SMALL
GAST_HUCK


@<TRIPOS>ATOM
      1 OAG        -7.8600   36.5120  -28.5010 O.co2     1 3L4        -0.5607
      2 PBB        -7.3630   37.0400  -27.1310 P.3       1 3L4         0.0846
      3 OAH        -5.8530   36.7690  -26.9140 O.co2     1 3L4        -0.5607
      4 OAD        -8.1740   36.4320  -26.0610 O.co2     1 3L4        -0.5607
      5 CAP        -7.6050   38.8760  -27.2090 C.3       1 3L4         0.1179
      6 OAT        -8.1450   39.4420  -26.0680 O.3       1 3L4        -0.3573
      7 CAJ        -7.3150   40.2390  -25.3400 C.3       1 3L4         0.0893
      8 CAK        -7.8940   41.3910  -24.5130 C.3       1 3L4        -0.0077
      9 NAY        -6.7900   41.9520  -23.8290 N.4       1 3L4         0.2398
     10 CAM        -7.0480   43.0800  -22.8480 C.3       1 3L4        -0.0164
     11 CAO        -7.9820   42.9980  -21.7020 C.3       1 3L4         0.0596
     12 PBA        -8.3570   44.6420  -21.0200 P.3       1 3L4         0.0628
     13 OAE        -9.1870   45.4790  -22.0510 O.co2     1 3L4        -0.5621
     14 OAF        -9.2250   44.5670  -19.7290 O.co2     1 3L4        -0.5621
     15 OAC        -7.0490   45.3520  -20.7470 O.co2     1 3L4        -0.5621
     16 CAL        -6.0050   40.8020  -23.2250 C.3       1 3L4        -0.0035
     17 CAN        -4.5340   41.1340  -22.9510 C.3       1 3L4         0.0981
     18 N9         -4.0550   40.9540  -21.6340 N.pl3     1 3L4        -0.2340
     19 C4         -3.4750   39.7720  -21.2120 C.2       1 3L4         0.1136
     20 N3         -3.2380   38.5780  -21.8710 N.2       1 3L4        -0.2765
     21 C2         -2.6590   37.5680  -21.2400 C.2       1 3L4         0.2340
     22 N2         -2.4410   36.3480  -21.9730 N.pl3     1 3L4        -0.2807
     23 N1         -2.2830   37.7010  -19.9540 N.am      1 3L4        -0.1839
     24 C6         -2.4690   38.8220  -19.2440 C.2       1 3L4         0.2135
     25 O6         -2.0420   38.8640  -17.9110 O.2       1 3L4        -0.4091
     26 C5         -3.1030   39.9300  -19.9170 C.2       1 3L4         0.0925
     27 N7         -3.4760   41.2370  -19.5720 N.2       1 3L4        -0.3236
     28 C8         -4.0530   41.8440  -20.6170 C.2       1 3L4         0.0934
     29 H1         -8.2779   39.0964  -28.0508 H         1 3L4         0.0753
     30 H2         -6.6254   39.3422  -27.3907 H         1 3L4         0.0753
     31 H3         -6.5996   40.6836  -26.0475 H         1 3L4         0.0614
     32 H4         -6.7780   39.5830  -24.6391 H         1 3L4         0.0614
     33 H5         -8.6397   41.0146  -23.7973 H         1 3L4         0.0837
     34 H6         -8.3612   42.1397  -25.1696 H         1 3L4         0.0837
     35 H7         -6.2058   42.3619  -24.5409 H         1 3L4         0.2036
     36 H8         -7.4001   43.9261  -23.4563 H         1 3L4         0.0828
     37 H9         -6.0674   43.3238  -22.4133 H         1 3L4         0.0828
     38 H10        -7.5259   42.3809  -20.9139 H         1 3L4         0.0504
     39 H11        -8.9187   42.5297  -22.0384 H         1 3L4         0.0504
     40 H12        -6.0447   39.9514  -23.9213 H         1 3L4         0.0842
     41 H13        -6.4798   40.5197  -22.2738 H         1 3L4         0.0842
     42 H14        -4.3809   42.1909  -23.2147 H         1 3L4         0.0669
     43 H15        -3.9252   40.4993  -23.6117 H         1 3L4         0.0669
     44 H16        -2.7402   36.2774  -22.9561 H         1 3L4         0.1897
     45 H17        -1.9859   35.5459  -21.5143 H         1 3L4         0.1897
     46 H18        -1.8423   36.9232  -19.5058 H         1 3L4         0.2515
     47 H19        -4.4452   42.8596  -20.6424 H         1 3L4         0.1178
@<TRIPOS>BOND
     1    1    2 ar 
     2    2    3 ar 
     3    2    4 ar 
     4    2    5 1  
     5    5    6 1  
     6    6    7 1  
     7    7    8 1  
     8    8    9 1  
     9    9   10 1  
    10    9   16 1  
    11   10   11 1  
    12   11   12 1  
    13   12   13 ar 
    14   12   14 ar 
    15   12   15 ar 
    16   16   17 1  
    17   17   18 1  
    18   18   19 1  
    19   18   28 1  
    20   19   20 1  
    21   19   26 2  
    22   20   21 2  
    23   21   22 1  
    24   21   23 am 
    25   23   24 am 
    26   24   25 2  
    27   24   26 1  
    28   26   27 1  
    29   27   28 2  
    30    5   29 1  
    31    5   30 1  
    32    7   31 1  
    33    7   32 1  
    34    8   33 1  
    35    8   34 1  
    36    9   35 1  
    37   10   36 1  
    38   10   37 1  
    39   11   38 1  
    40   11   39 1  
    41   16   40 1  
    42   16   41 1  
    43   17   42 1  
    44   17   43 1  
    45   22   44 1  
    46   22   45 1  
    47   23   46 1  
    48   28   47 1  
@<TRIPOS>SUBSTRUCTURE
     1 3L4         1

