4rac_ligand
  -I-interpret- 

 51 52  0  0  0  0  0  0  0  0999 V2000
   -7.8600   36.5120  -28.5010 O   0  0  0  0  0
   -7.3630   37.0400  -27.1310 P   0  0  0  0  0
   -5.8530   36.7690  -26.9140 O   0  0  0  0  0
   -8.1740   36.4320  -26.0610 O   0  0  0  0  0
   -7.6050   38.8760  -27.2090 C   0  0  0  0  0
   -8.1450   39.4420  -26.0680 O   0  0  0  0  0
   -7.3150   40.2390  -25.3400 C   0  0  0  0  0
   -7.8940   41.3910  -24.5130 C   0  0  0  0  0
   -6.7900   41.9520  -23.8290 N   0  3  0  0  0
   -7.0480   43.0800  -22.8480 C   0  0  0  0  0
   -7.9820   42.9980  -21.7020 C   0  0  0  0  0
   -8.3570   44.6420  -21.0200 P   0  0  0  0  0
   -9.1870   45.4790  -22.0510 O   0  0  0  0  0
   -9.2250   44.5670  -19.7290 O   0  0  0  0  0
   -7.0490   45.3520  -20.7470 O   0  0  0  0  0
   -6.0050   40.8020  -23.2250 C   0  0  0  0  0
   -4.5340   41.1340  -22.9510 C   0  0  0  0  0
   -4.0550   40.9540  -21.6340 N   0  0  0  0  0
   -3.4750   39.7720  -21.2120 C   0  0  0  0  0
   -3.2380   38.5780  -21.8710 N   0  0  0  0  0
   -2.6590   37.5680  -21.2400 C   0  0  0  0  0
   -2.4410   36.3480  -21.9730 N   0  0  0  0  0
   -2.2830   37.7010  -19.9540 N   0  0  0  0  0
   -2.4690   38.8220  -19.2440 C   0  0  0  0  0
   -2.0420   38.8640  -17.9110 O   0  0  0  0  0
   -3.1030   39.9300  -19.9170 C   0  0  0  0  0
   -3.4760   41.2370  -19.5720 N   0  0  0  0  0
   -4.0530   41.8440  -20.6170 C   0  0  0  0  0
   -7.3358   36.9042  -29.2031 H   0  0  0  0  0
   -5.3508   37.1756  -27.6240 H   0  0  0  0  0
   -8.3088   39.0671  -28.0191 H   0  0  0  0  0
   -6.6181   39.3186  -27.3437 H   0  0  0  0  0
   -6.6831   40.7262  -26.0826 H   0  0  0  0  0
   -6.8705   39.5700  -24.6032 H   0  0  0  0  0
   -8.6597   41.0419  -23.8202 H   0  0  0  0  0
   -8.3910   42.1276  -25.1443 H   0  0  0  0  0
   -6.2506   42.4633  -24.5276 H   0  0  0  0  0
   -7.5126   43.8389  -23.4775 H   0  0  0  0  0
   -6.0812   43.1920  -22.3572 H   0  0  0  0  0
   -7.5139   42.4005  -20.9197 H   0  0  0  0  0
   -8.9130   42.5500  -22.0493 H   0  0  0  0  0
  -10.0185   45.0330  -22.2281 H   0  0  0  0  0
  -10.0484   44.1137  -19.9243 H   0  0  0  0  0
   -6.0250   39.9821  -23.9430 H   0  0  0  0  0
   -6.4674   40.5599  -22.2681 H   0  0  0  0  0
   -4.4323   42.1998  -23.1555 H   0  0  0  0  0
   -3.9591   40.4432  -23.5677 H   0  0  0  0  0
   -2.7301   36.2807  -22.9488 H   0  0  0  0  0
   -1.9974   35.5510  -21.5164 H   0  0  0  0  0
   -1.8335   36.9077  -19.4968 H   0  0  0  0  0
   -4.4456   42.8605  -20.6424 H   0  0  0  0  0
  1  2  1  0  0  0
  2  3  1  0  0  0
  2  4  2  0  0  0
  2  5  1  0  0  0
  5  6  1  0  0  0
  6  7  1  0  0  0
  7  8  1  0  0  0
  8  9  1  0  0  0
  9 10  1  0  0  0
  9 16  1  0  0  0
 10 11  1  0  0  0
 11 12  1  0  0  0
 12 13  1  0  0  0
 12 14  1  0  0  0
 12 15  2  0  0  0
 16 17  1  0  0  0
 17 18  1  0  0  0
 18 19  4  0  0  0
 18 28  4  0  0  0
 19 20  1  0  0  0
 19 26  4  0  0  0
 20 21  2  0  0  0
 21 22  1  0  0  0
 21 23  1  0  0  0
 23 24  1  0  0  0
 24 25  2  0  0  0
 24 26  1  0  0  0
 26 27  4  0  0  0
 27 28  4  0  0  0
  1 29  1  0  0  0
  3 30  1  0  0  0
  5 31  1  0  0  0
  5 32  1  0  0  0
  7 33  1  0  0  0
  7 34  1  0  0  0
  8 35  1  0  0  0
  8 36  1  0  0  0
  9 37  1  0  0  0
 10 38  1  0  0  0
 10 39  1  0  0  0
 11 40  1  0  0  0
 11 41  1  0  0  0
 13 42  1  0  0  0
 14 43  1  0  0  0
 16 44  1  0  0  0
 16 45  1  0  0  0
 17 46  1  0  0  0
 17 47  1  0  0  0
 22 48  1  0  0  0
 22 49  1  0  0  0
 23 50  1  0  0  0
 28 51  1  0  0  0
M  END
$$$$
