5aia_ligand
  -I-interpret- 

 32 33  0  0  0  0  0  0  0  0999 V2000
  -15.6000   -9.4010   10.7420 C   0  0  0  0  0
  -14.4060   -9.4090   10.0510 C   0  0  0  0  0
  -14.4290   -9.5810    8.6920 C   0  0  0  0  0
  -15.6160   -9.7620    8.0100 C   0  0  0  0  0
  -16.8050   -9.7620    8.7180 C   0  0  0  0  0
  -16.8110   -9.5750   10.0870 C   0  0  0  0  0
  -18.1180   -9.5890   10.8320 C   0  0  0  0  0
  -18.1600  -10.7430   11.8330 C   0  0  0  0  0
  -18.5430  -10.3200   13.2390 C   0  0  0  0  0
  -19.7790   -9.4340   13.2630 C   0  0  0  0  0
  -19.6730   -8.2310   12.3350 C   0  0  0  0  0
  -18.4310   -8.2350   11.4640 C   0  0  0  0  0
  -15.6070   -9.9510    6.5420 C   0  0  0  0  0
  -14.7580  -10.7730    6.0950 O   0  0  0  0  0
  -16.4240   -9.2600    5.8640 O   0  0  0  0  0
  -13.2300   -9.5800    8.0250 O   0  0  0  0  0
  -15.5921   -9.2553   11.8222 H   0  0  0  0  0
  -13.4602   -9.2806   10.5774 H   0  0  0  0  0
  -17.7469   -9.9111    8.1901 H   0  0  0  0  0
  -18.9167   -9.7661   10.1117 H   0  0  0  0  0
  -17.1570  -11.1669   11.8828 H   0  0  0  0  0
  -18.9178  -11.4460   11.4872 H   0  0  0  0  0
  -17.7127   -9.7511   13.6574 H   0  0  0  0  0
  -18.7626  -11.2200   13.8134 H   0  0  0  0  0
  -19.8961   -9.0579   14.2793 H   0  0  0  0  0
  -20.6236  -10.0361   12.9280 H   0  0  0  0  0
  -19.6266   -7.3406   12.9621 H   0  0  0  0  0
  -20.5359   -8.2575   11.6696 H   0  0  0  0  0
  -18.6055   -7.5315   10.6499 H   0  0  0  0  0
  -17.5876   -7.9747   12.1035 H   0  0  0  0  0
  -16.9527   -8.7198    6.4559 H   0  0  0  0  0
  -13.3870   -9.7087    7.0867 H   0  0  0  0  0
  1  2  4  0  0  0
  1  6  4  0  0  0
  2  3  4  0  0  0
  3  4  4  0  0  0
  3 16  1  0  0  0
  4  5  4  0  0  0
  4 13  1  0  0  0
  5  6  4  0  0  0
  6  7  1  0  0  0
  7  8  1  0  0  0
  7 12  1  0  0  0
  8  9  1  0  0  0
  9 10  1  0  0  0
 10 11  1  0  0  0
 11 12  1  0  0  0
 13 14  2  0  0  0
 13 15  1  0  0  0
  1 17  1  0  0  0
  2 18  1  0  0  0
  5 19  1  0  0  0
  7 20  1  0  0  0
  8 21  1  0  0  0
  8 22  1  0  0  0
  9 23  1  0  0  0
  9 24  1  0  0  0
 10 25  1  0  0  0
 10 26  1  0  0  0
 11 27  1  0  0  0
 11 28  1  0  0  0
 12 29  1  0  0  0
 12 30  1  0  0  0
 15 31  1  0  0  0
 16 32  1  0  0  0
M  END
$$$$
