2xvn_ligand
  -I-interpret- 

 25 25  0  0  0  0  0  0  0  0999 V2000
   -9.9650    8.9660   -2.4890 C   0  0  0  0  0
  -10.2150   10.0720   -3.4240 N   0  0  0  0  0
  -11.4230   10.6300   -3.4270 C   0  0  0  0  0
  -12.3240   10.1990   -2.7360 O   0  0  0  0  0
  -11.6740   11.5840   -4.3560 N   0  0  0  0  0
  -12.7550   12.3330   -4.6200 C   0  0  0  0  0
  -13.8830   12.2440   -3.9360 N   0  0  0  0  0
  -12.6200   13.2490   -5.5940 N   0  0  0  0  0
  -13.6170   14.0750   -6.0020 C   0  0  0  0  0
  -13.9210   14.1490   -7.3650 C   0  0  0  0  0
  -14.9490   14.9780   -7.8010 C   0  0  0  0  0
  -15.6630   15.7430   -6.8780 C   0  0  0  0  0
  -15.3670   15.6780   -5.5260 C   0  0  0  0  0
  -14.3370   14.8530   -5.0990 C   0  0  0  0  0
  -10.1182    9.3139   -1.4674 H   0  0  0  0  0
  -10.6535    8.1485   -2.7029 H   0  0  0  0  0
   -8.9386    8.6183   -2.6057 H   0  0  0  0  0
   -9.4831   10.4026   -4.0529 H   0  0  0  0  0
  -13.9608   11.5810   -3.1648 H   0  0  0  0  0
  -11.7134   13.3284   -6.0546 H   0  0  0  0  0
  -13.3535   13.5582   -8.0841 H   0  0  0  0  0
  -15.1964   15.0300   -8.8613 H   0  0  0  0  0
  -16.4620   16.3986   -7.2242 H   0  0  0  0  0
  -15.9362   16.2675   -4.8073 H   0  0  0  0  0
  -14.0870   14.8130   -4.0388 H   0  0  0  0  0
  1  2  1  0  0  0
  2  3  1  0  0  0
  3  4  2  0  0  0
  3  5  1  0  0  0
  5  6  4  0  0  0
  6  7  2  0  0  0
  6  8  1  0  0  0
  8  9  1  0  0  0
  9 10  4  0  0  0
  9 14  4  0  0  0
 10 11  4  0  0  0
 11 12  4  0  0  0
 12 13  4  0  0  0
 13 14  4  0  0  0
  1 15  1  0  0  0
  1 16  1  0  0  0
  1 17  1  0  0  0
  2 18  1  0  0  0
  7 19  1  0  0  0
  8 20  1  0  0  0
 10 21  1  0  0  0
 11 22  1  0  0  0
 12 23  1  0  0  0
 13 24  1  0  0  0
 14 25  1  0  0  0
M  END
$$$$
