5yyf_ligand
  -I-interpret- 

117118  0  0  0  0  0  0  0  0999 V2000
   25.4070   -4.8470   37.3130 C   0  0  0  0  0
   25.0110   -4.3970   38.3770 O   0  0  0  0  0
   26.3900   -4.1760   36.5780 O   0  0  0  0  0
   27.3590   -3.4880   37.3870 C   0  0  0  0  0
   27.2520   -1.9860   37.0920 C   0  0  0  0  0
   28.2470   -1.3430   36.3030 C   0  0  0  0  0
   28.1510    0.0030   36.0390 C   0  0  0  0  0
   27.0800    0.7340   36.5420 C   0  0  0  0  0
   26.1020    0.0970   37.3160 C   0  0  0  0  0
   26.2030   -1.2700   37.5830 C   0  0  0  0  0
   24.6640   -5.1550   36.1310 N   0  3  0  0  0
   23.3200   -5.6200   36.4420 C   0  0  0  0  0
   23.3610   -6.9680   37.1670 C   0  0  0  0  0
   24.2760   -7.7660   36.9560 O   0  0  0  0  0
   22.4850   -5.7220   35.1580 C   0  0  0  0  0
   21.1280   -6.3570   35.3630 C   0  0  0  0  0
   20.2410   -6.3160   34.1410 C   0  0  0  0  0
   19.4020   -7.1920   33.9480 O   0  0  0  0  0
   20.4090   -5.2920   33.3140 N   0  0  0  0  0
   22.3760   -7.2150   38.0300 N   0  0  0  0  0
   22.2200   -8.5200   38.6540 C   0  0  0  0  0
   21.8910   -9.5750   37.6000 C   0  0  0  0  0
   21.7170   -9.2850   36.4130 O   0  0  0  0  0
   21.1150   -8.4880   39.7080 C   0  0  0  0  0
   19.8400   -8.3970   39.0580 O   0  0  0  0  0
   21.2930   -7.3030   40.6410 C   0  0  0  0  0
   21.7920  -10.8220   38.0500 N   0  0  0  0  0
   21.2670  -11.8700   37.1950 C   0  0  0  0  0
   19.8060  -11.5770   36.8550 C   0  0  0  0  0
   19.1510  -10.7260   37.4640 O   0  0  0  0  0
   21.3990  -13.2320   37.8740 C   0  0  0  0  0
   19.2990  -12.2940   35.8600 N   0  0  0  0  0
   17.9190  -12.1210   35.4260 C   0  0  0  0  0
   17.1680  -13.4430   35.4850 C   0  0  0  0  0
   17.7660  -14.4970   35.6940 O   0  0  0  0  0
   17.8680  -11.5490   34.0100 C   0  0  0  0  0
   18.5640  -10.2100   33.8600 C   0  0  0  0  0
   18.5180   -9.7240   32.4200 C   0  0  0  0  0
   17.1500   -9.5120   31.9580 N   0  0  0  0  0
   16.4610   -8.3900   32.1430 C   0  0  0  0  0
   17.0090   -7.3670   32.7860 N   0  0  0  0  0
   15.2210   -8.2920   31.6840 N   0  0  0  0  0
   15.8550  -13.3830   35.2970 N   0  0  0  0  0
   15.0210  -14.6040   35.3080 C   0  0  0  0  0
   13.8400  -14.3190   34.3060 C   0  0  0  0  0
   13.4870  -13.1770   34.0810 O   0  0  0  0  0
   14.4740  -14.8490   36.7530 C   0  0  0  0  0
   13.5140  -13.7440   37.2440 C   0  0  0  0  0
   12.9480  -13.9350   38.6630 C   0  0  0  0  0
   12.3410  -12.6680   39.3130 C   0  0  0  0  0
   11.6140  -12.8800   40.5680 N   0  0  0  0  0
   13.1820  -15.3650   33.6680 N   0  0  0  0  0
   11.9180  -12.2400   41.7730 C   0  0  0  0  0
   11.1440  -12.4880   43.0630 C   0  0  0  0  0
   11.2850  -12.0640   44.3510 C   0  0  0  0  0
   10.2400  -12.6440   45.1180 C   0  0  0  0  0
    9.5280  -13.3980   44.2460 C   0  0  0  0  0
   12.8370  -11.4500   41.8110 O   0  0  0  0  0
   10.0490  -13.3330   42.9650 O   0  0  0  0  0
   25.5977   -5.7014   37.9624 H   0  0  0  0  0
   25.7532   -4.2995   38.9780 H   0  0  0  0  0
   28.3622   -3.8447   37.1538 H   0  0  0  0  0
   27.1665   -3.6766   38.4431 H   0  0  0  0  0
   29.0849   -1.9175   35.9081 H   0  0  0  0  0
   28.9134    0.4965   35.4362 H   0  0  0  0  0
   27.0019    1.8011   36.3341 H   0  0  0  0  0
   25.2616    0.6684   37.7102 H   0  0  0  0  0
   25.4410   -1.7646   38.1853 H   0  0  0  0  0
   25.1520   -5.8977   35.6303 H   0  0  0  0  0
   24.5876   -4.3063   35.5705 H   0  0  0  0  0
   22.8511   -4.8955   37.1078 H   0  0  0  0  0
   23.0369   -6.3515   34.4599 H   0  0  0  0  0
   22.3183   -4.7073   34.7966 H   0  0  0  0  0
   20.6229   -5.7951   36.1487 H   0  0  0  0  0
   21.2950   -7.4062   35.6069 H   0  0  0  0  0
   19.8288   -5.2102   32.4791 H   0  0  0  0  0
   21.1184   -4.5866   33.5132 H   0  0  0  0  0
   21.7159   -6.4717   38.2584 H   0  0  0  0  0
   23.1614   -8.7770   39.1396 H   0  0  0  0  0
   21.1689   -9.4037   40.2967 H   0  0  0  0  0
   19.1452   -8.3769   39.7202 H   0  0  0  0  0
   22.2569   -7.3799   41.1441 H   0  0  0  0  0
   21.2556   -6.3790   40.0639 H   0  0  0  0  0
   20.4938   -7.3026   41.3822 H   0  0  0  0  0
   22.0866  -11.0431   39.0012 H   0  0  0  0  0
   21.8450  -11.8955   36.2712 H   0  0  0  0  0
   22.4504  -13.4345   38.0779 H   0  0  0  0  0
   20.8407  -13.2255   38.8101 H   0  0  0  0  0
   20.9997  -14.0044   37.2167 H   0  0  0  0  0
   19.8880  -12.9808   35.3891 H   0  0  0  0  0
   17.4364  -11.4167   36.1036 H   0  0  0  0  0
   16.8179  -11.3973   33.7603 H   0  0  0  0  0
   18.3815  -12.2551   33.3574 H   0  0  0  0  0
   19.6070  -10.3253   34.1549 H   0  0  0  0  0
   18.0542   -9.4807   34.4896 H   0  0  0  0  0
   18.9769  -10.4849   31.7887 H   0  0  0  0  0
   19.0478   -8.7731   32.3641 H   0  0  0  0  0
   16.6920  -10.2753   31.4601 H   0  0  0  0  0
   16.4766   -6.5083   32.9260 H   0  0  0  0  0
   17.9627   -7.4392   33.1404 H   0  0  0  0  0
   14.7967   -9.0768   31.1896 H   0  0  0  0  0
   15.4130  -12.4769   35.1420 H   0  0  0  0  0
   15.5807  -15.4924   35.0154 H   0  0  0  0  0
   15.3291  -14.8639   37.4287 H   0  0  0  0  0
   13.9155  -15.7849   36.7374 H   0  0  0  0  0
   12.6600  -13.7532   36.5668 H   0  0  0  0  0
   14.0910  -12.8194   37.2633 H   0  0  0  0  0
   13.7844  -14.2374   39.2932 H   0  0  0  0  0
   12.1383  -14.6600   38.5797 H   0  0  0  0  0
   11.6163  -12.2739   38.6005 H   0  0  0  0  0
   13.1789  -12.0123   39.5499 H   0  0  0  0  0
   10.8347  -13.5381   40.5616 H   0  0  0  0  0
   12.4166  -15.1683   33.0232 H   0  0  0  0  0
   13.4648  -16.3289   33.8449 H   0  0  0  0  0
   12.0621  -11.3978   44.7257 H   0  0  0  0  0
   10.0507  -12.5108   46.1831 H   0  0  0  0  0
    8.6512  -13.9847   44.5199 H   0  0  0  0  0
  1  2  1  0  0  0
  1  3  1  0  0  0
  1 11  1  0  0  0
  3  4  1  0  0  0
  4  5  1  0  0  0
  5  6  4  0  0  0
  5 10  4  0  0  0
  6  7  4  0  0  0
  7  8  4  0  0  0
  8  9  4  0  0  0
  9 10  4  0  0  0
 11 12  1  0  0  0
 12 13  1  0  0  0
 12 15  1  0  0  0
 13 14  2  0  0  0
 13 20  1  0  0  0
 15 16  1  0  0  0
 16 17  1  0  0  0
 17 18  2  0  0  0
 17 19  1  0  0  0
 20 21  1  0  0  0
 21 22  1  0  0  0
 21 24  1  0  0  0
 22 23  2  0  0  0
 22 27  1  0  0  0
 24 25  1  0  0  0
 24 26  1  0  0  0
 27 28  1  0  0  0
 28 29  1  0  0  0
 28 31  1  0  0  0
 29 30  2  0  0  0
 29 32  1  0  0  0
 32 33  1  0  0  0
 33 34  1  0  0  0
 33 36  1  0  0  0
 34 35  2  0  0  0
 34 43  1  0  0  0
 36 37  1  0  0  0
 37 38  1  0  0  0
 38 39  1  0  0  0
 39 40  1  0  0  0
 40 41  1  0  0  0
 40 42  2  0  0  0
 43 44  1  0  0  0
 44 45  1  0  0  0
 44 47  1  0  0  0
 45 46  2  0  0  0
 45 52  1  0  0  0
 47 48  1  0  0  0
 48 49  1  0  0  0
 49 50  1  0  0  0
 50 51  1  0  0  0
 51 53  1  0  0  0
 53 54  1  0  0  0
 53 58  2  0  0  0
 54 55  4  0  0  0
 54 59  4  0  0  0
 55 56  4  0  0  0
 56 57  4  0  0  0
 57 59  4  0  0  0
  1 60  1  0  0  0
  2 61  1  0  0  0
  4 62  1  0  0  0
  4 63  1  0  0  0
  6 64  1  0  0  0
  7 65  1  0  0  0
  8 66  1  0  0  0
  9 67  1  0  0  0
 10 68  1  0  0  0
 11 69  1  0  0  0
 11 70  1  0  0  0
 12 71  1  0  0  0
 15 72  1  0  0  0
 15 73  1  0  0  0
 16 74  1  0  0  0
 16 75  1  0  0  0
 19 76  1  0  0  0
 19 77  1  0  0  0
 20 78  1  0  0  0
 21 79  1  0  0  0
 24 80  1  0  0  0
 25 81  1  0  0  0
 26 82  1  0  0  0
 26 83  1  0  0  0
 26 84  1  0  0  0
 27 85  1  0  0  0
 28 86  1  0  0  0
 31 87  1  0  0  0
 31 88  1  0  0  0
 31 89  1  0  0  0
 32 90  1  0  0  0
 33 91  1  0  0  0
 36 92  1  0  0  0
 36 93  1  0  0  0
 37 94  1  0  0  0
 37 95  1  0  0  0
 38 96  1  0  0  0
 38 97  1  0  0  0
 39 98  1  0  0  0
 41 99  1  0  0  0
 41100  1  0  0  0
 42101  1  0  0  0
 43102  1  0  0  0
 44103  1  0  0  0
 47104  1  0  0  0
 47105  1  0  0  0
 48106  1  0  0  0
 48107  1  0  0  0
 49108  1  0  0  0
 49109  1  0  0  0
 50110  1  0  0  0
 50111  1  0  0  0
 51112  1  0  0  0
 52113  1  0  0  0
 52114  1  0  0  0
 55115  1  0  0  0
 56116  1  0  0  0
 57117  1  0  0  0
M  END
$$$$
