6acb_ligand
  -I-interpret- 

 69 75  0  0  0  0  0  0  0  0999 V2000
   30.2920  -30.6480  -40.5680 C   0  0  0  0  0
   30.5280  -30.6150  -41.9480 C   0  0  0  0  0
   31.7430  -30.1240  -42.4260 C   0  0  0  0  0
   32.7120  -29.7010  -41.5330 C   0  0  0  0  0
   32.5080  -29.7250  -40.1440 C   0  0  0  0  0
   31.2730  -30.1880  -39.7160 C   0  0  0  0  0
   33.8930  -29.2500  -42.0820 O   0  0  0  0  0
   34.9610  -29.0060  -41.2800 C   0  0  0  0  0
   34.8330  -28.8080  -39.8770 C   0  0  0  0  0
   33.5720  -29.2830  -39.2240 C   0  0  0  0  0
   36.2640  -28.9050  -41.6210 C   0  0  0  0  0
   36.9800  -28.6450  -40.4940 N   0  0  0  0  0
   36.1410  -28.5740  -39.4150 C   0  0  0  0  0
   33.4100  -29.3130  -37.9990 O   0  0  0  0  0
   36.7480  -28.2530  -38.1360 C   0  0  0  0  0
   36.7840  -29.0850  -43.0160 C   0  0  0  0  0
   37.0420  -30.4960  -43.4830 C   0  0  0  0  0
   38.3360  -31.0060  -43.4970 C   0  0  0  0  0
   38.5340  -32.3020  -43.9110 C   0  0  0  0  0
   37.4870  -33.0910  -44.3080 C   0  0  0  0  0
   36.1940  -32.6190  -44.3010 C   0  0  0  0  0
   35.9850  -31.3110  -43.8890 C   0  0  0  0  0
   39.6950  -33.0370  -43.8880 O   0  0  0  0  0
   39.3580  -34.2860  -44.4940 C   0  0  0  0  0
   37.9430  -34.3390  -44.6660 O   0  0  0  0  0
   35.8150  -28.2320  -36.6840 S   0  0  0  0  0
   37.2030  -27.7060  -35.8290 C   0  0  0  0  0
   38.2430  -27.5910  -36.6630 C   0  0  0  0  0
   38.0010  -27.9060  -37.9790 N   0  0  0  0  0
   30.9980  -30.1200  -38.3930 F   0  0  0  0  0
   29.6030  -31.1090  -42.8560 N   0  0  0  0  0
   28.3330  -31.7170  -42.4960 C   0  0  0  0  0
   28.4580  -33.2140  -42.2440 C   0  0  0  0  0
   27.9860  -33.6500  -40.9170 N   0  3  0  0  0
   28.1800  -35.1010  -40.6880 C   0  0  0  0  0
   27.0710  -35.9330  -41.3390 C   0  0  0  0  0
   25.7560  -35.5070  -40.8640 N   0  3  0  0  0
   25.5580  -34.1030  -41.2100 C   0  0  0  0  0
   26.6100  -33.2320  -40.5410 C   0  0  0  0  0
   24.6880  -36.3510  -41.4330 C   0  0  0  0  0
   29.3500  -31.0304  -40.1749 H   0  0  0  0  0
   31.9286  -30.0737  -43.4989 H   0  0  0  0  0
   37.7531  -28.5864  -43.0357 H   0  0  0  0  0
   36.0065  -28.6949  -43.6728 H   0  0  0  0  0
   39.1785  -30.3888  -43.1851 H   0  0  0  0  0
   35.3619  -33.2521  -44.6090 H   0  0  0  0  0
   34.9712  -30.9106  -43.8823 H   0  0  0  0  0
   39.6864  -35.1083  -43.8584 H   0  0  0  0  0
   39.8537  -34.3761  -45.4605 H   0  0  0  0  0
   37.2345  -27.4954  -34.7600 H   0  0  0  0  0
   39.2250  -27.2664  -36.3189 H   0  0  0  0  0
   29.8306  -31.0406  -43.8479 H   0  0  0  0  0
   27.6414  -31.5708  -43.3257 H   0  0  0  0  0
   27.9826  -31.2479  -41.5766 H   0  0  0  0  0
   29.5180  -33.4608  -42.3034 H   0  0  0  0  0
   27.8364  -33.7161  -42.9854 H   0  0  0  0  0
   28.5961  -33.1329  -40.2839 H   0  0  0  0  0
   28.1597  -35.2840  -39.6137 H   0  0  0  0  0
   29.1322  -35.3933  -41.1306 H   0  0  0  0  0
   27.2172  -36.9807  -41.0762 H   0  0  0  0  0
   27.1162  -35.7951  -42.4193 H   0  0  0  0  0
   25.7131  -35.6123  -39.8504 H   0  0  0  0  0
   24.5716  -33.7909  -40.8670 H   0  0  0  0  0
   25.6426  -33.9908  -42.2909 H   0  0  0  0  0
   26.4620  -32.2022  -40.8660 H   0  0  0  0  0
   26.5030  -33.3311  -39.4608 H   0  0  0  0  0
   24.7081  -36.2764  -42.5203 H   0  0  0  0  0
   24.8484  -37.3873  -41.1356 H   0  0  0  0  0
   23.7212  -36.0107  -41.0620 H   0  0  0  0  0
  1  2  4  0  0  0
  1  6  4  0  0  0
  2  3  4  0  0  0
  2 31  1  0  0  0
  3  4  4  0  0  0
  4  5  4  0  0  0
  4  7  1  0  0  0
  5  6  4  0  0  0
  5 10  1  0  0  0
  6 30  1  0  0  0
  7  8  1  0  0  0
  8  9  4  0  0  0
  8 11  4  0  0  0
  9 10  1  0  0  0
  9 13  4  0  0  0
 10 14  2  0  0  0
 11 12  4  0  0  0
 11 16  1  0  0  0
 12 13  4  0  0  0
 13 15  1  0  0  0
 15 26  4  0  0  0
 15 29  4  0  0  0
 16 17  1  0  0  0
 17 18  4  0  0  0
 17 22  4  0  0  0
 18 19  4  0  0  0
 19 20  4  0  0  0
 19 23  1  0  0  0
 20 21  4  0  0  0
 20 25  1  0  0  0
 21 22  4  0  0  0
 23 24  1  0  0  0
 24 25  1  0  0  0
 26 27  4  0  0  0
 27 28  4  0  0  0
 28 29  4  0  0  0
 31 32  1  0  0  0
 32 33  1  0  0  0
 33 34  1  0  0  0
 34 35  1  0  0  0
 34 39  1  0  0  0
 35 36  1  0  0  0
 36 37  1  0  0  0
 37 38  1  0  0  0
 37 40  1  0  0  0
 38 39  1  0  0  0
  1 41  1  0  0  0
  3 42  1  0  0  0
 16 43  1  0  0  0
 16 44  1  0  0  0
 18 45  1  0  0  0
 21 46  1  0  0  0
 22 47  1  0  0  0
 24 48  1  0  0  0
 24 49  1  0  0  0
 27 50  1  0  0  0
 28 51  1  0  0  0
 31 52  1  0  0  0
 32 53  1  0  0  0
 32 54  1  0  0  0
 33 55  1  0  0  0
 33 56  1  0  0  0
 34 57  1  0  0  0
 35 58  1  0  0  0
 35 59  1  0  0  0
 36 60  1  0  0  0
 36 61  1  0  0  0
 37 62  1  0  0  0
 38 63  1  0  0  0
 38 64  1  0  0  0
 39 65  1  0  0  0
 39 66  1  0  0  0
 40 67  1  0  0  0
 40 68  1  0  0  0
 40 69  1  0  0  0
M  END
$$$$
