3hec_ligand
  -I-interpret- 

 70 74  0  0  0  0  0  0  0  0999 V2000
   18.8480    4.6550  -24.7430 C   0  0  0  0  0
   18.8750    3.7470  -23.6800 C   0  0  0  0  0
   18.8470    2.3690  -23.9340 C   0  0  0  0  0
   18.7860    1.9450  -25.2700 C   0  0  0  0  0
   18.7590    2.8520  -26.2740 N   0  0  0  0  0
   18.7860    4.1760  -26.0450 C   0  0  0  0  0
   18.8550    1.3750  -22.7930 C   0  0  0  0  0
   18.5300    1.7620  -21.4830 C   0  0  0  0  0
   18.5400    0.8440  -20.4390 C   0  0  0  0  0
   18.8500   -0.4240  -20.6970 N   0  0  0  0  0
   19.1550   -0.7870  -21.9670 C   0  0  0  0  0
   19.1500    0.0720  -23.0060 N   0  0  0  0  0
   19.4620   -2.0470  -22.2580 N   0  0  0  0  0
   19.7220   -2.9540  -21.3070 C   0  0  0  0  0
   21.1470   -3.2260  -21.0730 C   0  0  0  0  0
   21.4410   -4.1780  -20.1210 C   0  0  0  0  0
   20.4150   -4.8210  -19.4210 C   0  0  0  0  0
   19.0420   -4.5870  -19.6150 C   0  0  0  0  0
   18.7120   -3.6320  -20.5960 C   0  0  0  0  0
   18.1240   -5.3040  -18.8480 N   0  0  0  0  0
   16.8210   -5.4380  -19.1430 C   0  0  0  0  0
   15.7970   -6.2940  -18.4300 C   0  0  0  0  0
   15.8410   -6.4990  -17.0460 C   0  0  0  0  0
   14.7940   -7.2450  -16.4810 C   0  0  0  0  0
   13.7120   -7.7870  -17.2510 C   0  0  0  0  0
   13.6740   -7.5810  -18.6310 C   0  0  0  0  0
   14.7180   -6.8240  -19.1900 C   0  0  0  0  0
   12.6320   -8.6050  -16.6020 C   0  0  0  0  0
   12.5470   -8.7480  -15.3390 N   0  3  0  0  0
   12.9640   -7.5860  -14.5590 C   0  0  0  0  0
   11.8340   -7.2450  -13.5950 C   0  0  0  0  0
   11.6980   -8.3900  -12.6710 N   0  3  0  0  0
   11.3590   -8.0920  -11.2850 C   0  0  0  0  0
   11.8860   -9.7700  -13.1110 C   0  0  0  0  0
   11.9100   -9.8850  -14.6580 C   0  0  0  0  0
   16.2940   -4.7560  -20.0070 O   0  0  0  0  0
   22.2080   -2.4870  -21.8600 C   0  0  0  0  0
   18.8753    5.7277  -24.5517 H   0  0  0  0  0
   18.9178    4.1110  -22.6535 H   0  0  0  0  0
   18.7602    0.8799  -25.5004 H   0  0  0  0  0
   18.7592    4.8742  -26.8816 H   0  0  0  0  0
   18.2653    2.7999  -21.2811 H   0  0  0  0  0
   18.2974    1.1584  -19.4239 H   0  0  0  0  0
   19.5009   -2.3324  -23.2365 H   0  0  0  0  0
   22.4803   -4.4316  -19.9121 H   0  0  0  0  0
   20.7006   -5.5575  -18.6700 H   0  0  0  0  0
   17.6649   -3.4152  -20.8073 H   0  0  0  0  0
   18.4671   -5.7593  -18.0022 H   0  0  0  0  0
   16.6501   -6.0983  -16.4354 H   0  0  0  0  0
   14.8040   -7.4207  -15.4053 H   0  0  0  0  0
   12.8719   -7.9883  -19.2466 H   0  0  0  0  0
   14.6997   -6.6330  -20.2630 H   0  0  0  0  0
   12.8334   -9.6156  -16.9572 H   0  0  0  0  0
   11.7197   -8.0655  -16.8566 H   0  0  0  0  0
   13.0717   -9.6219  -15.3767 H   0  0  0  0  0
   13.1691   -6.7414  -15.2168 H   0  0  0  0  0
   13.8784   -7.8071  -14.0084 H   0  0  0  0  0
   10.9035   -7.0717  -14.1356 H   0  0  0  0  0
   12.0566   -6.3297  -13.0465 H   0  0  0  0  0
   11.9729   -9.1936  -13.2358 H   0  0  0  0  0
   12.1323   -7.4579  -10.8514 H   0  0  0  0  0
   10.4006   -7.5739  -11.2500 H   0  0  0  0  0
   11.2914   -9.0221  -10.7208 H   0  0  0  0  0
   11.0529  -10.3649  -12.7367 H   0  0  0  0  0
   12.8426  -10.1242  -12.7268 H   0  0  0  0  0
   12.4912  -10.7735  -14.9048 H   0  0  0  0  0
   10.8734   -9.9201  -14.9933 H   0  0  0  0  0
   22.0762   -2.6884  -22.9231 H   0  0  0  0  0
   22.1144   -1.4165  -21.6773 H   0  0  0  0  0
   23.1947   -2.8259  -21.5443 H   0  0  0  0  0
  1  2  4  0  0  0
  1  6  4  0  0  0
  2  3  4  0  0  0
  3  4  4  0  0  0
  3  7  1  0  0  0
  4  5  4  0  0  0
  5  6  4  0  0  0
  7  8  4  0  0  0
  7 12  4  0  0  0
  8  9  4  0  0  0
  9 10  4  0  0  0
 10 11  4  0  0  0
 11 12  4  0  0  0
 11 13  1  0  0  0
 13 14  1  0  0  0
 14 15  4  0  0  0
 14 19  4  0  0  0
 15 16  4  0  0  0
 15 37  1  0  0  0
 16 17  4  0  0  0
 17 18  4  0  0  0
 18 19  4  0  0  0
 18 20  1  0  0  0
 20 21  1  0  0  0
 21 22  1  0  0  0
 21 36  2  0  0  0
 22 23  4  0  0  0
 22 27  4  0  0  0
 23 24  4  0  0  0
 24 25  4  0  0  0
 25 26  4  0  0  0
 25 28  1  0  0  0
 26 27  4  0  0  0
 28 29  1  0  0  0
 29 30  1  0  0  0
 29 35  1  0  0  0
 30 31  1  0  0  0
 31 32  1  0  0  0
 32 33  1  0  0  0
 32 34  1  0  0  0
 34 35  1  0  0  0
  1 38  1  0  0  0
  2 39  1  0  0  0
  4 40  1  0  0  0
  6 41  1  0  0  0
  8 42  1  0  0  0
  9 43  1  0  0  0
 13 44  1  0  0  0
 16 45  1  0  0  0
 17 46  1  0  0  0
 19 47  1  0  0  0
 20 48  1  0  0  0
 23 49  1  0  0  0
 24 50  1  0  0  0
 26 51  1  0  0  0
 27 52  1  0  0  0
 28 53  1  0  0  0
 28 54  1  0  0  0
 29 55  1  0  0  0
 30 56  1  0  0  0
 30 57  1  0  0  0
 31 58  1  0  0  0
 31 59  1  0  0  0
 32 60  1  0  0  0
 33 61  1  0  0  0
 33 62  1  0  0  0
 33 63  1  0  0  0
 34 64  1  0  0  0
 34 65  1  0  0  0
 35 66  1  0  0  0
 35 67  1  0  0  0
 37 68  1  0  0  0
 37 69  1  0  0  0
 37 70  1  0  0  0
M  END
$$$$
