### 
### Created by X-TOOL on Mon Sep 10 21:13:01 2018
### 

@<TRIPOS>MOLECULE
3hec_ligand
   68    72     1     0     0
SMALL
GAST_HUCK


@<TRIPOS>ATOM
      1 C1         18.8480    4.6550  -24.7430 C.ar      1 STI        -0.0301
      2 C6         18.8750    3.7470  -23.6800 C.ar      1 STI        -0.0291
      3 C5         18.8470    2.3690  -23.9340 C.ar      1 STI         0.0316
      4 C4         18.7860    1.9450  -25.2700 C.ar      1 STI         0.0248
      5 N3         18.7590    2.8520  -26.2740 N.ar      1 STI        -0.2920
      6 C2         18.7860    4.1760  -26.0450 C.ar      1 STI         0.0142
      7 C7         18.8550    1.3750  -22.7930 C.ar      1 STI         0.0621
      8 C12        18.5300    1.7620  -21.4830 C.ar      1 STI        -0.0153
      9 C11        18.5400    0.8440  -20.4390 C.ar      1 STI         0.0146
     10 N10        18.8500   -0.4240  -20.6970 N.ar      1 STI        -0.2516
     11 C9         19.1550   -0.7870  -21.9670 C.ar      1 STI         0.2094
     12 N8         19.1500    0.0720  -23.0060 N.ar      1 STI        -0.2455
     13 N13        19.4620   -2.0470  -22.2580 N.pl3     1 STI        -0.2475
     14 C14        19.7220   -2.9540  -21.3070 C.ar      1 STI         0.0547
     15 C19        21.1470   -3.2260  -21.0730 C.ar      1 STI        -0.0359
     16 C18        21.4410   -4.1780  -20.1210 C.ar      1 STI        -0.0821
     17 C17        20.4150   -4.8210  -19.4210 C.ar      1 STI        -0.0588
     18 C16        19.0420   -4.5870  -19.6150 C.ar      1 STI         0.0494
     19 C15        18.7120   -3.6320  -20.5960 C.ar      1 STI        -0.0244
     20 N21        18.1240   -5.3040  -18.8480 N.am      1 STI        -0.2404
     21 C22        16.8210   -5.4380  -19.1430 C.2       1 STI         0.2255
     22 C23        15.7970   -6.2940  -18.4300 C.ar      1 STI         0.0485
     23 C25        15.8410   -6.4990  -17.0460 C.ar      1 STI        -0.0482
     24 C26        14.7940   -7.2450  -16.4810 C.ar      1 STI        -0.0564
     25 C27        13.7120   -7.7870  -17.2510 C.ar      1 STI        -0.0585
     26 C28        13.6740   -7.5810  -18.6310 C.ar      1 STI        -0.0564
     27 C29        14.7180   -6.8240  -19.1900 C.ar      1 STI        -0.0482
     28 C46        12.6320   -8.6050  -16.6020 C.3       1 STI        -0.0741
     29 N48        12.5470   -8.7480  -15.3390 N.4       1 STI         0.4057
     30 C53        12.9640   -7.5860  -14.5590 C.3       1 STI        -0.1293
     31 C52        11.8340   -7.2450  -13.5950 C.3       1 STI        -0.1323
     32 N51        11.6980   -8.3900  -12.6710 N.4       1 STI         0.3980
     33 C54        11.3590   -8.0920  -11.2850 C.3       1 STI        -0.1258
     34 C50        11.8860   -9.7700  -13.1110 C.3       1 STI        -0.1323
     35 C49        11.9100   -9.8850  -14.6580 C.3       1 STI        -0.1293
     36 O29        16.2940   -4.7560  -20.0070 O.2       1 STI        -0.3771
     37 C20        22.2080   -2.4870  -21.8600 C.3       1 STI        -0.0402
     38 H          18.8753    5.7277  -24.5517 H         1 STI         0.0718
     39 H          18.9178    4.1110  -22.6535 H         1 STI         0.0773
     40 H          18.7602    0.8799  -25.5004 H         1 STI         0.0864
     41 H          18.7592    4.8742  -26.8816 H         1 STI         0.0847
     42 H          18.2653    2.7999  -21.2811 H         1 STI         0.0677
     43 H          18.2974    1.1584  -19.4239 H         1 STI         0.0893
     44 H          19.5009   -2.3324  -23.2365 H         1 STI         0.2158
     45 H          22.4803   -4.4316  -19.9121 H         1 STI         0.0490
     46 H          20.7006   -5.5575  -18.6700 H         1 STI         0.0394
     47 H          17.6649   -3.4152  -20.8073 H         1 STI         0.0399
     48 H          18.4671   -5.7593  -18.0022 H         1 STI         0.2227
     49 H          16.6501   -6.0983  -16.4354 H         1 STI         0.0652
     50 H          14.8040   -7.4207  -15.4053 H         1 STI         0.0569
     51 H          12.8719   -7.9883  -19.2466 H         1 STI         0.0569
     52 H          14.6997   -6.6330  -20.2630 H         1 STI         0.0652
     53 H          12.8334   -9.6156  -16.9572 H         1 STI         0.0193
     54 H          11.7197   -8.0655  -16.8566 H         1 STI         0.0193
     55 H          13.1691   -6.7414  -15.2168 H         1 STI        -0.0000
     56 H          13.8784   -7.8071  -14.0084 H         1 STI        -0.0000
     57 H          10.9035   -7.0717  -14.1356 H         1 STI        -0.0003
     58 H          12.0566   -6.3297  -13.0465 H         1 STI        -0.0003
     59 H          12.1323   -7.4579  -10.8514 H         1 STI        -0.0019
     60 H          10.4006   -7.5739  -11.2500 H         1 STI        -0.0019
     61 H          11.2914   -9.0221  -10.7208 H         1 STI        -0.0019
     62 H          11.0529  -10.3649  -12.7367 H         1 STI        -0.0003
     63 H          12.8426  -10.1242  -12.7268 H         1 STI        -0.0003
     64 H          12.4912  -10.7735  -14.9048 H         1 STI        -0.0000
     65 H          10.8734   -9.9201  -14.9933 H         1 STI        -0.0000
     66 H          22.0762   -2.6884  -22.9231 H         1 STI         0.0342
     67 H          22.1144   -1.4165  -21.6773 H         1 STI         0.0342
     68 H          23.1947   -2.8259  -21.5443 H         1 STI         0.0342
@<TRIPOS>BOND
     1    1    2 ar 
     2    1    6 ar 
     3    2    3 ar 
     4    3    4 ar 
     5    3    7 1  
     6    4    5 ar 
     7    5    6 ar 
     8    7    8 ar 
     9    7   12 ar 
    10    8    9 ar 
    11    9   10 ar 
    12   10   11 ar 
    13   11   12 ar 
    14   11   13 1  
    15   13   14 1  
    16   14   15 ar 
    17   14   19 ar 
    18   15   16 ar 
    19   15   37 1  
    20   16   17 ar 
    21   17   18 ar 
    22   18   19 ar 
    23   18   20 1  
    24   20   21 am 
    25   21   22 1  
    26   21   36 2  
    27   22   23 ar 
    28   22   27 ar 
    29   23   24 ar 
    30   24   25 ar 
    31   25   26 ar 
    32   25   28 1  
    33   26   27 ar 
    34   28   29 1  
    35   29   30 1  
    36   29   35 1  
    37   30   31 1  
    38   31   32 1  
    39   32   33 1  
    40   32   34 1  
    41   34   35 1  
    42    1   38 1  
    43    2   39 1  
    44    4   40 1  
    45    6   41 1  
    46    8   42 1  
    47    9   43 1  
    48   13   44 1  
    49   16   45 1  
    50   17   46 1  
    51   19   47 1  
    52   20   48 1  
    53   23   49 1  
    54   24   50 1  
    55   26   51 1  
    56   27   52 1  
    57   28   53 1  
    58   28   54 1  
    59   30   55 1  
    60   30   56 1  
    61   31   57 1  
    62   31   58 1  
    63   33   59 1  
    64   33   60 1  
    65   33   61 1  
    66   34   62 1  
    67   34   63 1  
    68   35   64 1  
    69   35   65 1  
    70   37   66 1  
    71   37   67 1  
    72   37   68 1  
@<TRIPOS>SUBSTRUCTURE
     1 STI         1

