3t83_ligand
  -I-interpret- 

 51 51  0  0  0  0  0  0  0  0999 V2000
   17.2500    0.1640   12.0210 C   0  0  0  0  0
   16.9470    0.2990   13.3080 O   0  0  0  0  0
   16.5780    1.1660   11.2220 C   0  0  0  0  0
   17.0280    2.6100   11.5970 C   0  0  0  0  0
   17.2010    2.7990   13.2620 C   0  0  0  0  0
   17.6150    1.3570   13.9260 C   0  0  0  0  0
   18.5050   -0.2200   11.6140 O   0  0  0  0  0
   16.6380    0.9710    9.8500 O   0  0  0  0  0
   15.6410    1.1640    9.0760 C   0  0  0  0  0
   14.6960    1.9050    9.4540 O   0  0  0  0  0
   15.8760    0.9360    7.6080 C   0  0  0  0  0
   15.9440    2.1330    6.7210 C   0  0  0  0  0
   16.3310    3.6600   10.9970 O   0  0  0  0  0
   16.8990    4.5000   10.2080 C   0  0  0  0  0
   18.0100    4.2240    9.7000 O   0  0  0  0  0
   16.0330    5.5950    9.6370 C   0  0  0  0  0
   16.4810    6.2490    8.3450 C   0  0  0  0  0
   17.9540    3.9120   13.6600 O   0  0  0  0  0
   17.3890    5.0340   13.9370 C   0  0  0  0  0
   16.1500    5.1520   13.8350 O   0  0  0  0  0
   18.2450    6.2150   14.3090 C   0  0  0  0  0
   19.3530    6.5700   13.3590 C   0  0  0  0  0
   17.4650    1.4870   15.4260 C   0  0  0  0  0
   16.1520    1.8700   15.7610 O   0  0  0  0  0
   15.5310    1.1290   16.8980 S   0  0  0  0  0
   14.1040    1.4670   16.9110 O   0  0  0  0  0
   16.2480    1.5170   18.1050 O   0  0  0  0  0
   15.8200   -0.3960   16.7090 N   0  0  0  0  0
   15.5265    1.0424   11.4812 H   0  0  0  0  0
   18.0135    2.6995   11.1400 H   0  0  0  0  0
   16.2347    3.0761   13.6835 H   0  0  0  0  0
   18.6581    1.0973   13.7453 H   0  0  0  0  0
   15.0150    0.3649    7.2607 H   0  0  0  0  0
   16.8576    0.4670    7.5398 H   0  0  0  0  0
   15.0031    2.6802    6.7786 H   0  0  0  0  0
   16.7611    2.7777    7.0449 H   0  0  0  0  0
   16.1174    1.8129    5.6936 H   0  0  0  0  0
   16.0395    6.3898   10.3829 H   0  0  0  0  0
   15.0785    5.1212    9.4075 H   0  0  0  0  0
   17.4601    6.7054    8.4907 H   0  0  0  0  0
   16.5433    5.4951    7.5602 H   0  0  0  0  0
   15.7606    7.0151    8.0583 H   0  0  0  0  0
   18.7286    5.9513   15.2496 H   0  0  0  0  0
   17.5772    7.0763   14.3272 H   0  0  0  0  0
   20.0359    5.7254   13.2673 H   0  0  0  0  0
   18.9308    6.8052   12.3820 H   0  0  0  0  0
   19.8936    7.4361   13.7407 H   0  0  0  0  0
   18.1577    2.2478   15.7858 H   0  0  0  0  0
   17.6806    0.5233   15.8875 H   0  0  0  0  0
   15.0463   -1.0531   16.6085 H   0  0  0  0  0
   16.7822   -0.7337   16.6862 H   0  0  0  0  0
  1  2  1  0  0  0
  1  3  1  0  0  0
  1  7  2  0  0  0
  2  6  1  0  0  0
  3  4  1  0  0  0
  3  8  1  0  0  0
  4  5  1  0  0  0
  4 13  1  0  0  0
  5  6  1  0  0  0
  5 18  1  0  0  0
  6 23  1  0  0  0
  8  9  1  0  0  0
  9 10  2  0  0  0
  9 11  1  0  0  0
 11 12  1  0  0  0
 13 14  1  0  0  0
 14 15  2  0  0  0
 14 16  1  0  0  0
 16 17  1  0  0  0
 18 19  1  0  0  0
 19 20  2  0  0  0
 19 21  1  0  0  0
 21 22  1  0  0  0
 23 24  1  0  0  0
 24 25  1  0  0  0
 25 26  2  0  0  0
 25 27  2  0  0  0
 25 28  1  0  0  0
  3 29  1  0  0  0
  4 30  1  0  0  0
  5 31  1  0  0  0
  6 32  1  0  0  0
 11 33  1  0  0  0
 11 34  1  0  0  0
 12 35  1  0  0  0
 12 36  1  0  0  0
 12 37  1  0  0  0
 16 38  1  0  0  0
 16 39  1  0  0  0
 17 40  1  0  0  0
 17 41  1  0  0  0
 17 42  1  0  0  0
 21 43  1  0  0  0
 21 44  1  0  0  0
 22 45  1  0  0  0
 22 46  1  0  0  0
 22 47  1  0  0  0
 23 48  1  0  0  0
 23 49  1  0  0  0
 28 50  1  0  0  0
 28 51  1  0  0  0
M  END
$$$$
