3ti8_ligand
  -I-interpret- 

 48 48  0  0  0  0  0  0  0  0999 V2000
   21.0230  -22.4130  -53.8270 C   0  0  0  0  0
   20.3500  -21.1210  -53.3690 C   0  0  0  0  0
   21.2170  -20.1380  -52.5740 C   0  0  0  0  0
   22.6590  -20.6070  -52.2260 C   0  0  0  0  0
   23.0120  -22.1040  -52.4560 C   0  0  0  0  0
   22.0870  -22.9530  -53.1080 O   0  0  0  0  0
   20.2320  -23.4100  -54.6070 C   0  0  0  0  0
   18.9860  -23.0460  -55.0440 O   0  0  0  0  0
   20.5340  -24.5860  -54.4980 O   0  0  0  0  0
   24.4430  -22.5050  -52.6270 C   0  0  0  0  0
   24.6500  -23.9580  -52.2490 C   0  0  0  0  0
   26.0920  -24.3940  -52.3760 C   0  0  0  0  0
   27.0140  -23.7160  -51.5580 O   0  0  0  0  0
   24.8350  -22.1760  -53.9020 O   0  0  0  0  0
   25.8990  -21.3040  -54.0700 C   0  0  0  0  0
   24.0700  -24.2820  -51.0350 O   0  0  0  0  0
   20.9880  -18.7400  -52.7820 N   0  0  0  0  0
   21.0730  -17.7540  -51.7450 C   0  0  0  0  0
   21.0770  -16.4930  -52.1190 N   0  0  0  0  0
   20.9930  -18.0970  -50.4590 N   0  0  0  0  0
   24.2190  -18.6990  -51.6250 C   0  0  0  0  0
   24.8620  -17.9790  -50.4810 C   0  0  0  0  0
   24.3660  -18.3370  -52.7880 O   0  0  0  0  0
   23.4660  -19.8650  -51.3000 N   0  0  0  0  0
   21.5654  -21.8637  -54.5965 H   0  0  0  0  0
   19.5457  -21.4227  -52.6980 H   0  0  0  0  0
   20.0574  -20.5960  -54.2783 H   0  0  0  0  0
   20.7647  -20.2137  -51.5852 H   0  0  0  0  0
   23.1018  -20.1431  -53.1073 H   0  0  0  0  0
   22.8260  -22.3358  -51.4073 H   0  0  0  0  0
   18.9238  -22.0883  -55.0685 H   0  0  0  0  0
   25.0914  -21.9579  -51.9427 H   0  0  0  0  0
   24.1095  -24.5502  -52.9873 H   0  0  0  0  0
   26.3853  -24.1874  -53.4053 H   0  0  0  0  0
   26.1239  -25.4403  -52.0721 H   0  0  0  0  0
   27.8948  -24.0649  -51.7132 H   0  0  0  0  0
   25.6628  -20.3497  -53.5992 H   0  0  0  0  0
   26.7907  -21.7277  -53.6080 H   0  0  0  0  0
   26.0773  -21.1512  -55.1344 H   0  0  0  0  0
   24.2292  -25.2090  -50.8428 H   0  0  0  0  0
   20.7504  -18.4273  -53.7234 H   0  0  0  0  0
   21.0211  -16.2545  -53.1092 H   0  0  0  0  0
   20.9332  -17.3747  -49.7413 H   0  0  0  0  0
   20.9916  -19.0817  -50.1929 H   0  0  0  0  0
   25.9447  -17.9950  -50.6058 H   0  0  0  0  0
   24.5125  -16.9467  -50.4605 H   0  0  0  0  0
   24.5953  -18.4728  -49.5466 H   0  0  0  0  0
   23.5037  -20.1970  -50.3363 H   0  0  0  0  0
  2  1  1  0  0  0
  6  1  1  0  0  0
  1  7  1  0  0  0
  3  2  1  0  0  0
  4  3  1  0  0  0
  3 17  1  0  0  0
  4  5  1  0  0  0
 24  4  1  0  0  0
  5  6  1  0  0  0
  5 10  1  0  0  0
  7  8  1  0  0  0
  7  9  2  0  0  0
 10 11  1  0  0  0
 10 14  1  0  0  0
 11 12  1  0  0  0
 11 16  1  0  0  0
 12 13  1  0  0  0
 14 15  1  0  0  0
 17 18  1  0  0  0
 18 19  2  0  0  0
 18 20  1  0  0  0
 21 22  1  0  0  0
 21 23  2  0  0  0
 21 24  1  0  0  0
  1 25  1  0  0  0
  2 26  1  0  0  0
  2 27  1  0  0  0
  3 28  1  0  0  0
  4 29  1  0  0  0
  5 30  1  0  0  0
  8 31  1  0  0  0
 10 32  1  0  0  0
 11 33  1  0  0  0
 12 34  1  0  0  0
 12 35  1  0  0  0
 13 36  1  0  0  0
 15 37  1  0  0  0
 15 38  1  0  0  0
 15 39  1  0  0  0
 16 40  1  0  0  0
 17 41  1  0  0  0
 19 42  1  0  0  0
 20 43  1  0  0  0
 20 44  1  0  0  0
 22 45  1  0  0  0
 22 46  1  0  0  0
 22 47  1  0  0  0
 24 48  1  0  0  0
M  END
$$$$
