1h3h_ligand
  -I-interpret- 

165166  0  0  0  0  0  0  0  0999 V2000
    5.0090    8.2170   13.4970 N   0  3  0  0  0
    5.6370    8.1090   12.1560 C   0  0  0  0  0
    5.8800    6.6490   11.7830 C   0  0  0  0  0
    6.8200    6.0240   12.2750 O   0  0  0  0  0
    6.9430    8.8860   12.1250 C   0  0  0  0  0
    5.0320    6.0810   10.9060 N   0  0  0  0  0
    5.1590    4.6860   10.4720 C   0  0  0  0  0
    6.4230    4.4480    9.6530 C   0  0  0  0  0
    6.6520    5.1130    8.6430 O   0  0  0  0  0
    3.9140    4.4540    9.6040 C   0  0  0  0  0
    2.9990    5.5930    9.9040 C   0  0  0  0  0
    3.8850    6.7460   10.2700 C   0  0  0  0  0
    7.2390    3.4960   10.0940 N   0  0  0  0  0
    8.4780    3.1710    9.3980 C   0  0  0  0  0
    8.3630    1.8390    8.6760 C   0  0  0  0  0
    8.0770    0.8080    9.2850 O   0  0  0  0  0
    9.6490    3.1370   10.3790 C   0  0  0  0  0
   10.5690    4.1800   10.1110 O   0  0  0  0  0
    8.5820    1.8750    7.3690 N   0  0  0  0  0
    8.4990    0.6790    6.5500 C   0  0  0  0  0
    9.8570    0.3250    5.9470 C   0  0  0  0  0
   10.5840    1.1940    5.4630 O   0  0  0  0  0
    7.4390    0.8510    5.4350 C   0  0  0  0  0
    6.2620   -0.0940    5.6890 C   0  0  0  0  0
    8.0350    0.6270    4.0490 C   0  0  0  0  0
    6.5410   -1.5420    5.3380 C   0  0  0  0  0
   10.1860   -0.9610    5.9820 N   0  0  0  0  0
   11.4490   -1.4490    5.4400 C   0  0  0  0  0
   11.2110   -2.2380    4.1570 C   0  0  0  0  0
   10.4270   -3.1860    4.1370 O   0  0  0  0  0
   12.1670   -2.3250    6.4690 C   0  0  0  0  0
   11.6790   -2.0770    7.8830 C   0  0  0  0  0
   11.7370   -0.9140    8.3360 O   0  0  0  0  0
   11.2390   -3.0450    8.5370 O   0  0  0  0  0
   11.8860   -1.8370    3.0860 N   0  0  0  0  0
   11.7430   -2.5030    1.7950 C   0  0  0  0  0
   12.4600   -3.8500    1.7840 C   0  0  0  0  0
   12.3720   -4.6020    0.8130 O   0  0  0  0  0
   12.2880   -1.6120    0.6770 C   0  0  0  0  0
   11.8740   -0.1540    0.8050 C   0  0  0  0  0
   11.9330    0.5630   -0.5350 C   0  0  0  0  0
   13.1160    0.1910   -1.3060 N   0  0  0  0  0
   14.3510    0.5770   -0.9990 C   0  0  0  0  0
   14.5670    1.3440    0.0630 N   0  0  0  0  0
   15.3730    0.1970   -1.7520 N   0  0  0  0  0
   13.1760   -4.1460    2.8640 N   0  0  0  0  0
   13.9140   -5.4000    2.9730 C   0  0  0  0  0
   12.9820   -6.5750    3.2640 C   0  0  0  0  0
   13.4360   -7.7060    3.4390 O   0  0  0  0  0
   14.9760   -5.2950    4.0680 C   0  0  0  0  0
   14.3900   -4.9740    5.3180 O   0  0  0  0  0
   11.6810   -6.3040    3.3170 N   0  0  0  0  0
   10.6960   -7.3460    3.5890 C   0  0  0  0  0
    9.5710   -7.3340    2.5540 C   0  0  0  0  0
    8.4510   -7.7650    2.8330 O   0  0  0  0  0
   10.0980   -7.1950    5.0020 C   0  0  0  0  0
    9.2050   -8.2820    5.2780 O   0  0  0  0  0
    9.3570   -5.8750    5.1400 C   0  0  0  0  0
    9.8790   -6.8420    1.3570 N   0  0  0  0  0
    8.9010   -6.7750    0.2740 C   0  0  0  0  0
    8.3200   -8.1590   -0.0240 C   0  0  0  0  0
    8.9150   -9.1740    0.3390 O   0  0  0  0  0
    9.5550   -6.2040   -0.9860 C   0  0  0  0  0
    9.2420   -4.7350   -1.2240 C   0  0  0  0  0
   10.4970   -3.9410   -1.5530 C   0  0  0  0  0
   11.0070   -4.2550   -2.9510 C   0  0  0  0  0
   12.3800   -3.7230   -3.1740 N   0  3  0  0  0
    7.1430   -8.2210   -0.6870 N   0  0  0  0  0
    6.4930   -9.4920   -1.0250 C   0  0  0  0  0
    7.4610  -10.5030   -1.6270 C   0  0  0  0  0
    7.7820  -10.4430   -2.8140 O   0  0  0  0  0
    5.4430   -9.0850   -2.0550 C   0  0  0  0  0
    5.0910   -7.6850   -1.6920 C   0  0  0  0  0
    6.3540   -7.0630   -1.1570 C   0  0  0  0  0
    7.9220  -11.4310   -0.7970 N   0  0  0  0  0
    8.8530  -12.4590   -1.2400 C   0  0  0  0  0
    8.5150  -13.8090   -0.6170 C   0  0  0  0  0
    7.6000  -13.8540    0.2320 O   0  0  0  0  0
   10.2810  -12.0610   -0.9000 C   0  0  0  0  0
    9.1680  -14.8090   -0.9810 O   0  0  0  0  0
    4.1345    7.6920   13.5049 H   0  0  0  0  0
    5.6424    7.8353   14.1995 H   0  0  0  0  0
    4.8202    9.1976   13.7047 H   0  0  0  0  0
    4.9532    8.5369   11.4229 H   0  0  0  0  0
    7.6420    8.4478   12.8374 H   0  0  0  0  0
    7.3678    8.8403   11.1222 H   0  0  0  0  0
    6.7525    9.9252   12.3933 H   0  0  0  0  0
    5.2312    4.0073   11.3219 H   0  0  0  0  0
    3.4448    3.4960    9.8278 H   0  0  0  0  0
    4.1680    4.4149    8.5447 H   0  0  0  0  0
    2.3139    5.3472   10.7154 H   0  0  0  0  0
    2.3713    5.8331    9.0458 H   0  0  0  0  0
    4.1682    7.3547    9.4113 H   0  0  0  0  0
    3.3957    7.4684   10.9233 H   0  0  0  0  0
    6.9925    2.9808   10.9391 H   0  0  0  0  0
    8.6612    3.9488    8.6567 H   0  0  0  0  0
   10.1641    2.1821   10.2744 H   0  0  0  0  0
    9.2613    3.2650   11.3896 H   0  0  0  0  0
   11.2930    4.1360   10.7399 H   0  0  0  0  0
    8.8145    2.7648    6.9279 H   0  0  0  0  0
    8.1928   -0.1444    7.1952 H   0  0  0  0  0
    7.0789    1.8794    5.4614 H   0  0  0  0  0
    5.4401    0.2381    5.0547 H   0  0  0  0  0
    6.0451   -0.0579    6.7566 H   0  0  0  0  0
    8.8338    1.3485    3.8775 H   0  0  0  0  0
    8.4374   -0.3841    3.9870 H   0  0  0  0  0
    7.2582    0.7571    3.2955 H   0  0  0  0  0
    6.7892   -1.6165    4.2793 H   0  0  0  0  0
    7.3778   -1.9045    5.9351 H   0  0  0  0  0
    5.6559   -2.1425    5.5482 H   0  0  0  0  0
    9.5364   -1.6270    6.4002 H   0  0  0  0  0
   12.0783   -0.5894    5.2093 H   0  0  0  0  0
   13.2296   -2.0847    6.4327 H   0  0  0  0  0
   11.9667   -3.3675    6.2218 H   0  0  0  0  0
   12.1059   -0.3301    7.6692 H   0  0  0  0  0
   12.5209   -1.0429    3.1676 H   0  0  0  0  0
   10.6811   -2.6822    1.6266 H   0  0  0  0  0
   11.8849   -1.9851   -0.2645 H   0  0  0  0  0
   13.3761   -1.6490    0.7303 H   0  0  0  0  0
   12.5612    0.3407    1.4914 H   0  0  0  0  0
   10.8478   -0.1177    1.1707 H   0  0  0  0  0
   11.9747    1.6355   -0.3450 H   0  0  0  0  0
   11.0506    0.2820   -1.1099 H   0  0  0  0  0
   12.9876   -0.3993   -2.1279 H   0  0  0  0  0
   15.5157    1.6376    0.2956 H   0  0  0  0  0
   13.7842    1.6396    0.6463 H   0  0  0  0  0
   15.2132   -0.3927   -2.5688 H   0  0  0  0  0
   13.2104   -3.4800    3.6358 H   0  0  0  0  0
   14.3994   -5.5832    2.0144 H   0  0  0  0  0
   15.6778   -4.5056    3.7988 H   0  0  0  0  0
   15.4820   -6.2564    4.1566 H   0  0  0  0  0
   15.0767   -4.9143    5.9862 H   0  0  0  0  0
   11.3645   -5.3465    3.1641 H   0  0  0  0  0
   11.2187   -8.3005    3.5272 H   0  0  0  0  0
   10.9177   -7.2089    5.7203 H   0  0  0  0  0
    8.8389   -8.1780    6.1593 H   0  0  0  0  0
   10.0484   -5.0514    4.9619 H   0  0  0  0  0
    8.5479   -5.8361    4.4107 H   0  0  0  0  0
    8.9453   -5.7944    6.1460 H   0  0  0  0  0
   10.8260   -6.5015    1.1905 H   0  0  0  0  0
    8.0877   -6.1206    0.5879 H   0  0  0  0  0
    9.1659   -6.7626   -1.8373 H   0  0  0  0  0
   10.6343   -6.2916   -0.8617 H   0  0  0  0  0
    8.8036   -4.3246   -0.3143 H   0  0  0  0  0
    8.5568   -4.6614   -2.0685 H   0  0  0  0  0
   11.2723   -4.2088   -0.8351 H   0  0  0  0  0
   10.2555   -2.8792   -1.5047 H   0  0  0  0  0
   10.3376   -3.7862   -3.6722 H   0  0  0  0  0
   11.0370   -5.3382   -3.0685 H   0  0  0  0  0
   12.6834   -3.9542   -4.1200 H   0  0  0  0  0
   12.3742   -2.7099   -3.0556 H   0  0  0  0  0
   13.0194   -4.1418   -2.4986 H   0  0  0  0  0
    6.0831   -9.9850   -0.1435 H   0  0  0  0  0
    4.5745   -9.7434   -2.0363 H   0  0  0  0  0
    5.8193   -9.1611   -3.0752 H   0  0  0  0  0
    4.2936   -7.6590   -0.9494 H   0  0  0  0  0
    4.7166   -7.1360   -2.5560 H   0  0  0  0  0
    6.8816   -6.4789   -1.9110 H   0  0  0  0  0
    6.1586   -6.3429   -0.3624 H   0  0  0  0  0
    7.6161  -11.4236    0.1760 H   0  0  0  0  0
    8.7631  -12.5542   -2.3221 H   0  0  0  0  0
    7.2379  -12.9738    0.3575 H   0  0  0  0  0
   10.5236  -11.1223   -1.3981 H   0  0  0  0  0
   10.3750  -11.9363    0.1788 H   0  0  0  0  0
   10.9642  -12.8402   -1.2379 H   0  0  0  0  0
  1  2  1  0  0  0
  2  3  1  0  0  0
  2  5  1  0  0  0
  3  4  2  0  0  0
  3  6  1  0  0  0
  6  7  1  0  0  0
  6 12  1  0  0  0
  7  8  1  0  0  0
  7 10  1  0  0  0
  8  9  2  0  0  0
  8 13  1  0  0  0
 10 11  1  0  0  0
 11 12  1  0  0  0
 13 14  1  0  0  0
 14 15  1  0  0  0
 14 17  1  0  0  0
 15 16  2  0  0  0
 15 19  1  0  0  0
 17 18  1  0  0  0
 19 20  1  0  0  0
 20 21  1  0  0  0
 20 23  1  0  0  0
 21 22  2  0  0  0
 21 27  1  0  0  0
 23 24  1  0  0  0
 23 25  1  0  0  0
 24 26  1  0  0  0
 27 28  1  0  0  0
 28 29  1  0  0  0
 28 31  1  0  0  0
 29 30  2  0  0  0
 29 35  1  0  0  0
 31 32  1  0  0  0
 32 33  1  0  0  0
 32 34  2  0  0  0
 35 36  1  0  0  0
 36 37  1  0  0  0
 36 39  1  0  0  0
 37 38  2  0  0  0
 37 46  1  0  0  0
 39 40  1  0  0  0
 40 41  1  0  0  0
 41 42  1  0  0  0
 42 43  1  0  0  0
 43 44  1  0  0  0
 43 45  2  0  0  0
 46 47  1  0  0  0
 47 48  1  0  0  0
 47 50  1  0  0  0
 48 49  2  0  0  0
 48 52  1  0  0  0
 50 51  1  0  0  0
 52 53  1  0  0  0
 53 54  1  0  0  0
 53 56  1  0  0  0
 54 55  2  0  0  0
 54 59  1  0  0  0
 56 57  1  0  0  0
 56 58  1  0  0  0
 59 60  1  0  0  0
 60 61  1  0  0  0
 60 63  1  0  0  0
 61 62  2  0  0  0
 61 68  1  0  0  0
 63 64  1  0  0  0
 64 65  1  0  0  0
 65 66  1  0  0  0
 66 67  1  0  0  0
 68 69  1  0  0  0
 68 74  1  0  0  0
 69 70  1  0  0  0
 69 72  1  0  0  0
 70 71  2  0  0  0
 70 75  1  0  0  0
 72 73  1  0  0  0
 73 74  1  0  0  0
 75 76  1  0  0  0
 76 77  1  0  0  0
 76 79  1  0  0  0
 77 78  1  0  0  0
 77 80  2  0  0  0
  1 81  1  0  0  0
  1 82  1  0  0  0
  1 83  1  0  0  0
  2 84  1  0  0  0
  5 85  1  0  0  0
  5 86  1  0  0  0
  5 87  1  0  0  0
  7 88  1  0  0  0
 10 89  1  0  0  0
 10 90  1  0  0  0
 11 91  1  0  0  0
 11 92  1  0  0  0
 12 93  1  0  0  0
 12 94  1  0  0  0
 13 95  1  0  0  0
 14 96  1  0  0  0
 17 97  1  0  0  0
 17 98  1  0  0  0
 18 99  1  0  0  0
 19100  1  0  0  0
 20101  1  0  0  0
 23102  1  0  0  0
 24103  1  0  0  0
 24104  1  0  0  0
 25105  1  0  0  0
 25106  1  0  0  0
 25107  1  0  0  0
 26108  1  0  0  0
 26109  1  0  0  0
 26110  1  0  0  0
 27111  1  0  0  0
 28112  1  0  0  0
 31113  1  0  0  0
 31114  1  0  0  0
 33115  1  0  0  0
 35116  1  0  0  0
 36117  1  0  0  0
 39118  1  0  0  0
 39119  1  0  0  0
 40120  1  0  0  0
 40121  1  0  0  0
 41122  1  0  0  0
 41123  1  0  0  0
 42124  1  0  0  0
 44125  1  0  0  0
 44126  1  0  0  0
 45127  1  0  0  0
 46128  1  0  0  0
 47129  1  0  0  0
 50130  1  0  0  0
 50131  1  0  0  0
 51132  1  0  0  0
 52133  1  0  0  0
 53134  1  0  0  0
 56135  1  0  0  0
 57136  1  0  0  0
 58137  1  0  0  0
 58138  1  0  0  0
 58139  1  0  0  0
 59140  1  0  0  0
 60141  1  0  0  0
 63142  1  0  0  0
 63143  1  0  0  0
 64144  1  0  0  0
 64145  1  0  0  0
 65146  1  0  0  0
 65147  1  0  0  0
 66148  1  0  0  0
 66149  1  0  0  0
 67150  1  0  0  0
 67151  1  0  0  0
 67152  1  0  0  0
 69153  1  0  0  0
 72154  1  0  0  0
 72155  1  0  0  0
 73156  1  0  0  0
 73157  1  0  0  0
 74158  1  0  0  0
 74159  1  0  0  0
 75160  1  0  0  0
 76161  1  0  0  0
 78162  1  0  0  0
 79163  1  0  0  0
 79164  1  0  0  0
 79165  1  0  0  0
M  END
$$$$
