### 
### Created by X-TOOL on Mon Sep 10 21:12:51 2018
### 

@<TRIPOS>MOLECULE
1h3h_ligand
  164   165     1     0     0
SMALL
GAST_HUCK


@<TRIPOS>ATOM
      1 N           5.0090    8.2170   13.4970 N.4       1 ALA         0.2377
      2 CA          5.6370    8.1090   12.1560 C.3       1 ALA         0.0623
      3 C           5.8800    6.6490   11.7830 C.2       1 ALA         0.2289
      4 O           6.8200    6.0240   12.2750 O.2       1 ALA        -0.3905
      5 CB          6.9430    8.8860   12.1250 C.3       1 ALA        -0.0040
      6 N           5.0320    6.0810   10.9060 N.am      1 PRO        -0.2471
      7 CA          5.1590    4.6860   10.4720 C.3       1 PRO         0.1339
      8 C           6.4230    4.4480    9.6530 C.2       1 PRO         0.2042
      9 O           6.6520    5.1130    8.6430 O.2       1 PRO        -0.3944
     10 CB          3.9140    4.4540    9.6040 C.3       1 PRO        -0.0104
     11 CG          2.9990    5.5930    9.9040 C.3       1 PRO        -0.0281
     12 CD          3.8850    6.7460   10.2700 C.3       1 PRO         0.0371
     13 N           7.2390    3.4960   10.0940 N.am      1 SER        -0.2616
     14 CA          8.4780    3.1710    9.3980 C.3       1 SER         0.1539
     15 C           8.3630    1.8390    8.6760 C.2       1 SER         0.2062
     16 O           8.0770    0.8080    9.2850 O.2       1 SER        -0.3943
     17 CB          9.6490    3.1370   10.3790 C.3       1 SER         0.0843
     18 OG         10.5690    4.1800   10.1110 O.3       1 SER        -0.3903
     19 N           8.5820    1.8750    7.3690 N.am      1 ILE        -0.2634
     20 CA          8.4990    0.6790    6.5500 C.3       1 ILE         0.1335
     21 C           9.8570    0.3250    5.9470 C.2       1 ILE         0.2042
     22 O          10.5840    1.1940    5.4630 O.2       1 ILE        -0.3944
     23 CB          7.4390    0.8510    5.4350 C.3       1 ILE        -0.0037
     24 CG1         6.2620   -0.0940    5.6890 C.3       1 ILE        -0.0491
     25 CG2         8.0350    0.6270    4.0490 C.3       1 ILE        -0.0582
     26 CD1         6.5410   -1.5420    5.3380 C.3       1 ILE        -0.0648
     27 N          10.1860   -0.9610    5.9820 N.am      1 ASP        -0.2622
     28 CA         11.4490   -1.4490    5.4400 C.3       1 ASP         0.1423
     29 C          11.2110   -2.2380    4.1570 C.2       1 ASP         0.2056
     30 O          10.4270   -3.1860    4.1370 O.2       1 ASP        -0.3943
     31 CB         12.1670   -2.3250    6.4690 C.3       1 ASP         0.0406
     32 CG         11.6790   -2.0770    7.8830 C.2       1 ASP         0.0393
     33 OD1        11.7370   -0.9140    8.3360 O.co2     1 ASP        -0.5688
     34 OD2        11.2390   -3.0450    8.5370 O.co2     1 ASP        -0.5688
     35 N          11.8860   -1.8370    3.0860 N.am      1 ARG        -0.2636
     36 CA         11.7430   -2.5030    1.7950 C.3       1 ARG         0.1311
     37 C          12.4600   -3.8500    1.7840 C.2       1 ARG         0.2040
     38 O          12.3720   -4.6020    0.8130 O.2       1 ARG        -0.3944
     39 CB         12.2880   -1.6120    0.6770 C.3       1 ARG        -0.0092
     40 CG         11.8740   -0.1540    0.8050 C.3       1 ARG        -0.0156
     41 CD         11.9330    0.5630   -0.5350 C.3       1 ARG         0.0627
     42 NE         13.1160    0.1910   -1.3060 N.pl3     1 ARG        -0.2723
     43 CZ         14.3510    0.5770   -0.9990 C.cat     1 ARG         0.2882
     44 NH1        14.5670    1.3440    0.0630 N.pl3     1 ARG        -0.2849
     45 NH2        15.3730    0.1970   -1.7520 N.pl3     1 ARG        -0.2849
     46 N          13.1760   -4.1460    2.8640 N.am      1 SER        -0.2616
     47 CA         13.9140   -5.4000    2.9730 C.3       1 SER         0.1539
     48 C          12.9820   -6.5750    3.2640 C.2       1 SER         0.2063
     49 O          13.4360   -7.7060    3.4390 O.2       1 SER        -0.3943
     50 CB         14.9760   -5.2950    4.0680 C.3       1 SER         0.0843
     51 OG         14.3900   -4.9740    5.3180 O.3       1 SER        -0.3903
     52 N          11.6810   -6.3040    3.3170 N.am      1 THR        -0.2613
     53 CA         10.6960   -7.3460    3.5890 C.3       1 THR         0.1565
     54 C           9.5710   -7.3340    2.5540 C.2       1 THR         0.2065
     55 O           8.4510   -7.7650    2.8330 O.2       1 THR        -0.3943
     56 CB         10.0980   -7.1950    5.0020 C.3       1 THR         0.0924
     57 OG1         9.2050   -8.2820    5.2780 O.3       1 THR        -0.3874
     58 CG2         9.3570   -5.8750    5.1400 C.3       1 THR        -0.0346
     59 N           9.8790   -6.8420    1.3570 N.am      1 LYS        -0.2636
     60 CA          8.9010   -6.7750    0.2740 C.3       1 LYS         0.1312
     61 C           8.3200   -8.1590   -0.0240 C.2       1 LYS         0.2064
     62 O           8.9150   -9.1740    0.3390 O.2       1 LYS        -0.3942
     63 CB          9.5550   -6.2040   -0.9860 C.3       1 LYS        -0.0122
     64 CG          9.2420   -4.7350   -1.2240 C.3       1 LYS        -0.0440
     65 CD         10.4970   -3.9410   -1.5530 C.3       1 LYS        -0.0124
     66 CE         11.0070   -4.2550   -2.9510 C.3       1 LYS        -0.0354
     67 NZ         12.3800   -3.7230   -3.1740 N.4       1 LYS         0.2185
     68 N           7.1430   -8.2210   -0.6870 N.am      1 PRO        -0.2498
     69 CA          6.4930   -9.4920   -1.0250 C.3       1 PRO         0.1337
     70 C           7.4610  -10.5030   -1.6270 C.2       1 PRO         0.2035
     71 O           7.7820  -10.4430   -2.8140 O.2       1 PRO        -0.3944
     72 CB          5.4430   -9.0850   -2.0550 C.3       1 PRO        -0.0104
     73 CG          5.0910   -7.6850   -1.6920 C.3       1 PRO        -0.0281
     74 CD          6.3540   -7.0630   -1.1570 C.3       1 PRO         0.0369
     75 N           7.9220  -11.4310   -0.7970 N.am      1 ALA        -0.2697
     76 CA          8.8530  -12.4590   -1.2400 C.3       1 ALA         0.0916
     77 C           8.5150  -13.8090   -0.6170 C.2       1 ALA         0.0598
     78 O           7.6000  -13.8540    0.2320 O.co2     1 ALA        -0.5666
     79 CB         10.2810  -12.0610   -0.9000 C.3       1 ALA        -0.0300
     80 OXT         9.1680  -14.8090   -0.9810 O.co2     1 ALA        -0.5666
     81 H1          4.8588    9.1884   13.7204 H         1 ALA         0.2015
     82 H2          5.6166    7.8037   14.1869 H         1 ALA         0.2015
     83 H3          4.1252    7.7324   13.4942 H         1 ALA         0.2015
     84 H4          4.9519    8.5469   11.4152 H         1 ALA         0.1095
     85 H5          7.3981    8.7984   11.1274 H         1 ALA         0.0310
     86 H6          7.6312    8.4767   12.8792 H         1 ALA         0.0310
     87 H7          6.7448    9.9452   12.3458 H         1 ALA         0.0310
     88 H8          5.1602    4.0127   11.3418 H         1 PRO         0.0802
     89 H9          3.4361    3.4983    9.8654 H         1 PRO         0.0313
     90 H10         4.1845    4.4492    8.5378 H         1 PRO         0.0313
     91 H11         2.3347    5.3394   10.7433 H         1 PRO         0.0287
     92 H12         2.3940    5.8411    9.0195 H         1 PRO         0.0287
     93 H13         4.1966    7.3064    9.3762 H         1 PRO         0.0524
     94 H14         3.3812    7.4264   10.9723 H         1 PRO         0.0524
     95 H15         6.9974    2.9909   10.9226 H         1 SER         0.1884
     96 H16         8.6711    3.9552    8.6512 H         1 SER         0.0823
     97 H17        10.1657    2.1701   10.2884 H         1 SER         0.0606
     98 H18         9.2635    3.2523   11.4028 H         1 SER         0.0606
     99 H19        11.2855    4.1364   10.7333 H         1 SER         0.2097
    100 H20         8.8100    2.7474    6.9365 H         1 ILE         0.1883
    101 H21         8.1851   -0.1543    7.1958 H         1 ILE         0.0803
    102 H22         7.0647    1.8845    5.4768 H         1 ILE         0.0345
    103 H23         5.4081    0.2487    5.0862 H         1 ILE         0.0267
    104 H24         6.0018   -0.0418    6.7565 H         1 ILE         0.0267
    105 H25         8.8766    1.3185    3.8957 H         1 ILE         0.0235
    106 H26         7.2655    0.8109    3.2848 H         1 ILE         0.0235
    107 H27         8.3929   -0.4099    3.9669 H         1 ILE         0.0235
    108 H28         5.6485   -2.1491    5.5497 H         1 ILE         0.0230
    109 H29         7.3853   -1.9091    5.9400 H         1 ILE         0.0230
    110 H30         6.7916   -1.6186    4.2697 H         1 ILE         0.0230
    111 H31         9.5492   -1.6140    6.3920 H         1 ASP         0.1884
    112 H32        12.0877   -0.5842    5.2073 H         1 ASP         0.0819
    113 H33        13.2448   -2.1099    6.4249 H         1 ASP         0.0478
    114 H34        11.9932   -3.3813    6.2159 H         1 ASP         0.0478
    115 H35        12.5085   -1.0585    3.1660 H         1 ARG         0.1883
    116 H36        10.6725   -2.6785    1.6131 H         1 ARG         0.0800
    117 H37        11.9179   -1.9955   -0.2852 H         1 ARG         0.0313
    118 H38        13.3866   -1.6645    0.6946 H         1 ARG         0.0313
    119 H39        12.5522    0.3494    1.5096 H         1 ARG         0.0301
    120 H40        10.8447   -0.1074    1.1900 H         1 ARG         0.0301
    121 H41        11.9533    1.6481   -0.3560 H         1 ARG         0.0689
    122 H42        11.0354    0.3038   -1.1157 H         1 ARG         0.0689
    123 H43        12.9863   -0.4051   -2.1359 H         1 ARG         0.2642
    124 H44        15.5250    1.6409    0.2976 H         1 ARG         0.2615
    125 H45        13.7766    1.6421    0.6523 H         1 ARG         0.2615
    126 H46        15.2116   -0.3980   -2.5771 H         1 ARG         0.2615
    127 H47        16.3288    0.4966   -1.5122 H         1 ARG         0.2615
    128 H48        13.2097   -3.4930    3.6206 H         1 SER         0.1884
    129 H49        14.4177   -5.5878    2.0133 H         1 SER         0.0823
    130 H50        15.6958   -4.5088    3.7962 H         1 SER         0.0606
    131 H51        15.5001   -6.2583    4.1538 H         1 SER         0.0606
    132 H52        15.0696   -4.9149    5.9792 H         1 SER         0.2097
    133 H53        11.3708   -5.3652    3.1671 H         1 THR         0.1884
    134 H54        11.2069   -8.3185    3.5321 H         1 THR         0.0826
    135 H55        10.9189   -7.2157    5.7339 H         1 THR         0.0639
    136 H56         8.5015   -8.2823    4.6396 H         1 THR         0.2101
    137 H57         8.9410   -5.7924    6.1550 H         1 THR         0.0257
    138 H58         8.5401   -5.8344    4.4045 H         1 THR         0.0257
    139 H59        10.0537   -5.0429    4.9605 H         1 THR         0.0257
    140 H60        10.8074   -6.5082    1.1938 H         1 LYS         0.1883
    141 H61         8.0817   -6.1087    0.5816 H         1 LYS         0.0800
    142 H62         9.1998   -6.7798   -1.8533 H         1 LYS         0.0312
    143 H63        10.6453   -6.3162   -0.8929 H         1 LYS         0.0312
    144 H64         8.7825   -4.3164   -0.3165 H         1 LYS         0.0269
    145 H65         8.5367   -4.6519   -2.0640 H         1 LYS         0.0269
    146 H66        11.2801   -4.1920   -0.8225 H         1 LYS         0.0317
    147 H67        10.2671   -2.8672   -1.4897 H         1 LYS         0.0317
    148 H68        10.3266   -3.8029   -3.6876 H         1 LYS         0.0813
    149 H69        11.0221   -5.3464   -3.0872 H         1 LYS         0.0813
    150 H70        12.6809   -3.9510   -4.1086 H         1 LYS         0.1994
    151 H71        13.0129   -4.1362   -2.5071 H         1 LYS         0.1994
    152 H72        12.3755   -2.7218   -3.0573 H         1 LYS         0.1994
    153 H73         6.0207   -9.9318   -0.1342 H         1 PRO         0.0802
    154 H74         4.5600   -9.7377   -1.9895 H         1 PRO         0.0313
    155 H75         5.8580   -9.1305   -3.0727 H         1 PRO         0.0313
    156 H76         4.3052   -7.6761   -0.9223 H         1 PRO         0.0287
    157 H77         4.7415   -7.1367   -2.5793 H         1 PRO         0.0287
    158 H78         6.8894   -6.5191   -1.9492 H         1 PRO         0.0524
    159 H79         6.1319   -6.3766   -0.3266 H         1 PRO         0.0524
    160 H80         7.6221  -11.4237    0.1569 H         1 ALA         0.1875
    161 H81         8.7693  -12.5527   -2.3328 H         1 ALA         0.0723
    162 H82        10.9715  -12.8466   -1.2405 H         1 ALA         0.0270
    163 H83        10.3772  -11.9349    0.1885 H         1 ALA         0.0270
    164 H84        10.5271  -11.1137   -1.4021 H         1 ALA         0.0270
@<TRIPOS>BOND
     1    1    2 1  
     2    2    3 1  
     3    2    5 1  
     4    3    4 2  
     5    3    6 am 
     6    6    7 1  
     7    6   12 1  
     8    7    8 1  
     9    7   10 1  
    10    8    9 2  
    11    8   13 am 
    12   10   11 1  
    13   11   12 1  
    14   13   14 1  
    15   14   15 1  
    16   14   17 1  
    17   15   16 2  
    18   15   19 am 
    19   17   18 1  
    20   19   20 1  
    21   20   21 1  
    22   20   23 1  
    23   21   22 2  
    24   21   27 am 
    25   23   24 1  
    26   23   25 1  
    27   24   26 1  
    28   27   28 1  
    29   28   29 1  
    30   28   31 1  
    31   29   30 2  
    32   29   35 am 
    33   31   32 1  
    34   32   33 ar 
    35   32   34 ar 
    36   35   36 1  
    37   36   37 1  
    38   36   39 1  
    39   37   38 2  
    40   37   46 am 
    41   39   40 1  
    42   40   41 1  
    43   41   42 1  
    44   42   43 ar 
    45   43   44 ar 
    46   43   45 ar 
    47   46   47 1  
    48   47   48 1  
    49   47   50 1  
    50   48   49 2  
    51   48   52 am 
    52   50   51 1  
    53   52   53 1  
    54   53   54 1  
    55   53   56 1  
    56   54   55 2  
    57   54   59 am 
    58   56   57 1  
    59   56   58 1  
    60   59   60 1  
    61   60   61 1  
    62   60   63 1  
    63   61   62 2  
    64   61   68 am 
    65   63   64 1  
    66   64   65 1  
    67   65   66 1  
    68   66   67 1  
    69   68   69 1  
    70   68   74 1  
    71   69   70 1  
    72   69   72 1  
    73   70   71 2  
    74   70   75 am 
    75   72   73 1  
    76   73   74 1  
    77   75   76 1  
    78   76   77 1  
    79   76   79 1  
    80   77   78 ar 
    81   77   80 ar 
    82    1   81 1  
    83    1   82 1  
    84    1   83 1  
    85    2   84 1  
    86    5   85 1  
    87    5   86 1  
    88    5   87 1  
    89    7   88 1  
    90   10   89 1  
    91   10   90 1  
    92   11   91 1  
    93   11   92 1  
    94   12   93 1  
    95   12   94 1  
    96   13   95 1  
    97   14   96 1  
    98   17   97 1  
    99   17   98 1  
   100   18   99 1  
   101   19  100 1  
   102   20  101 1  
   103   23  102 1  
   104   24  103 1  
   105   24  104 1  
   106   25  105 1  
   107   25  106 1  
   108   25  107 1  
   109   26  108 1  
   110   26  109 1  
   111   26  110 1  
   112   27  111 1  
   113   28  112 1  
   114   31  113 1  
   115   31  114 1  
   116   35  115 1  
   117   36  116 1  
   118   39  117 1  
   119   39  118 1  
   120   40  119 1  
   121   40  120 1  
   122   41  121 1  
   123   41  122 1  
   124   42  123 1  
   125   44  124 1  
   126   44  125 1  
   127   45  126 1  
   128   45  127 1  
   129   46  128 1  
   130   47  129 1  
   131   50  130 1  
   132   50  131 1  
   133   51  132 1  
   134   52  133 1  
   135   53  134 1  
   136   56  135 1  
   137   57  136 1  
   138   58  137 1  
   139   58  138 1  
   140   58  139 1  
   141   59  140 1  
   142   60  141 1  
   143   63  142 1  
   144   63  143 1  
   145   64  144 1  
   146   64  145 1  
   147   65  146 1  
   148   65  147 1  
   149   66  148 1  
   150   66  149 1  
   151   67  150 1  
   152   67  151 1  
   153   67  152 1  
   154   69  153 1  
   155   72  154 1  
   156   72  155 1  
   157   73  156 1  
   158   73  157 1  
   159   74  158 1  
   160   74  159 1  
   161   75  160 1  
   162   76  161 1  
   163   79  162 1  
   164   79  163 1  
   165   79  164 1  
@<TRIPOS>SUBSTRUCTURE
     1 ALA         1

