1xd0_ligand
  -I-interpret- 

111115  0  0  0  0  0  0  0  0999 V2000
    1.4990   15.2830   39.9810 C   0  0  0  0  0
    1.7360   14.4730   41.2850 C   0  0  0  0  0
    2.8470   15.1330   42.1100 C   0  0  0  0  0
    4.1450   15.1590   41.2630 C   0  0  0  0  0
    3.8690   16.0010   39.9310 C   0  0  0  0  0
    5.0250   16.0560   39.0830 C   0  0  0  0  0
    1.0110   16.5880   40.2450 O   0  0  0  0  0
    0.5310   14.4360   42.0170 O   0  0  0  0  0
    3.0420   14.3630   43.2750 O   0  0  0  0  0
    5.1770   15.7810   42.0270 O   0  0  0  0  0
    2.7620   15.3660   39.2060 O   0  0  0  0  0
    5.4900   14.7640   38.7090 O   0  0  0  0  0
    6.3460   15.0380   42.1380 C   0  0  0  0  0
    6.7830   14.7670   43.5730 C   0  0  0  0  0
    7.2650   16.0330   44.2760 C   0  0  0  0  0
    8.4410   16.6330   43.4730 C   0  0  0  0  0
    7.8960   16.9650   42.0380 C   0  0  0  0  0
    8.9960   17.5740   41.1820 C   0  0  0  0  0
    5.7110   14.1610   44.2600 O   0  0  0  0  0
    7.6830   15.6810   45.5740 O   0  0  0  0  0
    8.9290   17.8600   44.1410 N   0  3  0  0  0
    7.4160   15.7130   41.4230 O   0  0  0  0  0
   13.6330   18.0350   41.1340 C   0  0  0  0  0
   13.2100   18.2760   39.6680 C   0  0  0  0  0
   13.2780   16.9780   38.8070 C   0  0  0  0  0
   14.7010   16.4170   38.8570 C   0  0  0  0  0
   14.9600   16.0640   40.3840 C   0  0  0  0  0
   16.3410   15.4730   40.6470 C   0  0  0  0  0
   11.8810   18.7640   39.6400 O   0  0  0  0  0
   12.9040   17.3330   37.4740 O   0  0  0  0  0
   14.7840   15.2540   38.0830 O   0  0  0  0  0
   14.8600   17.2630   41.1910 O   0  0  0  0  0
   17.3460   16.2700   40.0630 O   0  0  0  0  0
   15.8970   15.3190   37.1780 C   0  0  0  0  0
   15.4670   15.2840   35.6920 C   0  0  0  0  0
   14.7940   13.9180   35.3950 C   0  0  0  0  0
   15.8400   12.8210   35.6610 C   0  0  0  0  0
   16.2660   12.8880   37.1790 C   0  0  0  0  0
   17.3330   11.8210   37.4960 C   0  0  0  0  0
   14.5770   16.3530   35.4730 O   0  0  0  0  0
   14.4120   13.8800   34.0400 O   0  0  0  0  0
   15.2690   11.5510   35.3920 O   0  0  0  0  0
   16.8230   14.2050   37.4430 O   0  0  0  0  0
   16.8560   10.5230   37.2650 O   0  0  0  0  0
   10.1150   17.8030   45.1170 C   0  0  0  0  0
   11.0300   19.0660   44.8730 C   0  0  0  0  0
   10.3090   20.2460   45.0130 O   0  0  0  0  0
   11.6710   18.9930   43.4160 C   0  0  0  0  0
   12.4870   20.1070   43.1700 O   0  0  0  0  0
   12.5080   17.6340   43.2070 C   0  0  0  0  0
   12.6100   17.3470   41.8170 O   0  0  0  0  0
   11.8090   16.4140   43.8090 C   0  0  0  0  0
   11.1210   16.6060   44.9550 C   0  0  0  0  0
   12.7550   15.1950   43.9820 C   0  0  0  0  0
   13.7880   15.4940   44.9500 O   0  0  0  0  0
    0.7393   14.7591   39.4009 H   0  0  0  0  0
    2.0462   13.4558   41.0459 H   0  0  0  0  0
    2.5801   16.1535   42.3846 H   0  0  0  0  0
    4.4515   14.1476   40.9963 H   0  0  0  0  0
    3.6200   17.0244   40.2116 H   0  0  0  0  0
    5.8228   16.5534   39.6346 H   0  0  0  0  0
    4.7493   16.5900   38.1736 H   0  0  0  0  0
    0.1945   16.5278   40.7462 H   0  0  0  0  0
   -0.1521   14.0202   41.4859 H   0  0  0  0  0
    2.2323   14.3543   43.7907 H   0  0  0  0  0
    6.2613   14.8538   38.1445 H   0  0  0  0  0
    6.1304   14.0636   41.6997 H   0  0  0  0  0
    7.6383   14.0913   43.5655 H   0  0  0  0  0
    6.4687   16.7747   44.3389 H   0  0  0  0  0
    9.2751   15.9340   43.4115 H   0  0  0  0  0
    7.0818   17.6861   42.1101 H   0  0  0  0  0
    9.3516   18.4924   41.6490 H   0  0  0  0  0
    9.8205   16.8664   41.0948 H   0  0  0  0  0
    8.6014   17.7980   40.1909 H   0  0  0  0  0
    5.9725   13.9843   45.1667 H   0  0  0  0  0
    7.9906   16.4656   46.0337 H   0  0  0  0  0
    8.1437   18.1586   44.7194 H   0  0  0  0  0
    9.2636   18.4450   43.3753 H   0  0  0  0  0
   13.8050   19.0008   41.6091 H   0  0  0  0  0
   13.9073   18.9990   39.2447 H   0  0  0  0  0
   12.6044   16.2075   39.1821 H   0  0  0  0  0
   15.4319   17.1264   38.4690 H   0  0  0  0  0
   14.2052   15.3218   40.6437 H   0  0  0  0  0
   16.3854   14.4754   40.2101 H   0  0  0  0  0
   16.5064   15.4318   41.7236 H   0  0  0  0  0
   11.6157   18.9146   38.7298 H   0  0  0  0  0
   12.9356   16.5528   36.9155 H   0  0  0  0  0
   18.2053   15.8804   40.2405 H   0  0  0  0  0
   16.3893   16.2757   37.3523 H   0  0  0  0  0
   16.3229   15.3912   35.0257 H   0  0  0  0  0
   13.9133   13.7709   36.0202 H   0  0  0  0  0
   16.7087   12.9709   35.0200 H   0  0  0  0  0
   15.3919   12.7021   37.8031 H   0  0  0  0  0
   17.5997   11.9056   38.5495 H   0  0  0  0  0
   18.1914   11.9913   36.8462 H   0  0  0  0  0
   14.2961   16.3511   34.5550 H   0  0  0  0  0
   13.9947   13.0366   33.8499 H   0  0  0  0  0
   15.9213   10.8665   35.5579 H   0  0  0  0  0
   17.5456    9.8882   37.4726 H   0  0  0  0  0
    9.6275   17.7206   46.0884 H   0  0  0  0  0
   11.8215   19.0625   45.6224 H   0  0  0  0  0
   10.8899   20.9947   44.8594 H   0  0  0  0  0
   10.8490   18.9980   42.7002 H   0  0  0  0  0
   12.8606   20.0401   42.2882 H   0  0  0  0  0
   13.4714   17.7990   43.6895 H   0  0  0  0  0
   11.0590   16.2056   43.0460 H   0  0  0  0  0
   10.4882   15.7217   45.0304 H   0  0  0  0  0
   11.8960   16.8153   45.6923 H   0  0  0  0  0
   13.2210   14.9675   43.0233 H   0  0  0  0  0
   12.1749   14.3415   44.3330 H   0  0  0  0  0
   14.3646   14.7325   45.0466 H   0  0  0  0  0
  2  1  1  0  0  0
  1  7  1  0  0  0
 11  1  1  0  0  0
  3  2  1  0  0  0
  2  8  1  0  0  0
  4  3  1  0  0  0
  3  9  1  0  0  0
  4  5  1  0  0  0
 10  4  1  0  0  0
  5  6  1  0  0  0
  5 11  1  0  0  0
  6 12  1  0  0  0
 13 10  1  0  0  0
 14 13  1  0  0  0
 22 13  1  0  0  0
 15 14  1  0  0  0
 14 19  1  0  0  0
 16 15  1  0  0  0
 15 20  1  0  0  0
 16 17  1  0  0  0
 21 16  1  0  0  0
 17 18  1  0  0  0
 17 22  1  0  0  0
 45 21  1  0  0  0
 23 24  1  0  0  0
 23 32  1  0  0  0
 51 23  1  0  0  0
 24 25  1  0  0  0
 24 29  1  0  0  0
 25 26  1  0  0  0
 25 30  1  0  0  0
 27 26  1  0  0  0
 26 31  1  0  0  0
 27 28  1  0  0  0
 32 27  1  0  0  0
 28 33  1  0  0  0
 31 34  1  0  0  0
 34 35  1  0  0  0
 34 43  1  0  0  0
 35 36  1  0  0  0
 35 40  1  0  0  0
 36 37  1  0  0  0
 36 41  1  0  0  0
 38 37  1  0  0  0
 37 42  1  0  0  0
 38 39  1  0  0  0
 43 38  1  0  0  0
 39 44  1  0  0  0
 46 45  1  0  0  0
 45 53  1  0  0  0
 46 47  1  0  0  0
 48 46  1  0  0  0
 48 49  1  0  0  0
 50 48  1  0  0  0
 50 51  1  0  0  0
 50 52  1  0  0  0
 52 53  1  0  0  0
 52 54  1  0  0  0
 54 55  1  0  0  0
  1 56  1  0  0  0
  2 57  1  0  0  0
  3 58  1  0  0  0
  4 59  1  0  0  0
  5 60  1  0  0  0
  6 61  1  0  0  0
  6 62  1  0  0  0
  7 63  1  0  0  0
  8 64  1  0  0  0
  9 65  1  0  0  0
 12 66  1  0  0  0
 13 67  1  0  0  0
 14 68  1  0  0  0
 15 69  1  0  0  0
 16 70  1  0  0  0
 17 71  1  0  0  0
 18 72  1  0  0  0
 18 73  1  0  0  0
 18 74  1  0  0  0
 19 75  1  0  0  0
 20 76  1  0  0  0
 21 77  1  0  0  0
 21 78  1  0  0  0
 23 79  1  0  0  0
 24 80  1  0  0  0
 25 81  1  0  0  0
 26 82  1  0  0  0
 27 83  1  0  0  0
 28 84  1  0  0  0
 28 85  1  0  0  0
 29 86  1  0  0  0
 30 87  1  0  0  0
 33 88  1  0  0  0
 34 89  1  0  0  0
 35 90  1  0  0  0
 36 91  1  0  0  0
 37 92  1  0  0  0
 38 93  1  0  0  0
 39 94  1  0  0  0
 39 95  1  0  0  0
 40 96  1  0  0  0
 41 97  1  0  0  0
 42 98  1  0  0  0
 44 99  1  0  0  0
 45100  1  0  0  0
 46101  1  0  0  0
 47102  1  0  0  0
 48103  1  0  0  0
 49104  1  0  0  0
 50105  1  0  0  0
 52106  1  0  0  0
 53107  1  0  0  0
 53108  1  0  0  0
 54109  1  0  0  0
 54110  1  0  0  0
 55111  1  0  0  0
M  END
$$$$
