2xx4_ligand
  -I-interpret- 

 52 53  0  0  0  0  0  0  0  0999 V2000
  -19.8690    4.6060   -4.6370 C   0  0  0  0  0
  -19.9290    5.5670   -3.5110 C   0  0  0  0  0
  -19.0490    5.3540   -2.3820 C   0  0  0  0  0
  -18.1010    4.1900   -2.3580 C   0  0  0  0  0
  -18.0410    3.2140   -3.4850 C   0  0  0  0  0
  -18.8970    3.4220   -4.6050 C   0  0  0  0  0
  -18.9320    2.4760   -5.7590 C   0  0  0  0  0
  -19.9260    1.7710   -5.9160 O   0  0  0  0  0
  -17.8310    2.4350   -6.6650 N   0  0  0  0  0
  -17.8690    1.6280   -7.8870 C   0  0  0  0  0
  -16.5480    1.5590   -8.6220 C   0  0  0  0  0
  -15.3470    1.1440   -7.8180 C   0  0  0  0  0
  -14.3570    2.0690   -7.4380 C   0  0  0  0  0
  -13.2240    1.6740   -6.4840 C   0  0  0  0  0
  -13.4270    0.4550   -5.6310 C   0  0  0  0  0
  -14.3810    0.5620   -4.4450 C   0  0  0  0  0
  -14.3050    1.8470   -3.6850 C   0  0  0  0  0
  -15.6050    2.6820   -3.6890 C   0  0  0  0  0
  -16.9860    2.1230   -3.4560 C   0  0  0  0  0
  -15.4790    3.8610   -3.9760 O   0  0  0  0  0
  -13.6250    1.8190   -2.3470 C   0  0  0  0  0
  -13.4100    2.9070   -1.7970 O   0  0  0  0  0
  -12.8610    0.8350   -2.0140 O   0  0  0  0  0
  -12.3450    0.8460   -0.6790 C   0  0  0  0  0
  -10.9580    1.3700   -0.4830 C   0  0  0  0  0
  -17.1330    3.9160   -0.9510 Cl  0  0  0  0  0
  -19.0420    6.2340   -1.3250 O   0  0  0  0  0
  -20.6540    4.7410   -5.7530 O   0  0  0  0  0
  -20.6175    6.4118   -3.5323 H   0  0  0  0  0
  -16.9955    2.9818   -6.4566 H   0  0  0  0  0
  -18.5887    2.0945   -8.5597 H   0  0  0  0  0
  -18.1290    0.6108   -7.5942 H   0  0  0  0  0
  -16.3429    2.5729   -8.9656 H   0  0  0  0  0
  -16.6722    0.7962   -9.3907 H   0  0  0  0  0
  -15.2406    0.1003   -7.5221 H   0  0  0  0  0
  -14.3965    3.0855   -7.8294 H   0  0  0  0  0
  -13.1249    2.5060   -5.7868 H   0  0  0  0  0
  -12.3702    1.4460   -7.1220 H   0  0  0  0  0
  -12.4503    0.2389   -5.1981 H   0  0  0  0  0
  -13.8696   -0.2902   -6.2920 H   0  0  0  0  0
  -14.1073   -0.2311   -3.7492 H   0  0  0  0  0
  -15.3916    0.4946   -4.8477 H   0  0  0  0  0
  -13.5926    2.3949   -4.3018 H   0  0  0  0  0
  -17.2071    1.4083   -4.2487 H   0  0  0  0  0
  -17.0056    1.6503   -2.4741 H   0  0  0  0  0
  -12.3125   -0.1979   -0.3670 H   0  0  0  0  0
  -12.9954    1.5164   -0.1172 H   0  0  0  0  0
  -10.2578    0.7659   -1.0599 H   0  0  0  0  0
  -10.9109    2.4052   -0.8210 H   0  0  0  0  0
  -10.6979    1.3195    0.5743 H   0  0  0  0  0
  -18.4037    5.9412   -0.6705 H   0  0  0  0  0
  -20.4679    4.0230   -6.3625 H   0  0  0  0  0
  1  2  4  0  0  0
  1  6  4  0  0  0
  1 28  1  0  0  0
  2  3  4  0  0  0
  3  4  4  0  0  0
  3 27  1  0  0  0
  4  5  4  0  0  0
  4 26  1  0  0  0
  5  6  4  0  0  0
  5 19  1  0  0  0
  6  7  1  0  0  0
  7  8  2  0  0  0
  7  9  1  0  0  0
  9 10  1  0  0  0
 10 11  1  0  0  0
 11 12  1  0  0  0
 12 13  2  0  0  0
 13 14  1  0  0  0
 14 15  1  0  0  0
 15 16  1  0  0  0
 16 17  1  0  0  0
 17 18  1  0  0  0
 17 21  1  0  0  0
 18 19  1  0  0  0
 18 20  2  0  0  0
 21 22  2  0  0  0
 21 23  1  0  0  0
 23 24  1  0  0  0
 24 25  1  0  0  0
  2 29  1  0  0  0
  9 30  1  0  0  0
 10 31  1  0  0  0
 10 32  1  0  0  0
 11 33  1  0  0  0
 11 34  1  0  0  0
 12 35  1  0  0  0
 13 36  1  0  0  0
 14 37  1  0  0  0
 14 38  1  0  0  0
 15 39  1  0  0  0
 15 40  1  0  0  0
 16 41  1  0  0  0
 16 42  1  0  0  0
 17 43  1  0  0  0
 19 44  1  0  0  0
 19 45  1  0  0  0
 24 46  1  0  0  0
 24 47  1  0  0  0
 25 48  1  0  0  0
 25 49  1  0  0  0
 25 50  1  0  0  0
 27 51  1  0  0  0
 28 52  1  0  0  0
M  END
$$$$
