2za3_ligand
  -I-interpret- 

 34 35  0  0  0  0  0  0  0  0999 V2000
  -38.9590  -21.8900   -6.6310 N   0  0  0  0  0
  -39.7930  -22.0870   -5.5310 C   0  0  0  0  0
  -41.1460  -22.0200   -5.6900 N   0  0  0  0  0
  -41.7050  -21.7590   -6.9150 C   0  0  0  0  0
  -40.8640  -21.5540   -8.0530 C   0  0  0  0  0
  -39.5100  -21.6240   -7.8860 C   0  0  0  0  0
  -39.3460  -22.3240   -4.4220 O   0  0  0  0  0
  -42.9100  -21.7010   -7.0370 O   0  0  0  0  0
  -37.4880  -21.9510   -6.5360 C   0  0  0  0  0
  -36.8830  -20.5800   -6.1990 C   0  0  0  0  0
  -36.5120  -19.9260   -7.3940 O   0  0  0  0  0
  -35.6930  -20.9050   -5.3120 C   0  0  0  0  0
  -35.6920  -22.4210   -5.1210 C   0  0  0  0  0
  -34.4660  -20.4970   -5.9430 O   0  0  0  0  0
  -37.0160  -22.8630   -5.5140 O   0  0  0  0  0
  -35.4500  -22.7040   -3.6430 C   0  0  0  0  0
  -35.4160  -24.1020   -3.3720 O   0  0  0  0  0
  -35.1420  -24.2650   -1.7830 P   0  0  0  0  0
  -36.2410  -23.6430   -1.0140 O   0  0  0  0  0
  -35.0780  -25.8230   -1.4330 O   0  0  0  0  0
  -33.7440  -23.5750   -1.4000 O   0  0  0  0  0
  -41.7530  -22.1666   -4.8835 H   0  0  0  0  0
  -41.2940  -21.3463   -9.0328 H   0  0  0  0  0
  -38.8526  -21.4705   -8.7418 H   0  0  0  0  0
  -37.1710  -22.2989   -7.5192 H   0  0  0  0  0
  -37.5697  -19.9026   -5.6914 H   0  0  0  0  0
  -36.1337  -19.0690   -7.1843 H   0  0  0  0  0
  -35.7675  -20.3800   -4.3597 H   0  0  0  0  0
  -34.9249  -22.9308   -5.7039 H   0  0  0  0  0
  -33.7263  -20.7098   -5.3693 H   0  0  0  0  0
  -36.2667  -22.2634   -3.0711 H   0  0  0  0  0
  -34.4863  -22.2772   -3.3653 H   0  0  0  0  0
  -34.3658  -26.2324   -1.9297 H   0  0  0  0  0
  -33.0373  -23.9852   -1.9039 H   0  0  0  0  0
  1  2  1  0  0  0
  1  6  1  0  0  0
  1  9  1  0  0  0
  2  3  1  0  0  0
  2  7  2  0  0  0
  3  4  1  0  0  0
  4  5  1  0  0  0
  4  8  2  0  0  0
  5  6  2  0  0  0
  9 10  1  0  0  0
  9 15  1  0  0  0
 10 11  1  0  0  0
 10 12  1  0  0  0
 12 13  1  0  0  0
 12 14  1  0  0  0
 13 15  1  0  0  0
 13 16  1  0  0  0
 16 17  1  0  0  0
 17 18  1  0  0  0
 18 19  2  0  0  0
 18 20  1  0  0  0
 18 21  1  0  0  0
  3 22  1  0  0  0
  5 23  1  0  0  0
  6 24  1  0  0  0
  9 25  1  0  0  0
 10 26  1  0  0  0
 11 27  1  0  0  0
 12 28  1  0  0  0
 13 29  1  0  0  0
 14 30  1  0  0  0
 16 31  1  0  0  0
 16 32  1  0  0  0
 20 33  1  0  0  0
 21 34  1  0  0  0
M  END
$$$$
