### 
### Created by X-TOOL on Mon Sep 10 21:12:56 2018
### 

@<TRIPOS>MOLECULE
2za3_ligand
   32    33     1     0     0
SMALL
GAST_HUCK


@<TRIPOS>ATOM
      1 N1        -38.9590  -21.8900   -6.6310 N.am      1 U5P        -0.1592
      2 C2        -39.7930  -22.0870   -5.5310 C.2       1 U5P         0.3328
      3 N3        -41.1460  -22.0200   -5.6900 N.am      1 U5P        -0.1865
      4 C4        -41.7050  -21.7590   -6.9150 C.2       1 U5P         0.1822
      5 C5        -40.8640  -21.5540   -8.0530 C.2       1 U5P         0.0062
      6 C6        -39.5100  -21.6240   -7.8860 C.2       1 U5P         0.0591
      7 O2        -39.3460  -22.3240   -4.4220 O.2       1 U5P        -0.3815
      8 O4        -42.9100  -21.7010   -7.0370 O.2       1 U5P        -0.4124
      9 C1'       -37.4880  -21.9510   -6.5360 C.3       1 U5P         0.2059
     10 C2'       -36.8830  -20.5800   -6.1990 C.3       1 U5P         0.1387
     11 O2'       -36.5120  -19.9260   -7.3940 O.3       1 U5P        -0.3836
     12 C3'       -35.6930  -20.9050   -5.3120 C.3       1 U5P         0.1149
     13 C4'       -35.6920  -22.4210   -5.1210 C.3       1 U5P         0.1182
     14 O3'       -34.4660  -20.4970   -5.9430 O.3       1 U5P        -0.3864
     15 O4'       -37.0160  -22.8630   -5.5140 O.3       1 U5P        -0.3363
     16 C5'       -35.4500  -22.7040   -3.6430 C.3       1 U5P         0.1072
     17 O5'       -35.4160  -24.1020   -3.3720 O.3       1 U5P        -0.2734
     18 P         -35.1420  -24.2650   -1.7830 P.3       1 U5P         0.2008
     19 O1P       -36.2410  -23.6430   -1.0140 O.co2     1 U5P        -0.5537
     20 O2P       -35.0780  -25.8230   -1.4330 O.co2     1 U5P        -0.5537
     21 O3P       -33.7440  -23.5750   -1.4000 O.co2     1 U5P        -0.5537
     22 H1        -41.7411  -22.1637   -4.8993 H         1 U5P         0.2259
     23 H2        -41.2937  -21.3465   -9.0319 H         1 U5P         0.0258
     24 H3        -38.8532  -21.4707   -8.7410 H         1 U5P         0.1178
     25 H4        -37.1038  -22.2837   -7.5115 H         1 U5P         0.0997
     26 H5        -37.6049  -19.9550   -5.6530 H         1 U5P         0.0676
     27 H6        -35.8699  -20.4524   -7.8556 H         1 U5P         0.2101
     28 H7        -35.7941  -20.3974   -4.3414 H         1 U5P         0.0648
     29 H8        -34.9185  -22.9038   -5.7363 H         1 U5P         0.0650
     30 H9        -33.7312  -20.7461   -5.3948 H         1 U5P         0.2100
     31 H10       -36.2598  -22.2468   -3.0554 H         1 U5P         0.0639
     32 H11       -34.4875  -22.2605   -3.3482 H         1 U5P         0.0639
@<TRIPOS>BOND
     1    1    2 am 
     2    1    6 1  
     3    1    9 1  
     4    2    3 am 
     5    2    7 2  
     6    3    4 am 
     7    4    5 1  
     8    4    8 2  
     9    5    6 2  
    10    9   10 1  
    11    9   15 1  
    12   10   11 1  
    13   10   12 1  
    14   12   13 1  
    15   12   14 1  
    16   13   15 1  
    17   13   16 1  
    18   16   17 1  
    19   17   18 1  
    20   18   19 ar 
    21   18   20 ar 
    22   18   21 ar 
    23    3   22 1  
    24    5   23 1  
    25    6   24 1  
    26    9   25 1  
    27   10   26 1  
    28   11   27 1  
    29   12   28 1  
    30   13   29 1  
    31   14   30 1  
    32   16   31 1  
    33   16   32 1  
@<TRIPOS>SUBSTRUCTURE
     1 U5P         1

