5ceh_ligand
  -I-interpret- 

 35 37  0  0  0  0  0  0  0  0999 V2000
  128.7810  369.3110  115.5250 C   0  0  0  0  0
  129.3700  368.2490  114.8500 C   0  0  0  0  0
  129.6840  369.6550  112.9220 C   0  0  0  0  0
  130.0530  370.1310  111.6540 C   0  0  0  0  0
  129.5960  371.4570  111.6220 C   0  0  0  0  0
  128.6270  370.6240  114.8920 C   0  0  0  0  0
  126.6570  369.3810  116.9110 C   0  0  0  0  0
  128.7950  370.2170  117.9140 C   0  0  0  0  0
  128.1810  369.2310  116.9190 C   0  0  0  0  0
  129.8080  368.4460  113.5520 N   0  0  0  0  0
  129.0220  371.8180  112.7590 N   0  0  0  0  0
  129.0940  370.7030  113.5660 N   0  0  0  0  0
  128.1660  371.6130  115.4540 O   0  0  0  0  0
  130.8410  369.4290  110.6700 C   0  0  0  0  0
  131.4860  368.8380  109.9270 N   0  0  0  0  0
  129.6490  366.8870  115.3690 C   0  0  0  0  0
  128.6570  366.1530  116.0220 C   0  0  0  0  0
  128.9220  364.8740  116.4750 C   0  0  0  0  0
  130.1520  364.3020  116.2830 C   0  0  0  0  0
  131.1390  365.0100  115.6370 C   0  0  0  0  0
  130.8910  366.2940  115.1850 C   0  0  0  0  0
  129.7015  372.1149  110.7594 H   0  0  0  0  0
  126.2678  369.1761  117.9083 H   0  0  0  0  0
  126.3948  370.3979  116.6191 H   0  0  0  0  0
  126.2275  368.6754  116.1999 H   0  0  0  0  0
  128.5345  371.2346  117.6229 H   0  0  0  0  0
  128.4074  370.0127  118.9121 H   0  0  0  0  0
  129.8791  370.1039  117.9136 H   0  0  0  0  0
  128.4320  368.2274  117.2622 H   0  0  0  0  0
  130.2356  367.6677  113.0502 H   0  0  0  0  0
  127.6702  366.5899  116.1752 H   0  0  0  0  0
  128.1426  364.3137  116.9914 H   0  0  0  0  0
  130.3476  363.2910  116.6403 H   0  0  0  0  0
  132.1187  364.5584  115.4809 H   0  0  0  0  0
  131.6812  366.8474  114.6777 H   0  0  0  0  0
  2  1  2  0  0  0
  1  6  1  0  0  0
  1  9  1  0  0  0
 10  2  1  0  0  0
  2 16  1  0  0  0
  3  4  4  0  0  0
  3 10  1  0  0  0
  3 12  4  0  0  0
  4  5  4  0  0  0
  4 14  1  0  0  0
  5 11  4  0  0  0
  6 12  1  0  0  0
  6 13  2  0  0  0
  9  7  1  0  0  0
  9  8  1  0  0  0
 11 12  4  0  0  0
 14 15  3  0  0  0
 16 17  4  0  0  0
 16 21  4  0  0  0
 17 18  4  0  0  0
 18 19  4  0  0  0
 19 20  4  0  0  0
 20 21  4  0  0  0
  5 22  1  0  0  0
  7 23  1  0  0  0
  7 24  1  0  0  0
  7 25  1  0  0  0
  8 26  1  0  0  0
  8 27  1  0  0  0
  8 28  1  0  0  0
  9 29  1  0  0  0
 10 30  1  0  0  0
 17 31  1  0  0  0
 18 32  1  0  0  0
 19 33  1  0  0  0
 20 34  1  0  0  0
 21 35  1  0  0  0
M  END
$$$$
