4ajw_ligand
  -I-interpret- 

 43 46  0  0  0  0  0  0  0  0999 V2000
   10.0720   -4.2050    8.7630 C   0  0  0  0  0
    9.5460   -3.3900    7.7280 N   0  0  0  0  0
    8.6860   -2.2470    8.0620 C   0  0  0  0  0
    7.8220   -1.8920    6.8790 C   0  0  0  0  0
    8.6020   -1.6330    5.7170 O   0  0  0  0  0
    9.3590   -2.7900    5.3750 C   0  0  0  0  0
   10.3000   -3.1830    6.4840 C   0  0  0  0  0
   11.1580   -4.9550    8.4310 N   0  0  0  0  0
   11.6940   -5.7390    9.3690 C   0  0  0  0  0
   11.1950   -5.8280   10.6730 N   0  0  0  0  0
   10.0940   -5.0920   11.0700 C   0  0  0  0  0
    9.5290   -4.2560   10.0560 C   0  0  0  0  0
    9.6800   -5.1950   12.2330 O   0  0  0  0  0
   12.5470   -7.6900    8.0860 C   0  0  0  0  0
   12.9060   -6.5740    9.0080 C   0  0  0  0  0
   13.2910   -8.0030    6.9430 N   0  0  0  0  0
   11.5160   -8.4820    8.2700 N   0  0  0  0  0
   11.5640   -9.3780    7.2030 C   0  0  0  0  0
   12.6490   -9.1000    6.3760 C   0  0  0  0  0
   12.9270   -9.8550    5.2450 C   0  0  0  0  0
   12.0810  -10.9190    4.9510 C   0  0  0  0  0
   10.9910  -11.2100    5.7670 C   0  0  0  0  0
   10.7210  -10.4450    6.8970 C   0  0  0  0  0
   14.4910   -7.3780    6.3890 C   0  0  0  0  0
    9.3097   -1.3915    8.3212 H   0  0  0  0  0
    8.0489   -2.5110    8.9061 H   0  0  0  0  0
    7.2589   -0.9911    7.1227 H   0  0  0  0  0
    7.1629   -2.7346    6.6697 H   0  0  0  0  0
    9.9483   -2.5662    4.4857 H   0  0  0  0  0
    8.6683   -3.6149    5.2002 H   0  0  0  0  0
   10.8090   -4.1081    6.2134 H   0  0  0  0  0
   11.0312   -2.3887    6.6341 H   0  0  0  0  0
   11.6517   -6.4470   11.3428 H   0  0  0  0  0
    8.6578   -3.6453   10.2928 H   0  0  0  0  0
   13.3158   -7.0010    9.9233 H   0  0  0  0  0
   13.6304   -5.9320    8.5068 H   0  0  0  0  0
   13.7803   -9.6217    4.6082 H   0  0  0  0  0
   12.2736  -11.5326    4.0710 H   0  0  0  0  0
   10.3407  -12.0483    5.5171 H   0  0  0  0  0
    9.8655  -10.6758    7.5318 H   0  0  0  0  0
   14.2809   -6.3341    6.1562 H   0  0  0  0  0
   15.2982   -7.4334    7.1194 H   0  0  0  0  0
   14.7854   -7.9022    5.4798 H   0  0  0  0  0
  1  2  1  0  0  0
  1  8  1  0  0  0
  1 12  2  0  0  0
  2  3  1  0  0  0
  2  7  1  0  0  0
  3  4  1  0  0  0
  4  5  1  0  0  0
  5  6  1  0  0  0
  6  7  1  0  0  0
  8  9  2  0  0  0
  9 10  1  0  0  0
  9 15  1  0  0  0
 10 11  1  0  0  0
 11 12  1  0  0  0
 11 13  2  0  0  0
 15 14  1  0  0  0
 14 16  4  0  0  0
 14 17  4  0  0  0
 16 19  4  0  0  0
 16 24  1  0  0  0
 17 18  4  0  0  0
 18 19  4  0  0  0
 18 23  4  0  0  0
 19 20  4  0  0  0
 20 21  4  0  0  0
 21 22  4  0  0  0
 22 23  4  0  0  0
  3 25  1  0  0  0
  3 26  1  0  0  0
  4 27  1  0  0  0
  4 28  1  0  0  0
  6 29  1  0  0  0
  6 30  1  0  0  0
  7 31  1  0  0  0
  7 32  1  0  0  0
 10 33  1  0  0  0
 12 34  1  0  0  0
 15 35  1  0  0  0
 15 36  1  0  0  0
 20 37  1  0  0  0
 21 38  1  0  0  0
 22 39  1  0  0  0
 23 40  1  0  0  0
 24 41  1  0  0  0
 24 42  1  0  0  0
 24 43  1  0  0  0
M  END
$$$$
