### 
### Created by X-TOOL on Mon Sep 10 21:12:46 2018
### 

@<TRIPOS>MOLECULE
1nlo_ligand
  178   184     1     0     0
SMALL
GAST_HUCK


@<TRIPOS>ATOM
      1 C          66.8050   -3.2890   -3.6890 C.2       1 ACE         0.1773
      2 O          67.1800   -3.6330   -2.5860 O.2       1 ACE        -0.3970
      3 CH3        67.3830   -3.9560   -4.9420 C.3       1 ACE         0.0260
      4 H1         66.9235   -3.5134   -5.8381 H         1 ACE         0.0467
      5 H2         67.1691   -5.0346   -4.9150 H         1 ACE         0.0467
      6 H3         68.4713   -3.7987   -4.9723 H         1 ACE         0.0467
      7 C1         61.7850   -3.7760   -1.4090 C.ar      1 MN7         0.0431
      8 C          60.6390   -4.4570   -0.9740 C.2       1 MN7         0.2042
      9 O1         59.9520   -4.9310   -1.8560 O.2       1 MN7        -0.3875
     10 C2         62.9660   -4.4800   -1.6690 C.ar      1 MN7        -0.0484
     11 C3         64.1110   -3.7940   -2.0950 C.ar      1 MN7        -0.0525
     12 C4         64.0720   -2.4040   -2.2600 C.ar      1 MN7        -0.0160
     13 C5         62.8910   -1.7000   -2.0010 C.ar      1 MN7        -0.0525
     14 C6         61.7480   -2.3860   -1.5750 C.ar      1 MN7        -0.0484
     15 C7         65.3060   -1.6590   -2.7130 C.3       1 MN7         0.0696
     16 N8         65.9060   -2.3490   -3.8880 N.am      1 MN7        -0.2612
     17 C9         65.4770   -1.9590   -5.2700 C.3       1 MN7         0.0385
     18 C10        66.0660   -0.5900   -5.6470 C.3       1 MN7        -0.0261
     19 C11        64.9350    0.4340   -5.7560 C.3       1 MN7        -0.0608
     20 C12        67.0630   -0.1240   -4.5790 C.3       1 MN7        -0.0608
     21 H4         62.9950   -5.5560   -1.5408 H         1 MN7         0.0652
     22 H5         65.0262   -4.3388   -2.2967 H         1 MN7         0.0570
     23 H6         62.8613   -0.6241   -2.1302 H         1 MN7         0.0570
     24 H7         60.8330   -1.8408   -1.3733 H         1 MN7         0.0652
     25 H8         66.0380   -1.6310   -1.8924 H         1 MN7         0.0696
     26 H9         65.0304   -0.6318   -2.9938 H         1 MN7         0.0696
     27 H10        64.3790   -1.9038   -5.3068 H         1 MN7         0.0527
     28 H11        65.8303   -2.7153   -5.9863 H         1 MN7         0.0527
     29 H12        66.5823   -0.6716   -6.6149 H         1 MN7         0.0315
     30 H13        65.3533    1.4150   -6.0257 H         1 MN7         0.0233
     31 H14        64.4150    0.5103   -4.7897 H         1 MN7         0.0233
     32 H15        64.2234    0.1132   -6.5310 H         1 MN7         0.0233
     33 H16        67.8796   -0.8563   -4.4953 H         1 MN7         0.0233
     34 H17        66.5487   -0.0361   -3.6106 H         1 MN7         0.0233
     35 H18        67.4760    0.8546   -4.8650 H         1 MN7         0.0233
     36 C1         59.5250   -6.5880    1.3630 C.ar      1 MN2        -0.0275
     37 C2         59.8510   -7.6690    0.5380 C.ar      1 MN2        -0.0647
     38 C3         60.2030   -8.8990    1.1040 C.ar      1 MN2        -0.0617
     39 C4         60.2280   -9.0480    2.4950 C.ar      1 MN2        -0.0054
     40 C5         59.9010   -7.9660    3.3210 C.ar      1 MN2        -0.0617
     41 C6         59.5500   -6.7350    2.7540 C.ar      1 MN2        -0.0647
     42 C7         59.1420   -5.2640    0.7510 C.3       1 MN2         0.0640
     43 N8         60.3670   -4.5460    0.3040 N.am      1 MN2        -0.2609
     44 C9         61.2830   -3.9390    1.3120 C.3       1 MN2         0.0520
     45 C10        62.4240   -4.9150    1.6110 C.3       1 MN2         0.0579
     46 C          63.1400   -4.4920    2.8970 C.2       1 MN2         0.1804
     47 O1         62.9320   -5.0870    3.9350 O.2       1 MN2        -0.3968
     48 C11        60.6100  -10.3750    3.1060 C.3       1 MN2        -0.0046
     49 N12        59.3930  -11.0400    3.6510 N.4       1 MN2         0.2299
     50 H19        59.8310   -7.5540   -0.5397 H         1 MN2         0.0540
     51 H20        60.4565   -9.7369    0.4647 H         1 MN2         0.0542
     52 H21        59.9196   -8.0812    4.3987 H         1 MN2         0.0542
     53 H22        59.2977   -5.8961    3.3925 H         1 MN2         0.0540
     54 H23        58.6132   -4.6547    1.4987 H         1 MN2         0.0672
     55 H24        58.4837   -5.4371   -0.1131 H         1 MN2         0.0672
     56 H25        60.7254   -3.7310    2.2371 H         1 MN2         0.0548
     57 H26        61.6969   -3.0006    0.9145 H         1 MN2         0.0548
     58 H27        63.1391   -4.9089    0.7752 H         1 MN2         0.0522
     59 H28        62.0151   -5.9285    1.7364 H         1 MN2         0.0522
     60 H29        61.3326  -10.2099    3.9188 H         1 MN2         0.0965
     61 H30        61.0642  -11.0160    2.3360 H         1 MN2         0.0965
     62 H31        59.6483  -11.9258    4.0588 H         1 MN2         0.2007
     63 H32        58.7308  -11.1914    2.9063 H         1 MN2         0.2007
     64 H33        58.9767  -10.4528    4.3566 H         1 MN2         0.2007
     65 N1         63.9670   -3.4750    2.8000 N.am      1 MN1        -0.2729
     66 C2         64.1990   -2.7650    1.5040 C.3       1 MN1         0.0362
     67 C3         63.9800   -1.2680    1.7300 C.3       1 MN1        -0.0127
     68 C4         64.8950   -0.8010    2.8660 C.3       1 MN1         0.0526
     69 C          64.7700    0.7160    3.0410 C.2       1 MN1         0.1839
     70 O1         64.0240    1.1820    3.8790 O.2       1 MN1        -0.3964
     71 C5         64.4660   -1.5000    4.1580 C.3       1 MN1        -0.0127
     72 C6         64.7000   -3.0040    4.0060 C.3       1 MN1         0.0362
     73 H34        63.4922   -3.1339    0.7461 H         1 MN1         0.0524
     74 H35        65.2292   -2.9426    1.1619 H         1 MN1         0.0524
     75 H36        62.9300   -1.0849    2.0021 H         1 MN1         0.0312
     76 H37        64.2220   -0.7159    0.8099 H         1 MN1         0.0312
     77 H38        65.9382   -1.0596    2.6320 H         1 MN1         0.0539
     78 H39        63.3990   -1.3090    4.3450 H         1 MN1         0.0312
     79 H40        65.0603   -1.1168    5.0006 H         1 MN1         0.0312
     80 H41        65.7755   -3.2023    3.8878 H         1 MN1         0.0524
     81 H42        64.3259   -3.5298    4.8968 H         1 MN1         0.0524
     82 N          65.5130    1.4400    2.2410 N.am      1 PRO        -0.2515
     83 CA         65.5220    2.9130    2.2820 C.3       1 PRO         0.1337
     84 C          64.2640    3.4800    1.6160 C.2       1 PRO         0.2041
     85 O          64.1900    3.6030    0.4100 O.2       1 PRO        -0.3944
     86 CB         66.7790    3.2860    1.4900 C.3       1 PRO        -0.0104
     87 CG         67.0970    2.0750    0.5810 C.3       1 PRO        -0.0281
     88 CD         66.4080    0.8550    1.2200 C.3       1 PRO         0.0369
     89 H43        65.5867    3.2786    3.3174 H         1 PRO         0.0802
     90 H44        67.6177    3.4779    2.1754 H         1 PRO         0.0313
     91 H45        66.5922    4.1816    0.8792 H         1 PRO         0.0313
     92 H46        68.1839    1.9137    0.5295 H         1 PRO         0.0287
     93 H47        66.7033    2.2464   -0.4317 H         1 PRO         0.0287
     94 H48        65.8308    0.2950    0.4695 H         1 PRO         0.0524
     95 H49        67.1484    0.1880    1.6857 H         1 PRO         0.0524
     96 N          63.2790    3.8340    2.3960 N.am      1 LEU        -0.2637
     97 CA         62.0310    4.4000    1.8120 C.3       1 LEU         0.1314
     98 C          62.3990    5.4640    0.7750 C.2       1 LEU         0.2064
     99 O          63.5010    5.9750    0.7820 O.2       1 LEU        -0.3942
    100 CB         61.1950    5.0370    2.9260 C.3       1 LEU        -0.0101
    101 CG         60.8610    3.9820    3.9820 C.3       1 LEU        -0.0425
    102 CD1        60.8560    4.6270    5.3690 C.3       1 LEU        -0.0625
    103 CD2        59.4810    3.3910    3.6910 C.3       1 LEU        -0.0625
    104 H50        63.3623    3.7251    3.3866 H         1 LEU         0.1883
    105 H51        61.4521    3.5989    1.3291 H         1 LEU         0.0800
    106 H52        60.2629    5.4378    2.5010 H         1 LEU         0.0315
    107 H53        61.7665    5.8534    3.3918 H         1 LEU         0.0315
    108 H54        61.6161    3.1826    3.9527 H         1 LEU         0.0298
    109 H55        60.6156    3.8662    6.1263 H         1 LEU         0.0232
    110 H56        60.1005    5.4259    5.3992 H         1 LEU         0.0232
    111 H57        61.8483    5.0526    5.5791 H         1 LEU         0.0232
    112 H58        59.4838    2.9269    2.6937 H         1 LEU         0.0232
    113 H59        58.7259    4.1903    3.7213 H         1 LEU         0.0232
    114 H60        59.2406    2.6305    4.4485 H         1 LEU         0.0232
    115 N          61.4640    5.7670   -0.0880 N.am      1 PRO        -0.2498
    116 CA         61.6620    6.7700   -1.1460 C.3       1 PRO         0.1340
    117 C          61.5280    8.1820   -0.5680 C.2       1 PRO         0.2066
    118 O          61.1670    8.3470    0.5810 O.2       1 PRO        -0.3942
    119 CB         60.5350    6.4700   -2.1400 C.3       1 PRO        -0.0104
    120 CG         59.4420    5.7160   -1.3470 C.3       1 PRO        -0.0281
    121 CD         60.1240    5.1410   -0.0910 C.3       1 PRO         0.0369
    122 H61        62.6473    6.6567   -1.6218 H         1 PRO         0.0802
    123 H62        60.9098    5.8424   -2.9619 H         1 PRO         0.0313
    124 H63        60.1296    7.4070   -2.5496 H         1 PRO         0.0313
    125 H64        59.0239    4.9021   -1.9576 H         1 PRO         0.0287
    126 H65        58.6374    6.4083   -1.0582 H         1 PRO         0.0287
    127 H66        59.5642    5.4128    0.8160 H         1 PRO         0.0524
    128 H67        60.2049    4.0460   -0.1576 H         1 PRO         0.0524
    129 N          61.8210    9.1570   -1.3860 N.am      1 PRO        -0.2498
    130 CA         61.7420   10.5740   -0.9900 C.3       1 PRO         0.1338
    131 C          60.2810   11.0210   -0.9380 C.2       1 PRO         0.2041
    132 O          59.5970   11.0550   -1.9410 O.2       1 PRO        -0.3944
    133 CB         62.5060   11.3000   -2.1010 C.3       1 PRO        -0.0104
    134 CG         62.4910   10.3570   -3.3270 C.3       1 PRO        -0.0281
    135 CD         62.2520    8.9380   -2.7810 C.3       1 PRO         0.0369
    136 H68        62.2162   10.7416   -0.0117 H         1 PRO         0.0802
    137 H69        63.5410   11.4973   -1.7851 H         1 PRO         0.0313
    138 H70        62.0098   12.2507   -2.3459 H         1 PRO         0.0313
    139 H71        63.4548   10.4041   -3.8550 H         1 PRO         0.0287
    140 H72        61.6815   10.6410   -4.0155 H         1 PRO         0.0287
    141 H73        61.4671    8.4253   -3.3563 H         1 PRO         0.0524
    142 H74        63.1781    8.3454   -2.8152 H         1 PRO         0.0524
    143 N          59.7910   11.3520    0.2260 N.am      1 LEU        -0.2637
    144 CA         58.3690   11.7790    0.3320 C.3       1 LEU         0.1314
    145 C          58.1260   13.0090   -0.5460 C.2       1 LEU         0.2064
    146 O          59.0310   13.7730   -0.8180 O.2       1 LEU        -0.3942
    147 CB         58.0230   12.1320    1.7870 C.3       1 LEU        -0.0101
    148 CG         57.8570   10.8690    2.6510 C.3       1 LEU        -0.0425
    149 CD1        56.9110   11.1730    3.8040 C.3       1 LEU        -0.0625
    150 CD2        57.2620    9.7200    1.8390 C.3       1 LEU        -0.0625
    151 H75        60.3680   11.3188    1.0421 H         1 LEU         0.1883
    152 H76        57.7213   10.9565   -0.0056 H         1 LEU         0.0800
    153 H77        57.0820   12.7015    1.8024 H         1 LEU         0.0315
    154 H78        58.8315   12.7483    2.2070 H         1 LEU         0.0315
    155 H79        58.8393   10.5682    3.0443 H         1 LEU         0.0298
    156 H80        56.7888   10.2733    4.4249 H         1 LEU         0.0232
    157 H81        55.9326   11.4786    3.4048 H         1 LEU         0.0232
    158 H82        57.3279   11.9867    4.4156 H         1 LEU         0.0232
    159 H83        57.9295    9.4814    0.9978 H         1 LEU         0.0232
    160 H84        56.2760   10.0166    1.4519 H         1 LEU         0.0232
    161 H85        57.1522    8.8346    2.4824 H         1 LEU         0.0232
    162 N          56.8910   13.1580   -0.9500 N.am      1 PRO        -0.2498
    163 CA         56.4480   14.2810   -1.7930 C.3       1 PRO         0.1334
    164 C          56.2720   15.5460   -0.9480 C.2       1 PRO         0.1994
    165 O          55.5990   15.5310    0.0640 O.2       1 PRO        -0.3947
    166 CB         55.1020   13.8000   -2.3450 C.3       1 PRO        -0.0104
    167 CG         54.5970   12.7130   -1.3820 C.3       1 PRO        -0.0281
    168 CD         55.8170   12.2070   -0.6010 C.3       1 PRO         0.0369
    169 H86        57.1631   14.4745   -2.6061 H         1 PRO         0.0802
    170 H87        55.2328   13.3823   -3.3542 H         1 PRO         0.0313
    171 H88        54.3871   14.6351   -2.3836 H         1 PRO         0.0313
    172 H89        54.1418   11.8874   -1.9487 H         1 PRO         0.0287
    173 H90        53.8540   13.1362   -0.6901 H         1 PRO         0.0287
    174 H91        55.6204   12.2207    0.4812 H         1 PRO         0.0524
    175 H92        56.0835   11.1862   -0.9124 H         1 PRO         0.0524
    176 N          56.8540   16.6520   -1.3240 N.am      1 NH2        -0.2990
    177 H93        56.7458   17.4839   -0.7798 H         1 NH2         0.1815
    178 H94        57.4081   16.6675   -2.1563 H         1 NH2         0.1815
@<TRIPOS>BOND
     1    1    2 2  
     2    1    3 1  
     3   16    1 am 
     4    3    4 1  
     5    3    5 1  
     6    3    6 1  
     7    8    7 1  
     8    7   10 ar 
     9    7   14 ar 
    10    8    9 2  
    11   43    8 am 
    12   10   11 ar 
    13   10   21 1  
    14   11   12 ar 
    15   11   22 1  
    16   13   12 ar 
    17   12   15 1  
    18   14   13 ar 
    19   13   23 1  
    20   14   24 1  
    21   15   16 1  
    22   15   25 1  
    23   15   26 1  
    24   16   17 1  
    25   17   18 1  
    26   17   27 1  
    27   17   28 1  
    28   18   19 1  
    29   18   20 1  
    30   18   29 1  
    31   19   30 1  
    32   19   31 1  
    33   19   32 1  
    34   20   33 1  
    35   20   34 1  
    36   20   35 1  
    37   36   37 ar 
    38   36   41 ar 
    39   42   36 1  
    40   37   38 ar 
    41   37   50 1  
    42   38   39 ar 
    43   38   51 1  
    44   40   39 ar 
    45   39   48 1  
    46   41   40 ar 
    47   40   52 1  
    48   41   53 1  
    49   42   43 1  
    50   42   54 1  
    51   42   55 1  
    52   43   44 1  
    53   44   45 1  
    54   44   56 1  
    55   44   57 1  
    56   45   46 1  
    57   45   58 1  
    58   45   59 1  
    59   46   47 2  
    60   46   65 am 
    61   48   49 1  
    62   48   60 1  
    63   48   61 1  
    64   49   62 1  
    65   49   63 1  
    66   49   64 1  
    67   65   66 1  
    68   65   72 1  
    69   66   67 1  
    70   66   73 1  
    71   66   74 1  
    72   67   68 1  
    73   67   75 1  
    74   67   76 1  
    75   68   69 1  
    76   68   71 1  
    77   68   77 1  
    78   69   70 2  
    79   69   82 am 
    80   71   72 1  
    81   71   78 1  
    82   71   79 1  
    83   72   80 1  
    84   72   81 1  
    85   82   83 1  
    86   82   88 1  
    87   83   84 1  
    88   83   86 1  
    89   83   89 1  
    90   84   85 2  
    91   84   96 am 
    92   86   87 1  
    93   86   90 1  
    94   86   91 1  
    95   87   88 1  
    96   87   92 1  
    97   87   93 1  
    98   88   94 1  
    99   88   95 1  
   100   96   97 1  
   101   96  104 1  
   102   97   98 1  
   103   97  100 1  
   104   97  105 1  
   105   98   99 2  
   106   98  115 am 
   107  100  101 1  
   108  100  106 1  
   109  100  107 1  
   110  101  102 1  
   111  101  103 1  
   112  101  108 1  
   113  102  109 1  
   114  102  110 1  
   115  102  111 1  
   116  103  112 1  
   117  103  113 1  
   118  103  114 1  
   119  115  116 1  
   120  115  121 1  
   121  116  117 1  
   122  116  119 1  
   123  116  122 1  
   124  117  118 2  
   125  117  129 am 
   126  119  120 1  
   127  119  123 1  
   128  119  124 1  
   129  120  121 1  
   130  120  125 1  
   131  120  126 1  
   132  121  127 1  
   133  121  128 1  
   134  129  130 1  
   135  129  135 1  
   136  130  131 1  
   137  130  133 1  
   138  130  136 1  
   139  131  132 2  
   140  131  143 am 
   141  133  134 1  
   142  133  137 1  
   143  133  138 1  
   144  134  135 1  
   145  134  139 1  
   146  134  140 1  
   147  135  141 1  
   148  135  142 1  
   149  143  144 1  
   150  143  151 1  
   151  144  145 1  
   152  144  147 1  
   153  144  152 1  
   154  145  146 2  
   155  145  162 am 
   156  147  148 1  
   157  147  153 1  
   158  147  154 1  
   159  148  149 1  
   160  148  150 1  
   161  148  155 1  
   162  149  156 1  
   163  149  157 1  
   164  149  158 1  
   165  150  159 1  
   166  150  160 1  
   167  150  161 1  
   168  162  163 1  
   169  162  168 1  
   170  163  164 1  
   171  163  166 1  
   172  163  169 1  
   173  164  165 2  
   174  164  176 am 
   175  166  167 1  
   176  166  170 1  
   177  166  171 1  
   178  167  168 1  
   179  167  172 1  
   180  167  173 1  
   181  168  174 1  
   182  168  175 1  
   183  176  177 1  
   184  176  178 1  
@<TRIPOS>SUBSTRUCTURE
     1 ACE         1

