1nlo_ligand
  -I-interpret- 

178184  0  0  0  0  0  0  0  0999 V2000
   66.8050   -3.2890   -3.6890 C   0  0  0  0  0
   67.1800   -3.6330   -2.5860 O   0  0  0  0  0
   67.3830   -3.9560   -4.9420 C   0  0  0  0  0
   61.7850   -3.7760   -1.4090 C   0  0  0  0  0
   60.6390   -4.4570   -0.9740 C   0  0  0  0  0
   59.9520   -4.9310   -1.8560 O   0  0  0  0  0
   62.9660   -4.4800   -1.6690 C   0  0  0  0  0
   64.1110   -3.7940   -2.0950 C   0  0  0  0  0
   64.0720   -2.4040   -2.2600 C   0  0  0  0  0
   62.8910   -1.7000   -2.0010 C   0  0  0  0  0
   61.7480   -2.3860   -1.5750 C   0  0  0  0  0
   65.3060   -1.6590   -2.7130 C   0  0  0  0  0
   65.9060   -2.3490   -3.8880 N   0  0  0  0  0
   65.4770   -1.9590   -5.2700 C   0  0  0  0  0
   66.0660   -0.5900   -5.6470 C   0  0  0  0  0
   64.9350    0.4340   -5.7560 C   0  0  0  0  0
   67.0630   -0.1240   -4.5790 C   0  0  0  0  0
   59.5250   -6.5880    1.3630 C   0  0  0  0  0
   59.8510   -7.6690    0.5380 C   0  0  0  0  0
   60.2030   -8.8990    1.1040 C   0  0  0  0  0
   60.2280   -9.0480    2.4950 C   0  0  0  0  0
   59.9010   -7.9660    3.3210 C   0  0  0  0  0
   59.5500   -6.7350    2.7540 C   0  0  0  0  0
   59.1420   -5.2640    0.7510 C   0  0  0  0  0
   60.3670   -4.5460    0.3040 N   0  0  0  0  0
   61.2830   -3.9390    1.3120 C   0  0  0  0  0
   62.4240   -4.9150    1.6110 C   0  0  0  0  0
   63.1400   -4.4920    2.8970 C   0  0  0  0  0
   62.9320   -5.0870    3.9350 O   0  0  0  0  0
   60.6100  -10.3750    3.1060 C   0  0  0  0  0
   59.3930  -11.0400    3.6510 N   0  3  0  0  0
   63.9670   -3.4750    2.8000 N   0  0  0  0  0
   64.1990   -2.7650    1.5040 C   0  0  0  0  0
   63.9800   -1.2680    1.7300 C   0  0  0  0  0
   64.8950   -0.8010    2.8660 C   0  0  0  0  0
   64.7700    0.7160    3.0410 C   0  0  0  0  0
   64.0240    1.1820    3.8790 O   0  0  0  0  0
   64.4660   -1.5000    4.1580 C   0  0  0  0  0
   64.7000   -3.0040    4.0060 C   0  0  0  0  0
   65.5130    1.4400    2.2410 N   0  0  0  0  0
   65.5220    2.9130    2.2820 C   0  0  0  0  0
   64.2640    3.4800    1.6160 C   0  0  0  0  0
   64.1900    3.6030    0.4100 O   0  0  0  0  0
   66.7790    3.2860    1.4900 C   0  0  0  0  0
   67.0970    2.0750    0.5810 C   0  0  0  0  0
   66.4080    0.8550    1.2200 C   0  0  0  0  0
   63.2790    3.8340    2.3960 N   0  0  0  0  0
   62.0310    4.4000    1.8120 C   0  0  0  0  0
   62.3990    5.4640    0.7750 C   0  0  0  0  0
   63.5010    5.9750    0.7820 O   0  0  0  0  0
   61.1950    5.0370    2.9260 C   0  0  0  0  0
   60.8610    3.9820    3.9820 C   0  0  0  0  0
   60.8560    4.6270    5.3690 C   0  0  0  0  0
   59.4810    3.3910    3.6910 C   0  0  0  0  0
   61.4640    5.7670   -0.0880 N   0  0  0  0  0
   61.6620    6.7700   -1.1460 C   0  0  0  0  0
   61.5280    8.1820   -0.5680 C   0  0  0  0  0
   61.1670    8.3470    0.5810 O   0  0  0  0  0
   60.5350    6.4700   -2.1400 C   0  0  0  0  0
   59.4420    5.7160   -1.3470 C   0  0  0  0  0
   60.1240    5.1410   -0.0910 C   0  0  0  0  0
   61.8210    9.1570   -1.3860 N   0  0  0  0  0
   61.7420   10.5740   -0.9900 C   0  0  0  0  0
   60.2810   11.0210   -0.9380 C   0  0  0  0  0
   59.5970   11.0550   -1.9410 O   0  0  0  0  0
   62.5060   11.3000   -2.1010 C   0  0  0  0  0
   62.4910   10.3570   -3.3270 C   0  0  0  0  0
   62.2520    8.9380   -2.7810 C   0  0  0  0  0
   59.7910   11.3520    0.2260 N   0  0  0  0  0
   58.3690   11.7790    0.3320 C   0  0  0  0  0
   58.1260   13.0090   -0.5460 C   0  0  0  0  0
   59.0310   13.7730   -0.8180 O   0  0  0  0  0
   58.0230   12.1320    1.7870 C   0  0  0  0  0
   57.8570   10.8690    2.6510 C   0  0  0  0  0
   56.9110   11.1730    3.8040 C   0  0  0  0  0
   57.2620    9.7200    1.8390 C   0  0  0  0  0
   56.8910   13.1580   -0.9500 N   0  0  0  0  0
   56.4480   14.2810   -1.7930 C   0  0  0  0  0
   56.2720   15.5460   -0.9480 C   0  0  0  0  0
   55.5990   15.5310    0.0640 O   0  0  0  0  0
   55.1020   13.8000   -2.3450 C   0  0  0  0  0
   54.5970   12.7130   -1.3820 C   0  0  0  0  0
   55.8170   12.2070   -0.6010 C   0  0  0  0  0
   56.8540   16.6520   -1.3240 N   0  0  0  0  0
   68.4613   -3.7994   -4.9708 H   0  0  0  0  0
   67.1704   -5.0247   -4.9140 H   0  0  0  0  0
   66.9269   -3.5166   -5.8291 H   0  0  0  0  0
   62.9952   -5.5620   -1.5401 H   0  0  0  0  0
   65.0313   -4.3418   -2.2978 H   0  0  0  0  0
   62.8612   -0.6182   -2.1309 H   0  0  0  0  0
   60.8280   -1.8378   -1.3722 H   0  0  0  0  0
   66.0314   -1.6335   -1.8998 H   0  0  0  0  0
   65.0315   -0.6419   -2.9927 H   0  0  0  0  0
   64.3891   -1.8982   -5.3004 H   0  0  0  0  0
   65.8352   -2.7068   -5.9775 H   0  0  0  0  0
   66.5842   -0.6808   -6.6016 H   0  0  0  0  0
   64.2306    0.1150   -6.5242 H   0  0  0  0  0
   64.4206    0.5086   -4.7979 H   0  0  0  0  0
   65.3507    1.4055   -6.0233 H   0  0  0  0  0
   66.5526   -0.0393   -3.6196 H   0  0  0  0  0
   67.8727   -0.8493   -4.4985 H   0  0  0  0  0
   67.4699    0.8467   -4.8625 H   0  0  0  0  0
   59.8309   -7.5533   -0.5457 H   0  0  0  0  0
   60.4579   -9.7415    0.4611 H   0  0  0  0  0
   59.9197   -8.0819    4.4047 H   0  0  0  0  0
   59.2963   -5.8915    3.3961 H   0  0  0  0  0
   58.6193   -4.6603    1.4929 H   0  0  0  0  0
   58.4909   -5.4365   -0.1060 H   0  0  0  0  0
   60.7308   -3.7312    2.2285 H   0  0  0  0  0
   61.6924   -3.0082    0.9194 H   0  0  0  0  0
   63.1329   -4.9073    0.7830 H   0  0  0  0  0
   62.0179   -5.9187    1.7365 H   0  0  0  0  0
   61.3260  -10.2113    3.9114 H   0  0  0  0  0
   61.0600  -11.0101    2.3429 H   0  0  0  0  0
   59.6525  -11.9361    4.0633 H   0  0  0  0  0
   58.9727  -10.4449    4.3648 H   0  0  0  0  0
   58.7237  -11.1926    2.8966 H   0  0  0  0  0
   63.5071   -3.1338    0.7468 H   0  0  0  0  0
   65.2160   -2.9455    1.1558 H   0  0  0  0  0
   62.9389   -1.0829    1.9946 H   0  0  0  0  0
   64.2138   -0.7188    0.8180 H   0  0  0  0  0
   65.9306   -1.0476    2.6320 H   0  0  0  0  0
   63.4102   -1.3079    4.3488 H   0  0  0  0  0
   65.0495   -1.1182    4.9958 H   0  0  0  0  0
   65.7655   -3.2061    3.8969 H   0  0  0  0  0
   64.3382   -3.5286    4.8903 H   0  0  0  0  0
   65.5288    3.3126    3.2961 H   0  0  0  0  0
   67.6124    3.5035    2.1581 H   0  0  0  0  0
   66.6161    4.1871    0.8987 H   0  0  0  0  0
   68.1728    1.9184    0.5021 H   0  0  0  0  0
   66.7329    2.2420   -0.4327 H   0  0  0  0  0
   65.8636    0.2588    0.4877 H   0  0  0  0  0
   67.1246    0.1564    1.6518 H   0  0  0  0  0
   63.3640    3.7229    3.4064 H   0  0  0  0  0
   61.4545    3.6083    1.3334 H   0  0  0  0  0
   60.2713    5.4336    2.5047 H   0  0  0  0  0
   61.7618    5.8455    3.3877 H   0  0  0  0  0
   61.6107    3.1913    3.9536 H   0  0  0  0  0
   61.8397    5.0484    5.5759 H   0  0  0  0  0
   60.1070    5.4184    5.3976 H   0  0  0  0  0
   60.6177    3.8722    6.1184 H   0  0  0  0  0
   58.7341    4.1844    3.7193 H   0  0  0  0  0
   59.4856    2.9296    2.7035 H   0  0  0  0  0
   59.2431    2.6392    4.4435 H   0  0  0  0  0
   62.6485    6.7243   -1.6074 H   0  0  0  0  0
   60.8984    5.8687   -2.9733 H   0  0  0  0  0
   60.1402    7.3893   -2.5726 H   0  0  0  0  0
   59.0037    4.9205   -1.9497 H   0  0  0  0  0
   58.6274    6.3869   -1.0741 H   0  0  0  0  0
   59.5648    5.3612    0.8183 H   0  0  0  0  0
   60.1782    4.0526   -0.1139 H   0  0  0  0  0
   62.1567   10.7748   -0.0022 H   0  0  0  0  0
   63.5269   11.5248   -1.7921 H   0  0  0  0  0
   62.0395   12.2565   -2.3367 H   0  0  0  0  0
   63.4320   10.4121   -3.8743 H   0  0  0  0  0
   61.7087   10.6423   -4.0303 H   0  0  0  0  0
   61.5077    8.3929   -3.3616 H   0  0  0  0  0
   63.1452    8.3164   -2.8436 H   0  0  0  0  0
   60.3795   11.3182    1.0584 H   0  0  0  0  0
   57.7382   10.9550   -0.0014 H   0  0  0  0  0
   57.0813   12.6809    1.7941 H   0  0  0  0  0
   58.8368   12.7279    2.2001 H   0  0  0  0  0
   58.8414   10.5768    3.0165 H   0  0  0  0  0
   57.3252   11.9794    4.4092 H   0  0  0  0  0
   55.9420   11.4757    3.4071 H   0  0  0  0  0
   56.7907   10.2808    4.4185 H   0  0  0  0  0
   56.2835   10.0138    1.4591 H   0  0  0  0  0
   57.9224    9.4869    1.0038 H   0  0  0  0  0
   57.1570    8.8423    2.4768 H   0  0  0  0  0
   57.1593   14.5384   -2.5778 H   0  0  0  0  0
   55.2136   13.4049   -3.3547 H   0  0  0  0  0
   54.3909   14.6235   -2.4106 H   0  0  0  0  0
   54.1250   11.8986   -1.9316 H   0  0  0  0  0
   53.8444   13.1162   -0.7045 H   0  0  0  0  0
   55.6321   12.1716    0.4726 H   0  0  0  0  0
   56.0756   11.1808   -0.8622 H   0  0  0  0  0
   56.7434   17.5007   -0.7691 H   0  0  0  0  0
   57.4194   16.6677   -2.1728 H   0  0  0  0  0
  1  2  2  0  0  0
  1  3  1  0  0  0
 13  1  1  0  0  0
  5  4  1  0  0  0
  4  7  4  0  0  0
  4 11  4  0  0  0
  5  6  2  0  0  0
 25  5  1  0  0  0
  7  8  4  0  0  0
  8  9  4  0  0  0
 10  9  4  0  0  0
  9 12  1  0  0  0
 11 10  4  0  0  0
 12 13  1  0  0  0
 13 14  1  0  0  0
 14 15  1  0  0  0
 15 16  1  0  0  0
 15 17  1  0  0  0
 18 19  4  0  0  0
 18 23  4  0  0  0
 24 18  1  0  0  0
 19 20  4  0  0  0
 20 21  4  0  0  0
 22 21  4  0  0  0
 21 30  1  0  0  0
 23 22  4  0  0  0
 24 25  1  0  0  0
 25 26  1  0  0  0
 26 27  1  0  0  0
 27 28  1  0  0  0
 28 29  2  0  0  0
 28 32  1  0  0  0
 30 31  1  0  0  0
 32 33  1  0  0  0
 32 39  1  0  0  0
 33 34  1  0  0  0
 34 35  1  0  0  0
 35 36  1  0  0  0
 35 38  1  0  0  0
 36 37  2  0  0  0
 36 40  1  0  0  0
 38 39  1  0  0  0
 40 41  1  0  0  0
 40 46  1  0  0  0
 41 42  1  0  0  0
 41 44  1  0  0  0
 42 43  2  0  0  0
 42 47  1  0  0  0
 44 45  1  0  0  0
 45 46  1  0  0  0
 47 48  1  0  0  0
 48 49  1  0  0  0
 48 51  1  0  0  0
 49 50  2  0  0  0
 49 55  1  0  0  0
 51 52  1  0  0  0
 52 53  1  0  0  0
 52 54  1  0  0  0
 55 56  1  0  0  0
 55 61  1  0  0  0
 56 57  1  0  0  0
 56 59  1  0  0  0
 57 58  2  0  0  0
 57 62  1  0  0  0
 59 60  1  0  0  0
 60 61  1  0  0  0
 62 63  1  0  0  0
 62 68  1  0  0  0
 63 64  1  0  0  0
 63 66  1  0  0  0
 64 65  2  0  0  0
 64 69  1  0  0  0
 66 67  1  0  0  0
 67 68  1  0  0  0
 69 70  1  0  0  0
 70 71  1  0  0  0
 70 73  1  0  0  0
 71 72  2  0  0  0
 71 77  1  0  0  0
 73 74  1  0  0  0
 74 75  1  0  0  0
 74 76  1  0  0  0
 77 78  1  0  0  0
 77 83  1  0  0  0
 78 79  1  0  0  0
 78 81  1  0  0  0
 79 80  2  0  0  0
 79 84  1  0  0  0
 81 82  1  0  0  0
 82 83  1  0  0  0
  3 85  1  0  0  0
  3 86  1  0  0  0
  3 87  1  0  0  0
  7 88  1  0  0  0
  8 89  1  0  0  0
 10 90  1  0  0  0
 11 91  1  0  0  0
 12 92  1  0  0  0
 12 93  1  0  0  0
 14 94  1  0  0  0
 14 95  1  0  0  0
 15 96  1  0  0  0
 16 97  1  0  0  0
 16 98  1  0  0  0
 16 99  1  0  0  0
 17100  1  0  0  0
 17101  1  0  0  0
 17102  1  0  0  0
 19103  1  0  0  0
 20104  1  0  0  0
 22105  1  0  0  0
 23106  1  0  0  0
 24107  1  0  0  0
 24108  1  0  0  0
 26109  1  0  0  0
 26110  1  0  0  0
 27111  1  0  0  0
 27112  1  0  0  0
 30113  1  0  0  0
 30114  1  0  0  0
 31115  1  0  0  0
 31116  1  0  0  0
 31117  1  0  0  0
 33118  1  0  0  0
 33119  1  0  0  0
 34120  1  0  0  0
 34121  1  0  0  0
 35122  1  0  0  0
 38123  1  0  0  0
 38124  1  0  0  0
 39125  1  0  0  0
 39126  1  0  0  0
 41127  1  0  0  0
 44128  1  0  0  0
 44129  1  0  0  0
 45130  1  0  0  0
 45131  1  0  0  0
 46132  1  0  0  0
 46133  1  0  0  0
 47134  1  0  0  0
 48135  1  0  0  0
 51136  1  0  0  0
 51137  1  0  0  0
 52138  1  0  0  0
 53139  1  0  0  0
 53140  1  0  0  0
 53141  1  0  0  0
 54142  1  0  0  0
 54143  1  0  0  0
 54144  1  0  0  0
 56145  1  0  0  0
 59146  1  0  0  0
 59147  1  0  0  0
 60148  1  0  0  0
 60149  1  0  0  0
 61150  1  0  0  0
 61151  1  0  0  0
 63152  1  0  0  0
 66153  1  0  0  0
 66154  1  0  0  0
 67155  1  0  0  0
 67156  1  0  0  0
 68157  1  0  0  0
 68158  1  0  0  0
 69159  1  0  0  0
 70160  1  0  0  0
 73161  1  0  0  0
 73162  1  0  0  0
 74163  1  0  0  0
 75164  1  0  0  0
 75165  1  0  0  0
 75166  1  0  0  0
 76167  1  0  0  0
 76168  1  0  0  0
 76169  1  0  0  0
 78170  1  0  0  0
 81171  1  0  0  0
 81172  1  0  0  0
 82173  1  0  0  0
 82174  1  0  0  0
 83175  1  0  0  0
 83176  1  0  0  0
 84177  1  0  0  0
 84178  1  0  0  0
M  END
$$$$
