4ww6_ligand
  -I-interpret- 

 27 27  0  0  0  0  0  0  0  0999 V2000
   14.9050    7.4260   15.2380 F   0  0  0  0  0
   15.4290    6.1970   15.0370 C   0  0  0  0  0
   15.1010    5.1840   15.8730 C   0  0  0  0  0
   14.2800    5.5020   16.9350 F   0  0  0  0  0
   16.2090    5.9850   13.9610 C   0  0  0  0  0
   16.5400    7.2800   12.8200 S   0  0  0  0  0
   18.3100    7.2730   12.6630 C   0  0  0  0  0
   18.9590    7.5280   13.9370 C   0  0  0  0  0
   18.8340    8.8930   14.4850 C   0  0  0  0  0
   16.7080    4.6930   13.8160 C   0  0  0  0  0
   17.4830    4.3880   12.7960 F   0  0  0  0  0
   16.3710    3.6640   14.7090 C   0  0  0  0  0
   16.8910    2.4770   14.4410 F   0  0  0  0  0
   15.5610    3.9270   15.7690 C   0  0  0  0  0
   15.0950    2.6600   16.8920 S   0  0  0  0  0
   13.6660    2.7270   16.8200 O   0  0  0  0  0
   15.7440    2.9680   18.1330 O   0  0  0  0  0
   15.5830    1.3030   16.3230 N   0  0  0  0  0
   18.5976    8.0598   11.9657 H   0  0  0  0  0
   18.6210    6.2905   12.3079 H   0  0  0  0  0
   20.0240    7.3694   13.7678 H   0  0  0  0  0
   18.4733    6.8701   14.6577 H   0  0  0  0  0
   19.2679    9.6058   13.7838 H   0  0  0  0  0
   17.7804    9.1269   14.6374 H   0  0  0  0  0
   19.3617    8.9507   15.4370 H   0  0  0  0  0
   14.9071    0.6241   15.9728 H   0  0  0  0  0
   16.5800    1.0890   16.2988 H   0  0  0  0  0
  1  2  1  0  0  0
  2  3  4  0  0  0
  2  5  4  0  0  0
  3  4  1  0  0  0
  3 14  4  0  0  0
  5  6  1  0  0  0
  5 10  4  0  0  0
  6  7  1  0  0  0
  7  8  1  0  0  0
  8  9  1  0  0  0
 10 11  1  0  0  0
 10 12  4  0  0  0
 12 13  1  0  0  0
 12 14  4  0  0  0
 14 15  1  0  0  0
 15 16  2  0  0  0
 15 17  2  0  0  0
 15 18  1  0  0  0
  7 19  1  0  0  0
  7 20  1  0  0  0
  8 21  1  0  0  0
  8 22  1  0  0  0
  9 23  1  0  0  0
  9 24  1  0  0  0
  9 25  1  0  0  0
 18 26  1  0  0  0
 18 27  1  0  0  0
M  END
$$$$
