5fgk_ligand
  -I-interpret- 

 48 52  0  0  0  0  0  0  0  0999 V2000
   -4.0010  -21.3190  140.4010 C   0  0  0  0  0
   -5.3150  -21.3730  142.2840 C   0  0  0  0  0
   -6.0270  -22.0240  143.3250 C   0  0  0  0  0
   -6.0560  -23.4110  143.3870 C   0  0  0  0  0
   -5.3560  -24.1970  142.4460 C   0  0  0  0  0
   -6.7710  -24.1050  144.4950 C   0  0  0  0  0
   -7.9610  -24.7850  144.2380 C   0  0  0  0  0
   -8.6100  -25.4180  145.2040 N   0  0  0  0  0
   -6.9900  -24.7910  146.8030 C   0  0  0  0  0
   -6.2510  -24.1100  145.8270 C   0  0  0  0  0
   -3.7960  -23.8040  145.4930 C   0  0  0  0  0
   -2.5800  -22.4370  147.2190 C   0  0  0  0  0
   -1.3750  -20.3710  147.2560 C   0  0  0  0  0
   -1.1740  -23.4640  148.8830 O   0  0  0  0  0
   -3.8760  -22.2470  147.9970 C   0  0  0  0  0
   -3.2250  -21.6560  139.2990 N   0  0  0  0  0
   -4.3030  -20.0710  140.8020 N   0  0  0  0  0
   -5.1060  -20.1100  141.9400 N   0  0  0  0  0
   -4.6620  -23.6240  141.4210 C   0  0  0  0  0
   -4.6050  -22.2100  141.2920 C   0  0  0  0  0
   -8.1570  -25.4300  146.4450 C   0  0  0  0  0
   -6.4980  -24.8710  148.4650 Cl  0  0  0  0  0
   -5.0650  -23.4340  146.1510 N   0  0  0  0  0
   -2.6090  -23.7510  146.4420 C   0  0  0  0  0
   -2.2600  -21.2260  146.3130 C   0  0  0  0  0
   -0.7810  -21.3210  148.2030 N   0  0  0  0  0
   -1.4430  -22.4960  148.1980 C   0  0  0  0  0
   -5.1030  -22.2840  147.0780 C   0  0  0  0  0
   -6.5517  -21.4345  144.0768 H   0  0  0  0  0
   -5.3704  -25.2828  142.5404 H   0  0  0  0  0
   -8.3640  -24.7959  143.2253 H   0  0  0  0  0
   -3.6147  -23.0912  144.6885 H   0  0  0  0  0
   -3.8914  -24.8279  145.1315 H   0  0  0  0  0
   -1.9595  -19.6075  147.7694 H   0  0  0  0  0
   -0.6096  -19.8275  146.7020 H   0  0  0  0  0
   -3.8428  -21.2729  148.4850 H   0  0  0  0  0
   -3.9642  -23.0589  148.7189 H   0  0  0  0  0
   -2.8274  -20.9228  138.7118 H   0  0  0  0  0
   -3.0528  -22.6366  139.0771 H   0  0  0  0  0
   -4.1477  -24.2549  140.6961 H   0  0  0  0  0
   -8.7239  -25.9618  147.2092 H   0  0  0  0  0
   -1.6926  -23.8290  145.8570 H   0  0  0  0  0
   -2.6952  -24.5730  147.1526 H   0  0  0  0  0
   -3.1447  -20.7044  145.9479 H   0  0  0  0  0
   -1.7719  -21.4949  145.3762 H   0  0  0  0  0
    0.0285  -21.1189  148.7897 H   0  0  0  0  0
   -5.1134  -21.3689  146.4859 H   0  0  0  0  0
   -5.9928  -22.3771  147.7007 H   0  0  0  0  0
  1 16  1  0  0  0
  1 17  4  0  0  0
 20  1  4  0  0  0
  3  2  4  0  0  0
  2 18  4  0  0  0
  2 20  4  0  0  0
  4  3  4  0  0  0
  4  5  4  0  0  0
  6  4  1  0  0  0
  5 19  4  0  0  0
  6  7  4  0  0  0
 10  6  4  0  0  0
  7  8  4  0  0  0
 21  8  4  0  0  0
 10  9  4  0  0  0
  9 21  4  0  0  0
  9 22  1  0  0  0
 23 10  1  0  0  0
 11 23  1  0  0  0
 24 11  1  0  0  0
 12 15  1  0  0  0
 12 24  1  0  0  0
 12 25  1  0  0  0
 12 27  1  0  0  0
 25 13  1  0  0  0
 13 26  1  0  0  0
 27 14  2  0  0  0
 15 28  1  0  0  0
 17 18  4  0  0  0
 19 20  4  0  0  0
 23 28  1  0  0  0
 26 27  1  0  0  0
  3 29  1  0  0  0
  5 30  1  0  0  0
  7 31  1  0  0  0
 11 32  1  0  0  0
 11 33  1  0  0  0
 13 34  1  0  0  0
 13 35  1  0  0  0
 15 36  1  0  0  0
 15 37  1  0  0  0
 16 38  1  0  0  0
 16 39  1  0  0  0
 19 40  1  0  0  0
 21 41  1  0  0  0
 24 42  1  0  0  0
 24 43  1  0  0  0
 25 44  1  0  0  0
 25 45  1  0  0  0
 26 46  1  0  0  0
 28 47  1  0  0  0
 28 48  1  0  0  0
M  END
$$$$
