4umc_ligand
  -I-interpret- 

 17 16  0  0  0  0  0  0  0  0999 V2000
  -27.2070  -16.0320  -37.7930 C   0  0  0  0  0
  -27.5550  -16.9140  -36.9720 O   0  0  0  0  0
  -28.0020  -15.2760  -38.4360 O   0  0  0  0  0
  -25.6580  -15.9390  -38.0500 C   0  0  0  0  0
  -25.2520  -14.9390  -39.1610 C   0  0  0  0  0
  -25.1500  -17.2820  -38.3500 O   0  0  0  0  0
  -23.5420  -17.7070  -38.5790 P   0  0  0  0  0
  -23.4780  -19.3010  -38.5320 O   0  0  0  0  0
  -23.2500  -17.2990  -40.1350 O   0  0  0  0  0
  -22.6260  -17.1790  -37.5480 O   0  0  0  0  0
  -27.4956  -14.6867  -38.9998 H   0  0  0  0  0
  -25.2064  -15.5441  -37.1399 H   0  0  0  0  0
  -24.1651  -14.8975  -39.2312 H   0  0  0  0  0
  -25.6666  -15.2684  -40.1137 H   0  0  0  0  0
  -25.6396  -13.9499  -38.9171 H   0  0  0  0  0
  -24.0682  -19.6636  -39.1967 H   0  0  0  0  0
  -23.9121  -17.7035  -40.7004 H   0  0  0  0  0
  1  2  2  0  0  0
  1  3  1  0  0  0
  1  4  1  0  0  0
  4  5  1  0  0  0
  4  6  1  0  0  0
  6  7  1  0  0  0
  7  8  1  0  0  0
  7  9  1  0  0  0
  7 10  2  0  0  0
  3 11  1  0  0  0
  4 12  1  0  0  0
  5 13  1  0  0  0
  5 14  1  0  0  0
  5 15  1  0  0  0
  8 16  1  0  0  0
  9 17  1  0  0  0
M  END
$$$$
