4fe6_ligand
  -I-interpret- 

 87 91  0  0  0  0  0  0  0  0999 V2000
  -11.4070   15.5120   36.8020 O   0  0  0  0  0
  -10.8220   15.6720   35.6970 C   0  0  0  0  0
   -9.9170   16.5870   35.3920 N   0  0  0  0  0
  -11.1260   14.7520   34.6240 C   0  0  0  0  0
  -12.0890   13.6220   34.7800 C   0  0  0  0  0
  -12.4030   12.6850   33.6840 C   0  0  0  0  0
  -12.6910   13.4760   35.9780 N   0  0  0  0  0
  -13.1650   12.2090   36.4840 C   0  0  0  0  0
  -10.2570   15.2450   33.5390 C   0  0  0  0  0
   -9.5990   16.3610   34.0910 C   0  0  0  0  0
   -8.7060   17.0400   33.2970 C   0  0  0  0  0
   -8.4840   16.6700   31.9960 C   0  0  0  0  0
  -10.0450   14.8570   32.2290 C   0  0  0  0  0
   -9.1240   15.5780   31.4760 C   0  0  0  0  0
   -8.8690   15.2020   29.9700 S   0  0  0  0  0
   -7.6600   15.8170   29.4660 O   0  0  0  0  0
   -8.7840   13.7920   29.9080 O   0  0  0  0  0
  -10.1490   15.7850   29.3010 N   0  0  0  0  0
  -11.4120   15.0170   29.2940 C   0  0  0  0  0
  -12.0790   15.1070   27.9270 C   0  0  0  0  0
  -13.5430   14.7940   28.1570 C   0  0  0  0  0
  -11.4630   13.9860   27.1060 C   0  0  0  0  0
  -10.2100   17.2160   28.9180 C   0  0  0  0  0
  -10.0490   17.5370   27.4530 C   0  0  0  0  0
  -10.3050   18.9250   27.3020 O   0  0  0  0  0
   -8.6490   17.3350   26.9140 C   0  0  0  0  0
   -7.5690   18.3300   27.4090 C   0  0  0  0  0
   -6.2250   18.0070   26.7830 C   0  0  0  0  0
   -5.6560   16.7500   26.9940 C   0  0  0  0  0
   -4.4440   16.4700   26.3910 C   0  0  0  0  0
   -3.7500   17.3720   25.5620 C   0  0  0  0  0
   -4.3390   18.6220   25.3700 C   0  0  0  0  0
   -5.5490   18.9380   25.9730 C   0  0  0  0  0
   -8.8860   17.4770   25.5100 N   0  0  0  0  0
   -8.4390   16.5570   24.6360 C   0  0  0  0  0
   -8.1100   15.4200   24.9340 O   0  0  0  0  0
   -8.3780   17.0240   23.2740 O   0  0  0  0  0
   -8.1570   16.1150   22.2030 C   0  0  0  0  0
   -6.8350   16.5560   21.6130 C   0  0  0  0  0
   -5.9130   17.1860   22.6560 C   0  0  0  0  0
   -5.7740   18.6220   22.2090 C   0  0  0  0  0
   -6.9420   18.8620   21.4350 O   0  0  0  0  0
   -7.2020   17.6710   20.6690 C   0  0  0  0  0
   -8.5800   17.4390   20.2860 O   0  0  0  0  0
   -9.1910   16.4720   21.1450 C   0  0  0  0  0
   -9.5381   17.3095   36.0042 H   0  0  0  0  0
  -11.7143   13.9378   34.2008 H   0  0  0  0  0
  -12.1460   11.6709   33.9899 H   0  0  0  0  0
  -13.4675   12.7383   33.4559 H   0  0  0  0  0
  -11.8266   12.9562   32.7995 H   0  0  0  0  0
  -13.9124   11.8035   35.8020 H   0  0  0  0  0
  -12.3284   11.5147   36.5627 H   0  0  0  0  0
  -13.6107   12.3559   37.4678 H   0  0  0  0  0
   -8.1632   17.8901   33.7103 H   0  0  0  0  0
   -7.7974   17.2458   31.3754 H   0  0  0  0  0
  -10.5831   14.0120   31.7994 H   0  0  0  0  0
  -12.0841   15.4311   30.0455 H   0  0  0  0  0
  -11.1940   13.9722   29.5152 H   0  0  0  0  0
  -11.9600   16.0733   27.4369 H   0  0  0  0  0
  -13.6375   13.7927   28.5773 H   0  0  0  0  0
  -13.9642   15.5218   28.8505 H   0  0  0  0  0
  -14.0771   14.8430   27.2081 H   0  0  0  0  0
  -10.3858   14.1377   27.0367 H   0  0  0  0  0
  -11.6662   13.0300   27.5886 H   0  0  0  0  0
  -11.8967   13.9892   26.1060 H   0  0  0  0  0
   -9.3719   17.6963   29.4229 H   0  0  0  0  0
  -11.2093   17.5557   29.1902 H   0  0  0  0  0
  -10.7228   16.8698   26.9155 H   0  0  0  0  0
  -10.2116   19.1678   26.3779 H   0  0  0  0  0
   -8.2229   16.3879   27.2450 H   0  0  0  0  0
   -7.4838   18.2511   28.4928 H   0  0  0  0  0
   -7.8599   19.3408   27.1230 H   0  0  0  0  0
   -6.1545   16.0083   27.6181 H   0  0  0  0  0
   -3.9984   15.4912   26.5681 H   0  0  0  0  0
   -2.8016   17.1073   25.0944 H   0  0  0  0  0
   -3.8432   19.3595   24.7389 H   0  0  0  0  0
   -5.9832   19.9254   25.8161 H   0  0  0  0  0
   -9.4014   18.2876   25.1668 H   0  0  0  0  0
   -8.1918   15.0672   22.5015 H   0  0  0  0  0
   -6.3246   15.7007   21.1702 H   0  0  0  0  0
   -4.9502   16.6783   22.7139 H   0  0  0  0  0
   -6.3184   17.1067   23.6647 H   0  0  0  0  0
   -4.8609   18.7878   21.6373 H   0  0  0  0  0
   -5.6912   19.3085   23.0516 H   0  0  0  0  0
   -6.6502   17.7476   19.7321 H   0  0  0  0  0
  -10.0942   16.8744   21.6037 H   0  0  0  0  0
   -9.4939   15.5885   20.5831 H   0  0  0  0  0
  1  2  2  0  0  0
  2  3  1  0  0  0
  2  4  1  0  0  0
  3 10  1  0  0  0
  4  5  1  0  0  0
  4  9  1  0  0  0
  5  6  1  0  0  0
  5  7  2  0  0  0
  7  8  1  0  0  0
  9 10  4  0  0  0
  9 13  4  0  0  0
 10 11  4  0  0  0
 11 12  4  0  0  0
 12 14  4  0  0  0
 13 14  4  0  0  0
 14 15  1  0  0  0
 15 16  2  0  0  0
 15 17  2  0  0  0
 15 18  1  0  0  0
 18 19  1  0  0  0
 18 23  1  0  0  0
 19 20  1  0  0  0
 20 21  1  0  0  0
 20 22  1  0  0  0
 23 24  1  0  0  0
 24 25  1  0  0  0
 24 26  1  0  0  0
 26 27  1  0  0  0
 26 34  1  0  0  0
 27 28  1  0  0  0
 28 29  4  0  0  0
 28 33  4  0  0  0
 29 30  4  0  0  0
 30 31  4  0  0  0
 31 32  4  0  0  0
 32 33  4  0  0  0
 34 35  1  0  0  0
 35 36  2  0  0  0
 35 37  1  0  0  0
 37 38  1  0  0  0
 38 39  1  0  0  0
 38 45  1  0  0  0
 39 40  1  0  0  0
 39 43  1  0  0  0
 40 41  1  0  0  0
 41 42  1  0  0  0
 42 43  1  0  0  0
 43 44  1  0  0  0
 44 45  1  0  0  0
  3 46  1  0  0  0
  4 47  1  0  0  0
  6 48  1  0  0  0
  6 49  1  0  0  0
  6 50  1  0  0  0
  8 51  1  0  0  0
  8 52  1  0  0  0
  8 53  1  0  0  0
 11 54  1  0  0  0
 12 55  1  0  0  0
 13 56  1  0  0  0
 19 57  1  0  0  0
 19 58  1  0  0  0
 20 59  1  0  0  0
 21 60  1  0  0  0
 21 61  1  0  0  0
 21 62  1  0  0  0
 22 63  1  0  0  0
 22 64  1  0  0  0
 22 65  1  0  0  0
 23 66  1  0  0  0
 23 67  1  0  0  0
 24 68  1  0  0  0
 25 69  1  0  0  0
 26 70  1  0  0  0
 27 71  1  0  0  0
 27 72  1  0  0  0
 29 73  1  0  0  0
 30 74  1  0  0  0
 31 75  1  0  0  0
 32 76  1  0  0  0
 33 77  1  0  0  0
 34 78  1  0  0  0
 38 79  1  0  0  0
 39 80  1  0  0  0
 40 81  1  0  0  0
 40 82  1  0  0  0
 41 83  1  0  0  0
 41 84  1  0  0  0
 43 85  1  0  0  0
 45 86  1  0  0  0
 45 87  1  0  0  0
M  END
$$$$
