2f3k_ligand
  -I-interpret- 

106109  0  0  0  0  0  0  0  0999 V2000
   15.7700   -5.1270   12.2670 O   0  0  0  0  0
   15.5540   -5.9210   13.4740 S   0  0  0  0  0
   14.2570   -6.0150   14.1470 O   0  0  0  0  0
   16.0560   -7.6330   13.1220 C   0  0  0  0  0
   16.6390   -5.3060   14.6930 C   0  0  0  0  0
   16.0350   -3.9760   15.1590 C   0  0  0  0  0
   16.6740   -6.3150   15.8560 C   0  0  0  0  0
   18.0660   -5.0040   14.1660 C   0  0  0  0  0
   18.8140   -6.2220   13.8920 N   0  0  0  0  0
   19.1180   -6.5170   12.6260 C   0  0  0  0  0
   18.8050   -5.8080   11.6750 O   0  0  0  0  0
   19.8780   -7.7950   12.3850 C   0  0  0  0  0
   20.6150   -8.1490   13.5540 O   0  0  0  0  0
   21.4940   -9.2070   13.5410 C   0  0  0  0  0
   22.2590   -9.4890   12.4140 C   0  0  0  0  0
   23.1280  -10.5680   12.4440 C   0  0  0  0  0
   23.2310  -11.3400   13.5950 C   0  0  0  0  0
   22.4930  -11.0430   14.6740 N   0  0  0  0  0
   21.6370  -10.0070   14.6720 C   0  0  0  0  0
   18.8620   -4.0970   15.0890 C   0  0  0  0  0
   18.9770   -4.3570   16.2810 O   0  0  0  0  0
   19.4840   -3.0510   14.5120 N   0  0  0  0  0
   20.2730   -2.0690   15.2700 C   0  0  0  0  0
   21.7550   -2.1820   14.8640 C   0  0  0  0  0
   22.2370   -3.6160   14.8780 C   0  0  0  0  0
   22.4170   -4.3050   13.6760 C   0  0  0  0  0
   22.8580   -5.6250   13.6920 C   0  0  0  0  0
   23.1240   -6.2550   14.9040 C   0  0  0  0  0
   22.9640   -5.5620   16.0990 C   0  0  0  0  0
   22.5160   -4.2490   16.0860 C   0  0  0  0  0
   19.6930   -0.6920   14.9190 C   0  0  0  0  0
   20.0520   -0.3750   13.5760 O   0  0  0  0  0
   20.2220    0.4210   15.8340 C   0  0  0  0  0
   19.4820    0.4190   17.1000 N   0  3  0  0  0
   20.3300    0.9960   18.1580 C   0  0  0  0  0
   21.6340    0.2910   18.3870 C   0  0  0  0  0
   21.7130   -0.9390   18.3540 O   0  0  0  0  0
   22.6440    1.1180   18.6640 N   0  0  0  0  0
   24.0090    0.7090   18.9410 C   0  0  0  0  0
   24.0710   -0.0230   20.2830 C   0  0  0  0  0
   24.8800    1.9580   19.0250 C   0  0  0  0  0
   24.5080   -0.1890   17.8090 C   0  0  0  0  0
   19.5610    0.9050   19.4760 C   0  0  0  0  0
   18.2810    1.7080   19.3790 C   0  0  0  0  0
   17.4420    1.2040   18.2180 C   0  0  0  0  0
   16.8420   -0.1680   18.4950 C   0  0  0  0  0
   18.2510    1.2020   16.9170 C   0  0  0  0  0
   17.5030    1.6830   20.6900 C   0  0  0  0  0
   16.8580    0.3300   20.9610 C   0  0  0  0  0
   16.0170   -0.1390   19.7730 C   0  0  0  0  0
   15.4551   -8.0251   12.3015 H   0  0  0  0  0
   17.1096   -7.6513   12.8434 H   0  0  0  0  0
   15.9031   -8.2451   14.0108 H   0  0  0  0  0
   15.0186   -4.1448   15.5146 H   0  0  0  0  0
   16.6409   -3.5667   15.9674 H   0  0  0  0  0
   16.0177   -3.2743   14.3251 H   0  0  0  0  0
   17.1222   -7.2475   15.5130 H   0  0  0  0  0
   17.2667   -5.9047   16.6736 H   0  0  0  0  0
   15.6578   -6.5045   16.2017 H   0  0  0  0  0
   17.9205   -4.4672   13.2285 H   0  0  0  0  0
   19.1004   -6.8383   14.6526 H   0  0  0  0  0
   20.5687   -7.6514   11.5541 H   0  0  0  0  0
   19.1741   -8.5929   12.1483 H   0  0  0  0  0
   22.1761   -8.8704   11.5204 H   0  0  0  0  0
   23.7289  -10.8105   11.5675 H   0  0  0  0  0
   23.9137  -12.1893   13.6205 H   0  0  0  0  0
   21.0491   -9.7908   15.5640 H   0  0  0  0  0
   19.4039   -2.9347   13.5018 H   0  0  0  0  0
   20.2225   -2.2354   16.3460 H   0  0  0  0  0
   22.3495   -1.6150   15.5804 H   0  0  0  0  0
   21.8617   -1.7958   13.8503 H   0  0  0  0  0
   22.2123   -3.8095   12.7270 H   0  0  0  0  0
   22.9950   -6.1653   12.7553 H   0  0  0  0  0
   23.4580   -7.2925   14.9167 H   0  0  0  0  0
   23.1907   -6.0507   17.0465 H   0  0  0  0  0
   22.3821   -3.7114   17.0247 H   0  0  0  0  0
   18.6122   -0.7478   15.0489 H   0  0  0  0  0
   19.6942    0.4853   13.3449 H   0  0  0  0  0
   20.0903    1.3845   15.3417 H   0  0  0  0  0
   21.2795    0.2494   16.0350 H   0  0  0  0  0
   19.2328   -0.5306   17.3768 H   0  0  0  0  0
   20.5603    2.0100   17.8312 H   0  0  0  0  0
   22.4406    2.1173   18.6826 H   0  0  0  0  0
   23.7267    0.6425   21.0746 H   0  0  0  0  0
   23.4316   -0.9049   20.2443 H   0  0  0  0  0
   25.0987   -0.3263   20.4829 H   0  0  0  0  0
   24.8365    2.4942   18.0770 H   0  0  0  0  0
   24.5139    2.6015   19.8250 H   0  0  0  0  0
   25.9099    1.6679   19.2329 H   0  0  0  0  0
   23.8701   -1.0700   17.7378 H   0  0  0  0  0
   24.4754    0.3617   16.8689 H   0  0  0  0  0
   25.5330   -0.4967   18.0160 H   0  0  0  0  0
   20.1772    1.3048   20.2813 H   0  0  0  0  0
   19.3179   -0.1377   19.6803 H   0  0  0  0  0
   18.5389    2.7501   19.1900 H   0  0  0  0  0
   16.6085    1.8964   18.0999 H   0  0  0  0  0
   17.6492   -0.8914   18.6103 H   0  0  0  0  0
   16.1964   -0.4474   17.6624 H   0  0  0  0  0
   17.6543    0.7563   16.1212 H   0  0  0  0  0
   18.5108    2.2268   16.6515 H   0  0  0  0  0
   16.7087    2.4265   20.6235 H   0  0  0  0  0
   18.2026    1.8898   21.4998 H   0  0  0  0  0
   16.2055    0.4265   21.8288 H   0  0  0  0  0
   17.6483   -0.4005   21.1339 H   0  0  0  0  0
   15.6557   -1.1468   19.9778 H   0  0  0  0  0
   15.1878    0.5553   19.6371 H   0  0  0  0  0
  1  2  2  0  0  0
  2  3  2  0  0  0
  2  4  1  0  0  0
  2  5  1  0  0  0
  5  6  1  0  0  0
  5  7  1  0  0  0
  5  8  1  0  0  0
  8  9  1  0  0  0
  8 20  1  0  0  0
  9 10  1  0  0  0
 10 11  2  0  0  0
 10 12  1  0  0  0
 12 13  1  0  0  0
 13 14  1  0  0  0
 14 15  4  0  0  0
 14 19  4  0  0  0
 15 16  4  0  0  0
 16 17  4  0  0  0
 17 18  4  0  0  0
 18 19  4  0  0  0
 20 21  2  0  0  0
 20 22  1  0  0  0
 22 23  1  0  0  0
 23 24  1  0  0  0
 23 31  1  0  0  0
 24 25  1  0  0  0
 25 26  4  0  0  0
 25 30  4  0  0  0
 26 27  4  0  0  0
 27 28  4  0  0  0
 28 29  4  0  0  0
 29 30  4  0  0  0
 31 32  1  0  0  0
 31 33  1  0  0  0
 33 34  1  0  0  0
 34 35  1  0  0  0
 34 47  1  0  0  0
 35 36  1  0  0  0
 35 43  1  0  0  0
 36 37  2  0  0  0
 36 38  1  0  0  0
 38 39  1  0  0  0
 39 40  1  0  0  0
 39 41  1  0  0  0
 39 42  1  0  0  0
 43 44  1  0  0  0
 44 45  1  0  0  0
 44 48  1  0  0  0
 45 46  1  0  0  0
 45 47  1  0  0  0
 46 50  1  0  0  0
 48 49  1  0  0  0
 49 50  1  0  0  0
  4 51  1  0  0  0
  4 52  1  0  0  0
  4 53  1  0  0  0
  6 54  1  0  0  0
  6 55  1  0  0  0
  6 56  1  0  0  0
  7 57  1  0  0  0
  7 58  1  0  0  0
  7 59  1  0  0  0
  8 60  1  0  0  0
  9 61  1  0  0  0
 12 62  1  0  0  0
 12 63  1  0  0  0
 15 64  1  0  0  0
 16 65  1  0  0  0
 17 66  1  0  0  0
 19 67  1  0  0  0
 22 68  1  0  0  0
 23 69  1  0  0  0
 24 70  1  0  0  0
 24 71  1  0  0  0
 26 72  1  0  0  0
 27 73  1  0  0  0
 28 74  1  0  0  0
 29 75  1  0  0  0
 30 76  1  0  0  0
 31 77  1  0  0  0
 32 78  1  0  0  0
 33 79  1  0  0  0
 33 80  1  0  0  0
 34 81  1  0  0  0
 35 82  1  0  0  0
 38 83  1  0  0  0
 40 84  1  0  0  0
 40 85  1  0  0  0
 40 86  1  0  0  0
 41 87  1  0  0  0
 41 88  1  0  0  0
 41 89  1  0  0  0
 42 90  1  0  0  0
 42 91  1  0  0  0
 42 92  1  0  0  0
 43 93  1  0  0  0
 43 94  1  0  0  0
 44 95  1  0  0  0
 45 96  1  0  0  0
 46 97  1  0  0  0
 46 98  1  0  0  0
 47 99  1  0  0  0
 47100  1  0  0  0
 48101  1  0  0  0
 48102  1  0  0  0
 49103  1  0  0  0
 49104  1  0  0  0
 50105  1  0  0  0
 50106  1  0  0  0
M  END
$$$$
