3ppo_ligand
  -I-interpret- 

 25 24  0  0  0  0  0  0  0  0999 V2000
   -1.7850   28.8330   10.4460 C   0  0  0  0  0
   -1.2470   29.6110    9.3430 N   0  3  0  0  0
    0.1040   29.1220    9.2440 C   0  0  0  0  0
   -2.0410   29.2940    8.1790 C   0  0  0  0  0
   -1.1380   31.0360    9.6090 C   0  0  0  0  0
   -2.0710   32.1070    9.1030 C   0  0  0  0  0
   -3.3200   31.9090    8.9030 O   0  0  0  0  0
   -1.7240   33.5170    9.5270 C   0  0  0  0  0
   -2.9330   34.3940    9.6910 C   0  0  0  0  0
   -4.0310   34.0050    9.7900 O   0  0  0  0  0
   -2.5970   35.6490    9.4650 O   0  0  0  0  0
   -1.1397   28.9456   11.3172 H   0  0  0  0  0
   -2.7868   29.1895   10.6858 H   0  0  0  0  0
   -1.8307   27.7823   10.1595 H   0  0  0  0  0
    0.6168   29.6370    8.4317 H   0  0  0  0  0
    0.6266   29.3095   10.1820 H   0  0  0  0  0
    0.0875   28.0507    9.0437 H   0  0  0  0  0
   -3.0525   29.6765    8.3156 H   0  0  0  0  0
   -1.5928   29.7546    7.2986 H   0  0  0  0  0
   -2.0748   28.2125    8.0474 H   0  0  0  0  0
   -0.2085   31.2889    9.0989 H   0  0  0  0  0
   -1.3113   31.0773   10.6843 H   0  0  0  0  0
   -1.0994   33.9542    8.7480 H   0  0  0  0  0
   -1.2215   33.4596   10.4926 H   0  0  0  0  0
   -1.6405   35.7207    9.4248 H   0  0  0  0  0
  1  2  1  0  0  0
  2  3  1  0  0  0
  2  4  1  0  0  0
  2  5  1  0  0  0
  5  6  1  0  0  0
  6  7  2  0  0  0
  6  8  1  0  0  0
  8  9  1  0  0  0
  9 10  2  0  0  0
  9 11  1  0  0  0
  1 12  1  0  0  0
  1 13  1  0  0  0
  1 14  1  0  0  0
  3 15  1  0  0  0
  3 16  1  0  0  0
  3 17  1  0  0  0
  4 18  1  0  0  0
  4 19  1  0  0  0
  4 20  1  0  0  0
  5 21  1  0  0  0
  5 22  1  0  0  0
  8 23  1  0  0  0
  8 24  1  0  0  0
 11 25  1  0  0  0
M  END
$$$$
