1lxh_ligand
  -I-interpret- 

307318  0  0  0  0  0  0  0  0999 V2000
  -28.6760   -8.0080   -0.3030 N   0  3  0  0  0
  -28.4520   -6.5020   -0.1690 C   0  0  0  0  0
  -27.8570   -6.0340    1.1570 C   0  0  0  0  0
  -27.5570   -6.8150    2.0420 O   0  0  0  0  0
  -29.7720   -5.7440   -0.3100 C   0  0  0  0  0
  -30.8730   -6.4060    0.4630 C   0  0  0  0  0
  -30.9190   -6.3900    1.8580 C   0  0  0  0  0
  -31.8350   -7.1070   -0.2130 C   0  0  0  0  0
  -31.9200   -7.0610    2.5390 C   0  0  0  0  0
  -32.8330   -7.7690    0.4600 C   0  0  0  0  0
  -32.8680   -7.7460    1.8350 C   0  0  0  0  0
  -33.8600   -8.4060    2.5110 O   0  0  0  0  0
  -27.6970   -4.6960    1.2420 N   0  0  0  0  0
  -27.1120   -4.0690    2.4170 C   0  0  0  0  0
  -25.6200   -4.5520    2.3530 C   0  0  0  0  0
  -24.9870   -4.1510    1.3680 O   0  0  0  0  0
  -28.0880   -4.2910    3.6680 C   0  0  0  0  0
  -27.6260   -5.0180    4.9530 C   0  0  0  0  0
  -28.6150   -6.1370    5.2360 C   0  0  0  0  0
  -28.1530   -7.2870    6.0600 N   0  0  0  0  0
  -29.0410   -8.0890    6.6510 C   0  0  0  0  0
  -30.2530   -7.6170    6.8490 N   0  0  0  0  0
  -28.7280   -9.2910    7.1450 N   0  0  0  0  0
  -25.0260   -5.4150    3.2190 N   0  0  0  0  0
  -23.6040   -5.8660    3.0180 C   0  0  0  0  0
  -22.9130   -5.4440    1.7390 C   0  0  0  0  0
  -22.6900   -6.2470    0.8250 O   0  0  0  0  0
  -22.4900   -4.2020    1.7300 N   0  0  0  0  0
  -21.7230   -3.6660    0.6410 C   0  0  0  0  0
  -20.3180   -4.2530    0.8500 C   0  0  0  0  0
  -20.1850   -5.4660    1.0750 O   0  0  0  0  0
  -21.7400   -2.1220    0.7460 C   0  0  0  0  0
  -22.9780   -1.4840    1.3950 C   0  0  0  0  0
  -23.0600   -0.8640    2.6250 C   0  0  0  0  0
  -24.2870   -1.3470    0.8160 C   0  0  0  0  0
  -24.3300   -0.3600    2.8230 N   0  0  0  0  0
  -25.0940   -0.6410    1.7310 C   0  0  0  0  0
  -24.8500   -1.7530   -0.3890 C   0  0  0  0  0
  -26.4190   -0.3310    1.4800 C   0  0  0  0  0
  -26.1730   -1.4460   -0.6390 C   0  0  0  0  0
  -26.9420   -0.7290    0.2870 C   0  0  0  0  0
  -19.2910   -3.4310    0.9020 N   0  0  0  0  0
  -17.9920   -3.9550    1.2510 C   0  0  0  0  0
  -17.2430   -3.0700    2.2110 C   0  0  0  0  0
  -17.3930   -1.8540    2.2630 O   0  0  0  0  0
  -17.0110   -4.2860    0.1100 C   0  0  0  0  0
  -17.0180   -3.3980   -1.1030 C   0  0  0  0  0
  -17.3840   -1.9640   -0.8080 C   0  0  0  0  0
  -16.2830   -1.0070   -1.2340 C   0  0  0  0  0
  -16.7070    0.4070   -1.0560 N   0  3  0  0  0
  -16.3500   -3.7950    2.8370 N   0  0  0  0  0
  -15.3260   -3.3310    3.7550 C   0  0  0  0  0
  -14.0670   -3.7670    2.9870 C   0  0  0  0  0
  -13.1600   -4.4330    3.4660 O   0  0  0  0  0
  -15.5450   -4.0010    5.1190 C   0  0  0  0  0
  -16.2610   -5.2690    4.9210 C   0  0  0  0  0
  -15.7820   -6.1860    4.0390 N   0  0  0  0  0
  -17.4860   -5.6700    5.2940 C   0  0  0  0  0
  -16.6860   -7.1150    3.8560 C   0  0  0  0  0
  -17.7440   -6.8240    4.6100 N   0  0  0  0  0
  -14.1690   -3.4400    1.6680 N   0  0  0  0  0
  -13.2130   -3.7880    0.6430 C   0  0  0  0  0
  -12.9230   -2.6300   -0.3040 C   0  0  0  0  0
  -13.7720   -2.1760   -1.0620 O   0  0  0  0  0
  -13.7600   -4.9670   -0.1610 C   0  0  0  0  0
  -13.0690   -6.2200    0.1550 C   0  0  0  0  0
  -12.1250   -6.3780    1.1120 C   0  0  0  0  0
  -13.2440   -7.4890   -0.4740 C   0  0  0  0  0
  -11.6390   -7.6440    1.0760 N   0  0  0  0  0
  -12.3120   -8.3510    0.1220 C   0  0  0  0  0
  -14.0810   -7.9780   -1.4860 C   0  0  0  0  0
  -12.1720   -9.6670   -0.2650 C   0  0  0  0  0
  -13.9520   -9.3000   -1.8630 C   0  0  0  0  0
  -13.0000  -10.1300   -1.2520 C   0  0  0  0  0
  -11.6830   -2.2330   -0.2920 N   0  0  0  0  0
  -11.2010   -1.2060   -1.1720 C   0  0  0  0  0
   -9.7190   -1.4040   -1.3640 C   0  0  0  0  0
   -9.2990   -1.7930   -2.4470 O   0  0  0  0  0
  -11.4510    0.2580   -0.7170 C   0  0  0  0  0
  -10.9180    1.1730   -1.8020 C   0  0  0  0  0
  -12.9260    0.5650   -0.4800 C   0  0  0  0  0
   -8.9610   -1.1420   -0.2880 N   0  0  0  0  0
   -7.5040   -1.2730   -0.2660 C   0  0  0  0  0
   -6.8490   -0.8840   -1.5960 C   0  0  0  0  0
   -6.9920   -1.5820   -2.5980 O   0  0  0  0  0
   -7.0810   -2.6820    0.1320 C   0  0  0  0  0
   -5.5810   -2.8630    0.0680 C   0  0  0  0  0
   -4.7320   -1.8400    0.4620 C   0  0  0  0  0
   -5.0080   -4.0340   -0.3950 C   0  0  0  0  0
   -3.3560   -1.9770    0.4030 C   0  0  0  0  0
   -3.6290   -4.1800   -0.4570 C   0  0  0  0  0
   -2.8120   -3.1510   -0.0570 C   0  0  0  0  0
   -1.4550   -3.3010   -0.1160 O   0  0  0  0  0
   -6.1240    0.2370   -1.5620 N   0  0  0  0  0
   -5.4190    0.7910   -2.7260 C   0  0  0  0  0
   -6.1200    2.0710   -3.2190 C   0  0  0  0  0
   -5.7710    2.6270   -4.2600 O   0  0  0  0  0
   -5.3240   -0.2500   -3.8340 C   0  0  0  0  0
   -4.3520    0.0550   -4.9350 C   0  0  0  0  0
   -3.1070    0.6360   -4.7110 C   0  0  0  0  0
   -4.6860   -0.2820   -6.2220 C   0  0  0  0  0
   -2.2240    0.8610   -5.7590 C   0  0  0  0  0
   -3.8190   -0.0560   -7.2720 C   0  0  0  0  0
   -2.5840    0.5160   -7.0360 C   0  0  0  0  0
   -1.6940    0.7190   -8.0650 O   0  0  0  0  0
   -7.0870    2.5390   -2.4110 N   0  0  0  0  0
   -7.8550    3.7730   -2.6490 C   0  0  0  0  0
   -8.9140    3.6730   -3.7530 C   0  0  0  0  0
   -8.7610    2.9770   -4.7570 O   0  0  0  0  0
   -6.9380    4.9870   -2.8820 C   0  0  0  0  0
   -7.0050    5.4470   -4.2180 O   0  0  0  0  0
   -5.4830    4.7330   -2.5600 C   0  0  0  0  0
   -9.9950    4.4150   -3.5180 N   0  0  0  0  0
  -11.1700    4.5220   -4.4140 C   0  0  0  0  0
  -12.2760    5.2210   -3.6790 C   0  0  0  0  0
  -13.0320    6.0150   -4.2330 O   0  0  0  0  0
  -11.7570    3.1660   -4.8380 C   0  0  0  0  0
  -12.9430    2.4260   -3.6160 S   0  0  0  0  0
  -12.3880    4.8270   -2.4260 N   0  0  0  0  0
  -13.4130    5.2920   -1.5480 C   0  0  0  0  0
  -12.8730    5.2330   -0.1040 C   0  0  0  0  0
  -11.6550    5.3470    0.0660 O   0  0  0  0  0
  -14.6320    4.4100   -1.8290 C   0  0  0  0  0
  -14.6050    3.6400   -3.5180 S   0  0  0  0  0
  -13.7040    5.0980    0.9590 N   0  0  0  0  0
  -13.1700    5.0930    2.3310 C   0  0  0  0  0
  -12.1770    3.9390    2.6600 C   0  0  0  0  0
  -11.4280    3.4850    1.7890 O   0  0  0  0  0
  -14.4030    5.1300    3.2410 C   0  0  0  0  0
  -15.6120    5.0470    2.3610 C   0  0  0  0  0
  -15.1690    4.9980    0.9190 C   0  0  0  0  0
  -12.0880    3.5580    3.9390 N   0  0  0  0  0
  -11.0870    2.5780    4.4090 C   0  0  0  0  0
  -11.4840    1.0730    4.3780 C   0  0  0  0  0
  -12.6450    0.6950    4.2280 O   0  0  0  0  0
  -10.6910    2.9330    5.8620 C   0  0  0  0  0
  -10.8640    4.3810    6.2720 C   0  0  0  0  0
  -11.9750    4.9330    6.1070 O   0  0  0  0  0
   -9.8880    4.9500    6.7980 O   0  0  0  0  0
  -10.4410    0.2330    4.6000 N   0  0  0  0  0
  -10.5310   -1.2370    4.6910 C   0  0  0  0  0
  -10.0010   -1.7630    6.0310 C   0  0  0  0  0
   -9.5150   -2.8980    6.1050 O   0  0  0  0  0
   -9.7060   -1.8950    3.5940 C   0  0  0  0  0
   -8.4980   -1.1990    3.3450 O   0  0  0  0  0
  -10.4420   -1.9700    2.3120 C   0  0  0  0  0
  -10.0770   -0.9630    7.1050 N   0  0  0  0  0
   -9.6050   -1.3620    8.4150 C   0  0  0  0  0
  -10.7010   -1.9860    9.2670 C   0  0  0  0  0
  -10.4280   -2.4500   10.3740 O   0  0  0  0  0
   -9.2020   -0.0250    9.0080 C   0  0  0  0  0
  -10.2570    0.8960    8.5100 C   0  0  0  0  0
  -10.6260    0.3960    7.1480 C   0  0  0  0  0
  -11.9370   -1.9760    8.7680 N   0  0  0  0  0
  -13.0510   -2.5420    9.5220 C   0  0  0  0  0
  -13.1180   -4.0630    9.3230 C   0  0  0  0  0
  -12.4750   -4.5790    8.3770 O   0  0  0  0  0
  -14.3890   -1.9080    9.1130 C   0  0  0  0  0
  -14.8780   -0.7630    9.9920 C   0  0  0  0  0
  -14.0260    0.2270   10.4870 C   0  0  0  0  0
  -16.2260   -0.6690   10.2980 C   0  0  0  0  0
  -14.5180    1.2720   11.2610 C   0  0  0  0  0
  -16.7230    0.3670   11.0710 C   0  0  0  0  0
  -15.8640    1.3360   11.5490 C   0  0  0  0  0
  -16.3440    2.3710   12.3180 O   0  0  0  0  0
  -13.8451   -4.8206   10.1393 O   0  0  0  0  0
  -29.0739   -8.2111   -1.2200 H   0  0  0  0  0
  -27.7845   -8.4934   -0.2028 H   0  0  0  0  0
  -29.3186   -8.3210    0.4247 H   0  0  0  0  0
  -27.7362   -6.2909   -0.9635 H   0  0  0  0  0
  -30.0507   -5.7302   -1.3637 H   0  0  0  0  0
  -29.6341   -4.7360    0.0812 H   0  0  0  0  0
  -30.1591   -5.8437    2.4167 H   0  0  0  0  0
  -31.8087   -7.1404   -1.3022 H   0  0  0  0  0
  -31.9510   -7.0426    3.6284 H   0  0  0  0  0
  -33.5972   -8.3125   -0.0956 H   0  0  0  0  0
  -33.7354   -8.2878    3.4555 H   0  0  0  0  0
  -27.9941   -4.1096    0.4620 H   0  0  0  0  0
  -27.0369   -2.9848    2.5007 H   0  0  0  0  0
  -28.8664   -4.9430    3.2718 H   0  0  0  0  0
  -28.2991   -3.2778    4.0099 H   0  0  0  0  0
  -27.5935   -4.3213    5.7906 H   0  0  0  0  0
  -26.6237   -5.4245    4.8178 H   0  0  0  0  0
  -28.8596   -6.5597    4.2615 H   0  0  0  0  0
  -29.4180   -5.6745    5.8099 H   0  0  0  0  0
  -27.1547   -7.4627    6.1734 H   0  0  0  0  0
  -30.4856   -6.6688    6.5538 H   0  0  0  0  0
  -29.4237   -9.8255    7.6652 H   0  0  0  0  0
  -27.7934   -9.6737    7.0018 H   0  0  0  0  0
  -25.5534   -5.7633    4.0196 H   0  0  0  0  0
  -23.6426   -6.9548    2.9858 H   0  0  0  0  0
  -23.0332   -5.4076    3.8256 H   0  0  0  0  0
  -22.7130   -3.5984    2.5214 H   0  0  0  0  0
  -22.1029   -3.9156   -0.3497 H   0  0  0  0  0
  -21.7162   -1.7525   -0.2792 H   0  0  0  0  0
  -20.8976   -1.8567    1.3847 H   0  0  0  0  0
  -22.2396   -0.7837    3.3382 H   0  0  0  0  0
  -24.2589   -2.3026   -1.1215 H   0  0  0  0  0
  -27.0212    0.2110    2.2092 H   0  0  0  0  0
  -26.6281   -1.7680   -1.5756 H   0  0  0  0  0
  -27.9773   -0.4853    0.0484 H   0  0  0  0  0
  -19.4114   -2.4387    0.6987 H   0  0  0  0  0
  -18.2941   -4.9035    1.6950 H   0  0  0  0  0
  -17.3067   -5.2714   -0.2501 H   0  0  0  0  0
  -16.0162   -4.1786    0.5424 H   0  0  0  0  0
  -17.7696   -3.7904   -1.7880 H   0  0  0  0  0
  -16.0071   -3.3976   -1.5106 H   0  0  0  0  0
  -17.5335   -1.8607    0.2668 H   0  0  0  0  0
  -18.2886   -1.7179   -1.3641 H   0  0  0  0  0
  -16.0619   -1.1755   -2.2879 H   0  0  0  0  0
  -15.4036   -1.1886   -0.6161 H   0  0  0  0  0
  -15.9515    1.0267   -1.3486 H   0  0  0  0  0
  -17.5349    0.5865   -1.6241 H   0  0  0  0  0
  -16.9244    0.5744   -0.0736 H   0  0  0  0  0
  -16.3771   -4.7991    2.6594 H   0  0  0  0  0
  -15.2959   -2.2701    4.0035 H   0  0  0  0  0
  -16.1322   -3.3441    5.7607 H   0  0  0  0  0
  -14.5822   -4.1931    5.5925 H   0  0  0  0  0
  -18.1463   -5.1722    6.0041 H   0  0  0  0  0
  -16.5891   -7.9791    3.1987 H   0  0  0  0  0
  -14.9886   -2.9050    1.3808 H   0  0  0  0  0
  -12.2766   -4.0470    1.1372 H   0  0  0  0  0
  -13.6102   -4.7545   -1.2195 H   0  0  0  0  0
  -14.8140   -5.0884    0.0891 H   0  0  0  0  0
  -11.8032   -5.6033    1.8080 H   0  0  0  0  0
  -14.8161   -7.3304   -1.9639 H   0  0  0  0  0
  -11.4286  -10.3156    0.1984 H   0  0  0  0  0
  -14.5968   -9.7032   -2.6438 H   0  0  0  0  0
  -12.9176  -11.1690   -1.5710 H   0  0  0  0  0
  -11.0328   -2.6657    0.3640 H   0  0  0  0  0
  -11.7755   -1.3192   -2.0914 H   0  0  0  0  0
  -10.9435    0.4117    0.2353 H   0  0  0  0  0
   -9.8513    0.9931   -1.9356 H   0  0  0  0  0
  -11.4418    0.9703   -2.7362 H   0  0  0  0  0
  -11.0791    2.2112   -1.5115 H   0  0  0  0  0
  -13.4820    0.4053   -1.4038 H   0  0  0  0  0
  -13.3128   -0.0944    0.2970 H   0  0  0  0  0
  -13.0337    1.6027   -0.1644 H   0  0  0  0  0
   -9.4281   -0.8334    0.5646 H   0  0  0  0  0
   -7.1514   -0.5686    0.4874 H   0  0  0  0  0
   -7.5389   -3.3846   -0.5642 H   0  0  0  0  0
   -7.4017   -2.8567    1.1590 H   0  0  0  0  0
   -5.1584   -0.9056    0.8269 H   0  0  0  0  0
   -5.6494   -4.8547   -0.7161 H   0  0  0  0  0
   -2.7088   -1.1590    0.7194 H   0  0  0  0  0
   -3.1949   -5.1105   -0.8228 H   0  0  0  0  0
   -1.0315   -2.4980    0.1962 H   0  0  0  0  0
   -6.0557    0.7379   -0.6761 H   0  0  0  0  0
   -4.4047    1.0578   -2.4293 H   0  0  0  0  0
   -6.3094   -0.2968   -4.2976 H   0  0  0  0  0
   -4.9770   -1.1698   -3.3632 H   0  0  0  0  0
   -2.8209    0.9186   -3.6979 H   0  0  0  0  0
   -5.6562   -0.7377   -6.4197 H   0  0  0  0  0
   -1.2494    1.3098   -5.5671 H   0  0  0  0  0
   -4.1087   -0.3287   -8.2868 H   0  0  0  0  0
   -0.8944    1.1229   -7.7200 H   0  0  0  0  0
   -7.3046    2.0006   -1.5725 H   0  0  0  0  0
   -8.4110    3.9221   -1.7234 H   0  0  0  0  0
   -7.3184    5.7393   -2.1910 H   0  0  0  0  0
   -6.4220    6.2021   -4.3249 H   0  0  0  0  0
   -5.3876    4.4552   -1.5103 H   0  0  0  0  0
   -5.1095    3.9233   -3.1869 H   0  0  0  0  0
   -4.9065    5.6380   -2.7515 H   0  0  0  0  0
  -10.0154    4.9527   -2.6515 H   0  0  0  0  0
  -10.8176    5.0505   -5.2998 H   0  0  0  0  0
  -10.9218    2.4721   -4.9330 H   0  0  0  0  0
  -12.3122    3.3329   -5.7611 H   0  0  0  0  0
  -11.7086    4.1567   -2.0660 H   0  0  0  0  0
  -13.7126    6.3290   -1.6995 H   0  0  0  0  0
  -15.5178    5.0423   -1.7687 H   0  0  0  0  0
  -14.6301    3.6017   -1.0977 H   0  0  0  0  0
  -12.5269    5.9594    2.4853 H   0  0  0  0  0
  -14.4187    6.0497    3.8258 H   0  0  0  0  0
  -14.3842    4.2970    3.9438 H   0  0  0  0  0
  -16.1801    4.1483    2.6013 H   0  0  0  0  0
  -16.2437    5.9206    2.5216 H   0  0  0  0  0
  -15.4949    4.0797    0.4305 H   0  0  0  0  0
  -15.6102    5.8067    0.3364 H   0  0  0  0  0
  -12.7364    3.9596    4.6163 H   0  0  0  0  0
  -10.2749    2.6669    3.6874 H   0  0  0  0  0
   -9.6254    2.7196    5.9463 H   0  0  0  0  0
  -11.3531    2.3546    6.5063 H   0  0  0  0  0
  -12.5782    4.3161    5.6860 H   0  0  0  0  0
   -9.5184    0.6529    4.7133 H   0  0  0  0  0
  -11.5879   -1.4833    4.5894 H   0  0  0  0  0
   -9.4920   -2.8980    3.9631 H   0  0  0  0  0
   -8.0102   -1.6457    2.6492 H   0  0  0  0  0
  -11.3515   -2.5547    2.4503 H   0  0  0  0  0
  -10.7019   -0.9634    1.9843 H   0  0  0  0  0
   -9.8127   -2.4469    1.5606 H   0  0  0  0  0
   -8.8182   -2.1149    8.3684 H   0  0  0  0  0
   -8.1994    0.2827    8.7112 H   0  0  0  0  0
   -9.1414   -0.0475   10.0961 H   0  0  0  0  0
  -11.1202    0.9067    9.1755 H   0  0  0  0  0
   -9.8988    1.9247    8.4709 H   0  0  0  0  0
  -11.7031    0.4107    6.9815 H   0  0  0  0  0
  -10.2257    1.0274    6.3548 H   0  0  0  0  0
  -12.1062   -1.5681    7.8486 H   0  0  0  0  0
  -12.8763   -2.3226   10.5753 H   0  0  0  0  0
  -15.1385   -2.6958    9.1893 H   0  0  0  0  0
  -14.2393   -1.4892    8.1179 H   0  0  0  0  0
  -12.9603    0.1796   10.2633 H   0  0  0  0  0
  -16.9114   -1.4283    9.9215 H   0  0  0  0  0
  -13.8411    2.0382   11.6388 H   0  0  0  0  0
  -17.7873    0.4170   11.3008 H   0  0  0  0  0
  -15.6180    2.9491   12.5637 H   0  0  0  0  0
  -14.2659   -4.2651   10.7996 H   0  0  0  0  0
  2  1  1  0  0  0
  2  5  1  0  0  0
  3  2  1  0  0  0
  3  4  2  0  0  0
  5  6  1  0  0  0
  6  7  4  0  0  0
  6  8  4  0  0  0
  8 10  4  0  0  0
 10 11  4  0  0  0
 11 12  1  0  0  0
  9 11  4  0  0  0
  7  9  4  0  0  0
 14 13  1  0  0  0
 14 17  1  0  0  0
 15 14  1  0  0  0
 15 16  2  0  0  0
 17 18  1  0  0  0
 18 19  1  0  0  0
 19 20  1  0  0  0
 20 21  1  0  0  0
 21 23  1  0  0  0
 21 22  2  0  0  0
 13  3  1  0  0  0
 25 24  1  0  0  0
 26 25  1  0  0  0
 26 27  2  0  0  0
 24 15  1  0  0  0
 29 28  1  0  0  0
 29 32  1  0  0  0
 30 29  1  0  0  0
 30 31  2  0  0  0
 32 33  1  0  0  0
 33 34  4  0  0  0
 33 35  4  0  0  0
 35 38  4  0  0  0
 35 37  4  0  0  0
 37 39  4  0  0  0
 37 36  4  0  0  0
 34 36  4  0  0  0
 39 41  4  0  0  0
 40 41  4  0  0  0
 38 40  4  0  0  0
 28 26  1  0  0  0
 43 42  1  0  0  0
 43 46  1  0  0  0
 44 43  1  0  0  0
 44 45  2  0  0  0
 46 47  1  0  0  0
 47 48  1  0  0  0
 48 49  1  0  0  0
 49 50  1  0  0  0
 42 30  1  0  0  0
 52 51  1  0  0  0
 52 55  1  0  0  0
 53 52  1  0  0  0
 53 54  2  0  0  0
 55 56  1  0  0  0
 56 57  4  0  0  0
 56 58  4  0  0  0
 58 60  4  0  0  0
 60 59  4  0  0  0
 57 59  4  0  0  0
 51 44  1  0  0  0
 62 61  1  0  0  0
 62 65  1  0  0  0
 63 62  1  0  0  0
 63 64  2  0  0  0
 65 66  1  0  0  0
 66 67  4  0  0  0
 66 68  4  0  0  0
 68 71  4  0  0  0
 68 70  4  0  0  0
 70 72  4  0  0  0
 70 69  4  0  0  0
 67 69  4  0  0  0
 72 74  4  0  0  0
 73 74  4  0  0  0
 71 73  4  0  0  0
 61 53  1  0  0  0
 76 75  1  0  0  0
 76 79  1  0  0  0
 77 76  1  0  0  0
 77 78  2  0  0  0
 79 81  1  0  0  0
 79 80  1  0  0  0
 75 63  1  0  0  0
 83 82  1  0  0  0
 83 86  1  0  0  0
 84 83  1  0  0  0
 84 85  2  0  0  0
 86 87  1  0  0  0
 87 88  4  0  0  0
 87 89  4  0  0  0
 89 91  4  0  0  0
 91 92  4  0  0  0
 92 93  1  0  0  0
 90 92  4  0  0  0
 88 90  4  0  0  0
 82 77  1  0  0  0
 95 94  1  0  0  0
 95 98  1  0  0  0
 96 95  1  0  0  0
 96 97  2  0  0  0
 98 99  1  0  0  0
 99100  4  0  0  0
 99101  4  0  0  0
101103  4  0  0  0
103104  4  0  0  0
104105  1  0  0  0
102104  4  0  0  0
100102  4  0  0  0
 94 84  1  0  0  0
107106  1  0  0  0
107110  1  0  0  0
108107  1  0  0  0
108109  2  0  0  0
110112  1  0  0  0
110111  1  0  0  0
106 96  1  0  0  0
114113  1  0  0  0
114117  1  0  0  0
115114  1  0  0  0
115116  2  0  0  0
117118  1  0  0  0
113108  1  0  0  0
120119  1  0  0  0
120123  1  0  0  0
121120  1  0  0  0
121122  2  0  0  0
123124  1  0  0  0
119115  1  0  0  0
127126  1  0  0  0
126129  1  0  0  0
126125  1  0  0  0
125131  1  0  0  0
131130  1  0  0  0
129130  1  0  0  0
127128  2  0  0  0
125121  1  0  0  0
133132  1  0  0  0
133136  1  0  0  0
134133  1  0  0  0
134135  2  0  0  0
136137  1  0  0  0
137138  1  0  0  0
137139  2  0  0  0
132127  1  0  0  0
141140  1  0  0  0
141144  1  0  0  0
142141  1  0  0  0
142143  2  0  0  0
144146  1  0  0  0
144145  1  0  0  0
140134  1  0  0  0
149148  1  0  0  0
148151  1  0  0  0
148147  1  0  0  0
147153  1  0  0  0
153152  1  0  0  0
151152  1  0  0  0
149150  2  0  0  0
147142  1  0  0  0
154155  1  0  0  0
155158  1  0  0  0
155156  1  0  0  0
156157  2  0  0  0
158159  1  0  0  0
159160  4  0  0  0
159161  4  0  0  0
161163  4  0  0  0
163164  4  0  0  0
164165  1  0  0  0
162164  4  0  0  0
160162  4  0  0  0
149154  1  0  0  0
118124  1  0  0  0
156166  1  0  0  0
  1167  1  0  0  0
  1168  1  0  0  0
  1169  1  0  0  0
  2170  1  0  0  0
  5171  1  0  0  0
  5172  1  0  0  0
  7173  1  0  0  0
  8174  1  0  0  0
  9175  1  0  0  0
 10176  1  0  0  0
 12177  1  0  0  0
 13178  1  0  0  0
 14179  1  0  0  0
 17180  1  0  0  0
 17181  1  0  0  0
 18182  1  0  0  0
 18183  1  0  0  0
 19184  1  0  0  0
 19185  1  0  0  0
 20186  1  0  0  0
 22187  1  0  0  0
 23188  1  0  0  0
 23189  1  0  0  0
 24190  1  0  0  0
 25191  1  0  0  0
 25192  1  0  0  0
 28193  1  0  0  0
 29194  1  0  0  0
 32195  1  0  0  0
 32196  1  0  0  0
 34197  1  0  0  0
 38198  1  0  0  0
 39199  1  0  0  0
 40200  1  0  0  0
 41201  1  0  0  0
 42202  1  0  0  0
 43203  1  0  0  0
 46204  1  0  0  0
 46205  1  0  0  0
 47206  1  0  0  0
 47207  1  0  0  0
 48208  1  0  0  0
 48209  1  0  0  0
 49210  1  0  0  0
 49211  1  0  0  0
 50212  1  0  0  0
 50213  1  0  0  0
 50214  1  0  0  0
 51215  1  0  0  0
 52216  1  0  0  0
 55217  1  0  0  0
 55218  1  0  0  0
 58219  1  0  0  0
 59220  1  0  0  0
 61221  1  0  0  0
 62222  1  0  0  0
 65223  1  0  0  0
 65224  1  0  0  0
 67225  1  0  0  0
 71226  1  0  0  0
 72227  1  0  0  0
 73228  1  0  0  0
 74229  1  0  0  0
 75230  1  0  0  0
 76231  1  0  0  0
 79232  1  0  0  0
 80233  1  0  0  0
 80234  1  0  0  0
 80235  1  0  0  0
 81236  1  0  0  0
 81237  1  0  0  0
 81238  1  0  0  0
 82239  1  0  0  0
 83240  1  0  0  0
 86241  1  0  0  0
 86242  1  0  0  0
 88243  1  0  0  0
 89244  1  0  0  0
 90245  1  0  0  0
 91246  1  0  0  0
 93247  1  0  0  0
 94248  1  0  0  0
 95249  1  0  0  0
 98250  1  0  0  0
 98251  1  0  0  0
100252  1  0  0  0
101253  1  0  0  0
102254  1  0  0  0
103255  1  0  0  0
105256  1  0  0  0
106257  1  0  0  0
107258  1  0  0  0
110259  1  0  0  0
111260  1  0  0  0
112261  1  0  0  0
112262  1  0  0  0
112263  1  0  0  0
113264  1  0  0  0
114265  1  0  0  0
117266  1  0  0  0
117267  1  0  0  0
119268  1  0  0  0
120269  1  0  0  0
123270  1  0  0  0
123271  1  0  0  0
126272  1  0  0  0
129273  1  0  0  0
129274  1  0  0  0
130275  1  0  0  0
130276  1  0  0  0
131277  1  0  0  0
131278  1  0  0  0
132279  1  0  0  0
133280  1  0  0  0
136281  1  0  0  0
136282  1  0  0  0
138283  1  0  0  0
140284  1  0  0  0
141285  1  0  0  0
144286  1  0  0  0
145287  1  0  0  0
146288  1  0  0  0
146289  1  0  0  0
146290  1  0  0  0
148291  1  0  0  0
151292  1  0  0  0
151293  1  0  0  0
152294  1  0  0  0
152295  1  0  0  0
153296  1  0  0  0
153297  1  0  0  0
154298  1  0  0  0
155299  1  0  0  0
158300  1  0  0  0
158301  1  0  0  0
160302  1  0  0  0
161303  1  0  0  0
162304  1  0  0  0
163305  1  0  0  0
165306  1  0  0  0
166307  1  0  0  0
M  END
$$$$
