### 
### Created by X-TOOL on Mon Sep 10 21:12:49 2018
### 

@<TRIPOS>MOLECULE
1lxh_ligand
  310   321     1     0     0
SMALL
GAST_HUCK


@<TRIPOS>ATOM
      1 N         -28.6760   -8.0080   -0.3030 N.4       1 TYR         0.2392
      2 CA        -28.4520   -6.5020   -0.1690 C.3       1 TYR         0.0730
      3 C         -27.8570   -6.0340    1.1570 C.2       1 TYR         0.2286
      4 O         -27.5570   -6.8150    2.0420 O.2       1 TYR        -0.3905
      5 CB        -29.7720   -5.7440   -0.3100 C.3       1 TYR         0.0365
      6 CG        -30.8730   -6.4060    0.4630 C.ar      1 TYR        -0.0460
      7 CD1       -30.9190   -6.3900    1.8580 C.ar      1 TYR        -0.0684
      8 CD2       -31.8350   -7.1070   -0.2130 C.ar      1 TYR        -0.0684
      9 CE1       -31.9200   -7.0610    2.5390 C.ar      1 TYR        -0.0398
     10 CE2       -32.8330   -7.7690    0.4600 C.ar      1 TYR        -0.0398
     11 CZ        -32.8680   -7.7460    1.8350 C.ar      1 TYR         0.0805
     12 OH        -33.8600   -8.4060    2.5110 O.3       1 TYR        -0.3376
     13 H1        -29.0693   -8.2099   -1.2089 H         1 TYR         0.2017
     14 H2        -29.3109   -8.3185    0.4157 H         1 TYR         0.2017
     15 H3        -27.7956   -8.4888   -0.2042 H         1 TYR         0.2017
     16 H4        -27.7708   -6.2003   -0.9783 H         1 TYR         0.1120
     17 H5        -30.0525   -5.7100   -1.3731 H         1 TYR         0.0486
     18 H6        -29.6374   -4.7193    0.0667 H         1 TYR         0.0486
     19 H7        -30.1632   -5.8467    2.4136 H         1 TYR         0.0530
     20 H8        -31.8089   -7.1403   -1.2962 H         1 TYR         0.0530
     21 H9        -31.9509   -7.0427    3.6224 H         1 TYR         0.0525
     22 H10       -33.5930   -8.3096   -0.0925 H         1 TYR         0.0525
     23 H11       -33.7367   -8.2890    3.4457 H         1 TYR         0.2458
     24 N         -27.6970   -4.6960    1.2420 N.am      1 ARG        -0.2609
     25 CA        -27.1120   -4.0690    2.4170 C.3       1 ARG         0.1312
     26 C         -25.6200   -4.5520    2.3530 C.2       1 ARG         0.2037
     27 O         -24.9870   -4.1510    1.3680 O.2       1 ARG        -0.3944
     28 CB        -28.0880   -4.2910    3.6680 C.3       1 ARG        -0.0092
     29 CG        -27.6260   -5.0180    4.9530 C.3       1 ARG        -0.0156
     30 CD        -28.6150   -6.1370    5.2360 C.3       1 ARG         0.0627
     31 NE        -28.1530   -7.2870    6.0600 N.pl3     1 ARG        -0.2723
     32 CZ        -29.0410   -8.0890    6.6510 C.cat     1 ARG         0.2882
     33 NH1       -30.2530   -7.6170    6.8490 N.pl3     1 ARG        -0.2849
     34 NH2       -28.7280   -9.2910    7.1450 N.pl3     1 ARG        -0.2849
     35 H12       -27.9882   -4.1211    0.4773 H         1 ARG         0.1885
     36 H13       -27.0845   -2.9791    2.2711 H         1 ARG         0.0800
     37 H14       -28.9509   -4.8575    3.2879 H         1 ARG         0.0313
     38 H15       -28.4167   -3.2896    3.9828 H         1 ARG         0.0313
     39 H16       -27.6086   -4.3121    5.7964 H         1 ARG         0.0301
     40 H17       -26.6198   -5.4369    4.8046 H         1 ARG         0.0301
     41 H18       -28.9395   -6.5399    4.2652 H         1 ARG         0.0689
     42 H19       -29.4762   -5.6891    5.7535 H         1 ARG         0.0689
     43 H20       -27.1449   -7.4644    6.1745 H         1 ARG         0.2642
     44 H21       -30.9670   -8.2050    7.3021 H         1 ARG         0.2615
     45 H22       -30.4878   -6.6595    6.5509 H         1 ARG         0.2615
     46 H23       -27.7843   -9.6774    7.0004 H         1 ARG         0.2615
     47 H24       -29.4306   -9.8308    7.6703 H         1 ARG         0.2615
     48 N         -25.0260   -5.4150    3.2190 N.am      1 GLY        -0.2664
     49 CA        -23.6040   -5.8660    3.0180 C.3       1 GLY         0.1201
     50 C         -22.9130   -5.4440    1.7390 C.2       1 GLY         0.2008
     51 O         -22.6900   -6.2470    0.8250 O.2       1 GLY        -0.3947
     52 H25       -25.5430   -5.7565    4.0039 H         1 GLY         0.1881
     53 H26       -23.5993   -6.9656    3.0481 H         1 GLY         0.0763
     54 H27       -23.0117   -5.4737    3.8578 H         1 GLY         0.0763
     55 N         -22.4900   -4.2020    1.7300 N.am      1 TRP        -0.2629
     56 CA        -21.7230   -3.6660    0.6410 C.3       1 TRP         0.1352
     57 C         -20.3180   -4.2530    0.8500 C.2       1 TRP         0.2052
     58 O         -20.1850   -5.4660    1.0750 O.2       1 TRP        -0.3942
     59 CB        -21.7400   -2.1220    0.7460 C.3       1 TRP         0.0042
     60 CG        -22.9780   -1.4840    1.3950 C.2       1 TRP        -0.0418
     61 CD1       -23.0600   -0.8640    2.6250 C.2       1 TRP         0.0167
     62 CD2       -24.2870   -1.3470    0.8160 C.ar      1 TRP        -0.0214
     63 NE1       -24.3300   -0.3600    2.8230 N.pl3     1 TRP        -0.2890
     64 CE2       -25.0940   -0.6410    1.7310 C.ar      1 TRP         0.0603
     65 CE3       -24.8500   -1.7530   -0.3890 C.ar      1 TRP        -0.0747
     66 CZ2       -26.4190   -0.3310    1.4800 C.ar      1 TRP        -0.0443
     67 CZ3       -26.1730   -1.4460   -0.6390 C.ar      1 TRP        -0.0792
     68 CH2       -26.9420   -0.7290    0.2870 C.ar      1 TRP        -0.0768
     69 H28       -22.7087   -3.6102    2.5059 H         1 TRP         0.1884
     70 H29       -22.1322   -3.9774   -0.3314 H         1 TRP         0.0815
     71 H30       -21.6539   -1.7184   -0.2736 H         1 TRP         0.0397
     72 H31       -20.8622   -1.8191    1.3356 H         1 TRP         0.0397
     73 H32       -22.2404   -0.7837    3.3375 H         1 TRP         0.0795
     74 H33       -24.6484    0.1468    3.6613 H         1 TRP         0.2216
     75 H34       -24.2621   -2.2995   -1.1175 H         1 TRP         0.0540
     76 H35       -27.0179    0.2080    2.2052 H         1 TRP         0.0541
     77 H36       -26.6256   -1.7662   -1.5705 H         1 TRP         0.0510
     78 H37       -27.9716   -0.4867    0.0498 H         1 TRP         0.0530
     79 N         -19.2910   -3.4310    0.9020 N.am      1 LYS        -0.2636
     80 CA        -17.9920   -3.9550    1.2510 C.3       1 LYS         0.1310
     81 C         -17.2430   -3.0700    2.2110 C.2       1 LYS         0.2040
     82 O         -17.3930   -1.8540    2.2630 O.2       1 LYS        -0.3944
     83 CB        -17.0110   -4.2860    0.1100 C.3       1 LYS        -0.0122
     84 CG        -17.0180   -3.3980   -1.1030 C.3       1 LYS        -0.0440
     85 CD        -17.3840   -1.9640   -0.8080 C.3       1 LYS        -0.0124
     86 CE        -16.2830   -1.0070   -1.2340 C.3       1 LYS        -0.0354
     87 NZ        -16.7070    0.4070   -1.0560 N.4       1 LYS         0.2185
     88 H38       -19.4090   -2.4582    0.7027 H         1 LYS         0.1883
     89 H39       -18.1955   -4.9039    1.7688 H         1 LYS         0.0800
     90 H40       -17.2369   -5.3073   -0.2304 H         1 LYS         0.0312
     91 H41       -15.9956   -4.2562    0.5319 H         1 LYS         0.0312
     92 H42       -17.7460   -3.8003   -1.8228 H         1 LYS         0.0269
     93 H43       -16.0131   -3.4141   -1.5500 H         1 LYS         0.0269
     94 H44       -17.5540   -1.8540    0.2732 H         1 LYS         0.0317
     95 H45       -18.3063   -1.7118   -1.3517 H         1 LYS         0.0317
     96 H46       -16.0459   -1.1806   -2.2940 H         1 LYS         0.0813
     97 H47       -15.3878   -1.1936   -0.6226 H         1 LYS         0.0813
     98 H48       -15.9611    1.0203   -1.3449 H         1 LYS         0.1994
     99 H49       -16.9221    0.5737   -0.0854 H         1 LYS         0.1994
    100 H50       -17.5252    0.5856   -1.6170 H         1 LYS         0.1994
    101 N         -16.3500   -3.7950    2.8370 N.am      1 HIS        -0.2625
    102 CA        -15.3260   -3.3310    3.7550 C.3       1 HIS         0.1369
    103 C         -14.0670   -3.7670    2.9870 C.2       1 HIS         0.2054
    104 O         -13.1600   -4.4330    3.4660 O.2       1 HIS        -0.3942
    105 CB        -15.5450   -4.0010    5.1190 C.3       1 HIS         0.0145
    106 CG        -16.2610   -5.2690    4.9210 C.2       1 HIS        -0.0027
    107 ND1       -15.7820   -6.1860    4.0390 N.2       1 HIS        -0.3252
    108 CD2       -17.4860   -5.6700    5.2940 C.2       1 HIS         0.0291
    109 CE1       -16.6860   -7.1150    3.8560 C.2       1 HIS         0.0907
    110 NE2       -17.7440   -6.8240    4.6100 N.pl3     1 HIS        -0.2752
    111 H51       -16.3766   -4.7794    2.6629 H         1 HIS         0.1885
    112 H52       -15.3452   -2.2388    3.8840 H         1 HIS         0.0817
    113 H53       -16.1407   -3.3382    5.7639 H         1 HIS         0.0420
    114 H54       -14.5723   -4.1972    5.5937 H         1 HIS         0.0420
    115 H55       -18.1457   -5.1726    6.0035 H         1 HIS         0.0729
    116 H56       -16.5892   -7.9783    3.1993 H         1 HIS         0.1199
    117 H57       -18.6115   -7.3763    4.6679 H         1 HIS         0.2361
    118 H58       -14.9725   -2.9155    1.3865 H         1 TRP         0.1884
    119 N         -14.1690   -3.4400    1.6680 N.am      1 TRP        -0.2625
    120 CA        -13.2130   -3.7880    0.6430 C.3       1 TRP         0.1352
    121 C         -12.9230   -2.6300   -0.3040 C.2       1 TRP         0.2052
    122 O         -13.7720   -2.1760   -1.0620 O.2       1 TRP        -0.3942
    123 CB        -13.7600   -4.9670   -0.1610 C.3       1 TRP         0.0042
    124 CG        -13.0690   -6.2200    0.1550 C.2       1 TRP        -0.0418
    125 CD1       -12.1250   -6.3780    1.1120 C.2       1 TRP         0.0167
    126 CD2       -13.2440   -7.4890   -0.4740 C.ar      1 TRP        -0.0214
    127 NE1       -11.6390   -7.6440    1.0760 N.pl3     1 TRP        -0.2890
    128 CE2       -12.3120   -8.3510    0.1220 C.ar      1 TRP         0.0603
    129 CE3       -14.0810   -7.9780   -1.4860 C.ar      1 TRP        -0.0747
    130 CZ2       -12.1720   -9.6670   -0.2650 C.ar      1 TRP        -0.0443
    131 CZ3       -13.9520   -9.3000   -1.8630 C.ar      1 TRP        -0.0792
    132 CH2       -13.0000  -10.1300   -1.2520 C.ar      1 TRP        -0.0768
    133 H59       -12.2719   -4.0856    1.1286 H         1 TRP         0.0815
    134 H60       -13.6344   -4.7537   -1.2328 H         1 TRP         0.0397
    135 H61       -14.8297   -5.0852    0.0665 H         1 TRP         0.0397
    136 H62       -11.8035   -5.6040    1.8074 H         1 TRP         0.0795
    137 H63       -10.8841   -8.0122    1.6722 H         1 TRP         0.2216
    138 H64       -14.8120   -7.3340   -1.9613 H         1 TRP         0.0540
    139 H65       -11.4326  -10.3120    0.1959 H         1 TRP         0.0541
    140 H66       -14.5933   -9.7010   -2.6395 H         1 TRP         0.0510
    141 H67       -12.9181  -11.1633   -1.5693 H         1 TRP         0.0530
    142 H68       -11.0455   -2.6573    0.3511 H         1 VAL         0.1883
    143 N         -11.6830   -2.2330   -0.2920 N.am      1 VAL        -0.2634
    144 CA        -11.2010   -1.2060   -1.1720 C.3       1 VAL         0.1333
    145 C          -9.7190   -1.4040   -1.3640 C.2       1 VAL         0.2043
    146 O          -9.2990   -1.7930   -2.4470 O.2       1 VAL        -0.3944
    147 CB        -11.4510    0.2580   -0.7170 C.3       1 VAL        -0.0063
    148 CG1       -10.9180    1.1730   -1.8020 C.3       1 VAL        -0.0584
    149 CG2       -12.9260    0.5650   -0.4800 C.3       1 VAL        -0.0584
    150 H69       -11.7064   -1.3389   -2.1399 H         1 VAL         0.0802
    151 H70       -10.9021    0.4374    0.2192 H         1 VAL         0.0343
    152 H71       -11.0800    2.2211   -1.5100 H         1 VAL         0.0234
    153 H72       -11.4458    0.9694   -2.7454 H         1 VAL         0.0234
    154 H73        -9.8415    0.9924   -1.9378 H         1 VAL         0.0234
    155 H74       -13.3165   -0.0971    0.3069 H         1 VAL         0.0234
    156 H75       -13.4890    0.4002   -1.4105 H         1 VAL         0.0234
    157 H76       -13.0364    1.6132   -0.1653 H         1 VAL         0.0234
    158 H77        -9.4190   -0.8394    0.5479 H         1 TYR         0.1885
    159 N          -8.9610   -1.1420   -0.2880 N.am      1 TYR        -0.2621
    160 CA         -7.5040   -1.2730   -0.2660 C.3       1 TYR         0.1390
    161 C          -6.8490   -0.8840   -1.5960 C.2       1 TYR         0.2058
    162 O          -6.9920   -1.5820   -2.5980 O.2       1 TYR        -0.3942
    163 CB         -7.0810   -2.6820    0.1320 C.3       1 TYR         0.0163
    164 CG         -5.5810   -2.8630    0.0680 C.ar      1 TYR        -0.0493
    165 CD1        -4.7320   -1.8400    0.4620 C.ar      1 TYR        -0.0685
    166 CD2        -5.0080   -4.0340   -0.3950 C.ar      1 TYR        -0.0685
    167 CE1        -3.3560   -1.9770    0.4030 C.ar      1 TYR        -0.0398
    168 CE2        -3.6290   -4.1800   -0.4570 C.ar      1 TYR        -0.0398
    169 CZ         -2.8120   -3.1510   -0.0570 C.ar      1 TYR         0.0805
    170 OH         -1.4550   -3.3010   -0.1160 O.3       1 TYR        -0.3376
    171 H78        -7.1273   -0.5806    0.5013 H         1 TYR         0.0821
    172 H79        -7.5549   -3.4015   -0.5519 H         1 TYR         0.0453
    173 H80        -7.4185   -2.8768    1.1606 H         1 TYR         0.0453
    174 H81        -5.1561   -0.9107    0.8249 H         1 TYR         0.0530
    175 H82        -5.6459   -4.8502   -0.7143 H         1 TYR         0.0530
    176 H83        -2.7124   -1.1635    0.7176 H         1 TYR         0.0525
    177 H84        -3.1973   -5.1054   -0.8208 H         1 TYR         0.0525
    178 H85        -1.0360   -2.5064    0.1930 H         1 TYR         0.2458
    179 H86        -6.0570    0.7281   -0.6935 H         1 TYR         0.1885
    180 N          -6.1240    0.2370   -1.5620 N.am      1 TYR        -0.2620
    181 CA         -5.4190    0.7910   -2.7260 C.3       1 TYR         0.1390
    182 C          -6.1200    2.0710   -3.2190 C.2       1 TYR         0.2058
    183 O          -5.7710    2.6270   -4.2600 O.2       1 TYR        -0.3942
    184 CB         -5.3240   -0.2500   -3.8340 C.3       1 TYR         0.0163
    185 CG         -4.3520    0.0550   -4.9350 C.ar      1 TYR        -0.0493
    186 CD1        -3.1070    0.6360   -4.7110 C.ar      1 TYR        -0.0685
    187 CD2        -4.6860   -0.2820   -6.2220 C.ar      1 TYR        -0.0685
    188 CE1        -2.2240    0.8610   -5.7590 C.ar      1 TYR        -0.0398
    189 CE2        -3.8190   -0.0560   -7.2720 C.ar      1 TYR        -0.0398
    190 CZ         -2.5840    0.5160   -7.0360 C.ar      1 TYR         0.0805
    191 OH         -1.6940    0.7190   -8.0650 O.3       1 TYR        -0.3376
    192 H87        -4.3973    1.0571   -2.4173 H         1 TYR         0.0821
    193 H88        -6.3219   -0.3554   -4.2845 H         1 TYR         0.0453
    194 H89        -5.0260   -1.2045   -3.3756 H         1 TYR         0.0453
    195 H90        -2.8225    0.9170   -3.7035 H         1 TYR         0.0530
    196 H91        -5.6509   -0.7352   -6.4186 H         1 TYR         0.0530
    197 H92        -1.2547    1.3073   -5.5682 H         1 TYR         0.0525
    198 H93        -4.1071   -0.3272   -8.2812 H         1 TYR         0.0525
    199 H94        -2.0860    1.2930   -8.7126 H         1 TYR         0.2458
    200 H95        -7.3003    2.0111   -1.5889 H         1 THR         0.1884
    201 N          -7.0870    2.5390   -2.4110 N.am      1 THR        -0.2612
    202 CA         -7.8550    3.7730   -2.6490 C.3       1 THR         0.1565
    203 C          -8.9140    3.6730   -3.7530 C.2       1 THR         0.2065
    204 O          -8.7610    2.9770   -4.7570 O.2       1 THR        -0.3943
    205 CB         -6.9380    4.9870   -2.8820 C.3       1 THR         0.0924
    206 OG1        -7.0050    5.4470   -4.2180 O.3       1 THR        -0.3874
    207 CG2        -5.4830    4.7330   -2.5600 C.3       1 THR        -0.0346
    208 H96        -8.4051    3.9681   -1.7167 H         1 THR         0.0826
    209 H97        -7.2941    5.7911   -2.2213 H         1 THR         0.0639
    210 H98        -6.6471    4.7851   -4.7980 H         1 THR         0.2101
    211 H99        -4.9001    5.6457   -2.7528 H         1 THR         0.0257
    212 H100       -5.1048    3.9160   -3.1920 H         1 THR         0.0257
    213 H101       -5.3854    4.4526   -1.5009 H         1 THR         0.0257
    214 H102      -10.0150    4.9422   -2.6685 H         1 CYS         0.1884
    215 N          -9.9950    4.4150   -3.5180 N.am      1 CYS        -0.2628
    216 CA        -11.1700    4.5220   -4.4140 C.3       1 CYS         0.1406
    217 C         -12.2760    5.2210   -3.6790 C.2       1 CYS         0.2048
    218 O         -13.0320    6.0150   -4.2330 O.2       1 CYS        -0.3944
    219 CB        -11.7570    3.1660   -4.8380 C.3       1 CYS         0.0443
    220 SG        -12.9430    2.4260   -3.6160 S.3       1 CYS        -0.0882
    221 H103      -10.8818    5.0923   -5.3094 H         1 CYS         0.0808
    222 H104      -10.9251    2.4605   -4.9801 H         1 CYS         0.0432
    223 H105      -12.2876    3.3041   -5.7916 H         1 CYS         0.0432
    224 H106      -11.7220    4.1698   -2.0731 H         1 CYS         0.1884
    225 N         -12.3880    4.8270   -2.4260 N.am      1 CYS        -0.2629
    226 CA        -13.4130    5.2920   -1.5480 C.3       1 CYS         0.1408
    227 C         -12.8730    5.2330   -0.1040 C.2       1 CYS         0.2072
    228 O         -11.6550    5.3470    0.0660 O.2       1 CYS        -0.3942
    229 CB        -14.6320    4.4100   -1.8290 C.3       1 CYS         0.0443
    230 SG        -14.6050    3.6400   -3.5180 S.3       1 CYS        -0.0882
    231 H107      -13.6694    6.3363   -1.7796 H         1 CYS         0.0809
    232 H108      -15.5380    5.0276   -1.7410 H         1 CYS         0.0432
    233 H109      -14.6620    3.6060   -1.0789 H         1 CYS         0.0432
    234 H110      -12.6096    6.0283    2.4765 H         1 PRO         0.0802
    235 N         -13.7040    5.0980    0.9590 N.am      1 PRO        -0.2498
    236 CA        -13.1700    5.0930    2.3310 C.3       1 PRO         0.1338
    237 C         -12.1770    3.9390    2.6600 C.2       1 PRO         0.2042
    238 O         -11.4280    3.4850    1.7890 O.2       1 PRO        -0.3944
    239 CB        -14.4030    5.1300    3.2410 C.3       1 PRO        -0.0104
    240 CG        -15.6120    5.0470    2.3610 C.3       1 PRO        -0.0281
    241 CD        -15.1690    4.9980    0.9190 C.3       1 PRO         0.0369
    242 H111      -14.4191    6.0686    3.8143 H         1 PRO         0.0313
    243 H112      -14.3839    4.2767    3.9349 H         1 PRO         0.0313
    244 H113      -16.1820    4.1378    2.6026 H         1 PRO         0.0287
    245 H114      -16.2464    5.9311    2.5219 H         1 PRO         0.0287
    246 H115      -15.4778    4.0505    0.4533 H         1 PRO         0.0524
    247 H116      -15.5973    5.8402    0.3557 H         1 PRO         0.0524
    248 H117      -12.7237    3.9517    4.6030 H         1 ASP         0.1884
    249 N         -12.0880    3.5580    3.9390 N.am      1 ASP        -0.2622
    250 CA        -11.0870    2.5780    4.4090 C.3       1 ASP         0.1423
    251 C         -11.4840    1.0730    4.3780 C.2       1 ASP         0.2057
    252 O         -12.6450    0.6950    4.2280 O.2       1 ASP        -0.3943
    253 CB        -10.6910    2.9330    5.8620 C.3       1 ASP         0.0406
    254 CG        -10.8640    4.3810    6.2720 C.2       1 ASP         0.0393
    255 OD1       -11.9750    4.9330    6.1070 O.co2     1 ASP        -0.5688
    256 OD2        -9.8880    4.9500    6.7980 O.co2     1 ASP        -0.5688
    257 H118      -10.2035    2.6907    3.7635 H         1 ASP         0.0819
    258 H119       -9.6304    2.6724    5.9931 H         1 ASP         0.0478
    259 H120      -11.3057    2.3185    6.5362 H         1 ASP         0.0478
    260 H121       -9.5365    0.6447    4.7111 H         1 THR         0.1884
    261 N         -10.4410    0.2330    4.6000 N.am      1 THR        -0.2612
    262 CA        -10.5310   -1.2370    4.6910 C.3       1 THR         0.1567
    263 C         -10.0010   -1.7630    6.0310 C.2       1 THR         0.2090
    264 O          -9.5150   -2.8980    6.1050 O.2       1 THR        -0.3941
    265 CB         -9.7060   -1.8950    3.5940 C.3       1 THR         0.0924
    266 OG1        -8.4980   -1.1990    3.3450 O.3       1 THR        -0.3874
    267 CG2       -10.4420   -1.9700    2.3120 C.3       1 THR        -0.0346
    268 H122      -11.5858   -1.5288    4.5804 H         1 THR         0.0826
    269 H123       -9.4639   -2.9164    3.9226 H         1 THR         0.0639
    270 H124       -7.9998   -1.1332    4.1512 H         1 THR         0.2101
    271 H125       -9.8079   -2.4512    1.5528 H         1 THR         0.0257
    272 H126      -10.7049   -0.9547    1.9802 H         1 THR         0.0257
    273 H127      -11.3601   -2.5599    2.4502 H         1 THR         0.0257
    274 H128       -8.7528   -2.0535    8.3401 H         1 PRO         0.0802
    275 N         -10.0770   -0.9630    7.1050 N.am      1 PRO        -0.2498
    276 CA         -9.6050   -1.3620    8.4150 C.3       1 PRO         0.1338
    277 C         -10.7010   -1.9860    9.2670 C.2       1 PRO         0.2043
    278 O         -10.4280   -2.4500   10.3740 O.2       1 PRO        -0.3944
    279 CB         -9.2020   -0.0250    9.0080 C.3       1 PRO        -0.0104
    280 CG        -10.2570    0.8960    8.5100 C.3       1 PRO        -0.0281
    281 CD        -10.6260    0.3960    7.1480 C.3       1 PRO         0.0369
    282 H129       -8.2083    0.2824    8.6501 H         1 PRO         0.0313
    283 H130       -9.1996   -0.0651   10.1073 H         1 PRO         0.0313
    284 H131      -11.1317    0.8724    9.1766 H         1 PRO         0.0287
    285 H132       -9.8702    1.9239    8.4488 H         1 PRO         0.0287
    286 H133      -11.7185    0.3800    7.0207 H         1 PRO         0.0524
    287 H134      -10.1748    1.0243    6.3660 H         1 PRO         0.0524
    288 H135      -12.1028   -1.5761    7.8666 H         1 TYR         0.1886
    289 N         -11.9370   -1.9760    8.7680 N.am      1 TYR        -0.2608
    290 CA        -13.0510   -2.5420    9.5220 C.3       1 TYR         0.1501
    291 C         -13.1180   -4.0630    9.3230 C.2       1 TYR         0.2589
    292 O         -12.4750   -4.5790    8.3770 O.2       1 TYR        -0.3678
    293 CB        -14.3890   -1.9080    9.1130 C.3       1 TYR         0.0177
    294 CG        -14.8780   -0.7630    9.9920 C.ar      1 TYR        -0.0491
    295 CD1       -14.0260    0.2270   10.4870 C.ar      1 TYR        -0.0685
    296 CD2       -16.2260   -0.6690   10.2980 C.ar      1 TYR        -0.0685
    297 CE1       -14.5180    1.2720   11.2610 C.ar      1 TYR        -0.0398
    298 CE2       -16.7230    0.3670   11.0710 C.ar      1 TYR        -0.0398
    299 CZ        -15.8640    1.3360   11.5490 C.ar      1 TYR         0.0805
    300 OH        -16.3440    2.3710   12.3180 O.3       1 TYR        -0.3376
    301 H136      -12.8825   -2.3361   10.5893 H         1 TYR         0.0837
    302 H137      -15.1552   -2.6970    9.1299 H         1 TYR         0.0454
    303 H138      -14.2808   -1.5238    8.0880 H         1 TYR         0.0454
    304 H139      -12.9661    0.1799   10.2645 H         1 TYR         0.0530
    305 H140      -16.9077   -1.4241    9.9236 H         1 TYR         0.0530
    306 H141      -13.8448    2.0340   11.6367 H         1 TYR         0.0525
    307 H142      -17.7815    0.4167   11.2996 H         1 TYR         0.0525
    308 H143      -15.6256    2.9430   12.5611 H         1 TYR         0.2458
    309 H144      -13.2812   -5.4531   10.5688 H         1 TYR         0.2540
    310 O1        -13.8451   -4.8206   10.1393 O.3       1 TYR        -0.2908
@<TRIPOS>BOND
     1    2    1 1  
     2    2    5 1  
     3    3    2 1  
     4    3    4 2  
     5    5    6 1  
     6    6    7 ar 
     7    6    8 ar 
     8    8   10 ar 
     9   10   11 ar 
    10   11   12 1  
    11    9   11 ar 
    12    7    9 ar 
    13    1   13 1  
    14    1   14 1  
    15    1   15 1  
    16    2   16 1  
    17    5   17 1  
    18    5   18 1  
    19    7   19 1  
    20    8   20 1  
    21    9   21 1  
    22   10   22 1  
    23   12   23 1  
    24   25   24 1  
    25   25   28 1  
    26   26   25 1  
    27   26   27 2  
    28   28   29 1  
    29   29   30 1  
    30   30   31 1  
    31   31   32 ar 
    32   32   34 ar 
    33   32   33 ar 
    34   24   35 1  
    35   25   36 1  
    36   28   37 1  
    37   28   38 1  
    38   29   39 1  
    39   29   40 1  
    40   30   41 1  
    41   30   42 1  
    42   31   43 1  
    43   33   44 1  
    44   33   45 1  
    45   34   46 1  
    46   34   47 1  
    47   24    3 am 
    48   49   48 1  
    49   50   49 1  
    50   50   51 2  
    51   48   52 1  
    52   49   53 1  
    53   49   54 1  
    54   48   26 am 
    55   56   55 1  
    56   56   59 1  
    57   57   56 1  
    58   57   58 2  
    59   59   60 1  
    60   60   61 2  
    61   60   62 1  
    62   62   65 ar 
    63   62   64 ar 
    64   64   66 ar 
    65   64   63 1  
    66   61   63 1  
    67   66   68 ar 
    68   67   68 ar 
    69   65   67 ar 
    70   55   69 1  
    71   56   70 1  
    72   59   71 1  
    73   59   72 1  
    74   61   73 1  
    75   63   74 1  
    76   65   75 1  
    77   66   76 1  
    78   67   77 1  
    79   68   78 1  
    80   55   50 am 
    81   80   79 1  
    82   80   83 1  
    83   81   80 1  
    84   81   82 2  
    85   83   84 1  
    86   84   85 1  
    87   85   86 1  
    88   86   87 1  
    89   79   88 1  
    90   80   89 1  
    91   83   90 1  
    92   83   91 1  
    93   84   92 1  
    94   84   93 1  
    95   85   94 1  
    96   85   95 1  
    97   86   96 1  
    98   86   97 1  
    99   87   98 1  
   100   87   99 1  
   101   87  100 1  
   102   79   57 am 
   103  102  101 1  
   104  102  105 1  
   105  103  102 1  
   106  103  104 2  
   107  105  106 1  
   108  106  107 1  
   109  106  108 2  
   110  108  110 1  
   111  110  109 1  
   112  107  109 2  
   113  101  111 1  
   114  102  112 1  
   115  105  113 1  
   116  105  114 1  
   117  108  115 1  
   118  109  116 1  
   119  110  117 1  
   120  119  118 1  
   121  101   81 am 
   122  120  119 1  
   123  120  123 1  
   124  121  120 1  
   125  121  122 2  
   126  123  124 1  
   127  124  125 2  
   128  124  126 1  
   129  126  129 ar 
   130  126  128 ar 
   131  128  130 ar 
   132  128  127 1  
   133  125  127 1  
   134  130  132 ar 
   135  131  132 ar 
   136  129  131 ar 
   137  120  133 1  
   138  123  134 1  
   139  123  135 1  
   140  125  136 1  
   141  127  137 1  
   142  129  138 1  
   143  130  139 1  
   144  131  140 1  
   145  132  141 1  
   146  143  142 1  
   147  119  103 am 
   148  144  143 1  
   149  144  147 1  
   150  145  144 1  
   151  145  146 2  
   152  147  149 1  
   153  147  148 1  
   154  144  150 1  
   155  147  151 1  
   156  148  152 1  
   157  148  153 1  
   158  148  154 1  
   159  149  155 1  
   160  149  156 1  
   161  149  157 1  
   162  159  158 1  
   163  143  121 am 
   164  160  159 1  
   165  160  163 1  
   166  161  160 1  
   167  161  162 2  
   168  163  164 1  
   169  164  165 ar 
   170  164  166 ar 
   171  166  168 ar 
   172  168  169 ar 
   173  169  170 1  
   174  167  169 ar 
   175  165  167 ar 
   176  160  171 1  
   177  163  172 1  
   178  163  173 1  
   179  165  174 1  
   180  166  175 1  
   181  167  176 1  
   182  168  177 1  
   183  170  178 1  
   184  180  179 1  
   185  159  145 am 
   186  181  180 1  
   187  181  184 1  
   188  182  181 1  
   189  182  183 2  
   190  184  185 1  
   191  185  186 ar 
   192  185  187 ar 
   193  187  189 ar 
   194  189  190 ar 
   195  190  191 1  
   196  188  190 ar 
   197  186  188 ar 
   198  181  192 1  
   199  184  193 1  
   200  184  194 1  
   201  186  195 1  
   202  187  196 1  
   203  188  197 1  
   204  189  198 1  
   205  191  199 1  
   206  201  200 1  
   207  180  161 am 
   208  202  201 1  
   209  202  205 1  
   210  203  202 1  
   211  203  204 2  
   212  205  207 1  
   213  205  206 1  
   214  202  208 1  
   215  205  209 1  
   216  206  210 1  
   217  207  211 1  
   218  207  212 1  
   219  207  213 1  
   220  215  214 1  
   221  201  182 am 
   222  216  215 1  
   223  216  219 1  
   224  217  216 1  
   225  217  218 2  
   226  219  220 1  
   227  216  221 1  
   228  219  222 1  
   229  219  223 1  
   230  225  224 1  
   231  215  203 am 
   232  226  225 1  
   233  226  229 1  
   234  227  226 1  
   235  227  228 2  
   236  229  230 1  
   237  226  231 1  
   238  229  232 1  
   239  229  233 1  
   240  236  234 1  
   241  225  217 am 
   242  237  236 1  
   243  236  239 1  
   244  236  235 1  
   245  235  241 1  
   246  241  240 1  
   247  239  240 1  
   248  237  238 2  
   249  239  242 1  
   250  239  243 1  
   251  240  244 1  
   252  240  245 1  
   253  241  246 1  
   254  241  247 1  
   255  249  248 1  
   256  235  227 am 
   257  250  249 1  
   258  250  253 1  
   259  251  250 1  
   260  251  252 2  
   261  253  254 1  
   262  254  255 ar 
   263  254  256 ar 
   264  250  257 1  
   265  253  258 1  
   266  253  259 1  
   267  261  260 1  
   268  249  237 am 
   269  262  261 1  
   270  262  265 1  
   271  263  262 1  
   272  263  264 2  
   273  265  267 1  
   274  265  266 1  
   275  262  268 1  
   276  265  269 1  
   277  266  270 1  
   278  267  271 1  
   279  267  272 1  
   280  267  273 1  
   281  276  274 1  
   282  261  251 am 
   283  277  276 1  
   284  276  279 1  
   285  276  275 1  
   286  275  281 1  
   287  281  280 1  
   288  279  280 1  
   289  277  278 2  
   290  279  282 1  
   291  279  283 1  
   292  280  284 1  
   293  280  285 1  
   294  281  286 1  
   295  281  287 1  
   296  289  288 1  
   297  275  263 am 
   298  289  290 1  
   299  290  293 1  
   300  290  291 1  
   301  291  292 2  
   302  293  294 1  
   303  294  295 ar 
   304  294  296 ar 
   305  296  298 ar 
   306  298  299 ar 
   307  299  300 1  
   308  297  299 ar 
   309  295  297 ar 
   310  290  301 1  
   311  293  302 1  
   312  293  303 1  
   313  295  304 1  
   314  296  305 1  
   315  297  306 1  
   316  298  307 1  
   317  300  308 1  
   318  310  309 1  
   319  277  289 am 
   320  220  230 1  
   321  291  310 1  
@<TRIPOS>SUBSTRUCTURE
     1 TYR         1

