4klb_ligand
  -I-interpret- 

 26 27  0  0  0  0  0  0  0  0999 V2000
   30.4750   -2.0920   20.9510 N   0  0  0  0  0
   30.9770   -1.0060   20.1800 C   0  0  0  0  0
   32.1300   -0.6500   20.3340 O   0  0  0  0  0
   30.0880   -0.3050   19.1610 C   0  0  0  0  0
   29.8890    1.1010   19.0950 C   0  0  0  0  0
   30.4530    2.1360   19.9100 N   0  0  0  0  0
   31.7940    2.5720   19.6790 C   0  0  0  0  0
   32.4740    2.0700   18.8080 O   0  0  0  0  0
   32.4300    3.6800   20.4780 C   0  0  0  0  0
   33.2880    4.6840   19.2900 S   0  0  0  0  0
   32.1130    5.4220   18.1660 C   0  0  0  0  0
   30.7820    5.2500   18.1660 N   0  0  0  0  0
   30.2420    5.9640   17.1760 N   0  0  0  0  0
   31.2190    6.6030   16.5280 C   0  0  0  0  0
   32.3860    6.2700   17.1400 N   0  0  0  0  0
   28.8400    1.3700   17.8040 S   0  0  0  0  0
   28.5850   -0.1990   17.2820 C   0  0  0  0  0
   29.3480   -1.0180   18.1360 C   0  0  0  0  0
   31.0803   -2.5626   21.6237 H   0  0  0  0  0
   29.5100   -2.3996   20.8308 H   0  0  0  0  0
   29.8984    2.5605   20.6534 H   0  0  0  0  0
   33.1082    3.2887   21.2363 H   0  0  0  0  0
   31.6853    4.2567   21.0266 H   0  0  0  0  0
   31.1027    7.2660   15.6707 H   0  0  0  0  0
   27.9571   -0.5210   16.4513 H   0  0  0  0  0
   29.3804   -2.1028   18.0353 H   0  0  0  0  0
  1  2  1  0  0  0
  2  3  2  0  0  0
  2  4  1  0  0  0
  4  5  4  0  0  0
  4 18  4  0  0  0
  5  6  1  0  0  0
  5 16  4  0  0  0
  6  7  1  0  0  0
  7  8  2  0  0  0
  7  9  1  0  0  0
  9 10  1  0  0  0
 10 11  1  0  0  0
 11 12  4  0  0  0
 11 15  4  0  0  0
 12 13  4  0  0  0
 13 14  4  0  0  0
 14 15  4  0  0  0
 16 17  4  0  0  0
 17 18  4  0  0  0
  1 19  1  0  0  0
  1 20  1  0  0  0
  6 21  1  0  0  0
  9 22  1  0  0  0
  9 23  1  0  0  0
 14 24  1  0  0  0
 17 25  1  0  0  0
 18 26  1  0  0  0
M  END
$$$$
