4fm8_ligand
  -I-interpret- 

 65 68  0  0  0  0  0  0  0  0999 V2000
   22.3880   34.6370   42.4680 C   0  0  0  0  0
   23.4070   34.9270   41.3780 C   0  0  0  0  0
   23.1740   36.2520   40.7110 N   0  3  0  0  0
   22.9030   37.4190   41.6370 C   0  0  0  0  0
   21.8420   37.0960   42.6800 C   0  0  0  0  0
   22.0960   35.7900   43.4220 C   0  0  0  0  0
   22.4830   38.6370   40.8600 C   0  0  0  0  0
   23.0590   35.9860   44.5500 N   0  0  0  0  0
   20.7980   35.4670   44.1460 C   0  0  0  0  0
   24.4520   36.3620   44.5020 C   0  0  0  0  0
   25.5520   35.5650   44.2420 C   0  0  0  0  0
   26.8220   36.1190   44.2720 C   0  0  0  0  0
   26.9970   37.4610   44.5860 C   0  0  0  0  0
   25.8860   38.2380   44.8500 C   0  0  0  0  0
   24.6260   37.6940   44.8100 C   0  0  0  0  0
   25.9580   39.5390   45.1550 F   0  0  0  0  0
   24.2100   36.5280   39.6480 C   0  0  0  0  0
   25.6250   36.6520   40.1160 C   0  0  0  0  0
   26.4140   35.5250   40.1700 C   0  0  0  0  0
   27.7260   35.6050   40.5990 C   0  0  0  0  0
   28.2620   36.8250   40.9710 C   0  0  0  0  0
   27.4800   37.9600   40.9030 C   0  0  0  0  0
   26.1760   37.8710   40.4700 C   0  0  0  0  0
   28.5790   34.4990   40.6880 O   0  0  0  0  0
   28.2440   33.3890   39.8690 C   0  0  0  0  0
   28.4710   33.6970   38.3940 C   0  0  0  0  0
   29.1740   32.2630   40.3080 C   0  0  0  0  0
   22.6730   35.0490   45.9250 S   0  0  0  0  0
   21.1410   34.6280   45.3120 N   0  0  0  0  0
   22.5770   36.0330   46.9890 O   0  0  0  0  0
   20.0320   34.5610   46.2860 C   0  0  0  0  0
   23.4900   33.8670   46.0660 O   0  0  0  0  0
   22.8041   33.8322   43.0740 H   0  0  0  0  0
   21.4499   34.4096   41.9616 H   0  0  0  0  0
   23.3193   34.1488   40.6199 H   0  0  0  0  0
   24.3946   34.9514   41.8387 H   0  0  0  0  0
   22.2771   36.1557   40.2348 H   0  0  0  0  0
   23.8390   37.6225   42.1571 H   0  0  0  0  0
   20.8900   36.9964   42.1586 H   0  0  0  0  0
   21.8526   37.8988   43.4173 H   0  0  0  0  0
   21.5320   38.4405   40.3649 H   0  0  0  0  0
   22.3719   39.4805   41.5413 H   0  0  0  0  0
   23.2419   38.8693   40.1129 H   0  0  0  0  0
   20.1118   34.9392   43.4837 H   0  0  0  0  0
   20.3009   36.3825   44.4666 H   0  0  0  0  0
   25.4208   34.5071   44.0148 H   0  0  0  0  0
   27.6892   35.4978   44.0478 H   0  0  0  0  0
   27.9964   37.8944   44.6235 H   0  0  0  0  0
   23.7587   38.3189   45.0230 H   0  0  0  0  0
   23.9488   37.4930   39.2137 H   0  0  0  0  0
   24.1878   35.6719   38.9737 H   0  0  0  0  0
   26.0008   34.5614   39.8720 H   0  0  0  0  0
   29.2942   36.8892   41.3152 H   0  0  0  0  0
   27.8942   38.9260   41.1918 H   0  0  0  0  0
   25.5689   38.7739   40.4051 H   0  0  0  0  0
   27.1911   33.1290   39.9782 H   0  0  0  0  0
   27.8498   34.5434   38.1011 H   0  0  0  0  0
   29.5208   33.9421   38.2327 H   0  0  0  0  0
   28.2042   32.8250   37.7968 H   0  0  0  0  0
   30.2093   32.5698   40.1594 H   0  0  0  0  0
   29.0060   32.0452   41.3627 H   0  0  0  0  0
   28.9690   31.3720   39.7145 H   0  0  0  0  0
   20.2626   33.8149   47.0464 H   0  0  0  0  0
   19.9052   35.5353   46.7579 H   0  0  0  0  0
   19.1130   34.2835   45.7697 H   0  0  0  0  0
  1  2  1  0  0  0
  1  6  1  0  0  0
  2  3  1  0  0  0
  3  4  1  0  0  0
  3 17  1  0  0  0
  4  5  1  0  0  0
  4  7  1  0  0  0
  5  6  1  0  0  0
  6  8  1  0  0  0
  6  9  1  0  0  0
  8 10  1  0  0  0
  8 28  1  0  0  0
  9 29  1  0  0  0
 10 11  4  0  0  0
 10 15  4  0  0  0
 11 12  4  0  0  0
 12 13  4  0  0  0
 13 14  4  0  0  0
 14 15  4  0  0  0
 14 16  1  0  0  0
 17 18  1  0  0  0
 18 19  4  0  0  0
 18 23  4  0  0  0
 19 20  4  0  0  0
 20 21  4  0  0  0
 20 24  1  0  0  0
 21 22  4  0  0  0
 22 23  4  0  0  0
 24 25  1  0  0  0
 25 26  1  0  0  0
 25 27  1  0  0  0
 28 29  1  0  0  0
 28 30  2  0  0  0
 28 32  2  0  0  0
 29 31  1  0  0  0
  1 33  1  0  0  0
  1 34  1  0  0  0
  2 35  1  0  0  0
  2 36  1  0  0  0
  3 37  1  0  0  0
  4 38  1  0  0  0
  5 39  1  0  0  0
  5 40  1  0  0  0
  7 41  1  0  0  0
  7 42  1  0  0  0
  7 43  1  0  0  0
  9 44  1  0  0  0
  9 45  1  0  0  0
 11 46  1  0  0  0
 12 47  1  0  0  0
 13 48  1  0  0  0
 15 49  1  0  0  0
 17 50  1  0  0  0
 17 51  1  0  0  0
 19 52  1  0  0  0
 21 53  1  0  0  0
 22 54  1  0  0  0
 23 55  1  0  0  0
 25 56  1  0  0  0
 26 57  1  0  0  0
 26 58  1  0  0  0
 26 59  1  0  0  0
 27 60  1  0  0  0
 27 61  1  0  0  0
 27 62  1  0  0  0
 31 63  1  0  0  0
 31 64  1  0  0  0
 31 65  1  0  0  0
M  END
$$$$
