### 
### Created by X-TOOL on Mon Sep 10 21:13:12 2018
### 

@<TRIPOS>MOLECULE
4klv_ligand
   24    25     1     0     0
SMALL
GAST_HUCK


@<TRIPOS>ATOM
      1 C          11.1650   -4.8880  -11.3430 C.3       1 KLV        -0.0110
      2 O          15.1950   -7.5210  -11.5370 O.2       1 KLV        -0.3468
      3 P          15.8840    0.4710   -8.8580 P.3       1 KLV         0.1233
      4 C1         12.6390   -5.0570  -11.1680 C.2       1 KLV         0.0180
      5 O1         15.3770   -5.3620  -10.8500 O.3       1 KLV        -0.1931
      6 C2         13.2640   -6.2170  -11.4440 C.2       1 KLV         0.0613
      7 O2         16.1240   -1.0430   -9.3290 O.3       1 KLV        -0.2217
      8 C3         14.6830   -6.4580  -11.2850 C.2       1 KLV         0.2964
      9 O3         14.9790    0.4080   -7.6660 O.co2     1 KLV        -0.6679
     10 C4         14.8120   -4.1380  -10.5330 C.ar      1 KLV         0.1632
     11 O4         15.2590    1.2130  -10.0530 O.co2     1 KLV        -0.6679
     12 C5         13.4370   -3.9500  -10.6840 C.ar      1 KLV         0.0617
     13 O5         17.2710    0.9630   -8.3940 O.co2     1 KLV        -0.6679
     14 C6         12.9450   -2.6840  -10.3490 C.ar      1 KLV        -0.0337
     15 C7         13.8150   -1.7020   -9.8990 C.ar      1 KLV        -0.0079
     16 C8         15.1690   -1.9710   -9.7720 C.ar      1 KLV         0.1452
     17 C9         15.7160   -3.1920  -10.0930 C.ar      1 KLV         0.0336
     18 H1         10.7300   -5.8270  -11.7158 H         1 KLV         0.0473
     19 H2         10.9716   -4.0819  -12.0660 H         1 KLV         0.0473
     20 H3         10.7080   -4.6308  -10.3761 H         1 KLV         0.0473
     21 H4         12.6543   -7.0390  -11.8162 H         1 KLV         0.0865
     22 H5         11.8861   -2.4710  -10.4409 H         1 KLV         0.0704
     23 H6         13.4343   -0.7193   -9.6453 H         1 KLV         0.0617
     24 H7         16.7772   -3.3958  -10.0069 H         1 KLV         0.0549
@<TRIPOS>BOND
     1    4    1 1  
     2    8    2 2  
     3    7    3 1  
     4    3    9 ar 
     5    3   11 ar 
     6    3   13 ar 
     7    4    6 2  
     8   12    4 1  
     9    5    8 1  
    10   10    5 1  
    11    6    8 1  
    12   16    7 1  
    13   12   10 ar 
    14   10   17 ar 
    15   14   12 ar 
    16   15   14 ar 
    17   15   16 ar 
    18   16   17 ar 
    19    1   18 1  
    20    1   19 1  
    21    1   20 1  
    22    6   21 1  
    23   14   22 1  
    24   15   23 1  
    25   17   24 1  
@<TRIPOS>SUBSTRUCTURE
     1 KLV         1

