4klv_ligand
  -I-interpret- 

 26 27  0  0  0  0  0  0  0  0999 V2000
   11.1650   -4.8880  -11.3430 C   0  0  0  0  0
   15.1950   -7.5210  -11.5370 O   0  0  0  0  0
   15.8840    0.4710   -8.8580 P   0  0  0  0  0
   12.6390   -5.0570  -11.1680 C   0  0  0  0  0
   15.3770   -5.3620  -10.8500 O   0  0  0  0  0
   13.2640   -6.2170  -11.4440 C   0  0  0  0  0
   16.1240   -1.0430   -9.3290 O   0  0  0  0  0
   14.6830   -6.4580  -11.2850 C   0  0  0  0  0
   14.9790    0.4080   -7.6660 O   0  0  0  0  0
   14.8120   -4.1380  -10.5330 C   0  0  0  0  0
   15.2590    1.2130  -10.0530 O   0  0  0  0  0
   13.4370   -3.9500  -10.6840 C   0  0  0  0  0
   17.2710    0.9630   -8.3940 O   0  0  0  0  0
   12.9450   -2.6840  -10.3490 C   0  0  0  0  0
   13.8150   -1.7020   -9.8990 C   0  0  0  0  0
   15.1690   -1.9710   -9.7720 C   0  0  0  0  0
   15.7160   -3.1920  -10.0930 C   0  0  0  0  0
   10.9017   -5.0637  -12.3860 H   0  0  0  0  0
   10.6408   -5.6033  -10.7092 H   0  0  0  0  0
   10.8808   -3.8742  -11.0610 H   0  0  0  0  0
   12.6537   -7.0397  -11.8166 H   0  0  0  0  0
   15.8814    1.2217  -10.7838 H   0  0  0  0  0
   17.8623    1.0083   -9.1490 H   0  0  0  0  0
   11.8803   -2.4698  -10.4414 H   0  0  0  0  0
   13.4322   -0.7138   -9.6439 H   0  0  0  0  0
   16.7830   -3.3970  -10.0064 H   0  0  0  0  0
  4  1  1  0  0  0
  8  2  2  0  0  0
  7  3  1  0  0  0
  3  9  2  0  0  0
  3 11  1  0  0  0
  3 13  1  0  0  0
  4  6  2  0  0  0
 12  4  1  0  0  0
  5  8  1  0  0  0
 10  5  1  0  0  0
  6  8  1  0  0  0
 16  7  1  0  0  0
 12 10  4  0  0  0
 10 17  4  0  0  0
 14 12  4  0  0  0
 15 14  4  0  0  0
 15 16  4  0  0  0
 16 17  4  0  0  0
  1 18  1  0  0  0
  1 19  1  0  0  0
  1 20  1  0  0  0
  6 21  1  0  0  0
 11 22  1  0  0  0
 13 23  1  0  0  0
 14 24  1  0  0  0
 15 25  1  0  0  0
 17 26  1  0  0  0
M  END
$$$$
