3lp4_ligand
  -I-interpret- 

 26 25  0  0  0  0  0  0  0  0999 V2000
   26.1750  -42.4930    3.7970 N   0  3  0  0  0
   26.0410  -42.7180    5.2560 C   0  0  0  0  0
   24.6230  -43.2200    5.5520 C   0  0  0  0  0
   24.2810  -43.2540    6.7460 O   0  0  0  0  0
   26.3500  -41.4020    6.0070 C   0  0  0  0  0
   25.3710  -40.2760    5.7480 C   0  0  0  0  0
   25.7330  -39.0390    6.5010 C   0  0  0  0  0
   24.7060  -37.9900    6.1990 C   0  0  0  0  0
   24.9710  -36.7080    6.8940 N   0  3  0  0  0
   23.8830  -43.5620    4.5920 O   0  0  0  0  0
   25.9714  -43.3603    3.3003 H   0  0  0  0  0
   25.5181  -41.7698    3.5040 H   0  0  0  0  0
   27.1273  -42.1946    3.5863 H   0  0  0  0  0
   26.7499  -43.4723    5.5973 H   0  0  0  0  0
   27.3242  -41.0602    5.6574 H   0  0  0  0  0
   26.2983  -41.6267    7.0723 H   0  0  0  0  0
   24.3834  -40.5995    6.0769 H   0  0  0  0  0
   25.3896  -40.0453    4.6828 H   0  0  0  0  0
   26.7219  -38.6930    6.2003 H   0  0  0  0  0
   25.7553  -39.2446    7.5712 H   0  0  0  0  0
   23.7399  -38.3611    6.5411 H   0  0  0  0  0
   24.7303  -37.7988    5.1262 H   0  0  0  0  0
   24.2437  -36.0350    6.6524 H   0  0  0  0  0
   24.9712  -36.8629    7.9022 H   0  0  0  0  0
   25.8799  -36.3470    6.6041 H   0  0  0  0  0
   24.3601  -43.4509    3.7664 H   0  0  0  0  0
  1  2  1  0  0  0
  2  3  1  0  0  0
  2  5  1  0  0  0
  3  4  2  0  0  0
  3 10  1  0  0  0
  5  6  1  0  0  0
  6  7  1  0  0  0
  7  8  1  0  0  0
  8  9  1  0  0  0
  1 11  1  0  0  0
  1 12  1  0  0  0
  1 13  1  0  0  0
  2 14  1  0  0  0
  5 15  1  0  0  0
  5 16  1  0  0  0
  6 17  1  0  0  0
  6 18  1  0  0  0
  7 19  1  0  0  0
  7 20  1  0  0  0
  8 21  1  0  0  0
  8 22  1  0  0  0
  9 23  1  0  0  0
  9 24  1  0  0  0
  9 25  1  0  0  0
 10 26  1  0  0  0
M  END
$$$$
