1o2g_ligand
  -I-interpret- 

 41 44  0  0  0  0  0  0  0  0999 V2000
   11.5100  -11.6470   22.5770 C   0  0  0  0  0
   11.9960  -10.3580   22.1890 C   0  0  0  0  0
   12.8590  -10.2060   21.1080 C   0  0  0  0  0
   13.2380  -11.3410   20.4050 C   0  0  0  0  0
   12.7680  -12.5750   20.7860 C   0  0  0  0  0
   11.9060  -12.7540   21.8260 C   0  0  0  0  0
   10.6970  -11.7620   23.7050 C   0  0  0  0  0
    9.9910  -12.8580   23.9020 N   0  0  0  0  0
   10.5960  -10.7460   24.5320 N   0  0  0  0  0
   13.9860  -11.4730   19.3660 N   0  0  0  0  0
   13.1510  -13.6000   19.8200 C   0  0  0  0  0
   13.9760  -12.7630   19.0070 C   0  0  0  0  0
   14.8490  -13.3090   18.0820 C   0  0  0  0  0
   14.8170  -14.7040   17.8360 C   0  0  0  0  0
   15.6500  -15.2640   16.8830 C   0  0  0  0  0
   16.5440  -14.4630   16.1910 C   0  0  0  0  0
   16.6460  -13.0830   16.4510 C   0  0  0  0  0
   15.7820  -12.5170   17.4160 C   0  0  0  0  0
   15.7850  -11.1630   17.6660 O   0  0  0  0  0
   17.6360  -12.3600   15.7350 C   0  0  0  0  0
   17.3410  -11.2050   15.0030 C   0  0  0  0  0
   18.3400  -10.5460   14.2720 C   0  0  0  0  0
   19.6550  -11.0370   14.2590 C   0  0  0  0  0
   19.9650  -12.1780   14.9970 C   0  0  0  0  0
   18.9680  -12.8340   15.7260 C   0  0  0  0  0
   11.6840   -9.4779   22.7514 H   0  0  0  0  0
   13.2277   -9.2212   20.8209 H   0  0  0  0  0
   11.5310  -13.7485   22.0679 H   0  0  0  0  0
    9.3605  -12.9217   24.7012 H   0  0  0  0  0
   10.0754  -13.6421   23.2552 H   0  0  0  0  0
    9.9678  -10.8015   25.3337 H   0  0  0  0  0
   12.8927  -14.6562   19.7438 H   0  0  0  0  0
   14.1334  -15.3389   18.3997 H   0  0  0  0  0
   15.6028  -16.3334   16.6772 H   0  0  0  0  0
   17.1820  -14.9108   15.4290 H   0  0  0  0  0
   16.4731  -10.7439   17.1440 H   0  0  0  0  0
   16.3239  -10.8131   15.0008 H   0  0  0  0  0
   18.0935   -9.6455   13.7095 H   0  0  0  0  0
   20.4258  -10.5311   13.6777 H   0  0  0  0  0
   20.9860  -12.5596   15.0060 H   0  0  0  0  0
   19.2224  -13.7267   16.2975 H   0  0  0  0  0
  1  2  4  0  0  0
  1  6  4  0  0  0
  1  7  1  0  0  0
  2  3  4  0  0  0
  3  4  4  0  0  0
  4  5  4  0  0  0
  4 10  4  0  0  0
  5  6  4  0  0  0
  5 11  4  0  0  0
  7  8  1  0  0  0
  7  9  2  0  0  0
 10 12  4  0  0  0
 11 12  4  0  0  0
 12 13  1  0  0  0
 13 14  4  0  0  0
 13 18  4  0  0  0
 14 15  4  0  0  0
 15 16  4  0  0  0
 16 17  4  0  0  0
 17 18  4  0  0  0
 17 20  1  0  0  0
 18 19  1  0  0  0
 20 21  4  0  0  0
 20 25  4  0  0  0
 21 22  4  0  0  0
 22 23  4  0  0  0
 23 24  4  0  0  0
 24 25  4  0  0  0
  2 26  1  0  0  0
  3 27  1  0  0  0
  6 28  1  0  0  0
  8 29  1  0  0  0
  8 30  1  0  0  0
  9 31  1  0  0  0
 11 32  1  0  0  0
 14 33  1  0  0  0
 15 34  1  0  0  0
 16 35  1  0  0  0
 19 36  1  0  0  0
 21 37  1  0  0  0
 22 38  1  0  0  0
 23 39  1  0  0  0
 24 40  1  0  0  0
 25 41  1  0  0  0
M  END
$$$$
