6jt3_ligand
  -I-interpret- 

 47 49  0  0  0  0  0  0  0  0999 V2000
   17.0630   38.2490   -8.6900 C   0  0  0  0  0
   18.4930   38.6150   -8.3350 C   0  0  0  0  0
   18.7960   39.2710   -7.1380 C   0  0  0  0  0
   20.0980   39.6280   -6.8110 C   0  0  0  0  0
   21.3490   40.8200   -5.0860 C   0  0  0  0  0
   21.1260   41.5230   -3.7810 C   0  0  0  0  0
   19.7140   41.8800   -1.9280 C   0  0  0  0  0
   19.9830   41.2670   -3.0870 N   0  0  0  0  0
   21.7970   43.0320   -2.1090 N   0  0  0  0  0
   22.4660   40.8270   -5.5940 O   0  0  0  0  0
   20.6400   42.7830   -1.4180 C   0  0  0  0  0
   16.1660   38.5030   -7.5460 N   0  0  0  0  0
   21.3450   44.1800    0.4560 C   0  0  0  0  0
   22.0570   42.4360   -3.2810 C   0  0  0  0  0
   21.1520   39.3280   -7.6890 C   0  0  0  0  0
   20.9280   38.6880   -8.9120 C   0  0  0  0  0
   19.6340   38.3280   -9.2610 C   0  0  0  0  0
   15.4800   39.5610   -7.3340 C   0  0  0  0  0
   16.6220   40.5950   -9.7070 C   0  0  0  0  0
   15.3920   38.6650  -10.2670 F   0  0  0  0  0
   16.6430   39.0750   -9.9180 C   0  0  0  0  0
   16.1300   41.3390  -10.9480 C   0  0  0  0  0
   15.5970   40.9350   -8.3020 S   0  0  0  0  0
   14.6460   39.5620   -6.2990 N   0  0  0  0  0
   16.9640   36.7580   -9.0040 C   0  0  0  0  0
   19.4140   37.7120  -10.4230 F   0  0  0  0  0
   20.2580   40.2400   -5.6090 N   0  0  0  0  0
   20.3610   43.4010   -0.2250 O   0  0  0  0  0
   22.3510   43.3350    0.8560 F   0  0  0  0  0
   17.9900   39.5083   -6.4437 H   0  0  0  0  0
   18.7862   41.6751   -1.3939 H   0  0  0  0  0
   16.0850   37.7584   -6.8536 H   0  0  0  0  0
   20.9022   44.6749    1.3203 H   0  0  0  0  0
   21.7405   44.9504   -0.2060 H   0  0  0  0  0
   22.9720   42.6583   -3.8300 H   0  0  0  0  0
   22.1699   39.6007   -7.4104 H   0  0  0  0  0
   21.7599   38.4744   -9.5832 H   0  0  0  0  0
   17.6363   40.9516   -9.5278 H   0  0  0  0  0
   17.3923   38.9017  -10.6904 H   0  0  0  0  0
   16.7908   41.1205  -11.7869 H   0  0  0  0  0
   15.1174   41.0141  -11.1872 H   0  0  0  0  0
   16.1321   42.4112  -10.7519 H   0  0  0  0  0
   14.0846   40.3893   -6.0972 H   0  0  0  0  0
   17.2751   36.1829   -8.1319 H   0  0  0  0  0
   15.9333   36.5088   -9.2563 H   0  0  0  0  0
   17.6132   36.5217   -9.8471 H   0  0  0  0  0
   19.4273   40.2618   -5.0175 H   0  0  0  0  0
  2  1  1  0  0  0
  1 12  1  0  0  0
  1 21  1  0  0  0
  1 25  1  0  0  0
  3  2  4  0  0  0
  2 17  4  0  0  0
  4  3  4  0  0  0
  4 15  4  0  0  0
 27  4  1  0  0  0
  5  6  1  0  0  0
  5 10  2  0  0  0
  5 27  1  0  0  0
  6  8  4  0  0  0
  6 14  4  0  0  0
  8  7  4  0  0  0
  7 11  4  0  0  0
 11  9  4  0  0  0
  9 14  4  0  0  0
 11 28  1  0  0  0
 12 18  1  0  0  0
 28 13  1  0  0  0
 13 29  1  0  0  0
 15 16  4  0  0  0
 16 17  4  0  0  0
 17 26  1  0  0  0
 18 23  1  0  0  0
 18 24  2  0  0  0
 21 19  1  0  0  0
 19 22  1  0  0  0
 19 23  1  0  0  0
 21 20  1  0  0  0
  3 30  1  0  0  0
  7 31  1  0  0  0
 12 32  1  0  0  0
 13 33  1  0  0  0
 13 34  1  0  0  0
 14 35  1  0  0  0
 15 36  1  0  0  0
 16 37  1  0  0  0
 19 38  1  0  0  0
 21 39  1  0  0  0
 22 40  1  0  0  0
 22 41  1  0  0  0
 22 42  1  0  0  0
 24 43  1  0  0  0
 25 44  1  0  0  0
 25 45  1  0  0  0
 25 46  1  0  0  0
 27 47  1  0  0  0
M  END
$$$$
