3fa3_ligand
  -I-interpret- 

 16 15  0  0  0  0  0  0  0  0999 V2000
   -7.6680  -28.6810   -3.6210 O   0  0  0  0  0
   -6.8040  -27.7630   -3.6480 C   0  0  0  0  0
   -6.9010  -26.6650   -4.2560 O   0  0  0  0  0
   -5.4520  -27.9950   -2.9140 C   0  0  0  0  0
   -5.4950  -28.5130   -1.5980 O   0  0  0  0  0
   -4.7870  -26.7470   -2.7490 O   0  0  0  0  0
   -4.6720  -28.9680   -3.7850 C   0  0  0  0  0
   -4.7570  -28.6510   -5.0480 F   0  0  0  0  0
   -5.1590  -30.1930   -3.7350 F   0  0  0  0  0
   -3.2640  -28.9780   -3.3030 C   0  0  0  0  0
   -2.5250  -28.0400   -3.7150 O   0  0  0  0  0
   -2.9780  -29.9210   -2.5240 O   0  0  0  0  0
   -7.3435  -29.4087   -3.0855 H   0  0  0  0  0
   -5.9846  -27.9100   -1.0338 H   0  0  0  0  0
   -5.3196  -26.1729   -2.1937 H   0  0  0  0  0
   -3.0288  -27.4715   -4.3021 H   0  0  0  0  0
  1  2  1  0  0  0
  2  3  2  0  0  0
  2  4  1  0  0  0
  4  5  1  0  0  0
  4  6  1  0  0  0
  4  7  1  0  0  0
  7  8  1  0  0  0
  7  9  1  0  0  0
  7 10  1  0  0  0
 10 11  1  0  0  0
 10 12  2  0  0  0
  1 13  1  0  0  0
  5 14  1  0  0  0
  6 15  1  0  0  0
 11 16  1  0  0  0
M  END
$$$$
