5maj_ligand
  -I-interpret- 

 56 60  0  0  0  0  0  0  0  0999 V2000
   -5.8900   12.6970   14.4630 C   0  0  0  0  0
   -7.5970    8.3410   13.0450 C   0  0  0  0  0
   -5.6440   12.4980   16.9500 C   0  0  0  0  0
   -9.2800    6.4210   17.1390 C   0  0  0  0  0
   -8.5300    9.2820   19.5150 C   0  0  0  0  0
   -6.2700   14.2040   14.7030 C   0  0  0  0  0
   -9.6100    4.9860   17.3130 C   0  0  0  0  0
   -6.2760   13.9120   17.1040 C   0  0  0  0  0
   -7.1890    8.7040   16.5670 C   0  0  0  0  0
   -7.3450    7.9990   17.6890 N   0  0  0  0  0
   -6.1090   14.7590   16.0020 O   0  0  0  0  0
   -6.2060   11.9650   15.6830 N   0  0  0  0  0
   -7.4130    8.9670   11.9030 N   0  0  0  0  0
   -7.2340    8.6140   19.0490 C   0  0  0  0  0
   -7.6220    5.6620   18.7110 C   0  0  0  0  0
   -8.4600    4.4020   18.2300 C   0  0  0  0  0
   -7.7790    6.5380   17.5060 C   0  0  0  0  0
   -6.8270   10.0060   16.7150 N   0  0  0  0  0
   -7.4400    8.1560   15.3930 N   0  0  0  0  0
   -7.2910    8.9150   14.3400 C   0  0  0  0  0
   -6.8730   10.2090   14.3500 N   0  0  0  0  0
   -6.6940   10.6780   15.5720 C   0  0  0  0  0
   -9.4620    8.6340   20.2770 N   0  0  0  0  0
  -10.4190    9.5240   20.4970 C   0  0  0  0  0
  -10.2210   10.7340   19.8930 N   0  0  0  0  0
   -8.9500   10.5540   19.2520 C   0  0  0  0  0
  -11.0760   11.8460   19.9530 C   0  0  0  0  0
  -12.2520   11.6880   20.6430 C   0  0  0  0  0
  -12.4590   10.3540   21.2700 C   0  0  0  0  0
  -11.5740    9.3260   21.2150 C   0  0  0  0  0
   -4.8299   12.6044   14.2271 H   0  0  0  0  0
   -6.4504   12.2925   13.6201 H   0  0  0  0  0
   -8.0039    7.3302   13.0156 H   0  0  0  0  0
   -5.8777   11.8553   17.7988 H   0  0  0  0  0
   -4.5552   12.5417   16.9234 H   0  0  0  0  0
   -9.9000    7.0565   17.7713 H   0  0  0  0  0
   -9.4732    6.7582   16.1206 H   0  0  0  0  0
   -7.3408   14.2576   14.5063 H   0  0  0  0  0
   -5.5860   14.7695   14.0701 H   0  0  0  0  0
   -9.6626    4.4673   16.3558 H   0  0  0  0  0
  -10.5921    4.8521   17.7665 H   0  0  0  0  0
   -5.7757   14.3898   17.9463 H   0  0  0  0  0
   -7.3489   13.7649   17.2276 H   0  0  0  0  0
   -7.0339    9.9139   11.8958 H   0  0  0  0  0
   -7.0007    7.8166   19.7545 H   0  0  0  0  0
   -6.4636    9.3836   19.0021 H   0  0  0  0  0
   -6.5894    5.4445   18.9840 H   0  0  0  0  0
   -7.9651    6.1071   19.6450 H   0  0  0  0  0
   -7.8373    3.6913   17.6866 H   0  0  0  0  0
   -8.8659    3.8455   19.0748 H   0  0  0  0  0
   -7.1092    6.2020   16.7144 H   0  0  0  0  0
   -8.4161   11.2986   18.6616 H   0  0  0  0  0
  -10.8180   12.7905   19.4741 H   0  0  0  0  0
  -12.9873   12.4883   20.7265 H   0  0  0  0  0
  -13.3897   10.1905   21.8133 H   0  0  0  0  0
  -11.7717    8.3807   21.7204 H   0  0  0  0  0
  1  6  1  0  0  0
 12  1  1  0  0  0
  2 13  2  0  0  0
 20  2  1  0  0  0
  3  8  1  0  0  0
 12  3  1  0  0  0
  4  7  1  0  0  0
 17  4  1  0  0  0
 14  5  1  0  0  0
  5 23  4  0  0  0
  5 26  4  0  0  0
  6 11  1  0  0  0
 16  7  1  0  0  0
  8 11  1  0  0  0
  9 10  1  0  0  0
  9 18  4  0  0  0
 19  9  4  0  0  0
 10 14  1  0  0  0
 10 17  1  0  0  0
 22 12  1  0  0  0
 15 16  1  0  0  0
 17 15  1  0  0  0
 18 22  4  0  0  0
 19 20  4  0  0  0
 20 21  4  0  0  0
 21 22  4  0  0  0
 23 24  4  0  0  0
 24 25  4  0  0  0
 24 30  4  0  0  0
 25 26  4  0  0  0
 25 27  4  0  0  0
 27 28  4  0  0  0
 28 29  4  0  0  0
 29 30  4  0  0  0
  1 31  1  0  0  0
  1 32  1  0  0  0
  2 33  1  0  0  0
  3 34  1  0  0  0
  3 35  1  0  0  0
  4 36  1  0  0  0
  4 37  1  0  0  0
  6 38  1  0  0  0
  6 39  1  0  0  0
  7 40  1  0  0  0
  7 41  1  0  0  0
  8 42  1  0  0  0
  8 43  1  0  0  0
 13 44  1  0  0  0
 14 45  1  0  0  0
 14 46  1  0  0  0
 15 47  1  0  0  0
 15 48  1  0  0  0
 16 49  1  0  0  0
 16 50  1  0  0  0
 17 51  1  0  0  0
 26 52  1  0  0  0
 27 53  1  0  0  0
 28 54  1  0  0  0
 29 55  1  0  0  0
 30 56  1  0  0  0
M  END
$$$$
