### 
### Created by X-TOOL on Mon Sep 10 21:13:30 2018
### 

@<TRIPOS>MOLECULE
5maj_ligand
   56    60     1     0     0
SMALL
GAST_HUCK


@<TRIPOS>ATOM
      1 C5         -5.8900   12.6970   14.4630 C.3       1 7KH         0.0592
      2 C8         -7.5970    8.3410   13.0450 C.2       1 7KH         0.0629
      3 C1         -5.6440   12.4980   16.9500 C.3       1 7KH         0.0592
      4 C14        -9.2800    6.4210   17.1390 C.3       1 7KH        -0.0288
      5 C9         -8.5300    9.2820   19.5150 C.2       1 7KH         0.0065
      6 C4         -6.2700   14.2040   14.7030 C.3       1 7KH         0.0687
      7 C13        -9.6100    4.9860   17.3130 C.3       1 7KH        -0.0508
      8 C2         -6.2760   13.9120   17.1040 C.3       1 7KH         0.0687
      9 C18        -7.1890    8.7040   16.5670 C.ar      1 7KH         0.1966
     10 N16        -7.3450    7.9990   17.6890 N.pl3     1 7KH        -0.2599
     11 O3         -6.1090   14.7590   16.0020 O.3       1 7KH        -0.3756
     12 N6         -6.2060   11.9650   15.6830 N.pl3     1 7KH        -0.2673
     13 N7         -7.4130    8.9670   11.9030 N.2       1 7KH        -0.3220
     14 C10        -7.2340    8.6140   19.0490 C.3       1 7KH         0.0643
     15 C11        -7.6220    5.6620   18.7110 C.3       1 7KH        -0.0288
     16 C12        -8.4600    4.4020   18.2300 C.3       1 7KH        -0.0508
     17 C15        -7.7790    6.5380   17.5060 C.3       1 7KH         0.0487
     18 N17        -6.8270   10.0060   16.7150 N.ar      1 7KH        -0.2116
     19 N19        -7.4400    8.1560   15.3930 N.ar      1 7KH        -0.2284
     20 C20        -7.2910    8.9150   14.3400 C.ar      1 7KH         0.1398
     21 N21        -6.8730   10.2090   14.3500 N.ar      1 7KH        -0.2285
     22 C22        -6.6940   10.6780   15.5720 C.ar      1 7KH         0.1949
     23 N23        -9.4620    8.6340   20.2770 N.2       1 7KH        -0.3405
     24 C24       -10.4190    9.5240   20.4970 C.2       1 7KH         0.1296
     25 N25       -10.2210   10.7340   19.8930 N.pl3     1 7KH        -0.2164
     26 C26        -8.9500   10.5540   19.2520 C.2       1 7KH         0.0501
     27 C27       -11.0760   11.8460   19.9530 C.2       1 7KH         0.0784
     28 C28       -12.2520   11.6880   20.6430 C.2       1 7KH        -0.0273
     29 C29       -12.4590   10.3540   21.2700 C.2       1 7KH        -0.0624
     30 C30       -11.5740    9.3260   21.2150 C.2       1 7KH        -0.0197
     31 H1         -4.8160   12.6113   14.2414 H         1 7KH         0.0554
     32 H2         -6.4715   12.2926   13.6214 H         1 7KH         0.0554
     33 H3         -8.0035    7.3311   13.0157 H         1 7KH         0.1182
     34 H4         -5.9227   11.8549   17.7978 H         1 7KH         0.0554
     35 H5         -4.5480   12.5685   16.8879 H         1 7KH         0.0554
     36 H6         -9.8911    7.0419   17.8105 H         1 7KH         0.0288
     37 H7         -9.4481    6.7323   16.0975 H         1 7KH         0.0288
     38 H8         -7.3310   14.3151   14.4347 H         1 7KH         0.0581
     39 H9         -5.6537   14.8045   14.0178 H         1 7KH         0.0581
     40 H10        -9.6248    4.4732   16.3400 H         1 7KH         0.0266
     41 H11       -10.5885    4.8721   17.8025 H         1 7KH         0.0266
     42 H12        -5.8183   14.3967   17.9790 H         1 7KH         0.0581
     43 H13        -7.3550   13.7863   17.2770 H         1 7KH         0.0581
     44 H14        -7.6467    8.5110   11.0349 H         1 7KH         0.1465
     45 H15        -6.9683    7.8257   19.7687 H         1 7KH         0.0662
     46 H16        -6.4380    9.3728   19.0258 H         1 7KH         0.0662
     47 H17        -6.5685    5.4070   18.8984 H         1 7KH         0.0288
     48 H18        -8.0537    6.1223   19.6119 H         1 7KH         0.0288
     49 H19        -7.8231    3.7127   17.6562 H         1 7KH         0.0266
     50 H20        -8.8883    3.8724   19.0938 H         1 7KH         0.0266
     51 H21        -7.1720    6.1207   16.6891 H         1 7KH         0.0569
     52 H22        -8.4166   11.2979   18.6621 H         1 7KH         0.0678
     53 H23       -10.8182   12.7897   19.4745 H         1 7KH         0.1193
     54 H24       -12.9866   12.4876   20.7264 H         1 7KH         0.0545
     55 H25       -13.3888   10.1906   21.8128 H         1 7KH         0.0629
     56 H26       -11.7715    8.3816   21.7200 H         1 7KH         0.0571
@<TRIPOS>BOND
     1    1    6 1  
     2   12    1 1  
     3    2   13 2  
     4   20    2 1  
     5    3    8 1  
     6   12    3 1  
     7    4    7 1  
     8   17    4 1  
     9   14    5 1  
    10    5   23 1  
    11    5   26 2  
    12    6   11 1  
    13   16    7 1  
    14    8   11 1  
    15    9   10 1  
    16    9   18 ar 
    17   19    9 ar 
    18   10   14 1  
    19   10   17 1  
    20   22   12 1  
    21   15   16 1  
    22   17   15 1  
    23   18   22 ar 
    24   19   20 ar 
    25   20   21 ar 
    26   21   22 ar 
    27   23   24 2  
    28   24   25 1  
    29   24   30 1  
    30   25   26 1  
    31   25   27 1  
    32   27   28 2  
    33   28   29 1  
    34   29   30 2  
    35    1   31 1  
    36    1   32 1  
    37    2   33 1  
    38    3   34 1  
    39    3   35 1  
    40    4   36 1  
    41    4   37 1  
    42    6   38 1  
    43    6   39 1  
    44    7   40 1  
    45    7   41 1  
    46    8   42 1  
    47    8   43 1  
    48   13   44 1  
    49   14   45 1  
    50   14   46 1  
    51   15   47 1  
    52   15   48 1  
    53   16   49 1  
    54   16   50 1  
    55   17   51 1  
    56   26   52 1  
    57   27   53 1  
    58   28   54 1  
    59   29   55 1  
    60   30   56 1  
@<TRIPOS>SUBSTRUCTURE
     1 7KH         1

