6gw1_ligand
  -I-interpret- 

 69 72  0  0  0  0  0  0  0  0999 V2000
  -49.2200   -0.6240  -14.1150 C   0  0  0  0  0
  -50.5870   -0.5220  -13.4310 C   0  0  0  0  0
  -50.8770    0.9220  -13.0650 C   0  0  0  0  0
  -52.1650    1.0090  -12.4460 O   0  0  0  0  0
  -49.7920    1.4140  -12.1430 C   0  0  0  0  0
  -48.4200    1.3840  -12.8110 C   0  0  0  0  0
  -47.3460    2.0100  -11.9150 C   0  0  0  0  0
  -46.8480    1.1350  -10.7700 C   0  0  0  0  0
  -47.7810    1.1770   -9.6880 O   0  0  0  0  0
  -46.6240   -0.3250  -11.1880 C   0  0  0  0  0
  -47.7660   -0.8950  -12.0360 C   0  0  0  0  0
  -48.0510   -0.0370  -13.2990 C   0  0  0  0  0
  -47.5260   -2.3660  -12.3900 C   0  0  0  0  0
  -47.1670   -3.2170  -11.1860 C   0  0  0  0  0
  -45.9950   -2.6400  -10.3710 C   0  0  0  0  0
  -46.4060   -1.2370   -9.9780 C   0  0  0  0  0
  -45.3850   -0.8280   -8.9010 C   0  0  0  0  0
  -45.0810   -2.1450   -8.1570 C   0  0  0  0  0
  -45.7540   -3.2690   -8.9720 C   0  0  0  0  0
  -44.7000   -2.6300  -11.2110 C   0  0  0  0  0
  -46.8170    0.0100  -14.2270 C   0  0  0  0  0
  -44.9670   -4.5830   -8.8230 C   0  0  0  0  0
  -45.4800   -5.7520   -9.6530 C   0  0  0  0  0
  -44.9720   -4.9720   -7.3340 C   0  0  0  0  0
  -43.9100   -5.9820   -6.9450 C   0  0  0  0  0
  -44.2390   -6.6930   -5.6510 C   0  0  0  0  0
  -43.9480   -7.8730   -5.5010 O   0  0  0  0  0
  -44.8530   -5.9810   -4.7120 N   0  0  0  0  0
  -49.2827   -0.0508  -15.0400 H   0  0  0  0  0
  -49.0111   -1.6848  -14.2536 H   0  0  0  0  0
  -50.5809   -1.1276  -12.5248 H   0  0  0  0  0
  -51.3574   -0.8809  -14.1134 H   0  0  0  0  0
  -50.8900    1.5484  -13.9569 H   0  0  0  0  0
  -52.8341    0.6895  -13.0558 H   0  0  0  0  0
  -49.7619    0.7603  -11.2713 H   0  0  0  0  0
  -50.0168    2.4452  -11.8705 H   0  0  0  0  0
  -48.4712    2.0045  -13.7057 H   0  0  0  0  0
  -47.7999    2.8889  -11.4570 H   0  0  0  0  0
  -46.4842    2.2020  -12.5542 H   0  0  0  0  0
  -45.8831    1.5376  -10.4617 H   0  0  0  0  0
  -47.4623    0.6246   -8.9705 H   0  0  0  0  0
  -45.7229   -0.3050  -11.8010 H   0  0  0  0  0
  -48.6652   -0.8501  -11.4216 H   0  0  0  0  0
  -46.6882   -2.4068  -13.0861 H   0  0  0  0  0
  -48.4509   -2.7606  -12.8106 H   0  0  0  0  0
  -46.8666   -4.1992  -11.5508 H   0  0  0  0  0
  -48.0392   -3.2545  -10.5334 H   0  0  0  0  0
  -47.4001   -1.1551   -9.5384 H   0  0  0  0  0
  -45.7727   -0.0570   -8.2352 H   0  0  0  0  0
  -44.4891   -0.3790   -9.3298 H   0  0  0  0  0
  -45.4652   -2.1166   -7.1373 H   0  0  0  0  0
  -44.0066   -2.3098   -8.0753 H   0  0  0  0  0
  -46.7305   -3.6137   -8.6319 H   0  0  0  0  0
  -44.4544   -3.6491  -11.5099 H   0  0  0  0  0
  -44.8491   -2.0155  -12.0989 H   0  0  0  0  0
  -43.8852   -2.2184  -10.6153 H   0  0  0  0  0
  -45.9760    0.4476  -13.6891 H   0  0  0  0  0
  -46.5618   -1.0019  -14.5416 H   0  0  0  0  0
  -47.0455    0.6174  -15.1028 H   0  0  0  0  0
  -43.9655   -4.3870   -9.2060 H   0  0  0  0  0
  -46.5083   -5.9747   -9.3681 H   0  0  0  0  0
  -45.4434   -5.4891  -10.7102 H   0  0  0  0  0
  -44.8543   -6.6261   -9.4728 H   0  0  0  0  0
  -45.9392   -5.4300   -7.1270 H   0  0  0  0  0
  -44.7718   -4.0635   -6.7660 H   0  0  0  0  0
  -42.9700   -5.4477   -6.8073 H   0  0  0  0  0
  -43.8495   -6.7300   -7.7355 H   0  0  0  0  0
  -45.1009   -6.4154   -3.8230 H   0  0  0  0  0
  -45.0764   -5.0001   -4.8802 H   0  0  0  0  0
  1  2  1  0  0  0
  1 12  1  0  0  0
  2  3  1  0  0  0
  3  4  1  0  0  0
  3  5  1  0  0  0
  5  6  1  0  0  0
  6  7  1  0  0  0
  6 12  1  0  0  0
  7  8  1  0  0  0
  8  9  1  0  0  0
  8 10  1  0  0  0
 10 11  1  0  0  0
 10 16  1  0  0  0
 11 12  1  0  0  0
 11 13  1  0  0  0
 12 21  1  0  0  0
 13 14  1  0  0  0
 14 15  1  0  0  0
 15 16  1  0  0  0
 15 19  1  0  0  0
 15 20  1  0  0  0
 16 17  1  0  0  0
 17 18  1  0  0  0
 18 19  1  0  0  0
 19 22  1  0  0  0
 22 23  1  0  0  0
 22 24  1  0  0  0
 24 25  1  0  0  0
 25 26  1  0  0  0
 26 27  2  0  0  0
 26 28  1  0  0  0
  1 29  1  0  0  0
  1 30  1  0  0  0
  2 31  1  0  0  0
  2 32  1  0  0  0
  3 33  1  0  0  0
  4 34  1  0  0  0
  5 35  1  0  0  0
  5 36  1  0  0  0
  6 37  1  0  0  0
  7 38  1  0  0  0
  7 39  1  0  0  0
  8 40  1  0  0  0
  9 41  1  0  0  0
 10 42  1  0  0  0
 11 43  1  0  0  0
 13 44  1  0  0  0
 13 45  1  0  0  0
 14 46  1  0  0  0
 14 47  1  0  0  0
 16 48  1  0  0  0
 17 49  1  0  0  0
 17 50  1  0  0  0
 18 51  1  0  0  0
 18 52  1  0  0  0
 19 53  1  0  0  0
 20 54  1  0  0  0
 20 55  1  0  0  0
 20 56  1  0  0  0
 21 57  1  0  0  0
 21 58  1  0  0  0
 21 59  1  0  0  0
 22 60  1  0  0  0
 23 61  1  0  0  0
 23 62  1  0  0  0
 23 63  1  0  0  0
 24 64  1  0  0  0
 24 65  1  0  0  0
 25 66  1  0  0  0
 25 67  1  0  0  0
 28 68  1  0  0  0
 28 69  1  0  0  0
M  END
$$$$
