6u8o_ligand
  -I-interpret- 

 40 42  0  0  0  0  0  0  0  0999 V2000
   -0.4650  -19.1600   -0.9990 C   0  0  0  0  0
    2.1490  -25.2470   -1.9360 C   0  0  0  0  0
    2.1000  -23.8820   -1.0950 C   0  0  0  0  0
    2.0930  -22.5920   -1.6860 C   0  0  0  0  0
    2.4660  -25.1640   -3.4720 C   0  0  0  0  0
    3.2930  -26.4540   -3.3180 C   0  0  0  0  0
    3.4910  -26.0600   -1.8450 C   0  0  0  0  0
    0.9830  -26.0690   -1.6130 C   0  0  0  0  0
    2.0790  -23.9200    0.3170 C   0  0  0  0  0
   -0.9650  -18.0590    1.0900 C   0  0  0  0  0
    2.0380  -21.5230    0.4840 C   0  0  0  0  0
    2.0470  -21.4200   -0.9110 C   0  0  0  0  0
   -0.0740  -18.3300    0.0540 C   0  0  0  0  0
    2.0080  -20.4210    1.2930 O   0  0  0  0  0
    2.0590  -20.1210   -1.5500 N   0  0  0  0  0
    0.6630  -19.4950   -2.3100 S   0  0  0  0  0
   -1.7500  -19.7120   -1.0380 C   0  0  0  0  0
   -2.6340  -19.4320    0.0070 C   0  0  0  0  0
   -4.3800  -20.1680   -0.0050 Br  0  0  0  0  0
   -2.2510  -18.6130    1.0660 C   0  0  0  0  0
    1.1670  -17.7590    0.1440 O   0  0  0  0  0
    0.9860  -18.2150   -2.8980 O   0  0  0  0  0
    0.0880  -20.5780   -3.1050 O   0  0  0  0  0
    0.0690  -26.7340   -1.3560 N   0  0  0  0  0
    2.0460  -22.7620    1.0990 C   0  0  0  0  0
    2.1242  -22.5073   -2.7723 H   0  0  0  0  0
    2.9004  -24.2653   -3.9098 H   0  0  0  0  0
    1.6663  -25.0921   -4.2092 H   0  0  0  0  0
    4.1384  -26.6728   -3.9703 H   0  0  0  0  0
    2.8925  -27.4275   -3.6009 H   0  0  0  0  0
    3.6395  -26.8170   -1.0749 H   0  0  0  0  0
    4.4136  -25.5876   -1.5078 H   0  0  0  0  0
    2.0889  -24.8892    0.8156 H   0  0  0  0  0
   -0.6620  -17.4173    1.9173 H   0  0  0  0  0
    2.0066  -20.6998    2.2116 H   0  0  0  0  0
    2.9169  -19.5693   -1.5464 H   0  0  0  0  0
   -2.0557  -20.3487   -1.8682 H   0  0  0  0  0
   -2.9509  -18.4034    1.8749 H   0  0  0  0  0
    1.2176  -17.2306    0.9439 H   0  0  0  0  0
    2.0267  -22.8348    2.1864 H   0  0  0  0  0
  1 13  4  0  0  0
 16  1  1  0  0  0
  1 17  4  0  0  0
  3  2  1  0  0  0
  2  5  1  0  0  0
  2  7  1  0  0  0
  2  8  1  0  0  0
  4  3  4  0  0  0
  3  9  4  0  0  0
 12  4  4  0  0  0
  5  6  1  0  0  0
  7  6  1  0  0  0
  8 24  3  0  0  0
 25  9  4  0  0  0
 13 10  4  0  0  0
 10 20  4  0  0  0
 12 11  4  0  0  0
 11 14  1  0  0  0
 11 25  4  0  0  0
 15 12  1  0  0  0
 13 21  1  0  0  0
 15 16  1  0  0  0
 16 22  2  0  0  0
 16 23  2  0  0  0
 17 18  4  0  0  0
 18 19  1  0  0  0
 18 20  4  0  0  0
  4 26  1  0  0  0
  5 27  1  0  0  0
  5 28  1  0  0  0
  6 29  1  0  0  0
  6 30  1  0  0  0
  7 31  1  0  0  0
  7 32  1  0  0  0
  9 33  1  0  0  0
 10 34  1  0  0  0
 14 35  1  0  0  0
 15 36  1  0  0  0
 17 37  1  0  0  0
 20 38  1  0  0  0
 21 39  1  0  0  0
 25 40  1  0  0  0
M  END
$$$$
