1i2s_ligand
  -I-interpret- 

 21 20  0  0  0  0  0  0  0  0999 V2000
   24.9790   -4.7030   12.9270 C   0  0  0  0  0
   23.8350   -4.3210   13.6680 O   0  0  0  0  0
   25.5880   -3.8930   12.1800 O   0  0  0  0  0
   25.3520   -6.2090   13.1670 C   0  0  0  0  0
   26.2260   -6.3710   14.4710 C   0  0  0  0  0
   27.4960   -5.7060   14.2300 O   0  0  0  0  0
   26.4080   -7.9180   14.7860 C   0  0  0  0  0
   27.0150   -8.1090   16.2380 C   0  0  0  0  0
   27.4180   -7.1790   17.0030 O   0  0  0  0  0
   27.0780   -9.4750   16.6260 O   0  0  0  0  0
   25.5230   -5.6980   15.7250 C   0  0  0  0  0
   25.9130   -4.6430   16.2870 O   0  0  0  0  0
   24.3840   -6.4300   16.1620 O   0  0  0  0  0
   23.5164   -5.0728   14.1729 H   0  0  0  0  0
   25.9261   -6.5686   12.3130 H   0  0  0  0  0
   24.4332   -6.7831   13.2869 H   0  0  0  0  0
   27.3395   -4.7772   14.0446 H   0  0  0  0  0
   27.0866   -8.3553   14.0536 H   0  0  0  0  0
   25.4369   -8.4104   14.7361 H   0  0  0  0  0
   26.7296  -10.0236   15.9194 H   0  0  0  0  0
   24.2628   -7.1976   15.5984 H   0  0  0  0  0
  1  2  1  0  0  0
  1  3  2  0  0  0
  1  4  1  0  0  0
  4  5  1  0  0  0
  5  6  1  0  0  0
  5  7  1  0  0  0
  5 11  1  0  0  0
  7  8  1  0  0  0
  8  9  2  0  0  0
  8 10  1  0  0  0
 11 12  2  0  0  0
 11 13  1  0  0  0
  2 14  1  0  0  0
  4 15  1  0  0  0
  4 16  1  0  0  0
  6 17  1  0  0  0
  7 18  1  0  0  0
  7 19  1  0  0  0
 10 20  1  0  0  0
 13 21  1  0  0  0
M  END
$$$$
