3ilq_ligand
  -I-interpret- 

133133  0  0  0  0  0  0  0  0999 V2000
   -4.1240   16.4600   45.7020 C   0  0  0  0  0
   -4.2500   15.1600   45.0790 O   0  0  0  0  0
   -2.8590   17.1380   45.1230 C   0  0  0  0  0
   -2.8640   17.1160   43.6840 O   0  0  0  0  0
   -1.5820   16.4580   45.6540 C   0  0  0  0  0
   -0.4350   17.2090   45.2330 O   0  0  0  0  0
   -1.6020   16.2920   47.2000 C   0  0  0  0  0
   -1.4140   17.5650   47.8410 O   0  0  0  0  0
   -2.9210   15.6340   47.6910 C   0  0  0  0  0
   -4.0770   16.3820   47.1750 O   0  0  0  0  0
   -3.0430   15.4780   49.2300 C   0  0  0  0  0
   -2.7680   14.1250   49.6250 O   0  0  0  0  0
   -5.4550   14.4530   45.4280 C   0  0  0  0  0
   -5.2700   13.1070   44.7700 C   0  0  0  0  0
   -5.2770   13.2720   43.3310 O   0  0  0  0  0
   -4.0560   13.2540   42.7050 C   0  0  0  0  0
   -3.0730   12.7250   43.2150 O   0  0  0  0  0
   -3.9150   13.8660   41.3230 C   0  0  0  0  0
   -4.1850   12.8160   40.2700 C   0  0  0  0  0
   -2.9420   12.5100   39.4470 C   0  0  0  0  0
   -2.8730   11.0010   39.2030 C   0  0  0  0  0
   -3.0100   10.6880   37.7120 C   0  0  0  0  0
   -1.7510   10.0170   37.1650 C   0  0  0  0  0
   -1.7890    9.9430   35.6420 C   0  0  0  0  0
   -0.3890    9.6790   35.0900 C   0  0  0  0  0
   -0.0530   10.7140   34.0240 C   0  0  0  0  0
    0.4160   10.0950   32.7020 C   0  0  0  0  0
   -0.1860   10.8610   31.5160 C   0  0  0  0  0
    0.8520   11.6800   30.7230 C   0  0  0  0  0
    1.0880   13.0880   31.2930 C   0  0  0  0  0
    0.6930   14.1780   30.2770 C   0  0  0  0  0
    1.7070   15.3250   30.1810 C   0  0  0  0  0
   -6.4180   12.2340   45.2290 C   0  0  0  0  0
   -6.1490   10.8400   44.9130 O   0  0  0  0  0
   -7.2630   10.0770   45.1300 C   0  0  0  0  0
   -8.1360   10.4930   45.9010 O   0  0  0  0  0
   -7.4090    8.6850   44.4770 C   0  0  0  0  0
   -7.0590    8.6070   42.9810 C   0  0  0  0  0
   -8.0170    7.6310   42.2830 C   0  0  0  0  0
   -7.5370    7.2180   40.8900 C   0  0  0  0  0
   -8.6100    6.3850   40.1790 C   0  0  0  0  0
   -9.1870    7.1540   38.9700 C   0  0  0  0  0
  -10.5670    6.6390   38.4740 C   0  0  0  0  0
  -11.1180    7.5110   37.5230 C   0  0  0  0  0
  -12.4770    7.8420   37.3730 C   0  0  0  0  0
  -13.5250    7.3130   38.1300 C   0  0  0  0  0
  -14.8030    8.1680   38.0080 C   0  0  0  0  0
  -16.1060    7.4340   38.4220 C   0  0  0  0  0
  -15.8580    6.2950   39.4270 C   0  0  0  0  0
  -17.1340    5.8760   40.1590 C   0  0  0  0  0
  -17.1430    4.3640   40.4140 C   0  0  0  0  0
  -17.1280    4.0190   41.9140 C   0  0  0  0  0
  -15.8040    3.3630   42.3510 C   0  0  0  0  0
   -5.0088   17.0557   45.4774 H   0  0  0  0  0
   -2.8680   18.1778   45.4498 H   0  0  0  0  0
   -3.6620   17.5411   43.3614 H   0  0  0  0  0
   -1.5331   15.4523   45.2366 H   0  0  0  0  0
   -0.4452   17.2977   44.2772 H   0  0  0  0  0
   -0.7801   15.6293   47.4707 H   0  0  0  0  0
   -0.5968   17.9611   47.5298 H   0  0  0  0  0
   -2.9017   14.6189   47.2945 H   0  0  0  0  0
   -4.0588   15.7341   49.5312 H   0  0  0  0  0
   -2.3217   16.1393   49.7100 H   0  0  0  0  0
   -2.8483   14.0486   50.5786 H   0  0  0  0  0
   -6.3555   14.9656   45.0896 H   0  0  0  0  0
   -5.6002   14.3772   46.5056 H   0  0  0  0  0
   -4.3201   12.6473   45.0427 H   0  0  0  0  0
   -2.9020   14.2490   41.1994 H   0  0  0  0  0
   -4.6320   14.6797   41.2136 H   0  0  0  0  0
   -4.9564   13.1936   39.5989 H   0  0  0  0  0
   -4.4986   11.9003   40.7712 H   0  0  0  0  0
   -2.0525   12.8388   39.9843 H   0  0  0  0  0
   -2.9904   13.0369   38.4941 H   0  0  0  0  0
   -3.6896   10.5192   39.7408 H   0  0  0  0  0
   -1.9097   10.6309   39.5538 H   0  0  0  0  0
   -3.1647   11.6237   37.1748 H   0  0  0  0  0
   -3.8511   10.0079   37.5770 H   0  0  0  0  0
   -1.6935    9.0039   37.5631 H   0  0  0  0  0
   -0.8832   10.6043   37.4651 H   0  0  0  0  0
   -2.1542   10.8915   35.2482 H   0  0  0  0  0
   -2.4497    9.1299   35.3412 H   0  0  0  0  0
   -0.3568    8.6828   34.6488 H   0  0  0  0  0
    0.3371    9.7463   35.9001 H   0  0  0  0  0
    0.7621   11.3280   34.4071 H   0  0  0  0  0
   -0.9611   11.2806   33.8180 H   0  0  0  0  0
    0.0897    9.0559   32.6586 H   0  0  0  0  0
    1.5033   10.1501   32.6478 H   0  0  0  0  0
   -0.9195   11.5610   31.9162 H   0  0  0  0  0
   -0.6139   10.1260   30.8342 H   0  0  0  0  0
    0.4709   11.7971   29.7085 H   0  0  0  0  0
    1.7996   11.1436   30.7727 H   0  0  0  0  0
    2.1481   13.1959   31.5226 H   0  0  0  0  0
    0.4746   13.2078   32.1860 H   0  0  0  0  0
   -0.2535   14.6055   30.6080 H   0  0  0  0  0
    0.6396   13.7062   29.2959 H   0  0  0  0  0
    1.8028   15.8060   31.1544 H   0  0  0  0  0
    2.6745   14.9281   29.8737 H   0  0  0  0  0
    1.3617   16.0530   29.4469 H   0  0  0  0  0
   -7.3288   12.5456   44.7178 H   0  0  0  0  0
   -6.5355   12.3383   46.3076 H   0  0  0  0  0
   -8.4615    8.4144   44.5613 H   0  0  0  0  0
   -6.7075    8.0285   44.9918 H   0  0  0  0  0
   -6.0336    8.2559   42.8650 H   0  0  0  0  0
   -7.1563    9.5957   42.5325 H   0  0  0  0  0
   -8.9779    8.1327   42.1685 H   0  0  0  0  0
   -8.0781    6.7306   42.8943 H   0  0  0  0  0
   -6.6316    6.6193   40.9899 H   0  0  0  0  0
   -7.3376    8.1147   40.3033 H   0  0  0  0  0
   -9.4170    6.1767   40.8815 H   0  0  0  0  0
   -8.1587    5.4584   39.8242 H   0  0  0  0  0
   -8.4847    7.0250   38.1465 H   0  0  0  0  0
   -9.3287    8.1868   39.2883 H   0  0  0  0  0
  -11.2441    6.5784   39.3261 H   0  0  0  0  0
  -10.4297    5.6609   38.0129 H   0  0  0  0  0
  -10.4211    7.9805   36.8287 H   0  0  0  0  0
  -12.7330    8.5704   36.6036 H   0  0  0  0  0
  -13.2200    7.2977   39.1763 H   0  0  0  0  0
  -13.7447    6.3113   37.7606 H   0  0  0  0  0
  -14.9080    8.4388   36.9574 H   0  0  0  0  0
  -14.6858    9.0169   38.6816 H   0  0  0  0  0
  -16.5416    6.9965   37.5237 H   0  0  0  0  0
  -16.7613    8.1625   38.8994 H   0  0  0  0  0
  -15.1438    6.6501   40.1700 H   0  0  0  0  0
  -15.4872    5.4319   38.8741 H   0  0  0  0  0
  -17.9945    6.1337   39.5415 H   0  0  0  0  0
  -17.1764    6.3945   41.1168 H   0  0  0  0  0
  -16.2452    3.9416   39.9628 H   0  0  0  0  0
  -18.0578    3.9560   39.9842 H   0  0  0  0  0
  -17.9349    3.3118   42.1061 H   0  0  0  0  0
  -17.2471    4.9459   42.4750 H   0  0  0  0  0
  -15.6550    2.4401   41.7906 H   0  0  0  0  0
  -14.9786    4.0469   42.1534 H   0  0  0  0  0
  -15.8452    3.1396   43.4171 H   0  0  0  0  0
  1  2  1  0  0  0
  1  3  1  0  0  0
  1 10  1  0  0  0
  2 13  1  0  0  0
  3  4  1  0  0  0
  3  5  1  0  0  0
  5  6  1  0  0  0
  5  7  1  0  0  0
  7  8  1  0  0  0
  7  9  1  0  0  0
  9 10  1  0  0  0
  9 11  1  0  0  0
 11 12  1  0  0  0
 13 14  1  0  0  0
 14 15  1  0  0  0
 14 33  1  0  0  0
 15 16  1  0  0  0
 16 17  2  0  0  0
 16 18  1  0  0  0
 18 19  1  0  0  0
 19 20  1  0  0  0
 20 21  1  0  0  0
 21 22  1  0  0  0
 22 23  1  0  0  0
 23 24  1  0  0  0
 24 25  1  0  0  0
 25 26  1  0  0  0
 26 27  1  0  0  0
 27 28  1  0  0  0
 28 29  1  0  0  0
 29 30  1  0  0  0
 30 31  1  0  0  0
 31 32  1  0  0  0
 33 34  1  0  0  0
 34 35  1  0  0  0
 35 36  2  0  0  0
 35 37  1  0  0  0
 37 38  1  0  0  0
 38 39  1  0  0  0
 39 40  1  0  0  0
 40 41  1  0  0  0
 41 42  1  0  0  0
 42 43  1  0  0  0
 43 44  1  0  0  0
 44 45  2  0  0  0
 45 46  1  0  0  0
 46 47  1  0  0  0
 47 48  1  0  0  0
 48 49  1  0  0  0
 49 50  1  0  0  0
 50 51  1  0  0  0
 51 52  1  0  0  0
 52 53  1  0  0  0
  1 54  1  0  0  0
  3 55  1  0  0  0
  4 56  1  0  0  0
  5 57  1  0  0  0
  6 58  1  0  0  0
  7 59  1  0  0  0
  8 60  1  0  0  0
  9 61  1  0  0  0
 11 62  1  0  0  0
 11 63  1  0  0  0
 12 64  1  0  0  0
 13 65  1  0  0  0
 13 66  1  0  0  0
 14 67  1  0  0  0
 18 68  1  0  0  0
 18 69  1  0  0  0
 19 70  1  0  0  0
 19 71  1  0  0  0
 20 72  1  0  0  0
 20 73  1  0  0  0
 21 74  1  0  0  0
 21 75  1  0  0  0
 22 76  1  0  0  0
 22 77  1  0  0  0
 23 78  1  0  0  0
 23 79  1  0  0  0
 24 80  1  0  0  0
 24 81  1  0  0  0
 25 82  1  0  0  0
 25 83  1  0  0  0
 26 84  1  0  0  0
 26 85  1  0  0  0
 27 86  1  0  0  0
 27 87  1  0  0  0
 28 88  1  0  0  0
 28 89  1  0  0  0
 29 90  1  0  0  0
 29 91  1  0  0  0
 30 92  1  0  0  0
 30 93  1  0  0  0
 31 94  1  0  0  0
 31 95  1  0  0  0
 32 96  1  0  0  0
 32 97  1  0  0  0
 32 98  1  0  0  0
 33 99  1  0  0  0
 33100  1  0  0  0
 37101  1  0  0  0
 37102  1  0  0  0
 38103  1  0  0  0
 38104  1  0  0  0
 39105  1  0  0  0
 39106  1  0  0  0
 40107  1  0  0  0
 40108  1  0  0  0
 41109  1  0  0  0
 41110  1  0  0  0
 42111  1  0  0  0
 42112  1  0  0  0
 43113  1  0  0  0
 43114  1  0  0  0
 44115  1  0  0  0
 45116  1  0  0  0
 46117  1  0  0  0
 46118  1  0  0  0
 47119  1  0  0  0
 47120  1  0  0  0
 48121  1  0  0  0
 48122  1  0  0  0
 49123  1  0  0  0
 49124  1  0  0  0
 50125  1  0  0  0
 50126  1  0  0  0
 51127  1  0  0  0
 51128  1  0  0  0
 52129  1  0  0  0
 52130  1  0  0  0
 53131  1  0  0  0
 53132  1  0  0  0
 53133  1  0  0  0
M  END
$$$$
