### 
### Created by X-TOOL on Mon Sep 10 21:13:04 2018
### 

@<TRIPOS>MOLECULE
3ilq_ligand
  133   133     1     0     0
SMALL
GAST_HUCK


@<TRIPOS>ATOM
      1 C1         -4.1240   16.4600   45.7020 C.3       1 1O2         0.1880
      2 O1         -4.2500   15.1600   45.0790 O.3       1 1O2        -0.3457
      3 C2         -2.8590   17.1380   45.1230 C.3       1 1O2         0.1341
      4 O2         -2.8640   17.1160   43.6840 O.3       1 1O2        -0.3841
      5 C3         -1.5820   16.4580   45.6540 C.3       1 1O2         0.1141
      6 O3         -0.4350   17.2090   45.2330 O.3       1 1O2        -0.3864
      7 C4         -1.6020   16.2920   47.2000 C.3       1 1O2         0.1119
      8 O4         -1.4140   17.5650   47.8410 O.3       1 1O2        -0.3865
      9 C5         -2.9210   15.6340   47.6910 C.3       1 1O2         0.1130
     10 O5         -4.0770   16.3820   47.1750 O.3       1 1O2        -0.3405
     11 C6         -3.0430   15.4780   49.2300 C.3       1 1O2         0.0730
     12 O6         -2.7680   14.1250   49.6250 O.3       1 1O2        -0.3924
     13 CAL        -5.4550   14.4530   45.4280 C.3       1 1O2         0.0839
     14 CAM        -5.2700   13.1070   44.7700 C.3       1 1O2         0.1384
     15 OAN        -5.2770   13.2720   43.3310 O.3       1 1O2        -0.2685
     16 CAO        -4.0560   13.2540   42.7050 C.2       1 1O2         0.2341
     17 OAP        -3.0730   12.7250   43.2150 O.2       1 1O2        -0.3704
     18 CAQ        -3.9150   13.8660   41.3230 C.3       1 1O2         0.0487
     19 CAR        -4.1850   12.8160   40.2700 C.3       1 1O2        -0.0348
     20 CAS        -2.9420   12.5100   39.4470 C.3       1 1O2        -0.0509
     21 CAT        -2.8730   11.0010   39.2030 C.3       1 1O2        -0.0529
     22 CAU        -3.0100   10.6880   37.7120 C.3       1 1O2        -0.0531
     23 CAV        -1.7510   10.0170   37.1650 C.3       1 1O2        -0.0531
     24 CAW        -1.7890    9.9430   35.6420 C.3       1 1O2        -0.0531
     25 CAX        -0.3890    9.6790   35.0900 C.3       1 1O2        -0.0531
     26 CAY        -0.0530   10.7140   34.0240 C.3       1 1O2        -0.0531
     27 CAZ         0.4160   10.0950   32.7020 C.3       1 1O2        -0.0531
     28 CBA        -0.1860   10.8610   31.5160 C.3       1 1O2        -0.0531
     29 CBB         0.8520   11.6800   30.7230 C.3       1 1O2        -0.0531
     30 CBC         1.0880   13.0880   31.2930 C.3       1 1O2        -0.0533
     31 CBD         0.6930   14.1780   30.2770 C.3       1 1O2        -0.0559
     32 CBE         1.7070   15.3250   30.1810 C.3       1 1O2        -0.0653
     33 CBF        -6.4180   12.2340   45.2290 C.3       1 1O2         0.1095
     34 OBG        -6.1490   10.8400   44.9130 O.3       1 1O2        -0.2738
     35 CBH        -7.2630   10.0770   45.1300 C.2       1 1O2         0.2338
     36 OBI        -8.1360   10.4930   45.9010 O.2       1 1O2        -0.3704
     37 CBJ        -7.4090    8.6850   44.4770 C.3       1 1O2         0.0487
     38 CBK        -7.0590    8.6070   42.9810 C.3       1 1O2        -0.0348
     39 CBL        -8.0170    7.6310   42.2830 C.3       1 1O2        -0.0509
     40 CBM        -7.5370    7.2180   40.8900 C.3       1 1O2        -0.0528
     41 CBN        -8.6100    6.3850   40.1790 C.3       1 1O2        -0.0515
     42 CBO        -9.1870    7.1540   38.9700 C.3       1 1O2        -0.0464
     43 CBP       -10.5670    6.6390   38.4740 C.3       1 1O2        -0.0365
     44 CBQ       -11.1180    7.5110   37.5230 C.2       1 1O2        -0.0987
     45 CBR       -12.4770    7.8420   37.3730 C.2       1 1O2        -0.0987
     46 CBS       -13.5250    7.3130   38.1300 C.3       1 1O2        -0.0365
     47 CBT       -14.8030    8.1680   38.0080 C.3       1 1O2        -0.0464
     48 CBU       -16.1060    7.4340   38.4220 C.3       1 1O2        -0.0515
     49 CBV       -15.8580    6.2950   39.4270 C.3       1 1O2        -0.0529
     50 CBW       -17.1340    5.8760   40.1590 C.3       1 1O2        -0.0531
     51 CBX       -17.1430    4.3640   40.4140 C.3       1 1O2        -0.0533
     52 CBZ       -17.1280    4.0190   41.9140 C.3       1 1O2        -0.0559
     53 CCA       -15.8040    3.3630   42.3510 C.3       1 1O2        -0.0653
     54 H          -5.0088   17.0557   45.4774 H         1 1O2         0.0937
     55 H          -2.8680   18.1778   45.4498 H         1 1O2         0.0671
     56 H          -2.8894   16.2061   43.3791 H         1 1O2         0.2101
     57 H          -1.5331   15.4523   45.2366 H         1 1O2         0.0648
     58 H          -0.4930   18.1017   45.5813 H         1 1O2         0.2100
     59 H          -0.7801   15.6293   47.4707 H         1 1O2         0.0647
     60 H          -0.5683   17.9338   47.5758 H         1 1O2         0.2100
     61 H          -2.9017   14.6189   47.2945 H         1 1O2         0.0647
     62 H          -4.0588   15.7341   49.5312 H         1 1O2         0.0584
     63 H          -2.3217   16.1393   49.7100 H         1 1O2         0.0584
     64 H          -2.8483   14.0486   50.5786 H         1 1O2         0.2095
     65 H          -6.3555   14.9656   45.0896 H         1 1O2         0.0591
     66 H          -5.6002   14.3772   46.5056 H         1 1O2         0.0591
     67 H          -4.3201   12.6473   45.0427 H         1 1O2         0.0700
     68 H          -2.9020   14.2490   41.1994 H         1 1O2         0.0518
     69 H          -4.6320   14.6797   41.2136 H         1 1O2         0.0518
     70 H          -4.9564   13.1936   39.5989 H         1 1O2         0.0291
     71 H          -4.4986   11.9003   40.7712 H         1 1O2         0.0291
     72 H          -2.0525   12.8388   39.9843 H         1 1O2         0.0267
     73 H          -2.9904   13.0369   38.4941 H         1 1O2         0.0267
     74 H          -3.6896   10.5192   39.7408 H         1 1O2         0.0265
     75 H          -1.9097   10.6309   39.5538 H         1 1O2         0.0265
     76 H          -3.1647   11.6237   37.1748 H         1 1O2         0.0265
     77 H          -3.8511   10.0079   37.5770 H         1 1O2         0.0265
     78 H          -1.6935    9.0039   37.5631 H         1 1O2         0.0265
     79 H          -0.8832   10.6043   37.4651 H         1 1O2         0.0265
     80 H          -2.1542   10.8915   35.2482 H         1 1O2         0.0265
     81 H          -2.4497    9.1299   35.3412 H         1 1O2         0.0265
     82 H          -0.3568    8.6828   34.6488 H         1 1O2         0.0265
     83 H           0.3371    9.7463   35.9001 H         1 1O2         0.0265
     84 H           0.7621   11.3280   34.4071 H         1 1O2         0.0265
     85 H          -0.9611   11.2806   33.8180 H         1 1O2         0.0265
     86 H           0.0897    9.0559   32.6586 H         1 1O2         0.0265
     87 H           1.5033   10.1501   32.6478 H         1 1O2         0.0265
     88 H          -0.9195   11.5610   31.9162 H         1 1O2         0.0265
     89 H          -0.6139   10.1260   30.8342 H         1 1O2         0.0265
     90 H           0.4709   11.7971   29.7085 H         1 1O2         0.0265
     91 H           1.7996   11.1436   30.7727 H         1 1O2         0.0265
     92 H           2.1481   13.1959   31.5226 H         1 1O2         0.0265
     93 H           0.4746   13.2078   32.1860 H         1 1O2         0.0265
     94 H          -0.2535   14.6055   30.6080 H         1 1O2         0.0263
     95 H           0.6396   13.7062   29.2959 H         1 1O2         0.0263
     96 H           1.8028   15.8060   31.1544 H         1 1O2         0.0230
     97 H           2.6745   14.9281   29.8737 H         1 1O2         0.0230
     98 H           1.3617   16.0530   29.4469 H         1 1O2         0.0230
     99 H          -7.3288   12.5456   44.7178 H         1 1O2         0.0644
    100 H          -6.5355   12.3383   46.3076 H         1 1O2         0.0644
    101 H          -8.4615    8.4144   44.5613 H         1 1O2         0.0518
    102 H          -6.7075    8.0285   44.9918 H         1 1O2         0.0518
    103 H          -6.0336    8.2559   42.8650 H         1 1O2         0.0291
    104 H          -7.1563    9.5957   42.5325 H         1 1O2         0.0291
    105 H          -8.9779    8.1327   42.1685 H         1 1O2         0.0267
    106 H          -8.0781    6.7306   42.8943 H         1 1O2         0.0267
    107 H          -6.6316    6.6193   40.9899 H         1 1O2         0.0265
    108 H          -7.3376    8.1147   40.3033 H         1 1O2         0.0265
    109 H          -9.4170    6.1767   40.8815 H         1 1O2         0.0267
    110 H          -8.1587    5.4584   39.8242 H         1 1O2         0.0267
    111 H          -8.4847    7.0250   38.1465 H         1 1O2         0.0285
    112 H          -9.3287    8.1868   39.2883 H         1 1O2         0.0285
    113 H         -11.2441    6.5784   39.3261 H         1 1O2         0.0388
    114 H         -10.4297    5.6609   38.0129 H         1 1O2         0.0388
    115 H         -10.4211    7.9805   36.8287 H         1 1O2         0.0450
    116 H         -12.7330    8.5704   36.6036 H         1 1O2         0.0450
    117 H         -13.2200    7.2977   39.1763 H         1 1O2         0.0388
    118 H         -13.7447    6.3113   37.7606 H         1 1O2         0.0388
    119 H         -14.9080    8.4388   36.9574 H         1 1O2         0.0285
    120 H         -14.6858    9.0169   38.6816 H         1 1O2         0.0285
    121 H         -16.5416    6.9965   37.5237 H         1 1O2         0.0267
    122 H         -16.7613    8.1625   38.8994 H         1 1O2         0.0267
    123 H         -15.1438    6.6501   40.1700 H         1 1O2         0.0265
    124 H         -15.4872    5.4319   38.8741 H         1 1O2         0.0265
    125 H         -17.9945    6.1337   39.5415 H         1 1O2         0.0265
    126 H         -17.1764    6.3945   41.1168 H         1 1O2         0.0265
    127 H         -16.2452    3.9416   39.9628 H         1 1O2         0.0265
    128 H         -18.0578    3.9560   39.9842 H         1 1O2         0.0265
    129 H         -17.9349    3.3118   42.1061 H         1 1O2         0.0263
    130 H         -17.2471    4.9459   42.4750 H         1 1O2         0.0263
    131 H         -15.6550    2.4401   41.7906 H         1 1O2         0.0230
    132 H         -14.9786    4.0469   42.1534 H         1 1O2         0.0230
    133 H         -15.8452    3.1396   43.4171 H         1 1O2         0.0230
@<TRIPOS>BOND
     1    1    2 1  
     2    1    3 1  
     3    1   10 1  
     4    2   13 1  
     5    3    4 1  
     6    3    5 1  
     7    5    6 1  
     8    5    7 1  
     9    7    8 1  
    10    7    9 1  
    11    9   10 1  
    12    9   11 1  
    13   11   12 1  
    14   13   14 1  
    15   14   15 1  
    16   14   33 1  
    17   15   16 1  
    18   16   17 2  
    19   16   18 1  
    20   18   19 1  
    21   19   20 1  
    22   20   21 1  
    23   21   22 1  
    24   22   23 1  
    25   23   24 1  
    26   24   25 1  
    27   25   26 1  
    28   26   27 1  
    29   27   28 1  
    30   28   29 1  
    31   29   30 1  
    32   30   31 1  
    33   31   32 1  
    34   33   34 1  
    35   34   35 1  
    36   35   36 2  
    37   35   37 1  
    38   37   38 1  
    39   38   39 1  
    40   39   40 1  
    41   40   41 1  
    42   41   42 1  
    43   42   43 1  
    44   43   44 1  
    45   44   45 2  
    46   45   46 1  
    47   46   47 1  
    48   47   48 1  
    49   48   49 1  
    50   49   50 1  
    51   50   51 1  
    52   51   52 1  
    53   52   53 1  
    54    1   54 1  
    55    3   55 1  
    56    4   56 1  
    57    5   57 1  
    58    6   58 1  
    59    7   59 1  
    60    8   60 1  
    61    9   61 1  
    62   11   62 1  
    63   11   63 1  
    64   12   64 1  
    65   13   65 1  
    66   13   66 1  
    67   14   67 1  
    68   18   68 1  
    69   18   69 1  
    70   19   70 1  
    71   19   71 1  
    72   20   72 1  
    73   20   73 1  
    74   21   74 1  
    75   21   75 1  
    76   22   76 1  
    77   22   77 1  
    78   23   78 1  
    79   23   79 1  
    80   24   80 1  
    81   24   81 1  
    82   25   82 1  
    83   25   83 1  
    84   26   84 1  
    85   26   85 1  
    86   27   86 1  
    87   27   87 1  
    88   28   88 1  
    89   28   89 1  
    90   29   90 1  
    91   29   91 1  
    92   30   92 1  
    93   30   93 1  
    94   31   94 1  
    95   31   95 1  
    96   32   96 1  
    97   32   97 1  
    98   32   98 1  
    99   33   99 1  
   100   33  100 1  
   101   37  101 1  
   102   37  102 1  
   103   38  103 1  
   104   38  104 1  
   105   39  105 1  
   106   39  106 1  
   107   40  107 1  
   108   40  108 1  
   109   41  109 1  
   110   41  110 1  
   111   42  111 1  
   112   42  112 1  
   113   43  113 1  
   114   43  114 1  
   115   44  115 1  
   116   45  116 1  
   117   46  117 1  
   118   46  118 1  
   119   47  119 1  
   120   47  120 1  
   121   48  121 1  
   122   48  122 1  
   123   49  123 1  
   124   49  124 1  
   125   50  125 1  
   126   50  126 1  
   127   51  127 1  
   128   51  128 1  
   129   52  129 1  
   130   52  130 1  
   131   53  131 1  
   132   53  132 1  
   133   53  133 1  
@<TRIPOS>SUBSTRUCTURE
     1 1O2         1

