4hbw_ligand
  -I-interpret- 

 33 34  0  0  0  0  0  0  0  0999 V2000
   26.9350   17.8170   -5.1240 C   0  0  0  0  0
   26.9900   17.0030   -3.8260 C   0  0  0  0  0
   27.2240   15.5870   -4.1500 N   0  0  0  0  0
   27.3170   14.6020   -2.9210 S   0  0  0  0  0
   27.7270   13.2090   -3.2990 O   0  0  0  0  0
   26.4640   14.8550   -1.7890 O   0  0  0  0  0
   28.8730   15.1950   -2.2720 C   0  0  0  0  0
   28.8680   15.9120   -1.0470 C   0  0  0  0  0
   30.0920   16.3850   -0.5530 C   0  0  0  0  0
   30.0320   17.2050    0.7520 C   0  0  0  0  0
   31.2510   18.0710    0.8450 N   0  0  0  0  0
   31.1540   19.1450    1.9100 C   0  0  0  0  0
   32.4470   17.7690    0.1800 C   0  0  0  0  0
   33.4400   18.4760    0.3330 O   0  0  0  0  0
   32.4940   16.7420   -0.7730 N   0  0  0  0  0
   31.2950   16.1520   -1.2020 C   0  0  0  0  0
   31.2730   15.5220   -2.4410 C   0  0  0  0  0
   30.0800   15.0130   -2.9360 C   0  0  0  0  0
   27.8811   17.7151   -5.6557 H   0  0  0  0  0
   26.1233   17.4461   -5.7498 H   0  0  0  0  0
   26.7617   18.8665   -4.8861 H   0  0  0  0  0
   26.0454   17.1039   -3.2916 H   0  0  0  0  0
   27.8004   17.3724   -3.1976 H   0  0  0  0  0
   27.3204   15.2615   -5.1119 H   0  0  0  0  0
   27.9388   16.0899   -0.5056 H   0  0  0  0  0
   29.9962   16.5301    1.6072 H   0  0  0  0  0
   29.1385   17.8293    0.7514 H   0  0  0  0  0
   30.3078   19.7963    1.6914 H   0  0  0  0  0
   31.0119   18.6771    2.8842 H   0  0  0  0  0
   32.0729   19.7313    1.9177 H   0  0  0  0  0
   33.3882   16.4275   -1.1498 H   0  0  0  0  0
   32.1902   15.4279   -3.0224 H   0  0  0  0  0
   30.0904   14.4547   -3.8721 H   0  0  0  0  0
  1  2  1  0  0  0
  2  3  1  0  0  0
  3  4  1  0  0  0
  4  5  2  0  0  0
  4  6  2  0  0  0
  4  7  1  0  0  0
  7  8  4  0  0  0
  7 18  4  0  0  0
  8  9  4  0  0  0
  9 10  1  0  0  0
  9 16  4  0  0  0
 10 11  1  0  0  0
 11 12  1  0  0  0
 11 13  1  0  0  0
 13 14  2  0  0  0
 13 15  1  0  0  0
 15 16  1  0  0  0
 16 17  4  0  0  0
 17 18  4  0  0  0
  1 19  1  0  0  0
  1 20  1  0  0  0
  1 21  1  0  0  0
  2 22  1  0  0  0
  2 23  1  0  0  0
  3 24  1  0  0  0
  8 25  1  0  0  0
 10 26  1  0  0  0
 10 27  1  0  0  0
 12 28  1  0  0  0
 12 29  1  0  0  0
 12 30  1  0  0  0
 15 31  1  0  0  0
 17 32  1  0  0  0
 18 33  1  0  0  0
M  END
$$$$
