6rfi_ligand
  -I-interpret- 

 56 59  0  0  0  0  0  0  0  0999 V2000
  -14.2640  -16.6810  -15.4360 C   0  0  0  0  0
  -15.5820  -17.6500  -13.7280 C   0  0  0  0  0
  -14.8590  -17.1860  -12.8780 O   0  0  0  0  0
  -18.4610  -18.5010  -11.8190 C   0  0  0  0  0
  -18.9800  -18.8320  -14.1720 C   0  0  0  0  0
  -17.5120  -19.0680  -14.4700 C   0  0  0  0  0
  -20.7320  -19.2520  -12.4670 C   0  0  0  0  0
  -21.3020  -17.8700  -12.1040 C   0  0  0  0  0
  -22.7820  -17.9690  -11.7370 C   0  0  0  0  0
  -22.9900  -18.9740  -10.6180 C   0  0  0  0  0
  -22.4910  -20.3470  -11.0310 C   0  0  0  0  0
  -21.0140  -20.3120  -11.4000 C   0  0  0  0  0
  -24.3160  -19.5020   -6.7430 C   0  0  0  0  0
  -26.5200  -19.5780   -7.3290 C   0  0  0  0  0
  -27.2220  -19.2120   -9.6450 C   0  0  0  0  0
  -27.8750  -19.8210   -6.9990 C   0  0  0  0  0
  -30.3400  -19.4840  -11.1240 N   0  0  0  0  0
  -15.3830  -17.5160  -15.0500 O   0  0  0  0  0
  -16.6710  -18.4030  -13.4610 N   0  0  0  0  0
  -17.0050  -18.7700  -12.0810 C   0  0  0  0  0
  -19.2930  -19.2350  -12.7900 N   0  3  0  0  0
  -24.3820  -19.0490  -10.2310 N   0  0  0  0  0
  -24.7830  -19.1800   -8.9560 C   0  0  0  0  0
  -23.8580  -19.2760   -7.9830 N   0  0  0  0  0
  -25.5740  -19.6650   -6.3400 N   0  0  0  0  0
  -26.1870  -19.2950   -8.6770 C   0  0  0  0  0
  -28.5340  -19.4570   -9.2830 C   0  0  0  0  0
  -28.8490  -19.7620   -7.9540 C   0  0  0  0  0
  -29.5550  -19.4730  -10.2960 C   0  0  0  0  0
  -14.4118  -15.6742  -15.0453 H   0  0  0  0  0
  -13.3432  -17.0986  -15.0288 H   0  0  0  0  0
  -14.1980  -16.6440  -16.5234 H   0  0  0  0  0
  -18.6516  -17.4325  -11.9193 H   0  0  0  0  0
  -18.7107  -18.8319  -10.8109 H   0  0  0  0  0
  -19.5824  -19.4247  -14.8604 H   0  0  0  0  0
  -19.2012  -17.7714  -14.2919 H   0  0  0  0  0
  -17.2786  -18.6585  -15.4528 H   0  0  0  0  0
  -17.3128  -20.1394  -14.4484 H   0  0  0  0  0
  -21.2673  -19.5282  -13.3754 H   0  0  0  0  0
  -21.1982  -17.2109  -12.9659 H   0  0  0  0  0
  -20.7539  -17.4793  -11.2467 H   0  0  0  0  0
  -23.3417  -18.2958  -12.6133 H   0  0  0  0  0
  -23.1287  -16.9913  -11.4022 H   0  0  0  0  0
  -22.4141  -18.6326   -9.7579 H   0  0  0  0  0
  -23.0583  -20.6744  -11.9022 H   0  0  0  0  0
  -22.6226  -21.0305  -10.1922 H   0  0  0  0  0
  -20.4391  -20.0667  -10.5070 H   0  0  0  0  0
  -20.7325  -21.2873  -11.7971 H   0  0  0  0  0
  -23.5579  -19.5598   -5.9620 H   0  0  0  0  0
  -26.9819  -18.9544  -10.6766 H   0  0  0  0  0
  -28.1441  -20.0582   -5.9697 H   0  0  0  0  0
  -16.8024  -19.8305  -11.9316 H   0  0  0  0  0
  -16.4004  -18.1772  -11.3946 H   0  0  0  0  0
  -19.0355  -20.2188  -12.7116 H   0  0  0  0  0
  -25.0925  -19.0001  -10.9612 H   0  0  0  0  0
  -29.8856  -19.9550   -7.6776 H   0  0  0  0  0
 18  1  1  0  0  0
  2  3  2  0  0  0
  2 18  1  0  0  0
 19  2  1  0  0  0
  4 20  1  0  0  0
 21  4  1  0  0  0
  5  6  1  0  0  0
 21  5  1  0  0  0
  6 19  1  0  0  0
  8  7  1  0  0  0
 12  7  1  0  0  0
  7 21  1  0  0  0
  9  8  1  0  0  0
 10  9  1  0  0  0
 10 11  1  0  0  0
 22 10  1  0  0  0
 11 12  1  0  0  0
 24 13  4  0  0  0
 25 13  4  0  0  0
 16 14  4  0  0  0
 14 25  4  0  0  0
 26 14  4  0  0  0
 15 26  4  0  0  0
 27 15  4  0  0  0
 28 16  4  0  0  0
 29 17  3  0  0  0
 20 19  1  0  0  0
 23 22  1  0  0  0
 23 24  4  0  0  0
 26 23  4  0  0  0
 27 28  4  0  0  0
 27 29  1  0  0  0
  1 30  1  0  0  0
  1 31  1  0  0  0
  1 32  1  0  0  0
  4 33  1  0  0  0
  4 34  1  0  0  0
  5 35  1  0  0  0
  5 36  1  0  0  0
  6 37  1  0  0  0
  6 38  1  0  0  0
  7 39  1  0  0  0
  8 40  1  0  0  0
  8 41  1  0  0  0
  9 42  1  0  0  0
  9 43  1  0  0  0
 10 44  1  0  0  0
 11 45  1  0  0  0
 11 46  1  0  0  0
 12 47  1  0  0  0
 12 48  1  0  0  0
 13 49  1  0  0  0
 15 50  1  0  0  0
 16 51  1  0  0  0
 20 52  1  0  0  0
 20 53  1  0  0  0
 21 54  1  0  0  0
 22 55  1  0  0  0
 28 56  1  0  0  0
M  END
$$$$
