### 
### Created by X-TOOL on Mon Aug  2 16:10:02 2021
### 

@<TRIPOS>MOLECULE
5zde_ligand
   57    60     1     0     0
SMALL
GAST_HUCK


@<TRIPOS>ATOM
      1 N1         11.9670   -4.8080   -1.2060 N.ar      1 AR6        -0.2698
      2 C2         11.1540   -5.7930   -0.6970 C.ar      1 AR6         0.0533
      3 N3         11.2500   -7.0790   -1.1310 N.ar      1 AR6        -0.2714
      4 C4         12.1650   -7.3850   -2.0870 C.ar      1 AR6         0.1613
      5 C5         12.9610   -6.4130   -2.5700 C.ar      1 AR6         0.1045
      6 C6         12.8680   -5.1090   -2.1300 C.ar      1 AR6         0.1298
      7 N6         13.6100   -3.8860   -2.4970 N.pl3     1 AR6        -0.3152
      8 N7         13.7890   -6.9290   -3.4760 N.2       1 AR6        -0.2958
      9 C8         13.5070   -8.2270   -3.5570 C.2       1 AR6         0.1123
     10 N9         12.5190   -8.5330   -2.7140 N.pl3     1 AR6        -0.1919
     11 PA         17.0190  -11.1560   -1.6850 P.3       1 AR6         0.2972
     12 PB         18.0460  -13.4040   -0.1120 P.3       1 AR6         0.2972
     13 C1'        11.9970   -9.8520   -2.5920 C.3       1 AR6         0.2010
     14 O1A        17.5220  -11.9030   -2.8660 O.co2     1 AR6        -0.6127
     15 O1B        17.8170  -14.1330   -1.4100 O.co2     1 AR6        -0.6127
     16 C1D        21.9880   -9.8450   -1.6820 C.3       1 AR6         0.1854
     17 O1D        23.0720   -9.7750   -2.3380 O.3       1 AR6        -0.3649
     18 C2'        12.1150  -10.5410   -3.7430 C.3       1 AR6         0.1385
     19 O2'        10.8690  -11.2900   -4.0260 O.3       1 AR6        -0.3836
     20 O2A        17.5810   -9.7800   -1.6340 O.co2     1 AR6        -0.6127
     21 O2B        17.4260  -14.2560    0.9890 O.co2     1 AR6        -0.6127
     22 C2D        22.2270   -9.6930   -0.1820 C.3       1 AR6         0.1339
     23 O2D        23.3640   -8.7860    0.0710 O.3       1 AR6        -0.3841
     24 C3'        13.3090  -11.5110   -3.5340 C.3       1 AR6         0.1149
     25 O3'        13.2450  -12.6280   -4.2600 O.3       1 AR6        -0.3864
     26 O3A        17.3510  -11.9270   -0.2660 O.3       1 AR6        -0.1319
     27 C3D        22.5110  -10.9390    0.2060 C.3       1 AR6         0.1144
     28 O3D        23.8690  -11.2980   -0.0810 O.3       1 AR6        -0.3864
     29 C4'        13.2260  -11.8370   -1.9870 C.3       1 AR6         0.1189
     30 O4'        12.7930  -10.7280   -1.4420 O.3       1 AR6        -0.3364
     31 C4D        21.4800  -11.8460   -0.6790 C.3       1 AR6         0.1184
     32 O4D        21.3890  -11.2940   -1.8480 O.3       1 AR6        -0.3403
     33 C5'        14.6390  -12.1390   -1.4880 C.3       1 AR6         0.1128
     34 O5'        15.4110  -11.0130   -1.8030 O.3       1 AR6        -0.2476
     35 C5D        20.1110  -11.8000   -0.0550 C.3       1 AR6         0.1128
     36 O5D        19.6560  -13.1320    0.0720 O.3       1 AR6        -0.2476
     37 H1         10.4238   -5.5407    0.0634 H         1 AR6         0.0996
     38 H2         14.3555   -3.9293   -3.2064 H         1 AR6         0.1820
     39 H3         13.3820   -2.9897   -2.0435 H         1 AR6         0.1820
     40 H4         14.0088   -8.9353   -4.2146 H         1 AR6         0.1349
     41 H5         10.9339   -9.7773   -2.3197 H         1 AR6         0.0996
     42 H6         21.2842   -9.0798   -2.0414 H         1 AR6         0.0935
     43 H7         23.6855  -10.4186   -2.0033 H         1 AR6         0.2126
     44 H8         12.3243   -9.8560   -4.5778 H         1 AR6         0.0676
     45 H9         10.1447  -10.6801   -4.1026 H         1 AR6         0.2101
     46 H10        21.3297   -9.3133    0.3285 H         1 AR6         0.0671
     47 H11        24.1472   -9.1416   -0.3324 H         1 AR6         0.2101
     48 H12        14.2530  -10.9986   -3.7714 H         1 AR6         0.0648
     49 H13        12.4559  -13.1063   -4.0342 H         1 AR6         0.2100
     50 H14        22.3226  -11.0637    1.2825 H         1 AR6         0.0648
     51 H15        24.0203  -11.2376   -1.0169 H         1 AR6         0.2100
     52 H16        12.5498  -12.6798   -1.7810 H         1 AR6         0.0651
     53 H17        21.8393  -12.8829   -0.7553 H         1 AR6         0.0651
     54 H18        15.0399  -13.0302   -1.9930 H         1 AR6         0.0648
     55 H19        14.6325  -12.3054   -0.4007 H         1 AR6         0.0648
     56 H20        19.4247  -11.2286   -0.6972 H         1 AR6         0.0648
     57 H21        20.1659  -11.3260    0.9361 H         1 AR6         0.0648
@<TRIPOS>BOND
     1    2    1 ar 
     2    6    1 ar 
     3    3    2 ar 
     4    4    3 ar 
     5    4    5 ar 
     6   10    4 1  
     7    5    6 ar 
     8    8    5 1  
     9    6    7 1  
    10    9    8 2  
    11   10    9 1  
    12   13   10 1  
    13   11   14 ar 
    14   11   20 ar 
    15   26   11 1  
    16   11   34 1  
    17   12   15 ar 
    18   12   21 ar 
    19   12   26 1  
    20   36   12 1  
    21   13   18 1  
    22   30   13 1  
    23   16   17 1  
    24   16   22 1  
    25   32   16 1  
    26   18   19 1  
    27   24   18 1  
    28   22   23 1  
    29   27   22 1  
    30   24   25 1  
    31   29   24 1  
    32   27   28 1  
    33   31   27 1  
    34   29   30 1  
    35   33   29 1  
    36   31   32 1  
    37   35   31 1  
    38   34   33 1  
    39   35   36 1  
    40    2   37 1  
    41    7   38 1  
    42    7   39 1  
    43    9   40 1  
    44   13   41 1  
    45   16   42 1  
    46   17   43 1  
    47   18   44 1  
    48   19   45 1  
    49   22   46 1  
    50   23   47 1  
    51   24   48 1  
    52   25   49 1  
    53   27   50 1  
    54   28   51 1  
    55   29   52 1  
    56   31   53 1  
    57   33   54 1  
    58   33   55 1  
    59   35   56 1  
    60   35   57 1  
@<TRIPOS>SUBSTRUCTURE
     1 AR6         1

