5zde_ligand
  -I-interpret- 

 59 62  0  0  0  0  0  0  0  0999 V2000
   11.9670   -4.8080   -1.2060 N   0  0  0  0  0
   11.1540   -5.7930   -0.6970 C   0  0  0  0  0
   11.2500   -7.0790   -1.1310 N   0  0  0  0  0
   12.1650   -7.3850   -2.0870 C   0  0  0  0  0
   12.9610   -6.4130   -2.5700 C   0  0  0  0  0
   12.8680   -5.1090   -2.1300 C   0  0  0  0  0
   13.6100   -3.8860   -2.4970 N   0  0  0  0  0
   13.7890   -6.9290   -3.4760 N   0  0  0  0  0
   13.5070   -8.2270   -3.5570 C   0  0  0  0  0
   12.5190   -8.5330   -2.7140 N   0  0  0  0  0
   17.0190  -11.1560   -1.6850 P   0  0  0  0  0
   18.0460  -13.4040   -0.1120 P   0  0  0  0  0
   11.9970   -9.8520   -2.5920 C   0  0  0  0  0
   17.5220  -11.9030   -2.8660 O   0  0  0  0  0
   17.8170  -14.1330   -1.4100 O   0  0  0  0  0
   21.9880   -9.8450   -1.6820 C   0  0  0  0  0
   23.0720   -9.7750   -2.3380 O   0  0  0  0  0
   12.1150  -10.5410   -3.7430 C   0  0  0  0  0
   10.8690  -11.2900   -4.0260 O   0  0  0  0  0
   17.5810   -9.7800   -1.6340 O   0  0  0  0  0
   17.4260  -14.2560    0.9890 O   0  0  0  0  0
   22.2270   -9.6930   -0.1820 C   0  0  0  0  0
   23.3640   -8.7860    0.0710 O   0  0  0  0  0
   13.3090  -11.5110   -3.5340 C   0  0  0  0  0
   13.2450  -12.6280   -4.2600 O   0  0  0  0  0
   17.3510  -11.9270   -0.2660 O   0  0  0  0  0
   22.5110  -10.9390    0.2060 C   0  0  0  0  0
   23.8690  -11.2980   -0.0810 O   0  0  0  0  0
   13.2260  -11.8370   -1.9870 C   0  0  0  0  0
   12.7930  -10.7280   -1.4420 O   0  0  0  0  0
   21.4800  -11.8460   -0.6790 C   0  0  0  0  0
   21.3890  -11.2940   -1.8480 O   0  0  0  0  0
   14.6390  -12.1390   -1.4880 C   0  0  0  0  0
   15.4110  -11.0130   -1.8030 O   0  0  0  0  0
   20.1110  -11.8000   -0.0550 C   0  0  0  0  0
   19.6560  -13.1320    0.0720 O   0  0  0  0  0
   10.4197   -5.5393    0.0676 H   0  0  0  0  0
   13.3842   -2.9984   -2.0480 H   0  0  0  0  0
   14.3483   -3.9289   -3.1995 H   0  0  0  0  0
   14.0093   -8.9360   -4.2152 H   0  0  0  0  0
   10.9496   -9.7222   -2.3196 H   0  0  0  0  0
   21.3359   -9.0550   -2.0545 H   0  0  0  0  0
   22.8850   -9.8742   -3.2744 H   0  0  0  0  0
   12.2853   -9.8814   -4.5939 H   0  0  0  0  0
   10.9685  -11.7753   -4.8483 H   0  0  0  0  0
   17.2382   -9.3239   -0.8619 H   0  0  0  0  0
   17.5518  -13.8228    1.8364 H   0  0  0  0  0
   21.3793   -9.2640    0.3523 H   0  0  0  0  0
   23.5002   -8.7018    1.0175 H   0  0  0  0  0
   14.2473  -11.0593   -3.8558 H   0  0  0  0  0
   14.0141  -13.1723   -4.0761 H   0  0  0  0  0
   22.4031  -11.0718    1.2825 H   0  0  0  0  0
   24.0299  -12.1976    0.2129 H   0  0  0  0  0
   12.5842  -12.6867   -1.7541 H   0  0  0  0  0
   21.8347  -12.8752   -0.7342 H   0  0  0  0  0
   15.0400  -13.0361   -1.9597 H   0  0  0  0  0
   14.6449  -12.3332   -0.4155 H   0  0  0  0  0
   19.4280  -11.2220   -0.6775 H   0  0  0  0  0
   20.1536  -11.3174    0.9214 H   0  0  0  0  0
  2  1  4  0  0  0
  6  1  4  0  0  0
  3  2  4  0  0  0
  4  3  4  0  0  0
  4  5  4  0  0  0
 10  4  4  0  0  0
  5  6  4  0  0  0
  8  5  4  0  0  0
  6  7  1  0  0  0
  9  8  4  0  0  0
 10  9  4  0  0  0
 13 10  1  0  0  0
 11 14  2  0  0  0
 11 20  1  0  0  0
 26 11  1  0  0  0
 11 34  1  0  0  0
 12 15  2  0  0  0
 12 21  1  0  0  0
 12 26  1  0  0  0
 36 12  1  0  0  0
 13 18  1  0  0  0
 30 13  1  0  0  0
 16 17  1  0  0  0
 16 22  1  0  0  0
 32 16  1  0  0  0
 18 19  1  0  0  0
 24 18  1  0  0  0
 22 23  1  0  0  0
 27 22  1  0  0  0
 24 25  1  0  0  0
 29 24  1  0  0  0
 27 28  1  0  0  0
 31 27  1  0  0  0
 29 30  1  0  0  0
 33 29  1  0  0  0
 31 32  1  0  0  0
 35 31  1  0  0  0
 34 33  1  0  0  0
 35 36  1  0  0  0
  2 37  1  0  0  0
  7 38  1  0  0  0
  7 39  1  0  0  0
  9 40  1  0  0  0
 13 41  1  0  0  0
 16 42  1  0  0  0
 17 43  1  0  0  0
 18 44  1  0  0  0
 19 45  1  0  0  0
 20 46  1  0  0  0
 21 47  1  0  0  0
 22 48  1  0  0  0
 23 49  1  0  0  0
 24 50  1  0  0  0
 25 51  1  0  0  0
 27 52  1  0  0  0
 28 53  1  0  0  0
 29 54  1  0  0  0
 31 55  1  0  0  0
 33 56  1  0  0  0
 33 57  1  0  0  0
 35 58  1  0  0  0
 35 59  1  0  0  0
M  END
$$$$
