4n6y_ligand
  -I-interpret- 

 44 46  0  0  0  0  0  0  0  0999 V2000
   22.6580   34.5430    2.3720 O   0  0  0  0  0
   22.6240   34.7090    1.1500 C   0  0  0  0  0
   23.0080   36.0070    0.5480 C   0  0  0  0  0
   23.1310   36.1350   -0.8210 N   0  0  0  0  0
   23.2250   37.1340    1.2710 C   0  0  0  0  0
   23.5820   38.4520    0.2310 S   0  0  0  0  0
   23.4310   37.3740   -1.1180 C   0  0  0  0  0
   23.6110   37.7410   -2.4380 N   0  0  0  0  0
   23.8250   39.0090   -2.9220 C   0  0  0  0  0
   23.8630   40.0020   -2.2040 O   0  0  0  0  0
   24.0120   39.0980   -4.4050 C   0  0  0  0  0
   22.2910   33.7630    0.2440 N   0  0  0  0  0
   21.5340   32.5720    0.4020 C   0  0  0  0  0
   21.2700   31.7320   -0.7020 C   0  0  0  0  0
   20.8120   30.4380   -0.4760 C   0  0  0  0  0
   20.5460   30.0020    0.8090 C   0  0  0  0  0
   20.7330   30.8410    1.8780 C   0  0  0  0  0
   21.2120   32.1240    1.6880 C   0  0  0  0  0
   21.3900   32.1850   -2.0500 N   0  0  0  0  0
   20.9330   33.5160   -2.4660 C   0  0  0  0  0
   20.6560   33.5960   -3.9460 C   0  0  0  0  0
   21.8570   33.1440   -4.7370 C   0  0  0  0  0
   22.2760   31.7490   -4.3200 C   0  0  0  0  0
   22.5180   31.6700   -2.8320 C   0  0  0  0  0
   23.1792   37.1941    2.3584 H   0  0  0  0  0
   23.5819   36.9897   -3.1273 H   0  0  0  0  0
   23.2384   39.7377   -4.8297 H   0  0  0  0  0
   24.9934   39.5199   -4.6215 H   0  0  0  0  0
   23.9399   38.1010   -4.8395 H   0  0  0  0  0
   22.6375   33.9307   -0.7006 H   0  0  0  0  0
   20.6617   29.7627   -1.3183 H   0  0  0  0  0
   20.1859   28.9864    0.9733 H   0  0  0  0  0
   20.5022   30.4935    2.8850 H   0  0  0  0  0
   21.3392   32.7886    2.5426 H   0  0  0  0  0
   21.7226   34.2304   -2.2329 H   0  0  0  0  0
   20.0042   33.7324   -1.9382 H   0  0  0  0  0
   20.4303   34.6299   -4.2072 H   0  0  0  0  0
   19.8130   32.9468   -4.1827 H   0  0  0  0  0
   22.6821   33.8313   -4.5500 H   0  0  0  0  0
   21.5989   33.1335   -5.7959 H   0  0  0  0  0
   23.2024   31.4965   -4.8358 H   0  0  0  0  0
   21.4763   31.0549   -4.5786 H   0  0  0  0  0
   22.6572   30.6212   -2.5698 H   0  0  0  0  0
   23.3922   32.2788   -2.6013 H   0  0  0  0  0
  1  2  2  0  0  0
  2  3  1  0  0  0
  2 12  1  0  0  0
  3  4  4  0  0  0
  3  5  4  0  0  0
  4  7  4  0  0  0
  5  6  4  0  0  0
  6  7  4  0  0  0
  7  8  1  0  0  0
  8  9  1  0  0  0
  9 10  2  0  0  0
  9 11  1  0  0  0
 12 13  1  0  0  0
 13 14  4  0  0  0
 13 18  4  0  0  0
 14 15  4  0  0  0
 14 19  1  0  0  0
 15 16  4  0  0  0
 16 17  4  0  0  0
 17 18  4  0  0  0
 19 20  1  0  0  0
 19 24  1  0  0  0
 20 21  1  0  0  0
 21 22  1  0  0  0
 22 23  1  0  0  0
 23 24  1  0  0  0
  5 25  1  0  0  0
  8 26  1  0  0  0
 11 27  1  0  0  0
 11 28  1  0  0  0
 11 29  1  0  0  0
 12 30  1  0  0  0
 15 31  1  0  0  0
 16 32  1  0  0  0
 17 33  1  0  0  0
 18 34  1  0  0  0
 20 35  1  0  0  0
 20 36  1  0  0  0
 21 37  1  0  0  0
 21 38  1  0  0  0
 22 39  1  0  0  0
 22 40  1  0  0  0
 23 41  1  0  0  0
 23 42  1  0  0  0
 24 43  1  0  0  0
 24 44  1  0  0  0
M  END
$$$$
