### 
### Created by X-TOOL on Mon Sep 10 21:13:23 2018
### 

@<TRIPOS>MOLECULE
4yv9_ligand
  198   198     1     0     0
SMALL
GAST_HUCK


@<TRIPOS>ATOM
      1 N         -14.8950   -3.5810   76.4380 N.am      1 DAL        -0.2640
      2 CA        -16.0670   -2.8160   76.9550 C.3       1 DAL         0.1284
      3 CB        -15.8090   -1.3300   77.2720 C.3       1 DAL        -0.0244
      4 C         -16.7400   -3.5560   78.1190 C.2       1 DAL         0.2059
      5 O         -16.6200   -3.1500   79.2750 O.2       1 DAL        -0.3942
      6 N         -17.4620   -4.6310   77.7980 N.am      1 MLE        -0.2529
      7 CN        -17.9890   -4.8250   76.4580 C.3       1 MLE         0.0254
      8 CA        -17.8860   -5.5850   78.8180 C.3       1 MLE         0.1338
      9 CB        -19.4050   -5.5690   78.9990 C.3       1 MLE        -0.0099
     10 CG        -19.9560   -5.3070   80.4080 C.3       1 MLE        -0.0425
     11 CD1       -21.1670   -6.1950   80.6860 C.3       1 MLE        -0.0625
     12 CD2       -18.9360   -5.3810   81.5460 C.3       1 MLE        -0.0625
     13 C         -17.4820   -6.9850   78.4270 C.2       1 MLE         0.2064
     14 O         -18.3910   -7.8090   77.7700 O.2       1 MLE        -0.3942
     15 N         -16.2480   -7.3930   78.7260 N.am      1 MLE        -0.2529
     16 CN        -15.2880   -6.5240   79.3640 C.3       1 MLE         0.0254
     17 CA        -15.8120   -8.7460   78.3760 C.3       1 MLE         0.1338
     18 CB        -14.6450   -8.7240   77.3810 C.3       1 MLE        -0.0099
     19 CG        -14.9510   -7.9640   76.0960 C.3       1 MLE        -0.0425
     20 CD1       -13.6920   -7.8530   75.2370 C.3       1 MLE        -0.0625
     21 CD2       -16.0960   -8.6200   75.3230 C.3       1 MLE        -0.0625
     22 C         -15.3260   -9.5280   79.5730 C.2       1 MLE         0.2064
     23 O         -13.9710   -9.8530   79.6610 O.2       1 MLE        -0.3942
     24 N         -16.2170   -9.9130   80.4850 N.am      1 MVA        -0.2526
     25 CN        -17.6520   -9.9440   80.1890 C.3       1 MVA         0.0254
     26 CA        -15.7570  -10.5270   81.7300 C.3       1 MVA         0.1359
     27 CB        -16.3880   -9.8000   82.9320 C.3       1 MVA        -0.0061
     28 CG1       -15.8560  -10.3190   84.2700 C.3       1 MVA        -0.0584
     29 CG2       -16.1680   -8.2890   82.8590 C.3       1 MVA        -0.0584
     30 C         -16.0360  -12.0120   81.7860 C.2       1 MVA         0.2067
     31 O         -17.3470  -12.4490   82.0190 O.2       1 MVA        -0.3942
     32 N         -15.0370  -12.8780   81.5970 N.am      1 BMT        -0.2503
     33 CN        -15.3830  -14.2900   81.5780 C.3       1 BMT         0.0255
     34 CA        -13.6500  -12.4740   81.3540 C.3       1 BMT         0.1592
     35 C         -13.0610  -13.1560   80.1340 C.2       1 BMT         0.2067
     36 O         -12.7430  -14.3500   80.1470 O.2       1 BMT        -0.3943
     37 CB        -12.7700  -12.7920   82.5750 C.3       1 BMT         0.0979
     38 OG1       -13.3430  -12.2300   83.7380 O.3       1 BMT        -0.3868
     39 CG2       -11.3240  -12.3090   82.4280 C.3       1 BMT        -0.0134
     40 CD1       -10.4200  -12.9570   83.4840 C.3       1 BMT        -0.0598
     41 CD2       -11.2180  -10.7840   82.5240 C.3       1 BMT        -0.0479
     42 CE         -9.7670  -10.3600   82.4860 C.3       1 BMT        -0.0530
     43 CZ         -9.3260   -9.0360   82.9580 C.3       1 BMT        -0.0559
     44 CH         -7.8720   -8.6480   82.9020 C.3       1 BMT        -0.0653
     45 N         -12.9120  -12.4080   79.0480 N.am      1 ABA        -0.2636
     46 CA        -12.2990  -12.9540   77.8370 C.3       1 ABA         0.1309
     47 C         -11.3020  -11.9700   77.2460 C.2       1 ABA         0.2059
     48 O         -11.5700  -10.7710   77.2240 O.2       1 ABA        -0.3942
     49 CB        -13.3690  -13.3060   76.8050 C.3       1 ABA        -0.0152
     50 CG        -14.3780  -12.1890   76.6100 C.3       1 ABA        -0.0610
     51 N         -10.1290  -12.4550   76.8250 N.am      1 SAR        -0.2556
     52 CA         -9.1260  -11.5700   76.1880 C.3       1 SAR         0.1227
     53 C          -8.0660  -10.6660   76.8730 C.2       1 SAR         0.2032
     54 O          -7.1170  -10.0200   76.0430 O.2       1 SAR        -0.3945
     55 CN         -9.8100  -13.8690   76.9710 C.3       1 SAR         0.0252
     56 N          -8.0610  -10.5020   78.1940 N.am      1 MLE        -0.2531
     57 CN         -8.9580  -11.1620   79.1250 C.3       1 MLE         0.0254
     58 CA         -7.0530   -9.6490   78.8750 C.3       1 MLE         0.1336
     59 CB         -5.5870  -10.1140   78.7150 C.3       1 MLE        -0.0099
     60 CG         -5.3550  -11.5110   79.3020 C.3       1 MLE        -0.0425
     61 CD1        -3.8770  -11.8950   79.2360 C.3       1 MLE        -0.0625
     62 CD2        -5.8900  -11.6360   80.7310 C.3       1 MLE        -0.0625
     63 C          -7.1160   -8.1280   78.7600 C.2       1 MLE         0.2041
     64 O          -6.0710   -7.3850   79.3250 O.2       1 MLE        -0.3944
     65 N          -8.1520   -7.5550   78.1470 N.am      1 VAL        -0.2635
     66 CA         -8.4200   -6.1130   78.2800 C.3       1 VAL         0.1334
     67 C          -9.9030   -5.8990   78.6870 C.2       1 VAL         0.2064
     68 O         -10.7580   -6.7240   78.3470 O.2       1 VAL        -0.3942
     69 CB         -8.0840   -5.3370   76.9720 C.3       1 VAL        -0.0062
     70 CG1        -6.5830   -5.2770   76.7400 C.3       1 VAL        -0.0584
     71 CG2        -8.7810   -5.9640   75.7610 C.3       1 VAL        -0.0584
     72 N         -10.2270   -4.8260   79.4200 N.am      1 MLE        -0.2529
     73 CN         -9.3090   -3.7520   79.7630 C.3       1 MLE         0.0254
     74 CA        -11.6010   -4.7000   79.9420 C.3       1 MLE         0.1336
     75 CB        -11.6720   -4.6320   81.4590 C.3       1 MLE        -0.0099
     76 CG        -11.1730   -5.9430   82.0420 C.3       1 MLE        -0.0425
     77 CD1       -10.7840   -5.7410   83.5090 C.3       1 MLE        -0.0625
     78 CD2       -12.2300   -7.0320   81.8380 C.3       1 MLE        -0.0625
     79 C         -12.3740   -3.5390   79.4050 C.2       1 MLE         0.2041
     80 O         -13.4620   -2.9870   80.1080 O.2       1 MLE        -0.3944
     81 N         -11.9510   -3.0540   78.2550 N.am      1 ALA        -0.2640
     82 CA        -12.8750   -2.3880   77.3820 C.3       1 ALA         0.1282
     83 C         -13.5690   -3.5380   76.6660 C.2       1 ALA         0.2036
     84 O         -12.8550   -4.4840   76.3180 O.2       1 ALA        -0.3944
     85 CB        -12.1630   -1.4730   76.4130 C.3       1 ALA        -0.0244
     86 H1        -15.1520   -4.2826   75.7734 H         1 DAL         0.1883
     87 H2        -16.7987   -2.8118   76.1337 H         1 DAL         0.0797
     88 H3        -16.7356   -0.8681   77.6435 H         1 DAL         0.0277
     89 H4        -15.4816   -0.8117   76.3587 H         1 DAL         0.0277
     90 H5        -15.0257   -1.2495   78.0401 H         1 DAL         0.0277
     91 H6        -17.5937   -4.0439   75.7919 H         1 MLE         0.0488
     92 H7        -19.0870   -4.7640   76.4834 H         1 MLE         0.0488
     93 H8        -17.6852   -5.8139   76.0841 H         1 MLE         0.0488
     94 H9        -17.4055   -5.3190   79.7711 H         1 MLE         0.0802
     95 H10       -19.7842   -6.5497   78.6758 H         1 MLE         0.0315
     96 H11       -19.8057   -4.7853   78.3393 H         1 MLE         0.0315
     97 H12       -20.3194   -4.2688   80.4006 H         1 MLE         0.0298
     98 H13       -21.5458   -5.9920   81.6986 H         1 MLE         0.0232
     99 H14       -20.8719   -7.2519   80.6100 H         1 MLE         0.0232
    100 H15       -21.9557   -5.9806   79.9498 H         1 MLE         0.0232
    101 H16       -18.0794   -4.7313   81.3134 H         1 MLE         0.0232
    102 H17       -18.5889   -6.4185   81.6604 H         1 MLE         0.0232
    103 H18       -19.4063   -5.0463   82.4823 H         1 MLE         0.0232
    104 H19       -15.7541   -5.5483   79.5659 H         1 MLE         0.0488
    105 H20       -14.4210   -6.3861   78.7012 H         1 MLE         0.0488
    106 H21       -14.9574   -6.9754   80.3111 H         1 MLE         0.0488
    107 H22       -16.6656   -9.2726   77.9242 H         1 MLE         0.0802
    108 H23       -14.3922   -9.7620   77.1189 H         1 MLE         0.0315
    109 H24       -13.7814   -8.2482   77.8687 H         1 MLE         0.0315
    110 H25       -15.2682   -6.9467   76.3688 H         1 MLE         0.0298
    111 H26       -13.9256   -7.3031   74.3134 H         1 MLE         0.0232
    112 H27       -13.3317   -8.8607   74.9825 H         1 MLE         0.0232
    113 H28       -12.9125   -7.3153   75.7966 H         1 MLE         0.0232
    114 H29       -16.9845   -8.6844   75.9683 H         1 MLE         0.0232
    115 H30       -15.7957   -9.6311   75.0107 H         1 MLE         0.0232
    116 H31       -16.3315   -8.0164   74.4341 H         1 MLE         0.0232
    117 H32       -17.8385   -9.4464   79.2259 H         1 MVA         0.0488
    118 H33       -18.2020   -9.4203   80.9848 H         1 MVA         0.0488
    119 H34       -17.9926  -10.9885   80.1341 H         1 MVA         0.0488
    120 H35       -14.6665  -10.3940   81.7857 H         1 MVA         0.0804
    121 H36       -17.4711   -9.9894   82.9008 H         1 MVA         0.0343
    122 H37       -16.3360   -9.7697   85.0933 H         1 MVA         0.0234
    123 H38       -14.7672  -10.1689   84.3148 H         1 MVA         0.0234
    124 H39       -16.0825  -11.3913   84.3636 H         1 MVA         0.0234
    125 H40       -16.5483   -7.9091   81.8993 H         1 MVA         0.0234
    126 H41       -15.0929   -8.0706   82.9396 H         1 MVA         0.0234
    127 H42       -16.7045   -7.8000   83.6854 H         1 MVA         0.0234
    128 H43       -16.4583  -14.4067   81.7783 H         1 BMT         0.0488
    129 H44       -14.8065  -14.8192   82.3510 H         1 BMT         0.0488
    130 H45       -15.1461  -14.7123   80.5903 H         1 BMT         0.0488
    131 H46       -13.6369  -11.3873   81.1839 H         1 BMT         0.0828
    132 H47       -12.7463  -13.8854   82.6931 H         1 BMT         0.0645
    133 H48       -14.2097  -12.5957   83.8711 H         1 BMT         0.2101
    134 H49       -10.9663  -12.6141   81.4335 H         1 BMT         0.0325
    135 H50        -9.3894  -12.5942   83.3568 H         1 BMT         0.0233
    136 H51       -10.4413  -14.0502   83.3640 H         1 BMT         0.0233
    137 H52       -10.7809  -12.6913   84.4886 H         1 BMT         0.0233
    138 H53       -11.6709  -10.4466   83.4680 H         1 BMT         0.0269
    139 H54       -11.7524  -10.3282   81.6774 H         1 BMT         0.0269
    140 H55        -9.4532  -10.4316   81.4342 H         1 BMT         0.0265
    141 H56        -9.2148  -11.0994   83.0846 H         1 BMT         0.0265
    142 H57        -9.6318   -8.9596   84.0119 H         1 BMT         0.0263
    143 H58        -9.8737   -8.2909   82.3623 H         1 BMT         0.0263
    144 H59        -7.7490   -7.6288   83.2971 H         1 BMT         0.0230
    145 H60        -7.5234   -8.6815   81.8592 H         1 BMT         0.0230
    146 H61        -7.2815   -9.3502   83.5088 H         1 BMT         0.0230
    147 H62       -13.2231  -11.4577   79.0575 H         1 ABA         0.1883
    148 H63       -11.7601  -13.8742   78.1069 H         1 ABA         0.0800
    149 H64       -13.9015  -14.2075   77.1423 H         1 ABA         0.0310
    150 H65       -12.8773  -13.5092   75.8422 H         1 ABA         0.0310
    151 H66       -15.1223  -12.4941   75.8597 H         1 ABA         0.0232
    152 H67       -13.8594  -11.2826   76.2644 H         1 ABA         0.0232
    153 H68       -14.8836  -11.9808   77.5645 H         1 ABA         0.0232
    154 H69        -9.7187  -10.8807   75.5687 H         1 SAR         0.0765
    155 H70        -8.5417  -12.2373   75.5374 H         1 SAR         0.0765
    156 H71       -10.6498  -14.3859   77.4583 H         1 SAR         0.0488
    157 H72        -8.9050  -13.9791   77.5864 H         1 SAR         0.0488
    158 H73        -9.6344  -14.3097   75.9786 H         1 SAR         0.0488
    159 H74        -9.6790  -11.7767   78.5662 H         1 MLE         0.0488
    160 H75        -9.4989  -10.4052   79.7120 H         1 MLE         0.0488
    161 H76        -8.3759  -11.8043   79.8022 H         1 MLE         0.0488
    162 H77        -7.2795   -9.8286   79.9363 H         1 MLE         0.0802
    163 H78        -4.9302   -9.3990   79.2321 H         1 MLE         0.0315
    164 H79        -5.3365  -10.1338   77.6441 H         1 MLE         0.0315
    165 H80        -5.9128  -12.2256   78.6789 H         1 MLE         0.0298
    166 H81        -3.7398  -12.8995   79.6628 H         1 MLE         0.0232
    167 H82        -3.2834  -11.1684   79.8102 H         1 MLE         0.0232
    168 H83        -3.5442  -11.8935   78.1876 H         1 MLE         0.0232
    169 H84        -6.9532  -11.3545   80.7504 H         1 MLE         0.0232
    170 H85        -5.3217  -10.9681   81.3950 H         1 MLE         0.0232
    171 H86        -5.7796  -12.6752   81.0743 H         1 MLE         0.0232
    172 H87        -8.7598   -8.1161   77.5851 H         1 VAL         0.1883
    173 H88        -7.7795   -5.7171   79.0819 H         1 VAL         0.0803
    174 H89        -8.4544   -4.3074   77.0846 H         1 VAL         0.0343
    175 H90        -6.3773   -4.7243   75.8114 H         1 VAL         0.0234
    176 H91        -6.1840   -6.2985   76.6547 H         1 VAL         0.0234
    177 H92        -6.1014   -4.7647   77.5859 H         1 VAL         0.0234
    178 H93        -9.8655   -6.0017   75.9411 H         1 VAL         0.0234
    179 H94        -8.3995   -6.9839   75.6057 H         1 VAL         0.0234
    180 H95        -8.5788   -5.3567   74.8664 H         1 VAL         0.0234
    181 H96        -8.3232   -3.9569   79.3201 H         1 MLE         0.0488
    182 H97        -9.2131   -3.6869   80.8569 H         1 MLE         0.0488
    183 H98        -9.6961   -2.7997   79.3715 H         1 MLE         0.0488
    184 H99       -12.1283   -5.6131   79.6287 H         1 MLE         0.0802
    185 H100      -12.7131   -4.4632   81.7713 H         1 MLE         0.0315
    186 H101      -11.0422   -3.8056   81.8201 H         1 MLE         0.0315
    187 H102      -10.2687   -6.2466   81.4942 H         1 MLE         0.0298
    188 H103      -10.4234   -6.6924   83.9270 H         1 MLE         0.0232
    189 H104      -11.6618   -5.4000   84.0775 H         1 MLE         0.0232
    190 H105       -9.9873   -4.9855   83.5764 H         1 MLE         0.0232
    191 H106      -12.4606   -7.1229   80.7663 H         1 MLE         0.0232
    192 H107      -13.1439   -6.7636   82.3882 H         1 MLE         0.0232
    193 H108      -11.8448   -7.9917   82.2128 H         1 MLE         0.0232
    194 H109      -10.9909   -3.1496   77.9920 H         1 ALA         0.1883
    195 H110      -13.6007   -1.7991   77.9621 H         1 ALA         0.0797
    196 H111      -12.9016   -0.9818   75.7625 H         1 ALA         0.0277
    197 H112      -11.4662   -2.0612   75.7977 H         1 ALA         0.0277
    198 H113      -11.6029   -0.7099   76.9733 H         1 ALA         0.0277
@<TRIPOS>BOND
     1    1    2 1  
     2    1   83 am 
     3    1   86 1  
     4    2    3 1  
     5    2    4 1  
     6    2   87 1  
     7    4    5 2  
     8    4    6 am 
     9    6    7 1  
    10    6    8 1  
    11    8    9 1  
    12    8   13 1  
    13    9   10 1  
    14   10   11 1  
    15   10   12 1  
    16   13   14 2  
    17   13   15 am 
    18   15   16 1  
    19   15   17 1  
    20   17   18 1  
    21   17   22 1  
    22   18   19 1  
    23   19   20 1  
    24   19   21 1  
    25   22   23 2  
    26   22   24 am 
    27   24   25 1  
    28   24   26 1  
    29   26   27 1  
    30   26   30 1  
    31   27   28 1  
    32   27   29 1  
    33   30   31 2  
    34   30   32 am 
    35   32   33 1  
    36   32   34 1  
    37   34   35 1  
    38   34   37 1  
    39   35   36 2  
    40   35   45 am 
    41   37   38 1  
    42   37   39 1  
    43   39   40 1  
    44   39   41 1  
    45   41   42 1  
    46   42   43 1  
    47   43   44 1  
    48   45   46 1  
    49   47   46 1  
    50   46   49 1  
    51   47   48 2  
    52   51   47 am 
    53   49   50 1  
    54   52   51 1  
    55   51   55 1  
    56   53   52 1  
    57   53   54 2  
    58   56   53 am 
    59   56   57 1  
    60   58   56 1  
    61   58   59 1  
    62   63   58 1  
    63   59   60 1  
    64   60   61 1  
    65   60   62 1  
    66   63   64 2  
    67   65   63 am 
    68   66   65 1  
    69   67   66 1  
    70   66   69 1  
    71   67   68 2  
    72   72   67 am 
    73   69   70 1  
    74   69   71 1  
    75   72   73 1  
    76   74   72 1  
    77   74   75 1  
    78   79   74 1  
    79   75   76 1  
    80   76   77 1  
    81   76   78 1  
    82   79   80 2  
    83   81   79 am 
    84   82   81 1  
    85   83   82 1  
    86   82   85 1  
    87   83   84 2  
    88    3   88 1  
    89    3   89 1  
    90    3   90 1  
    91    7   91 1  
    92    7   92 1  
    93    7   93 1  
    94    8   94 1  
    95    9   95 1  
    96    9   96 1  
    97   10   97 1  
    98   11   98 1  
    99   11   99 1  
   100   11  100 1  
   101   12  101 1  
   102   12  102 1  
   103   12  103 1  
   104   16  104 1  
   105   16  105 1  
   106   16  106 1  
   107   17  107 1  
   108   18  108 1  
   109   18  109 1  
   110   19  110 1  
   111   20  111 1  
   112   20  112 1  
   113   20  113 1  
   114   21  114 1  
   115   21  115 1  
   116   21  116 1  
   117   25  117 1  
   118   25  118 1  
   119   25  119 1  
   120   26  120 1  
   121   27  121 1  
   122   28  122 1  
   123   28  123 1  
   124   28  124 1  
   125   29  125 1  
   126   29  126 1  
   127   29  127 1  
   128   33  128 1  
   129   33  129 1  
   130   33  130 1  
   131   34  131 1  
   132   37  132 1  
   133   38  133 1  
   134   39  134 1  
   135   40  135 1  
   136   40  136 1  
   137   40  137 1  
   138   41  138 1  
   139   41  139 1  
   140   42  140 1  
   141   42  141 1  
   142   43  142 1  
   143   43  143 1  
   144   44  144 1  
   145   44  145 1  
   146   44  146 1  
   147   45  147 1  
   148   46  148 1  
   149   49  149 1  
   150   49  150 1  
   151   50  151 1  
   152   50  152 1  
   153   50  153 1  
   154   52  154 1  
   155   52  155 1  
   156   55  156 1  
   157   55  157 1  
   158   55  158 1  
   159   57  159 1  
   160   57  160 1  
   161   57  161 1  
   162   58  162 1  
   163   59  163 1  
   164   59  164 1  
   165   60  165 1  
   166   61  166 1  
   167   61  167 1  
   168   61  168 1  
   169   62  169 1  
   170   62  170 1  
   171   62  171 1  
   172   65  172 1  
   173   66  173 1  
   174   69  174 1  
   175   70  175 1  
   176   70  176 1  
   177   70  177 1  
   178   71  178 1  
   179   71  179 1  
   180   71  180 1  
   181   73  181 1  
   182   73  182 1  
   183   73  183 1  
   184   74  184 1  
   185   75  185 1  
   186   75  186 1  
   187   76  187 1  
   188   77  188 1  
   189   77  189 1  
   190   77  190 1  
   191   78  191 1  
   192   78  192 1  
   193   78  193 1  
   194   81  194 1  
   195   82  195 1  
   196   85  196 1  
   197   85  197 1  
   198   85  198 1  
@<TRIPOS>SUBSTRUCTURE
     1 DAL         1

