4yv9_ligand
  -I-interpret- 

198198  0  0  0  0  0  0  0  0999 V2000
  -14.8950   -3.5810   76.4380 N   0  0  0  0  0
  -16.0670   -2.8160   76.9550 C   0  0  0  0  0
  -15.8090   -1.3300   77.2720 C   0  0  0  0  0
  -16.7400   -3.5560   78.1190 C   0  0  0  0  0
  -16.6200   -3.1500   79.2750 O   0  0  0  0  0
  -17.4620   -4.6310   77.7980 N   0  0  0  0  0
  -17.9890   -4.8250   76.4580 C   0  0  0  0  0
  -17.8860   -5.5850   78.8180 C   0  0  0  0  0
  -19.4050   -5.5690   78.9990 C   0  0  0  0  0
  -19.9560   -5.3070   80.4080 C   0  0  0  0  0
  -21.1670   -6.1950   80.6860 C   0  0  0  0  0
  -18.9360   -5.3810   81.5460 C   0  0  0  0  0
  -17.4820   -6.9850   78.4270 C   0  0  0  0  0
  -18.3910   -7.8090   77.7700 O   0  0  0  0  0
  -16.2480   -7.3930   78.7260 N   0  0  0  0  0
  -15.2880   -6.5240   79.3640 C   0  0  0  0  0
  -15.8120   -8.7460   78.3760 C   0  0  0  0  0
  -14.6450   -8.7240   77.3810 C   0  0  0  0  0
  -14.9510   -7.9640   76.0960 C   0  0  0  0  0
  -13.6920   -7.8530   75.2370 C   0  0  0  0  0
  -16.0960   -8.6200   75.3230 C   0  0  0  0  0
  -15.3260   -9.5280   79.5730 C   0  0  0  0  0
  -13.9710   -9.8530   79.6610 O   0  0  0  0  0
  -16.2170   -9.9130   80.4850 N   0  0  0  0  0
  -17.6520   -9.9440   80.1890 C   0  0  0  0  0
  -15.7570  -10.5270   81.7300 C   0  0  0  0  0
  -16.3880   -9.8000   82.9320 C   0  0  0  0  0
  -15.8560  -10.3190   84.2700 C   0  0  0  0  0
  -16.1680   -8.2890   82.8590 C   0  0  0  0  0
  -16.0360  -12.0120   81.7860 C   0  0  0  0  0
  -17.3470  -12.4490   82.0190 O   0  0  0  0  0
  -15.0370  -12.8780   81.5970 N   0  0  0  0  0
  -15.3830  -14.2900   81.5780 C   0  0  0  0  0
  -13.6500  -12.4740   81.3540 C   0  0  0  0  0
  -13.0610  -13.1560   80.1340 C   0  0  0  0  0
  -12.7430  -14.3500   80.1470 O   0  0  0  0  0
  -12.7700  -12.7920   82.5750 C   0  0  0  0  0
  -13.3430  -12.2300   83.7380 O   0  0  0  0  0
  -11.3240  -12.3090   82.4280 C   0  0  0  0  0
  -10.4200  -12.9570   83.4840 C   0  0  0  0  0
  -11.2180  -10.7840   82.5240 C   0  0  0  0  0
   -9.7670  -10.3600   82.4860 C   0  0  0  0  0
   -9.3260   -9.0360   82.9580 C   0  0  0  0  0
   -7.8720   -8.6480   82.9020 C   0  0  0  0  0
  -12.9120  -12.4080   79.0480 N   0  0  0  0  0
  -12.2990  -12.9540   77.8370 C   0  0  0  0  0
  -11.3020  -11.9700   77.2460 C   0  0  0  0  0
  -11.5700  -10.7710   77.2240 O   0  0  0  0  0
  -13.3690  -13.3060   76.8050 C   0  0  0  0  0
  -14.3780  -12.1890   76.6100 C   0  0  0  0  0
  -10.1290  -12.4550   76.8250 N   0  0  0  0  0
   -9.1260  -11.5700   76.1880 C   0  0  0  0  0
   -8.0660  -10.6660   76.8730 C   0  0  0  0  0
   -7.1170  -10.0200   76.0430 O   0  0  0  0  0
   -9.8100  -13.8690   76.9710 C   0  0  0  0  0
   -8.0610  -10.5020   78.1940 N   0  0  0  0  0
   -8.9580  -11.1620   79.1250 C   0  0  0  0  0
   -7.0530   -9.6490   78.8750 C   0  0  0  0  0
   -5.5870  -10.1140   78.7150 C   0  0  0  0  0
   -5.3550  -11.5110   79.3020 C   0  0  0  0  0
   -3.8770  -11.8950   79.2360 C   0  0  0  0  0
   -5.8900  -11.6360   80.7310 C   0  0  0  0  0
   -7.1160   -8.1280   78.7600 C   0  0  0  0  0
   -6.0710   -7.3850   79.3250 O   0  0  0  0  0
   -8.1520   -7.5550   78.1470 N   0  0  0  0  0
   -8.4200   -6.1130   78.2800 C   0  0  0  0  0
   -9.9030   -5.8990   78.6870 C   0  0  0  0  0
  -10.7580   -6.7240   78.3470 O   0  0  0  0  0
   -8.0840   -5.3370   76.9720 C   0  0  0  0  0
   -6.5830   -5.2770   76.7400 C   0  0  0  0  0
   -8.7810   -5.9640   75.7610 C   0  0  0  0  0
  -10.2270   -4.8260   79.4200 N   0  0  0  0  0
   -9.3090   -3.7520   79.7630 C   0  0  0  0  0
  -11.6010   -4.7000   79.9420 C   0  0  0  0  0
  -11.6720   -4.6320   81.4590 C   0  0  0  0  0
  -11.1730   -5.9430   82.0420 C   0  0  0  0  0
  -10.7840   -5.7410   83.5090 C   0  0  0  0  0
  -12.2300   -7.0320   81.8380 C   0  0  0  0  0
  -12.3740   -3.5390   79.4050 C   0  0  0  0  0
  -13.4620   -2.9870   80.1080 O   0  0  0  0  0
  -11.9510   -3.0540   78.2550 N   0  0  0  0  0
  -12.8750   -2.3880   77.3820 C   0  0  0  0  0
  -13.5690   -3.5380   76.6660 C   0  0  0  0  0
  -12.8550   -4.4840   76.3180 O   0  0  0  0  0
  -12.1630   -1.4730   76.4130 C   0  0  0  0  0
  -15.1572   -4.2967   75.7602 H   0  0  0  0  0
  -16.7641   -2.7744   76.1181 H   0  0  0  0  0
  -16.7569   -0.8348   77.4825 H   0  0  0  0  0
  -15.1565   -1.2533   78.1418 H   0  0  0  0  0
  -15.3317   -0.8546   76.4151 H   0  0  0  0  0
  -17.6874   -5.8052   76.0887 H   0  0  0  0  0
  -19.0770   -4.7644   76.4845 H   0  0  0  0  0
  -17.5966   -4.0505   75.7990 H   0  0  0  0  0
  -17.4034   -5.2920   79.7504 H   0  0  0  0  0
  -19.7394   -6.5731   78.7382 H   0  0  0  0  0
  -19.7617   -4.7395   78.3885 H   0  0  0  0  0
  -20.2601   -4.2603   80.3973 H   0  0  0  0  0
  -21.9477   -5.9816   79.9558 H   0  0  0  0  0
  -20.8733   -7.2419   80.6103 H   0  0  0  0  0
  -21.5414   -5.9930   81.6896 H   0  0  0  0  0
  -18.4936   -6.3768   81.5715 H   0  0  0  0  0
  -18.1548   -4.6390   81.3808 H   0  0  0  0  0
  -19.4356   -5.1796   82.4936 H   0  0  0  0  0
  -15.1107   -5.6541   78.7316 H   0  0  0  0  0
  -15.6782   -6.1999   80.3288 H   0  0  0  0  0
  -14.3528   -7.0641   79.5117 H   0  0  0  0  0
  -16.6945   -9.2191   77.9454 H   0  0  0  0  0
  -14.4311   -9.7569   77.1061 H   0  0  0  0  0
  -13.8106   -8.2191   77.8679 H   0  0  0  0  0
  -15.2758   -6.9576   76.3601 H   0  0  0  0  0
  -12.9204   -7.3201   75.7927 H   0  0  0  0  0
  -13.3360   -8.8521   74.9856 H   0  0  0  0  0
  -13.9247   -7.3079   74.3222 H   0  0  0  0  0
  -15.8197   -9.6423   75.0650 H   0  0  0  0  0
  -16.9924   -8.6300   75.9430 H   0  0  0  0  0
  -16.2891   -8.0535   74.4120 H   0  0  0  0  0
  -17.9879   -8.9425   79.9201 H   0  0  0  0  0
  -17.8357  -10.6255   79.3584 H   0  0  0  0  0
  -18.1959  -10.2870   81.0691 H   0  0  0  0  0
  -14.6731  -10.4194   81.7703 H   0  0  0  0  0
  -17.4562  -10.0101   82.8776 H   0  0  0  0  0
  -16.0811  -11.3816   84.3615 H   0  0  0  0  0
  -14.7771  -10.1698   84.3131 H   0  0  0  0  0
  -16.3323   -9.7739   85.0850 H   0  0  0  0  0
  -15.0985   -8.0787   82.8533 H   0  0  0  0  0
  -16.6208   -7.9009   81.9466 H   0  0  0  0  0
  -16.6284   -7.8138   83.7252 H   0  0  0  0  0
  -15.8340  -14.5651   82.5314 H   0  0  0  0  0
  -16.0917  -14.4783   80.7715 H   0  0  0  0  0
  -14.4817  -14.8815   81.4169 H   0  0  0  0  0
  -13.6657  -11.3989   81.1750 H   0  0  0  0  0
  -12.7305  -13.8784   82.6538 H   0  0  0  0  0
  -12.7893  -12.4320   84.4958 H   0  0  0  0  0
  -10.9896  -12.6110   81.4355 H   0  0  0  0  0
  -10.7787  -12.6930   84.4789 H   0  0  0  0  0
  -10.4420  -14.0402   83.3640 H   0  0  0  0  0
   -9.3991  -12.5968   83.3570 H   0  0  0  0  0
  -11.6627  -10.4531   83.4625 H   0  0  0  0  0
  -11.7438  -10.3353   81.6812 H   0  0  0  0  0
   -9.5337  -10.3425   81.4214 H   0  0  0  0  0
   -9.2806  -11.0515   83.1740 H   0  0  0  0  0
   -9.5615   -9.0390   84.0222 H   0  0  0  0  0
   -9.8166   -8.3342   82.2835 H   0  0  0  0  0
   -7.2880   -9.3445   83.5036 H   0  0  0  0  0
   -7.5278   -8.6816   81.8683 H   0  0  0  0  0
   -7.7514   -7.6380   83.2937 H   0  0  0  0  0
  -13.2294  -11.4387   79.0577 H   0  0  0  0  0
  -11.7648  -13.8642   78.1095 H   0  0  0  0  0
  -13.9052  -14.1849   77.1628 H   0  0  0  0  0
  -12.8716  -13.4804   75.8509 H   0  0  0  0  0
  -14.8782  -11.9837   77.5564 H   0  0  0  0  0
  -13.8629  -11.2915   76.2676 H   0  0  0  0  0
  -15.1149  -12.4925   75.8664 H   0  0  0  0  0
   -9.7721  -10.8209   75.7303 H   0  0  0  0  0
   -8.4863  -12.3027   75.6961 H   0  0  0  0  0
   -9.8341  -14.1385   78.0269 H   0  0  0  0  0
  -10.5432  -14.4637   76.4261 H   0  0  0  0  0
   -8.8149  -14.0591   76.5689 H   0  0  0  0  0
   -9.9878  -10.8980   78.8844 H   0  0  0  0  0
   -8.8306  -12.2417   79.0468 H   0  0  0  0  0
   -8.7268  -10.8401   80.1404 H   0  0  0  0  0
   -7.4150   -9.8415   79.8850 H   0  0  0  0  0
   -4.9481   -9.4112   79.2497 H   0  0  0  0  0
   -5.3574  -10.1513   77.6501 H   0  0  0  0  0
   -5.9199  -12.2119   78.6873 H   0  0  0  0  0
   -3.5485  -11.8931   78.1967 H   0  0  0  0  0
   -3.2899  -11.1743   79.8052 H   0  0  0  0  0
   -3.7423  -12.8904   79.6592 H   0  0  0  0  0
   -5.3858  -10.9119   81.3710 H   0  0  0  0  0
   -6.9624  -11.4412   80.7344 H   0  0  0  0  0
   -5.7013  -12.6436   81.1014 H   0  0  0  0  0
   -8.7720   -8.1273   77.5739 H   0  0  0  0  0
   -7.7703   -5.7131   79.0585 H   0  0  0  0  0
   -8.4552   -4.3194   77.0934 H   0  0  0  0  0
   -6.1070   -4.7692   77.5788 H   0  0  0  0  0
   -6.1889   -6.2898   76.6557 H   0  0  0  0  0
   -6.3805   -4.7292   75.8197 H   0  0  0  0  0
   -8.4509   -6.9966   75.6478 H   0  0  0  0  0
   -9.8602   -5.9407   75.9122 H   0  0  0  0  0
   -8.5262   -5.3994   74.8641 H   0  0  0  0  0
   -8.4722   -4.1585   80.3310 H   0  0  0  0  0
   -8.9381   -3.2872   78.8495 H   0  0  0  0  0
   -9.8309   -3.0080   80.3648 H   0  0  0  0  0
  -12.0611   -5.6216   79.5855 H   0  0  0  0  0
  -12.7030   -4.4626   81.7696 H   0  0  0  0  0
  -11.0500   -3.8120   81.8178 H   0  0  0  0  0
  -10.2741   -6.2766   81.5235 H   0  0  0  0  0
   -9.9946   -4.9922   83.5744 H   0  0  0  0  0
  -11.6546   -5.4031   84.0712 H   0  0  0  0  0
  -10.4269   -6.6844   83.9221 H   0  0  0  0  0
  -13.1524   -6.7398   82.3399 H   0  0  0  0  0
  -12.4190   -7.1579   80.7719 H   0  0  0  0  0
  -11.8683   -7.9708   82.2575 H   0  0  0  0  0
  -10.9718   -3.1515   77.9867 H   0  0  0  0  0
  -13.5712   -1.7394   77.9137 H   0  0  0  0  0
  -11.6084   -0.7174   76.9694 H   0  0  0  0  0
  -11.4729   -2.0570   75.8040 H   0  0  0  0  0
  -12.8958   -0.9869   75.7690 H   0  0  0  0  0
  1  2  1  0  0  0
  1 83  1  0  0  0
  2  3  1  0  0  0
  2  4  1  0  0  0
  4  5  2  0  0  0
  4  6  1  0  0  0
  6  7  1  0  0  0
  6  8  1  0  0  0
  8  9  1  0  0  0
  8 13  1  0  0  0
  9 10  1  0  0  0
 10 11  1  0  0  0
 10 12  1  0  0  0
 13 14  2  0  0  0
 13 15  1  0  0  0
 15 16  1  0  0  0
 15 17  1  0  0  0
 17 18  1  0  0  0
 17 22  1  0  0  0
 18 19  1  0  0  0
 19 20  1  0  0  0
 19 21  1  0  0  0
 22 23  2  0  0  0
 22 24  1  0  0  0
 24 25  1  0  0  0
 24 26  1  0  0  0
 26 27  1  0  0  0
 26 30  1  0  0  0
 27 28  1  0  0  0
 27 29  1  0  0  0
 30 31  2  0  0  0
 30 32  1  0  0  0
 32 33  1  0  0  0
 32 34  1  0  0  0
 34 35  1  0  0  0
 34 37  1  0  0  0
 35 36  2  0  0  0
 35 45  1  0  0  0
 37 38  1  0  0  0
 37 39  1  0  0  0
 39 40  1  0  0  0
 39 41  1  0  0  0
 41 42  1  0  0  0
 42 43  1  0  0  0
 43 44  1  0  0  0
 45 46  1  0  0  0
 47 46  1  0  0  0
 46 49  1  0  0  0
 47 48  2  0  0  0
 51 47  1  0  0  0
 49 50  1  0  0  0
 52 51  1  0  0  0
 51 55  1  0  0  0
 53 52  1  0  0  0
 53 54  2  0  0  0
 56 53  1  0  0  0
 56 57  1  0  0  0
 58 56  1  0  0  0
 58 59  1  0  0  0
 63 58  1  0  0  0
 59 60  1  0  0  0
 60 61  1  0  0  0
 60 62  1  0  0  0
 63 64  2  0  0  0
 65 63  1  0  0  0
 66 65  1  0  0  0
 67 66  1  0  0  0
 66 69  1  0  0  0
 67 68  2  0  0  0
 72 67  1  0  0  0
 69 70  1  0  0  0
 69 71  1  0  0  0
 72 73  1  0  0  0
 74 72  1  0  0  0
 74 75  1  0  0  0
 79 74  1  0  0  0
 75 76  1  0  0  0
 76 77  1  0  0  0
 76 78  1  0  0  0
 79 80  2  0  0  0
 81 79  1  0  0  0
 82 81  1  0  0  0
 83 82  1  0  0  0
 82 85  1  0  0  0
 83 84  2  0  0  0
  1 86  1  0  0  0
  2 87  1  0  0  0
  3 88  1  0  0  0
  3 89  1  0  0  0
  3 90  1  0  0  0
  7 91  1  0  0  0
  7 92  1  0  0  0
  7 93  1  0  0  0
  8 94  1  0  0  0
  9 95  1  0  0  0
  9 96  1  0  0  0
 10 97  1  0  0  0
 11 98  1  0  0  0
 11 99  1  0  0  0
 11100  1  0  0  0
 12101  1  0  0  0
 12102  1  0  0  0
 12103  1  0  0  0
 16104  1  0  0  0
 16105  1  0  0  0
 16106  1  0  0  0
 17107  1  0  0  0
 18108  1  0  0  0
 18109  1  0  0  0
 19110  1  0  0  0
 20111  1  0  0  0
 20112  1  0  0  0
 20113  1  0  0  0
 21114  1  0  0  0
 21115  1  0  0  0
 21116  1  0  0  0
 25117  1  0  0  0
 25118  1  0  0  0
 25119  1  0  0  0
 26120  1  0  0  0
 27121  1  0  0  0
 28122  1  0  0  0
 28123  1  0  0  0
 28124  1  0  0  0
 29125  1  0  0  0
 29126  1  0  0  0
 29127  1  0  0  0
 33128  1  0  0  0
 33129  1  0  0  0
 33130  1  0  0  0
 34131  1  0  0  0
 37132  1  0  0  0
 38133  1  0  0  0
 39134  1  0  0  0
 40135  1  0  0  0
 40136  1  0  0  0
 40137  1  0  0  0
 41138  1  0  0  0
 41139  1  0  0  0
 42140  1  0  0  0
 42141  1  0  0  0
 43142  1  0  0  0
 43143  1  0  0  0
 44144  1  0  0  0
 44145  1  0  0  0
 44146  1  0  0  0
 45147  1  0  0  0
 46148  1  0  0  0
 49149  1  0  0  0
 49150  1  0  0  0
 50151  1  0  0  0
 50152  1  0  0  0
 50153  1  0  0  0
 52154  1  0  0  0
 52155  1  0  0  0
 55156  1  0  0  0
 55157  1  0  0  0
 55158  1  0  0  0
 57159  1  0  0  0
 57160  1  0  0  0
 57161  1  0  0  0
 58162  1  0  0  0
 59163  1  0  0  0
 59164  1  0  0  0
 60165  1  0  0  0
 61166  1  0  0  0
 61167  1  0  0  0
 61168  1  0  0  0
 62169  1  0  0  0
 62170  1  0  0  0
 62171  1  0  0  0
 65172  1  0  0  0
 66173  1  0  0  0
 69174  1  0  0  0
 70175  1  0  0  0
 70176  1  0  0  0
 70177  1  0  0  0
 71178  1  0  0  0
 71179  1  0  0  0
 71180  1  0  0  0
 73181  1  0  0  0
 73182  1  0  0  0
 73183  1  0  0  0
 74184  1  0  0  0
 75185  1  0  0  0
 75186  1  0  0  0
 76187  1  0  0  0
 77188  1  0  0  0
 77189  1  0  0  0
 77190  1  0  0  0
 78191  1  0  0  0
 78192  1  0  0  0
 78193  1  0  0  0
 81194  1  0  0  0
 82195  1  0  0  0
 85196  1  0  0  0
 85197  1  0  0  0
 85198  1  0  0  0
M  END
$$$$
