3uvp_ligand
  -I-interpret- 

 50 53  0  0  0  0  0  0  0  0999 V2000
  -18.1660   -1.3740  -26.6470 O   0  0  0  0  0
  -18.1280    4.2010  -19.3870 O   0  0  0  0  0
  -22.6550    4.7150  -19.4720 F   0  0  0  0  0
  -17.7760    7.4170  -15.5520 C   0  0  0  0  0
  -17.5450    7.7140  -16.8950 C   0  0  0  0  0
  -18.3800    6.2180  -15.1680 C   0  0  0  0  0
  -17.9330    6.8050  -17.8810 C   0  0  0  0  0
  -18.7610    5.3060  -16.1480 C   0  0  0  0  0
  -22.7000    2.6540  -20.6720 C   0  0  0  0  0
  -22.0550    1.4590  -21.0010 C   0  0  0  0  0
  -20.0570    0.1460  -23.2250 C   0  0  0  0  0
  -19.6480   -0.4320  -24.4290 C   0  0  0  0  0
  -19.0920   -1.6830  -21.9910 C   0  0  0  0  0
  -20.1530    2.0910  -19.6640 C   0  0  0  0  0
  -17.6670   -4.4700  -25.2430 C   0  0  0  0  0
  -18.2730   -4.7360  -23.8570 C   0  0  0  0  0
  -18.6220   -3.6510  -26.1270 C   0  0  0  0  0
  -17.8980   -3.5860  -22.9210 C   0  0  0  0  0
  -20.2280    4.1880  -18.5060 N   0  0  0  0  0
  -20.1240    0.0100  -20.7990 N   0  0  0  0  0
  -18.5580   -2.1640  -25.7830 C   0  0  0  0  0
  -18.9550    4.5920  -18.5670 C   0  0  0  0  0
  -22.0610    3.5620  -19.8280 C   0  0  0  0  0
  -19.7810   -0.4810  -21.9970 C   0  0  0  0  0
  -20.7660    1.1700  -20.5190 C   0  0  0  0  0
  -18.5460    5.6030  -17.5000 C   0  0  0  0  0
  -18.6750   -2.2650  -23.1850 C   0  0  0  0  0
  -20.7930    3.2930  -19.3310 C   0  0  0  0  0
  -18.9510   -1.6410  -24.4000 C   0  0  0  0  0
  -17.4793    8.1348  -14.7873 H   0  0  0  0  0
  -17.0637    8.6515  -17.1735 H   0  0  0  0  0
  -18.5510    5.9990  -14.1140 H   0  0  0  0  0
  -17.7614    7.0271  -18.9343 H   0  0  0  0  0
  -19.2260    4.3620  -15.8638 H   0  0  0  0  0
  -23.6906    2.8739  -21.0701 H   0  0  0  0  0
  -22.5603    0.7375  -21.6431 H   0  0  0  0  0
  -20.5960    1.0933  -23.2375 H   0  0  0  0  0
  -19.8702    0.0546  -25.3787 H   0  0  0  0  0
  -18.8747   -2.1769  -21.0439 H   0  0  0  0  0
  -19.1677    1.8722  -19.2523 H   0  0  0  0  0
  -17.4824   -5.4280  -25.7290 H   0  0  0  0  0
  -16.7446   -3.9038  -25.1139 H   0  0  0  0  0
  -17.8855   -5.6744  -23.4602 H   0  0  0  0  0
  -19.3578   -4.8060  -23.9373 H   0  0  0  0  0
  -19.6396   -4.0030  -25.9577 H   0  0  0  0  0
  -18.3271   -3.7794  -27.1685 H   0  0  0  0  0
  -16.8411   -3.3736  -23.0820 H   0  0  0  0  0
  -18.1431   -3.9047  -21.9079 H   0  0  0  0  0
  -20.8152    4.5912  -17.7759 H   0  0  0  0  0
  -19.8693   -0.5627  -19.9943 H   0  0  0  0  0
 21  1  2  0  0  0
 22  2  2  0  0  0
 23  3  1  0  0  0
  5  4  4  0  0  0
  6  4  4  0  0  0
  7  5  4  0  0  0
  8  6  4  0  0  0
 26  7  4  0  0  0
 26  8  4  0  0  0
 10  9  4  0  0  0
  9 23  4  0  0  0
 25 10  4  0  0  0
 11 12  4  0  0  0
 24 11  4  0  0  0
 12 29  4  0  0  0
 24 13  4  0  0  0
 13 27  4  0  0  0
 14 25  4  0  0  0
 28 14  4  0  0  0
 16 15  1  0  0  0
 15 17  1  0  0  0
 18 16  1  0  0  0
 21 17  1  0  0  0
 27 18  1  0  0  0
 22 19  1  0  0  0
 19 28  1  0  0  0
 20 24  1  0  0  0
 25 20  1  0  0  0
 29 21  1  0  0  0
 22 26  1  0  0  0
 23 28  4  0  0  0
 27 29  4  0  0  0
  4 30  1  0  0  0
  5 31  1  0  0  0
  6 32  1  0  0  0
  7 33  1  0  0  0
  8 34  1  0  0  0
  9 35  1  0  0  0
 10 36  1  0  0  0
 11 37  1  0  0  0
 12 38  1  0  0  0
 13 39  1  0  0  0
 14 40  1  0  0  0
 15 41  1  0  0  0
 15 42  1  0  0  0
 16 43  1  0  0  0
 16 44  1  0  0  0
 17 45  1  0  0  0
 17 46  1  0  0  0
 18 47  1  0  0  0
 18 48  1  0  0  0
 19 49  1  0  0  0
 20 50  1  0  0  0
M  END
$$$$
