5m5d_ligand
  -I-interpret- 

 41 42  0  0  0  0  0  0  0  0999 V2000
    3.3270   21.7180    6.5900 C   0  0  0  0  0
    2.3720   21.5470    7.7680 C   0  0  0  0  0
    2.8650   22.3290    8.9850 C   0  0  0  0  0
    4.3110   21.9640    9.3230 C   0  0  0  0  0
    5.1620   22.1780    8.0670 C   0  0  0  0  0
    6.5820   21.7230    8.3060 C   0  0  0  0  0
    2.2950   20.1580    8.0920 O   0  0  0  0  0
    2.0010   22.0660   10.0930 O   0  0  0  0  0
    4.7790   22.7980   10.3840 O   0  0  0  0  0
    4.6540   21.4120    6.9640 O   0  0  0  0  0
    7.4920   22.1610    7.3080 O   0  0  0  0  0
    5.5290   24.2130    3.6700 C   0  0  0  0  0
    3.3380   24.7100    2.7560 C   0  0  0  0  0
    2.7810   24.3990    4.1260 C   0  0  0  0  0
    2.7110   25.8940    2.0310 C   0  0  0  0  0
    3.5150   23.2000    4.7050 C   0  0  0  0  0
    2.9020   27.0960    2.7880 O   0  0  0  0  0
    4.7400   25.0450    2.8610 O   0  0  0  0  0
    1.3950   24.0490    4.0080 O   0  0  0  0  0
    3.1670   23.0460    6.1060 O   0  0  0  0  0
    5.0010   23.3600    4.5290 C   0  0  0  0  0
    3.0945   21.0197    5.7860 H   0  0  0  0  0
    1.3895   21.9300    7.4920 H   0  0  0  0  0
    2.8438   23.3947    8.7571 H   0  0  0  0  0
    4.3785   20.9248    9.6448 H   0  0  0  0  0
    5.1280   23.2431    7.8377 H   0  0  0  0  0
    6.5832   20.6331    8.2952 H   0  0  0  0  0
    6.9071   22.1483    9.2555 H   0  0  0  0  0
    1.9852   19.6687    7.3264 H   0  0  0  0  0
    1.1006   22.3022    9.8583 H   0  0  0  0  0
    4.2384   22.6548   11.1643 H   0  0  0  0  0
    8.3726   21.8406    7.5166 H   0  0  0  0  0
    6.6142   24.2728    3.5866 H   0  0  0  0  0
    3.1239   23.8043    2.1885 H   0  0  0  0  0
    2.9023   25.2717    4.7677 H   0  0  0  0  0
    1.6427   25.7138    1.9113 H   0  0  0  0  0
    3.1854   26.0072    1.0562 H   0  0  0  0  0
    3.2124   22.2990    4.1713 H   0  0  0  0  0
    2.5029   27.8337    2.3210 H   0  0  0  0  0
    1.0408   23.8514    4.8781 H   0  0  0  0  0
    5.6684   22.7472    5.1349 H   0  0  0  0  0
  1  2  1  0  0  0
  1 10  1  0  0  0
 20  1  1  0  0  0
  2  3  1  0  0  0
  2  7  1  0  0  0
  3  4  1  0  0  0
  3  8  1  0  0  0
  5  4  1  0  0  0
  4  9  1  0  0  0
  5  6  1  0  0  0
 10  5  1  0  0  0
  6 11  1  0  0  0
 18 12  1  0  0  0
 12 21  2  0  0  0
 14 13  1  0  0  0
 13 15  1  0  0  0
 13 18  1  0  0  0
 16 14  1  0  0  0
 14 19  1  0  0  0
 15 17  1  0  0  0
 16 20  1  0  0  0
 16 21  1  0  0  0
  1 22  1  0  0  0
  2 23  1  0  0  0
  3 24  1  0  0  0
  4 25  1  0  0  0
  5 26  1  0  0  0
  6 27  1  0  0  0
  6 28  1  0  0  0
  7 29  1  0  0  0
  8 30  1  0  0  0
  9 31  1  0  0  0
 11 32  1  0  0  0
 12 33  1  0  0  0
 13 34  1  0  0  0
 14 35  1  0  0  0
 15 36  1  0  0  0
 15 37  1  0  0  0
 16 38  1  0  0  0
 17 39  1  0  0  0
 19 40  1  0  0  0
 21 41  1  0  0  0
M  END
$$$$
