6qcj_ligand
  -I-interpret- 

 50 53  0  0  0  0  0  0  0  0999 V2000
  -21.8910   27.1130   16.1370 O   0  0  0  0  0
  -28.2050   28.7200   16.6740 O   0  0  0  0  0
  -25.9870   20.8880   20.1820 O   0  0  0  0  0
  -23.5720   20.7910   19.2270 O   0  0  0  0  0
  -17.4130   28.2700   14.4120 O   0  0  0  0  0
  -17.6760   30.8320   18.2670 O   0  0  0  0  0
  -26.2020   28.7460   21.0060 O   0  0  0  0  0
  -16.3990   30.0160   16.1040 O   0  0  0  0  0
  -26.0120   23.3490   19.9120 C   0  0  0  0  0
  -25.3470   24.5060   19.4580 C   0  0  0  0  0
  -27.2390   28.7680   18.8650 C   0  0  0  0  0
  -19.4460   28.0830   15.7710 C   0  0  0  0  0
  -19.6200   29.3720   17.8010 C   0  0  0  0  0
  -26.1760   27.6270   17.0220 C   0  0  0  0  0
  -23.4820   23.1830   18.8360 C   0  0  0  0  0
  -23.9330   27.1960   20.0090 C   0  0  0  0  0
  -22.1780   27.8980   18.2580 O   0  0  0  0  0
  -24.1460   26.4540   17.3170 O   0  0  0  0  0
  -21.4950   27.7500   17.0670 C   0  0  0  0  0
  -27.2150   28.3760   17.5330 C   0  0  0  0  0
  -25.4170   22.0940   19.8200 C   0  0  0  0  0
  -24.1670   22.0340   19.2280 C   0  0  0  0  0
  -18.1850   28.5980   15.5070 C   0  0  0  0  0
  -18.3500   29.9100   17.5130 C   0  0  0  0  0
  -26.1970   28.3660   19.6980 C   0  0  0  0  0
  -20.1760   28.4560   16.9110 C   0  0  0  0  0
  -24.0570   24.4640   18.9100 C   0  0  0  0  0
  -17.6400   29.5260   16.3770 C   0  0  0  0  0
  -25.1460   27.2440   17.8610 C   0  0  0  0  0
  -25.1410   27.5880   19.2020 C   0  0  0  0  0
  -22.7650   26.7780   19.1100 C   0  0  0  0  0
  -23.3110   25.6600   18.2720 C   0  0  0  0  0
  -28.0129   28.3596   15.8052 H   0  0  0  0  0
  -25.3627   20.1778   20.0165 H   0  0  0  0  0
  -24.2045   20.1344   19.5277 H   0  0  0  0  0
  -16.5846   28.7537   14.4495 H   0  0  0  0  0
  -16.8341   31.0304   17.8506 H   0  0  0  0  0
  -25.4240   28.3928   21.4437 H   0  0  0  0  0
  -16.1477   30.6449   16.7844 H   0  0  0  0  0
  -27.0094   23.4386   20.3425 H   0  0  0  0  0
  -25.8538   25.4679   19.5357 H   0  0  0  0  0
  -28.0561   29.3776   19.2508 H   0  0  0  0  0
  -19.8825   27.3683   15.0734 H   0  0  0  0  0
  -20.1569   29.6668   18.7026 H   0  0  0  0  0
  -26.1669   27.3406   15.9703 H   0  0  0  0  0
  -22.4641   23.0849   18.4586 H   0  0  0  0  0
  -24.2011   26.3493   20.6409 H   0  0  0  0  0
  -23.6208   28.0561   20.6013 H   0  0  0  0  0
  -21.9131   26.4768   19.7197 H   0  0  0  0  0
  -22.4975   25.0550   17.8715 H   0  0  0  0  0
 19  1  2  0  0  0
 20  2  1  0  0  0
 21  3  1  0  0  0
 22  4  1  0  0  0
 23  5  1  0  0  0
 24  6  1  0  0  0
 25  7  1  0  0  0
 28  8  1  0  0  0
 10  9  4  0  0  0
  9 21  4  0  0  0
 27 10  4  0  0  0
 20 11  4  0  0  0
 11 25  4  0  0  0
 12 23  4  0  0  0
 26 12  4  0  0  0
 13 24  4  0  0  0
 26 13  4  0  0  0
 14 20  4  0  0  0
 29 14  4  0  0  0
 15 22  4  0  0  0
 27 15  4  0  0  0
 30 16  1  0  0  0
 16 31  1  0  0  0
 17 19  1  0  0  0
 31 17  1  0  0  0
 18 29  1  0  0  0
 32 18  1  0  0  0
 19 26  1  0  0  0
 22 21  4  0  0  0
 23 28  4  0  0  0
 24 28  4  0  0  0
 25 30  4  0  0  0
 27 32  1  0  0  0
 29 30  4  0  0  0
 31 32  1  0  0  0
  2 33  1  0  0  0
  3 34  1  0  0  0
  4 35  1  0  0  0
  5 36  1  0  0  0
  6 37  1  0  0  0
  7 38  1  0  0  0
  8 39  1  0  0  0
  9 40  1  0  0  0
 10 41  1  0  0  0
 11 42  1  0  0  0
 12 43  1  0  0  0
 13 44  1  0  0  0
 14 45  1  0  0  0
 15 46  1  0  0  0
 16 47  1  0  0  0
 16 48  1  0  0  0
 31 49  1  0  0  0
 32 50  1  0  0  0
M  END
$$$$
