1g1d_ligand
  -I-interpret- 

 34 35  0  0  0  0  0  0  0  0999 V2000
   -3.7770    3.4750   14.6520 C   0  0  0  0  0
   -4.1640    2.3370   15.3930 C   0  0  0  0  0
   -5.5100    2.3030   15.9000 C   0  0  0  0  0
   -6.3580    3.3960   15.6260 C   0  0  0  0  0
   -5.9290    4.4990   14.8870 C   0  0  0  0  0
   -4.6510    4.5480   14.4000 C   0  0  0  0  0
   -4.1740    5.7490   13.6070 C   0  0  0  0  0
   -4.9430    6.6650   13.4080 O   0  0  0  0  0
   -2.8750    5.8030   13.1240 N   0  0  0  0  0
   -2.2400    6.8750   12.3690 C   0  0  0  0  0
   -6.0010    0.8300   16.8530 S   0  0  0  0  0
   -5.5180   -0.5040   16.1790 N   0  0  0  0  0
   -7.4810    1.0890   16.8920 O   0  0  0  0  0
   -5.4670    1.1300   18.1860 O   0  0  0  0  0
   -1.6360    7.9150   13.1600 C   0  0  0  0  0
   -1.9500    7.9620   14.5610 C   0  0  0  0  0
   -1.4150    8.9460   15.4290 C   0  0  0  0  0
   -0.5420    9.9090   14.8880 C   0  0  0  0  0
   -0.1920    9.9030   13.4860 C   0  0  0  0  0
   -0.7490    8.8880   12.6030 C   0  0  0  0  0
   -0.4360    8.8680   11.3000 F   0  0  0  0  0
   -2.7611    3.5239   14.2599 H   0  0  0  0  0
   -3.4700    1.5162   15.5739 H   0  0  0  0  0
   -7.3805    3.3786   16.0033 H   0  0  0  0  0
   -6.6144    5.3249   14.6968 H   0  0  0  0  0
   -2.2912    4.9904   13.3222 H   0  0  0  0  0
   -3.0260    7.3487   11.7808 H   0  0  0  0  0
   -1.4363    6.4159   11.7934 H   0  0  0  0  0
   -4.8633   -1.1145   16.6679 H   0  0  0  0  0
   -5.8591   -0.7598   15.2524 H   0  0  0  0  0
   -2.6257    7.2120   14.9721 H   0  0  0  0  0
   -1.6727    8.9571   16.4881 H   0  0  0  0  0
   -0.1216   10.6747   15.5400 H   0  0  0  0  0
    0.4880   10.6572   13.0900 H   0  0  0  0  0
  1  6  4  0  0  0
  1  2  4  0  0  0
  2  3  4  0  0  0
  3 11  1  0  0  0
  3  4  4  0  0  0
  4  5  4  0  0  0
  5  6  4  0  0  0
  6  7  1  0  0  0
  7  9  1  0  0  0
  7  8  2  0  0  0
  9 10  1  0  0  0
 10 15  1  0  0  0
 15 20  4  0  0  0
 15 16  4  0  0  0
 16 17  4  0  0  0
 17 18  4  0  0  0
 18 19  4  0  0  0
 19 20  4  0  0  0
 11 14  2  0  0  0
 11 13  2  0  0  0
 11 12  1  0  0  0
 20 21  1  0  0  0
  1 22  1  0  0  0
  2 23  1  0  0  0
  4 24  1  0  0  0
  5 25  1  0  0  0
  9 26  1  0  0  0
 10 27  1  0  0  0
 10 28  1  0  0  0
 12 29  1  0  0  0
 12 30  1  0  0  0
 16 31  1  0  0  0
 17 32  1  0  0  0
 18 33  1  0  0  0
 19 34  1  0  0  0
M  END
$$$$
