5o9p_ligand
  -I-interpret- 

 87 91  0  0  0  0  0  0  0  0999 V2000
    9.0930   17.0800  -17.2120 C   0  0  0  0  0
    9.5810   15.6290  -17.2240 C   0  0  0  0  0
    8.8110   14.8170  -16.1900 C   0  0  0  0  0
   20.3450    7.5220  -16.6670 N   0  0  0  0  0
    9.8500   17.8530  -18.2880 C   0  0  0  0  0
   22.4930    6.6400  -16.7940 C   0  0  0  0  0
   22.5230    6.6150  -15.4170 C   0  0  0  0  0
   21.4650    7.0620  -14.6290 C   0  0  0  0  0
   20.3400    7.5530  -15.2570 C   0  0  0  0  0
   21.3660    7.1130  -17.4400 C   0  0  0  0  0
   21.3540    7.1390  -18.8510 C   0  0  0  0  0
   20.1210    7.6980  -19.3760 O   0  0  0  0  0
   19.9520    7.5400  -20.8120 C   0  0  0  0  0
   18.7630    8.3650  -21.3370 C   0  0  0  0  0
   17.5400    7.9360  -21.6110 C   0  0  0  0  0
   18.8150    9.6490  -21.5790 N   0  0  0  0  0
   17.7160   10.0060  -21.9540 N   0  0  0  0  0
   16.8750    9.0140  -21.9910 N   0  0  0  0  0
   15.5020    9.2270  -22.4940 C   0  0  0  0  0
   14.9060   10.5800  -22.1320 C   0  0  0  0  0
   14.5300   10.5740  -20.7450 O   0  0  0  0  0
   15.7950    9.2180  -23.8760 O   0  0  0  0  0
   14.6610    9.3490  -24.7140 C   0  0  0  0  0
   15.1630    9.1550  -26.1720 C   0  0  0  0  0
   15.8960   10.3350  -26.5690 O   0  0  0  0  0
   13.9530   10.6840  -24.4870 C   0  0  0  0  0
   12.7160   10.6910  -25.2590 O   0  0  0  0  0
   13.6470   10.8660  -22.9860 C   0  0  0  0  0
   13.1860   12.1990  -22.6630 O   0  0  0  0  0
   11.9210   12.2140  -21.9640 C   0  0  0  0  0
   11.5680   13.6650  -21.6050 C   0  0  0  0  0
   12.5520   14.2270  -20.6800 O   0  0  0  0  0
   10.8930   11.6390  -22.7830 O   0  0  0  0  0
    9.6860   11.5640  -21.9770 C   0  0  0  0  0
    8.6280   10.7810  -22.7370 C   0  0  0  0  0
    8.3820   11.4940  -23.9510 O   0  0  0  0  0
    9.1780   12.9640  -21.7480 C   0  0  0  0  0
    7.9340   12.9070  -21.0280 O   0  0  0  0  0
   10.1930   13.7380  -20.9350 C   0  0  0  0  0
    9.8250   15.1100  -20.8350 O   0  0  0  0  0
   10.1080   15.7200  -19.5590 C   0  0  0  0  0
    9.3660   15.0290  -18.5250 O   0  0  0  0  0
    7.4430   14.7330  -16.5660 O   0  0  0  0  0
    9.3630   17.6870  -15.9350 O   0  0  0  0  0
    9.3260   19.1790  -18.3920 O   0  0  0  0  0
    9.6870   17.1820  -19.6230 C   0  0  0  0  0
   10.4720   17.9150  -20.5860 O   0  0  0  0  0
    8.0193   17.1009  -17.3985 H   0  0  0  0  0
   10.6461   15.6282  -16.9923 H   0  0  0  0  0
    8.8885   15.3044  -15.2182 H   0  0  0  0  0
    9.2318   13.8131  -16.1337 H   0  0  0  0  0
   10.9037   17.8806  -18.0104 H   0  0  0  0  0
   23.3502    6.2900  -17.3691 H   0  0  0  0  0
   23.4140    6.2284  -14.9223 H   0  0  0  0  0
   21.5250    7.0245  -13.5413 H   0  0  0  0  0
   19.4925    7.9440  -14.6941 H   0  0  0  0  0
   21.4432    6.1140  -19.2109 H   0  0  0  0  0
   22.1811    7.7645  -19.1868 H   0  0  0  0  0
   19.7607    6.4878  -21.0225 H   0  0  0  0  0
   20.8586    7.8897  -21.3059 H   0  0  0  0  0
   17.1635    6.9157  -21.5389 H   0  0  0  0  0
   14.7786    8.5101  -22.1056 H   0  0  0  0  0
   15.6511   11.3522  -22.3235 H   0  0  0  0  0
   14.1536   11.4261  -20.5130 H   0  0  0  0  0
   13.9047    8.5975  -24.4875 H   0  0  0  0  0
   14.3145    9.0037  -26.8392 H   0  0  0  0  0
   15.8106    8.2800  -26.2278 H   0  0  0  0  0
   16.2114   10.2266  -27.4692 H   0  0  0  0  0
   14.5917   11.5061  -24.8100 H   0  0  0  0  0
   12.2611   11.5256  -25.1248 H   0  0  0  0  0
   12.8516   10.1562  -22.7587 H   0  0  0  0  0
   12.0000   11.6215  -21.0525 H   0  0  0  0  0
   11.5629   14.2349  -22.5341 H   0  0  0  0  0
   12.3116   15.1324  -20.4701 H   0  0  0  0  0
    9.8994   11.0740  -21.0270 H   0  0  0  0  0
    7.7151   10.6897  -22.1485 H   0  0  0  0  0
    8.9698    9.7670  -22.9447 H   0  0  0  0  0
    7.7158   11.0304  -24.4637 H   0  0  0  0  0
    9.0232   13.4590  -22.7067 H   0  0  0  0  0
    7.6093   13.7984  -20.8814 H   0  0  0  0  0
   10.2273   13.2934  -19.9404 H   0  0  0  0  0
   11.1716   15.6552  -19.3294 H   0  0  0  0  0
    6.9632   14.2206  -15.9112 H   0  0  0  0  0
    8.8917   17.2090  -15.2487 H   0  0  0  0  0
    9.4205   19.6263  -17.5479 H   0  0  0  0  0
    8.6381   17.1882  -19.9195 H   0  0  0  0  0
   10.1831   18.8304  -20.6024 H   0  0  0  0  0
  2  1  1  0  0  0
  1  5  1  0  0  0
  1 44  1  0  0  0
  2  3  1  0  0  0
 42  2  1  0  0  0
  3 43  1  0  0  0
  4  9  4  0  0  0
 10  4  4  0  0  0
  5 45  1  0  0  0
  5 46  1  0  0  0
  6  7  4  0  0  0
 10  6  4  0  0  0
  7  8  4  0  0  0
  9  8  4  0  0  0
 11 10  1  0  0  0
 12 11  1  0  0  0
 13 12  1  0  0  0
 14 13  1  0  0  0
 15 14  4  0  0  0
 16 14  4  0  0  0
 18 15  4  0  0  0
 17 16  4  0  0  0
 18 17  4  0  0  0
 19 18  1  0  0  0
 20 19  1  0  0  0
 19 22  1  0  0  0
 20 21  1  0  0  0
 28 20  1  0  0  0
 23 22  1  0  0  0
 23 24  1  0  0  0
 26 23  1  0  0  0
 24 25  1  0  0  0
 26 27  1  0  0  0
 28 26  1  0  0  0
 29 28  1  0  0  0
 30 29  1  0  0  0
 31 30  1  0  0  0
 30 33  1  0  0  0
 31 32  1  0  0  0
 39 31  1  0  0  0
 34 33  1  0  0  0
 34 35  1  0  0  0
 37 34  1  0  0  0
 35 36  1  0  0  0
 37 38  1  0  0  0
 39 37  1  0  0  0
 40 39  1  0  0  0
 41 40  1  0  0  0
 41 42  1  0  0  0
 41 46  1  0  0  0
 46 47  1  0  0  0
  1 48  1  0  0  0
  2 49  1  0  0  0
  3 50  1  0  0  0
  3 51  1  0  0  0
  5 52  1  0  0  0
  6 53  1  0  0  0
  7 54  1  0  0  0
  8 55  1  0  0  0
  9 56  1  0  0  0
 11 57  1  0  0  0
 11 58  1  0  0  0
 13 59  1  0  0  0
 13 60  1  0  0  0
 15 61  1  0  0  0
 19 62  1  0  0  0
 20 63  1  0  0  0
 21 64  1  0  0  0
 23 65  1  0  0  0
 24 66  1  0  0  0
 24 67  1  0  0  0
 25 68  1  0  0  0
 26 69  1  0  0  0
 27 70  1  0  0  0
 28 71  1  0  0  0
 30 72  1  0  0  0
 31 73  1  0  0  0
 32 74  1  0  0  0
 34 75  1  0  0  0
 35 76  1  0  0  0
 35 77  1  0  0  0
 36 78  1  0  0  0
 37 79  1  0  0  0
 38 80  1  0  0  0
 39 81  1  0  0  0
 41 82  1  0  0  0
 43 83  1  0  0  0
 44 84  1  0  0  0
 45 85  1  0  0  0
 46 86  1  0  0  0
 47 87  1  0  0  0
M  END
$$$$
