3d1z_ligand
  -I-interpret- 

 75 78  0  0  0  0  0  0  0  0999 V2000
   21.0700   28.9230   14.0670 N   0  0  0  0  0
   20.4720   27.7580   14.4560 C   0  0  0  0  0
   19.1680   27.4880   14.0360 C   0  0  0  0  0
   18.5120   26.3270   14.4150 C   0  0  0  0  0
   19.2350   25.4050   15.1640 C   0  0  0  0  0
   20.5200   25.6440   15.6750 C   0  0  0  0  0
   21.1700   26.8230   15.2410 C   0  0  0  0  0
   18.3040   23.9630   15.8030 S   0  0  0  0  0
   17.0730   23.7540   14.8900 O   0  0  0  0  0
   19.3240   22.7760   16.0170 O   0  0  0  0  0
   17.6830   24.3310   17.4470 N   0  0  0  0  0
   18.6770   24.6800   18.4900 C   0  0  0  0  0
   18.2560   24.0530   19.8520 C   0  0  0  0  0
   18.1120   22.5400   19.7320 C   0  0  0  0  0
   19.3780   24.3890   20.8290 C   0  0  0  0  0
   16.3850   25.0950   17.4320 C   0  0  0  0  0
   15.2450   24.1850   17.9850 C   0  0  0  0  0
   14.0920   24.9990   18.2010 O   0  0  0  0  0
   14.8600   23.0250   16.9990 C   0  0  0  0  0
   13.9850   22.1660   17.7370 N   0  0  0  0  0
   14.2760   20.8850   18.0330 C   0  0  0  0  0
   15.3380   20.2430   17.7540 O   0  0  0  0  0
   13.2080   20.3040   18.7250 O   0  0  0  0  0
   13.3140   18.8590   18.9830 C   0  0  0  0  0
   12.6640   18.5850   20.3540 C   0  0  0  0  0
   11.2440   18.7390   20.1230 O   0  0  0  0  0
   11.0500   18.2250   18.7830 C   0  0  0  0  0
   10.1480   19.1240   18.1140 O   0  0  0  0  0
   10.9100   19.6640   17.0010 C   0  0  0  0  0
   11.9870   18.6030   16.6670 C   0  0  0  0  0
   12.3210   18.1650   18.0720 C   0  0  0  0  0
   14.1120   23.4850   15.7020 C   0  0  0  0  0
   12.4140   21.9390   14.6750 C   0  0  0  0  0
   12.0790   20.8650   13.8270 C   0  0  0  0  0
   13.0950   20.1860   13.1440 C   0  0  0  0  0
   14.4250   20.5780   13.2280 C   0  0  0  0  0
   14.7790   21.6750   14.0430 C   0  0  0  0  0
   13.7530   22.3410   14.7560 C   0  0  0  0  0
   20.5643   29.5835   13.4767 H   0  0  0  0  0
   22.0222   29.1324   14.3669 H   0  0  0  0  0
   18.6546   28.2058   13.3962 H   0  0  0  0  0
   17.4738   26.1446   14.1377 H   0  0  0  0  0
   20.9945   24.9541   16.3729 H   0  0  0  0  0
   22.2091   27.0063   15.5143 H   0  0  0  0  0
   18.7260   25.7641   18.5924 H   0  0  0  0  0
   19.6536   24.2914   18.2012 H   0  0  0  0  0
   17.2933   24.4433   20.1823 H   0  0  0  0  0
   17.3508   22.3067   18.9875 H   0  0  0  0  0
   19.0652   22.1087   19.4263 H   0  0  0  0  0
   17.8174   22.1267   20.6966 H   0  0  0  0  0
   20.3129   23.9603   20.4680 H   0  0  0  0  0
   19.4790   25.4716   20.9059 H   0  0  0  0  0
   19.1411   23.9744   21.8088 H   0  0  0  0  0
   16.1497   25.3948   16.4108 H   0  0  0  0  0
   16.4775   25.9839   18.0560 H   0  0  0  0  0
   15.6019   23.7251   18.9065 H   0  0  0  0  0
   13.3776   24.4559   18.5421 H   0  0  0  0  0
   15.7805   22.5536   16.6548 H   0  0  0  0  0
   13.0931   22.5444   18.0559 H   0  0  0  0  0
   14.3530   18.5458   18.8809 H   0  0  0  0  0
   13.0282   19.2683   21.1212 H   0  0  0  0  0
   12.9100   17.5920   20.7301 H   0  0  0  0  0
   10.6421   17.2146   18.8127 H   0  0  0  0  0
   11.3646   20.6201   17.2606 H   0  0  0  0  0
   10.2688   19.8600   16.1416 H   0  0  0  0  0
   12.8319   18.9697   16.0841 H   0  0  0  0  0
   11.6591   17.8057   16.0000 H   0  0  0  0  0
   12.8422   17.2263   17.8843 H   0  0  0  0  0
   14.7815   24.1544   15.1618 H   0  0  0  0  0
   13.1782   23.9522   16.0148 H   0  0  0  0  0
   11.6454   22.4475   15.2571 H   0  0  0  0  0
   11.0382   20.5655   13.7038 H   0  0  0  0  0
   12.8349   19.3248   12.5285 H   0  0  0  0  0
   15.1909   20.0416   12.6678 H   0  0  0  0  0
   15.8161   22.0011   14.1214 H   0  0  0  0  0
  2  1  1  0  0  0
  3  2  4  0  0  0
  7  2  4  0  0  0
  4  3  4  0  0  0
  5  4  4  0  0  0
  5  6  4  0  0  0
  8  5  1  0  0  0
  6  7  4  0  0  0
  8  9  2  0  0  0
  8 10  2  0  0  0
 11  8  1  0  0  0
 11 12  1  0  0  0
 16 11  1  0  0  0
 12 13  1  0  0  0
 13 14  1  0  0  0
 13 15  1  0  0  0
 17 16  1  0  0  0
 17 18  1  0  0  0
 19 17  1  0  0  0
 19 20  1  0  0  0
 32 19  1  0  0  0
 20 21  1  0  0  0
 21 22  2  0  0  0
 21 23  1  0  0  0
 23 24  1  0  0  0
 24 25  1  0  0  0
 24 31  1  0  0  0
 25 26  1  0  0  0
 27 26  1  0  0  0
 27 28  1  0  0  0
 31 27  1  0  0  0
 29 28  1  0  0  0
 30 29  1  0  0  0
 31 30  1  0  0  0
 38 32  1  0  0  0
 33 34  4  0  0  0
 33 38  4  0  0  0
 34 35  4  0  0  0
 35 36  4  0  0  0
 36 37  4  0  0  0
 37 38  4  0  0  0
  1 39  1  0  0  0
  1 40  1  0  0  0
  3 41  1  0  0  0
  4 42  1  0  0  0
  6 43  1  0  0  0
  7 44  1  0  0  0
 12 45  1  0  0  0
 12 46  1  0  0  0
 13 47  1  0  0  0
 14 48  1  0  0  0
 14 49  1  0  0  0
 14 50  1  0  0  0
 15 51  1  0  0  0
 15 52  1  0  0  0
 15 53  1  0  0  0
 16 54  1  0  0  0
 16 55  1  0  0  0
 17 56  1  0  0  0
 18 57  1  0  0  0
 19 58  1  0  0  0
 20 59  1  0  0  0
 24 60  1  0  0  0
 25 61  1  0  0  0
 25 62  1  0  0  0
 27 63  1  0  0  0
 29 64  1  0  0  0
 29 65  1  0  0  0
 30 66  1  0  0  0
 30 67  1  0  0  0
 31 68  1  0  0  0
 32 69  1  0  0  0
 32 70  1  0  0  0
 33 71  1  0  0  0
 34 72  1  0  0  0
 35 73  1  0  0  0
 36 74  1  0  0  0
 37 75  1  0  0  0
M  END
$$$$
