4htx_ligand
  -I-interpret- 

 67 70  0  0  0  0  0  0  0  0999 V2000
  -13.0200   27.3340   22.1530 C   0  0  0  0  0
  -12.8850   28.2860   23.2160 O   0  0  0  0  0
  -12.8690   27.7290   24.4620 C   0  0  0  0  0
  -12.9750   26.3600   24.6930 C   0  0  0  0  0
  -12.7370   28.6160   25.5260 C   0  0  0  0  0
  -12.6350   29.9400   25.1970 O   0  0  0  0  0
  -12.5040   30.7650   26.3590 C   0  0  0  0  0
  -12.7080   28.1410   26.8380 C   0  0  0  0  0
  -12.8110   26.7670   27.0750 C   0  0  0  0  0
  -12.9580   25.8780   26.0010 C   0  0  0  0  0
  -13.0680   24.5100   26.2370 C   0  0  0  0  0
  -14.3840   24.0080   26.0690 C   0  0  0  0  0
  -15.2560   23.8620   27.1510 N   0  0  0  0  0
  -16.5300   23.3390   26.9790 C   0  0  0  0  0
  -17.2640   23.2430   27.9630 O   0  0  0  0  0
  -14.8270   23.6060   24.8750 N   0  0  0  0  0
  -16.0110   23.1260   24.7620 N   0  0  0  0  0
  -16.9060   22.9700   25.7460 C   0  0  0  0  0
  -18.0080   22.4420   25.1880 C   0  0  0  0  0
  -19.3310   22.0540   25.8770 C   0  0  0  0  0
  -17.8170   22.2620   23.8800 N   0  0  0  0  0
  -16.5930   22.7140   23.6340 C   0  0  0  0  0
  -15.9120   22.6760   22.2470 C   0  0  0  0  0
  -14.6030   21.8660   22.2630 C   0  0  0  0  0
  -14.8790   20.4440   22.7480 C   0  0  0  0  0
  -14.0770   21.8350   20.9370 O   0  0  0  0  0
  -15.7350   24.0450   21.5370 C   0  0  0  0  0
  -17.0970   24.6660   21.1290 C   0  0  0  0  0
  -16.8260   25.9720   20.3600 C   0  0  0  0  0
  -18.0110   26.5380   19.8620 C   0  0  0  0  0
  -18.2980   26.4170   18.5060 C   0  0  0  0  0
  -19.4580   26.9590   17.9560 C   0  0  0  0  0
  -20.3470   27.6340   18.7750 C   0  0  0  0  0
  -20.0670   27.7550   20.1320 C   0  0  0  0  0
  -18.9010   27.2150   20.6740 C   0  0  0  0  0
  -12.1830   26.6364   22.1833 H   0  0  0  0  0
  -13.9551   26.7870   22.2734 H   0  0  0  0  0
  -13.0241   27.8572   21.1968 H   0  0  0  0  0
  -13.0708   25.6689   23.8556 H   0  0  0  0  0
  -13.3792   30.6353   26.9957 H   0  0  0  0  0
  -11.6076   30.4771   26.9083 H   0  0  0  0  0
  -12.4258   31.8088   26.0550 H   0  0  0  0  0
  -12.6058   28.8359   27.6715 H   0  0  0  0  0
  -12.7770   26.3866   28.0959 H   0  0  0  0  0
  -12.7810   24.3334   27.2736 H   0  0  0  0  0
  -12.4298   24.0016   25.5142 H   0  0  0  0  0
  -14.9512   24.1444   28.0825 H   0  0  0  0  0
  -19.1348   21.2995   26.6388 H   0  0  0  0  0
  -19.7693   22.9368   26.3425 H   0  0  0  0  0
  -20.0213   21.6523   25.1352 H   0  0  0  0  0
  -16.6360   22.1503   21.6245 H   0  0  0  0  0
  -13.8838   22.3290   22.9386 H   0  0  0  0  0
  -15.2937   20.4792   23.7554 H   0  0  0  0  0
  -15.5916   19.9645   22.0769 H   0  0  0  0  0
  -13.9480   19.8773   22.7565 H   0  0  0  0  0
  -13.2590   21.3326   20.9301 H   0  0  0  0  0
  -15.1469   23.8874   20.6329 H   0  0  0  0  0
  -15.2420   24.7276   22.2292 H   0  0  0  0  0
  -17.6929   24.8737   22.0177 H   0  0  0  0  0
  -17.6498   23.9700   20.4981 H   0  0  0  0  0
  -16.1736   25.7447   19.5169 H   0  0  0  0  0
  -16.3669   26.6847   21.0452 H   0  0  0  0  0
  -17.5996   25.8861   17.8591 H   0  0  0  0  0
  -19.6635   26.8525   16.8909 H   0  0  0  0  0
  -21.2576   28.0664   18.3603 H   0  0  0  0  0
  -20.7687   28.2792   20.7809 H   0  0  0  0  0
  -18.6917   27.3269   21.7378 H   0  0  0  0  0
  1  2  1  0  0  0
  2  3  1  0  0  0
  3  4  4  0  0  0
  3  5  4  0  0  0
  4 10  4  0  0  0
  5  6  1  0  0  0
  5  8  4  0  0  0
  6  7  1  0  0  0
  8  9  4  0  0  0
  9 10  4  0  0  0
 10 11  1  0  0  0
 11 12  1  0  0  0
 12 13  1  0  0  0
 12 16  2  0  0  0
 13 14  1  0  0  0
 14 15  2  0  0  0
 14 18  1  0  0  0
 16 17  1  0  0  0
 17 18  4  0  0  0
 17 22  4  0  0  0
 18 19  4  0  0  0
 19 20  1  0  0  0
 19 21  4  0  0  0
 21 22  4  0  0  0
 22 23  1  0  0  0
 23 24  1  0  0  0
 23 27  1  0  0  0
 24 25  1  0  0  0
 24 26  1  0  0  0
 27 28  1  0  0  0
 28 29  1  0  0  0
 29 30  1  0  0  0
 30 31  4  0  0  0
 30 35  4  0  0  0
 31 32  4  0  0  0
 32 33  4  0  0  0
 33 34  4  0  0  0
 34 35  4  0  0  0
  1 36  1  0  0  0
  1 37  1  0  0  0
  1 38  1  0  0  0
  4 39  1  0  0  0
  7 40  1  0  0  0
  7 41  1  0  0  0
  7 42  1  0  0  0
  8 43  1  0  0  0
  9 44  1  0  0  0
 11 45  1  0  0  0
 11 46  1  0  0  0
 13 47  1  0  0  0
 20 48  1  0  0  0
 20 49  1  0  0  0
 20 50  1  0  0  0
 23 51  1  0  0  0
 24 52  1  0  0  0
 25 53  1  0  0  0
 25 54  1  0  0  0
 25 55  1  0  0  0
 26 56  1  0  0  0
 27 57  1  0  0  0
 27 58  1  0  0  0
 28 59  1  0  0  0
 28 60  1  0  0  0
 29 61  1  0  0  0
 29 62  1  0  0  0
 31 63  1  0  0  0
 32 64  1  0  0  0
 33 65  1  0  0  0
 34 66  1  0  0  0
 35 67  1  0  0  0
M  END
$$$$
