5sz7_ligand
  -I-interpret- 

 32 34  0  0  0  0  0  0  0  0999 V2000
    0.2020    9.5160   84.9000 C   0  0  0  0  0
    0.7810   10.6710   84.4600 C   0  0  0  0  0
    0.2360   11.9110   84.7810 C   0  0  0  0  0
    0.8320   13.0850   84.3380 C   0  0  0  0  0
    1.9680   13.0270   83.5560 C   0  0  0  0  0
    2.5100   11.7940   83.2260 C   0  0  0  0  0
    1.9200   10.6160   83.6800 C   0  0  0  0  0
    2.4620    9.4320   83.3520 N   0  0  0  0  0
    1.9060    8.2750   83.7790 C   0  0  0  0  0
    0.7450    8.3120   84.5440 C   0  0  0  0  0
    0.1210    7.0380   85.0850 C   0  0  0  0  0
    1.0490    5.9100   85.5370 C   0  0  0  0  0
    0.5410    4.8210   86.0580 C   0  0  0  0  0
   -0.9620    4.7120   86.2100 C   0  0  0  0  0
   -1.5950    3.1880   86.9510 S   0  0  0  0  0
   -3.0670    3.2280   86.9670 O   0  0  0  0  0
   -1.2180    3.2320   88.3760 O   0  0  0  0  0
   -0.9410    1.8170   86.1660 N   0  0  0  0  0
   -1.7710    5.6840   85.8390 C   0  0  0  0  0
   -1.1790    6.9530   85.2400 C   0  0  0  0  0
   -0.6865    9.5527   85.5304 H   0  0  0  0  0
   -0.6687   11.9614   85.3869 H   0  0  0  0  0
    0.4034   14.0503   84.6074 H   0  0  0  0  0
    2.4361   13.9447   83.2001 H   0  0  0  0  0
    3.4053   11.7458   82.6061 H   0  0  0  0  0
    2.3651    7.3196   83.5251 H   0  0  0  0  0
    2.1286    6.0117   85.4261 H   0  0  0  0  0
    1.1900    4.0056   86.3773 H   0  0  0  0  0
   -1.5621    1.1168   85.7606 H   0  0  0  0  0
    0.0702    1.6993   86.1032 H   0  0  0  0  0
   -2.8494    5.5811   85.9593 H   0  0  0  0  0
   -1.8261    7.7788   84.9443 H   0  0  0  0  0
  1  2  4  0  0  0
  1 10  4  0  0  0
  2  3  4  0  0  0
  2  7  4  0  0  0
  3  4  4  0  0  0
  4  5  4  0  0  0
  5  6  4  0  0  0
  6  7  4  0  0  0
  7  8  4  0  0  0
  8  9  4  0  0  0
  9 10  4  0  0  0
 10 11  1  0  0  0
 11 12  4  0  0  0
 11 20  4  0  0  0
 12 13  4  0  0  0
 13 14  4  0  0  0
 14 15  1  0  0  0
 14 19  4  0  0  0
 15 16  2  0  0  0
 15 17  2  0  0  0
 15 18  1  0  0  0
 19 20  4  0  0  0
  1 21  1  0  0  0
  3 22  1  0  0  0
  4 23  1  0  0  0
  5 24  1  0  0  0
  6 25  1  0  0  0
  9 26  1  0  0  0
 12 27  1  0  0  0
 13 28  1  0  0  0
 18 29  1  0  0  0
 18 30  1  0  0  0
 19 31  1  0  0  0
 20 32  1  0  0  0
M  END
$$$$
