6ibx_ligand
  -I-interpret- 

 67 72  0  0  0  0  0  0  0  0999 V2000
   84.4290   46.6210  266.9370 C   0  0  0  0  0
   83.4950   45.7050  266.1570 C   0  0  0  0  0
   83.2760   44.4370  266.9190 C   0  0  0  0  0
   84.5440   43.7620  267.2120 N   0  3  0  0  0
   84.3390   42.6180  268.1060 C   0  0  0  0  0
   85.5150   44.6040  267.8920 C   0  0  0  0  0
   85.7320   45.9400  267.2640 C   0  0  0  0  0
   86.5840   45.8300  266.0620 N   0  0  0  0  0
   87.5540   46.7510  265.9030 C   0  0  0  0  0
   87.7950   47.5400  266.8100 O   0  0  0  0  0
   88.4130   46.6480  264.7890 C   0  0  0  0  0
   87.9820   46.0260  263.6210 C   0  0  0  0  0
   88.8100   45.8620  262.5200 C   0  0  0  0  0
   90.1220   46.3200  262.5720 N   0  0  0  0  0
   90.5690   46.9520  263.7300 C   0  0  0  0  0
   89.7350   47.1240  264.8320 C   0  0  0  0  0
   90.1240   47.7630  265.9560 N   0  0  0  0  0
   91.4250   47.9690  266.2570 C   0  0  0  0  0
   91.7570   49.1810  266.8570 C   0  0  0  0  0
   92.4290   46.9930  266.0980 C   0  0  0  0  0
   93.7250   47.2720  266.5110 C   0  0  0  0  0
   94.7090   46.3490  266.3390 N   0  0  0  0  0
   96.0280   46.6270  266.7280 C   0  0  0  0  0
   96.3240   47.8470  267.3300 C   0  0  0  0  0
   95.3170   48.7770  267.4840 N   0  0  0  0  0
   94.0520   48.5140  267.0690 C   0  0  0  0  0
   93.0550   49.4640  267.2610 C   0  0  0  0  0
   93.3200   50.7040  267.8830 C   0  0  0  0  0
   92.5850   51.0930  268.9950 C   0  0  0  0  0
   92.7990   52.2690  269.5840 C   0  0  0  0  0
   92.2120   52.8510  270.6230 N   0  0  0  0  0
   91.1590   52.2880  271.4620 C   0  0  0  0  0
   92.7970   54.0390  270.8480 C   0  0  0  0  0
   93.7440   54.2230  269.9260 C   0  0  0  0  0
   93.7490   53.1110  269.1440 C   0  0  0  0  0
   94.4910   52.7780  268.0820 C   0  0  0  0  0
   94.3090   51.5610  267.4400 C   0  0  0  0  0
   83.9401   46.8943  267.8721 H   0  0  0  0  0
   84.6433   47.4961  266.3235 H   0  0  0  0  0
   83.9426   45.4721  265.1908 H   0  0  0  0  0
   82.5386   46.2066  266.0096 H   0  0  0  0  0
   82.6618   43.7711  266.3129 H   0  0  0  0  0
   82.7879   44.6806  267.8626 H   0  0  0  0  0
   84.8964   43.4908  266.2941 H   0  0  0  0  0
   85.2865   42.1001  268.2543 H   0  0  0  0  0
   83.9625   42.9715  269.0659 H   0  0  0  0  0
   83.6161   41.9350  267.6600 H   0  0  0  0  0
   86.4694   44.0787  267.8569 H   0  0  0  0  0
   85.1300   44.7845  268.8956 H   0  0  0  0  0
   86.2517   46.5601  267.9944 H   0  0  0  0  0
   86.4432   45.0856  265.3791 H   0  0  0  0  0
   86.9584   45.6548  263.5695 H   0  0  0  0  0
   88.4342   45.3768  261.6192 H   0  0  0  0  0
   91.5940   47.3200  263.7747 H   0  0  0  0  0
   89.4103   48.1023  266.6009 H   0  0  0  0  0
   90.9777   49.9269  267.0136 H   0  0  0  0  0
   92.1901   46.0265  265.6542 H   0  0  0  0  0
   96.8158   45.8927  266.5600 H   0  0  0  0  0
   97.3353   48.0638  267.6741 H   0  0  0  0  0
   91.8205   50.4255  269.3926 H   0  0  0  0  0
   90.2874   52.0635  270.8472 H   0  0  0  0  0
   91.5201   51.3726  271.9307 H   0  0  0  0  0
   90.8858   53.0089  272.2326 H   0  0  0  0  0
   92.5417   54.7344  271.6476 H   0  0  0  0  0
   94.3885   55.0957  269.8204 H   0  0  0  0  0
   95.2483   53.4713  267.7161 H   0  0  0  0  0
   94.9397   51.2843  266.5952 H   0  0  0  0  0
  1  2  1  0  0  0
  1  7  1  0  0  0
  2  3  1  0  0  0
  3  4  1  0  0  0
  4  5  1  0  0  0
  4  6  1  0  0  0
  6  7  1  0  0  0
  7  8  1  0  0  0
  8  9  1  0  0  0
  9 10  2  0  0  0
  9 11  1  0  0  0
 11 12  4  0  0  0
 11 16  4  0  0  0
 12 13  4  0  0  0
 13 14  4  0  0  0
 14 15  4  0  0  0
 15 16  4  0  0  0
 16 17  1  0  0  0
 17 18  1  0  0  0
 18 19  4  0  0  0
 18 20  4  0  0  0
 19 27  4  0  0  0
 20 21  4  0  0  0
 21 22  4  0  0  0
 21 26  4  0  0  0
 22 23  4  0  0  0
 23 24  4  0  0  0
 24 25  4  0  0  0
 25 26  4  0  0  0
 26 27  4  0  0  0
 27 28  1  0  0  0
 28 29  4  0  0  0
 28 37  4  0  0  0
 29 30  4  0  0  0
 30 31  4  0  0  0
 30 35  4  0  0  0
 31 32  1  0  0  0
 31 33  4  0  0  0
 33 34  4  0  0  0
 34 35  4  0  0  0
 35 36  4  0  0  0
 36 37  4  0  0  0
  1 38  1  0  0  0
  1 39  1  0  0  0
  2 40  1  0  0  0
  2 41  1  0  0  0
  3 42  1  0  0  0
  3 43  1  0  0  0
  4 44  1  0  0  0
  5 45  1  0  0  0
  5 46  1  0  0  0
  5 47  1  0  0  0
  6 48  1  0  0  0
  6 49  1  0  0  0
  7 50  1  0  0  0
  8 51  1  0  0  0
 12 52  1  0  0  0
 13 53  1  0  0  0
 15 54  1  0  0  0
 17 55  1  0  0  0
 19 56  1  0  0  0
 20 57  1  0  0  0
 23 58  1  0  0  0
 24 59  1  0  0  0
 29 60  1  0  0  0
 32 61  1  0  0  0
 32 62  1  0  0  0
 32 63  1  0  0  0
 33 64  1  0  0  0
 34 65  1  0  0  0
 36 66  1  0  0  0
 37 67  1  0  0  0
M  END
$$$$
