6msy_ligand
  -I-interpret- 

 87 90  0  0  0  0  0  0  0  0999 V2000
   -4.0450  -11.2980   16.0050 C   0  0  0  0  0
   -4.8780  -12.5310   16.0010 C   0  0  0  0  0
   -4.8160  -13.2460   14.5920 C   0  0  0  0  0
   -5.2330  -12.2840   13.5280 C   0  0  0  0  0
   -4.3140  -11.0320   13.5790 C   0  0  0  0  0
   -4.6560   -9.9540   12.5280 C   0  0  0  0  0
   -6.1820  -12.1210   16.1600 O   0  0  0  0  0
   -5.6930  -14.3590   14.5740 O   0  0  0  0  0
   -5.0890  -12.8450   12.1030 O   0  0  0  0  0
   -4.3570  -10.3910   14.9080 O   0  0  0  0  0
   -5.9490   -9.3450   12.8850 O   0  0  0  0  0
   -1.1500  -10.3320   14.8420 C   0  0  0  0  0
   -1.8100  -10.7190   16.2150 C   0  0  0  0  0
   -0.7160  -11.1680   17.1230 C   0  0  0  0  0
   -0.0380  -12.4220   16.4630 C   0  0  0  0  0
    0.5130  -12.0550   15.0840 C   0  0  0  0  0
    1.0420  -13.3500   14.2820 C   0  0  0  0  0
   -2.7140  -11.8480   15.9290 O   0  0  0  0  0
   -1.1590  -11.5130   18.4400 O   0  0  0  0  0
    1.0610  -12.8630   17.2070 O   0  0  0  0  0
   -0.4980  -11.4380   14.2840 O   0  0  0  0  0
    1.2460  -12.9330   12.8760 O   0  0  0  0  0
    1.7700   -8.5720   13.8140 C   0  0  0  0  0
    0.2380   -8.7630   13.7850 C   0  0  0  0  0
   -0.4240   -7.3650   13.6070 C   0  0  0  0  0
    0.0930   -6.3360   14.7010 C   0  0  0  0  0
    1.6780   -6.3310   14.6830 C   0  0  0  0  0
    2.2380   -5.3570   15.8090 C   0  0  0  0  0
   -0.2380   -9.2160   15.0610 O   0  0  0  0  0
   -1.8710   -7.4100   13.5820 O   0  0  0  0  0
   -0.3780   -5.0240   14.3630 O   0  0  0  0  0
    2.1290   -7.7140   14.9020 O   0  0  0  0  0
    3.6240   -5.3860   15.7890 O   0  0  0  0  0
    4.9110  -10.2400   10.6700 C   0  0  0  0  0
    3.5070  -10.0520   11.4680 C   0  0  0  0  0
    3.1270   -8.5700   11.5310 C   0  0  0  0  0
    4.2500   -7.5640   11.5220 C   0  0  0  0  0
    5.4300   -7.9170   10.5960 C   0  0  0  0  0
    6.4900   -7.0680   11.1760 C   0  0  0  0  0
    4.7140  -10.6110    9.1870 O   0  0  0  0  0
    3.5830  -10.4960   12.7660 O   0  0  0  0  0
    2.1420   -8.0390   12.5240 O   0  0  0  0  0
    3.6770   -6.4130   11.0160 O   0  0  0  0  0
    5.8050   -9.1790   10.8770 O   0  0  0  0  0
    6.6410   -7.4610   12.5670 O   0  0  0  0  0
   -4.2058  -10.6641   16.8770 H   0  0  0  0  0
   -4.5273  -13.2095   16.7786 H   0  0  0  0  0
   -3.7957  -13.5843   14.4112 H   0  0  0  0  0
   -6.2820  -12.0631   13.7253 H   0  0  0  0  0
   -3.3189  -11.4182   13.3583 H   0  0  0  0  0
   -4.7190  -10.4066   11.5384 H   0  0  0  0  0
   -3.8778   -9.1910   12.5115 H   0  0  0  0  0
   -6.2758  -11.6773   17.0061 H   0  0  0  0  0
   -5.4312  -14.9823   15.2556 H   0  0  0  0  0
   -5.6388  -13.6266   12.0109 H   0  0  0  0  0
   -6.1738   -8.6719   12.2385 H   0  0  0  0  0
   -1.9151  -10.0235   14.1296 H   0  0  0  0  0
   -2.3533   -9.8941   16.6759 H   0  0  0  0  0
   -0.0250  -10.3341   17.2464 H   0  0  0  0  0
   -0.8033  -13.1963   16.4088 H   0  0  0  0  0
    1.3423  -11.3694   15.2585 H   0  0  0  0  0
    0.3192  -14.1637   14.3426 H   0  0  0  0  0
    1.9722  -13.7187   14.7144 H   0  0  0  0  0
   -0.4063  -11.7913   18.9669 H   0  0  0  0  0
    1.4507  -13.6279   16.7773 H   0  0  0  0  0
    1.5625  -13.6810   12.3643 H   0  0  0  0  0
    2.3053   -9.5066   13.9818 H   0  0  0  0  0
    0.0022   -9.4703   12.9899 H   0  0  0  0  0
   -0.1127   -7.0131   12.6234 H   0  0  0  0  0
   -0.2720   -6.6207   15.6878 H   0  0  0  0  0
    2.0539   -5.9665   13.7270 H   0  0  0  0  0
    1.8794   -5.6825   16.7855 H   0  0  0  0  0
    1.8907   -4.3413   15.6198 H   0  0  0  0  0
   -2.2158   -6.5210   13.4704 H   0  0  0  0  0
   -0.0696   -4.3955   15.0198 H   0  0  0  0  0
    3.9651   -4.7989   16.4677 H   0  0  0  0  0
    5.3977  -11.1078   11.1151 H   0  0  0  0  0
    2.7665  -10.6361   10.9215 H   0  0  0  0  0
    2.6087   -8.6541   10.5758 H   0  0  0  0  0
    4.6624   -7.4977   12.5288 H   0  0  0  0  0
    5.2259   -7.7989    9.5318 H   0  0  0  0  0
    6.2220   -6.0141   11.1014 H   0  0  0  0  0
    7.4272   -7.2005   10.6354 H   0  0  0  0  0
    5.5713  -10.7092    8.7663 H   0  0  0  0  0
    2.7353  -10.3662   13.1975 H   0  0  0  0  0
    4.3377   -5.7176   10.9789 H   0  0  0  0  0
    7.3253   -6.9268   12.9768 H   0  0  0  0  0
  1  2  1  0  0  0
  1 10  1  0  0  0
 18  1  1  0  0  0
  2  3  1  0  0  0
  2  7  1  0  0  0
  3  4  1  0  0  0
  3  8  1  0  0  0
  5  4  1  0  0  0
  4  9  1  0  0  0
  5  6  1  0  0  0
 10  5  1  0  0  0
  6 11  1  0  0  0
 12 13  1  0  0  0
 12 21  1  0  0  0
 29 12  1  0  0  0
 13 14  1  0  0  0
 13 18  1  0  0  0
 14 15  1  0  0  0
 14 19  1  0  0  0
 16 15  1  0  0  0
 15 20  1  0  0  0
 16 17  1  0  0  0
 21 16  1  0  0  0
 17 22  1  0  0  0
 23 24  1  0  0  0
 23 32  1  0  0  0
 42 23  1  0  0  0
 24 25  1  0  0  0
 24 29  1  0  0  0
 25 26  1  0  0  0
 25 30  1  0  0  0
 27 26  1  0  0  0
 26 31  1  0  0  0
 27 28  1  0  0  0
 32 27  1  0  0  0
 28 33  1  0  0  0
 35 34  1  0  0  0
 34 40  1  0  0  0
 34 44  1  0  0  0
 36 35  1  0  0  0
 35 41  1  0  0  0
 36 37  1  0  0  0
 36 42  1  0  0  0
 37 38  1  0  0  0
 37 43  1  0  0  0
 38 39  1  0  0  0
 38 44  1  0  0  0
 39 45  1  0  0  0
  1 46  1  0  0  0
  2 47  1  0  0  0
  3 48  1  0  0  0
  4 49  1  0  0  0
  5 50  1  0  0  0
  6 51  1  0  0  0
  6 52  1  0  0  0
  7 53  1  0  0  0
  8 54  1  0  0  0
  9 55  1  0  0  0
 11 56  1  0  0  0
 12 57  1  0  0  0
 13 58  1  0  0  0
 14 59  1  0  0  0
 15 60  1  0  0  0
 16 61  1  0  0  0
 17 62  1  0  0  0
 17 63  1  0  0  0
 19 64  1  0  0  0
 20 65  1  0  0  0
 22 66  1  0  0  0
 23 67  1  0  0  0
 24 68  1  0  0  0
 25 69  1  0  0  0
 26 70  1  0  0  0
 27 71  1  0  0  0
 28 72  1  0  0  0
 28 73  1  0  0  0
 30 74  1  0  0  0
 31 75  1  0  0  0
 33 76  1  0  0  0
 34 77  1  0  0  0
 35 78  1  0  0  0
 36 79  1  0  0  0
 37 80  1  0  0  0
 38 81  1  0  0  0
 39 82  1  0  0  0
 39 83  1  0  0  0
 40 84  1  0  0  0
 41 85  1  0  0  0
 43 86  1  0  0  0
 45 87  1  0  0  0
M  END
$$$$
