1dmp_ligand
  -I-interpret- 

 76 80  0  0  0  0  0  0  0  0999 V2000
   -8.8900   15.3220   27.7390 C   0  0  0  0  0
   -8.4080   14.2130   27.6200 O   0  0  0  0  0
   -8.6090   16.1690   26.7400 N   0  0  0  0  0
   -8.0330   15.5860   25.4850 C   0  0  0  0  0
   -8.6780   17.6490   26.9140 C   0  0  0  0  0
  -10.0180   18.2720   27.1610 C   0  0  0  0  0
   -9.7860   19.6250   26.9240 O   0  0  0  0  0
  -10.5910   18.0230   28.5350 C   0  0  0  0  0
  -11.8230   18.6470   28.5540 O   0  0  0  0  0
  -10.8300   16.5590   28.8550 C   0  0  0  0  0
   -9.6360   15.6470   28.8450 N   0  0  0  0  0
   -9.4130   14.8750   30.0960 C   0  0  0  0  0
   -8.7170   16.0040   24.2210 C   0  0  0  0  0
  -10.1160   15.9180   24.1240 C   0  0  0  0  0
  -10.8140   16.3270   22.9750 C   0  0  0  0  0
  -10.0790   16.8490   21.9070 C   0  0  0  0  0
   -8.6690   16.9590   21.9960 C   0  0  0  0  0
   -7.9810   17.6690   20.9750 N   0  0  0  0  0
   -7.9820   16.5160   23.1460 C   0  0  0  0  0
   -7.5250   18.1310   27.8140 C   0  0  0  0  0
   -6.2440   18.1380   26.9920 C   0  0  0  0  0
   -5.2230   17.1850   27.2320 C   0  0  0  0  0
   -4.0590   17.1780   26.4540 C   0  0  0  0  0
   -3.9210   18.1180   25.4200 C   0  0  0  0  0
   -4.9270   19.0750   25.1520 C   0  0  0  0  0
   -6.0910   19.0880   25.9470 C   0  0  0  0  0
  -12.0200   15.8570   28.1040 C   0  0  0  0  0
  -12.5410   14.5960   28.7910 C   0  0  0  0  0
  -13.3710   14.7000   29.9260 C   0  0  0  0  0
  -13.7780   13.5480   30.6210 C   0  0  0  0  0
  -13.3570   12.2800   30.1720 C   0  0  0  0  0
  -12.5360   12.1470   29.0280 C   0  0  0  0  0
  -12.1320   13.3120   28.3390 C   0  0  0  0  0
   -9.5100   15.5830   31.4300 C   0  0  0  0  0
  -10.4550   15.1340   32.3800 C   0  0  0  0  0
  -10.4860   15.6970   33.6690 C   0  0  0  0  0
  -11.4110   15.2210   34.6490 N   0  0  0  0  0
   -9.5810   16.7250   34.0020 C   0  0  0  0  0
   -8.6410   17.2010   33.0480 C   0  0  0  0  0
   -8.6070   16.6220   31.7630 C   0  0  0  0  0
   -8.1450   14.5044   25.5604 H   0  0  0  0  0
   -7.0040   15.9392   25.4175 H   0  0  0  0  0
   -8.5214   18.0635   25.9181 H   0  0  0  0  0
  -10.7809   17.8348   26.5168 H   0  0  0  0  0
   -9.4232   19.7366   26.0422 H   0  0  0  0  0
   -9.8750   18.3949   29.2679 H   0  0  0  0  0
  -11.7113   19.5795   28.3549 H   0  0  0  0  0
  -11.1228   16.6918   29.8965 H   0  0  0  0  0
   -8.3783   14.5378   30.0344 H   0  0  0  0  0
  -10.2143   14.1363   30.1139 H   0  0  0  0  0
  -10.6790   15.5206   24.9685 H   0  0  0  0  0
  -11.8990   16.2395   22.9182 H   0  0  0  0  0
  -10.5925   17.1729   21.0017 H   0  0  0  0  0
   -8.5021   18.0843   20.2027 H   0  0  0  0  0
   -6.9661   17.7633   21.0145 H   0  0  0  0  0
   -6.8946   16.5718   23.1963 H   0  0  0  0  0
   -7.4156   17.4639   28.6691 H   0  0  0  0  0
   -7.7357   19.1342   28.1846 H   0  0  0  0  0
   -5.3449   16.4514   28.0289 H   0  0  0  0  0
   -3.2697   16.4519   26.6485 H   0  0  0  0  0
   -3.0177   18.1098   24.8100 H   0  0  0  0  0
   -4.8040   19.7932   24.3413 H   0  0  0  0  0
   -6.8718   19.8253   25.7603 H   0  0  0  0  0
  -11.6486   15.5579   27.1239 H   0  0  0  0  0
  -12.8445   16.5693   28.0734 H   0  0  0  0  0
  -13.6997   15.6816   30.2673 H   0  0  0  0  0
  -14.4149   13.6347   31.5013 H   0  0  0  0  0
  -13.6691   11.3879   30.7150 H   0  0  0  0  0
  -12.2204   11.1621   28.6839 H   0  0  0  0  0
  -11.5017   13.2257   27.4539 H   0  0  0  0  0
  -11.1623   14.3488   32.1132 H   0  0  0  0  0
  -12.0567   14.4664   34.4167 H   0  0  0  0  0
  -11.4254   15.6359   35.5807 H   0  0  0  0  0
   -9.6022   17.1594   35.0015 H   0  0  0  0  0
   -7.9532   18.0058   33.3074 H   0  0  0  0  0
   -7.8856   16.9741   31.0256 H   0  0  0  0  0
  1 11  1  0  0  0
  1  3  1  0  0  0
  1  2  2  0  0  0
  3  5  1  0  0  0
  3  4  1  0  0  0
  4 13  1  0  0  0
 13 19  4  0  0  0
 13 14  4  0  0  0
 14 15  4  0  0  0
 15 16  4  0  0  0
 16 17  4  0  0  0
 17 19  4  0  0  0
 17 18  1  0  0  0
  5 20  1  0  0  0
  5  6  1  0  0  0
  6  8  1  0  0  0
  6  7  1  0  0  0
  8 10  1  0  0  0
  8  9  1  0  0  0
 10 27  1  0  0  0
 10 11  1  0  0  0
 11 12  1  0  0  0
 12 34  1  0  0  0
 34 40  4  0  0  0
 34 35  4  0  0  0
 35 36  4  0  0  0
 36 38  4  0  0  0
 36 37  1  0  0  0
 38 39  4  0  0  0
 39 40  4  0  0  0
 27 28  1  0  0  0
 28 33  4  0  0  0
 28 29  4  0  0  0
 29 30  4  0  0  0
 30 31  4  0  0  0
 31 32  4  0  0  0
 32 33  4  0  0  0
 20 21  1  0  0  0
 21 26  4  0  0  0
 21 22  4  0  0  0
 22 23  4  0  0  0
 23 24  4  0  0  0
 24 25  4  0  0  0
 25 26  4  0  0  0
  4 41  1  0  0  0
  4 42  1  0  0  0
  5 43  1  0  0  0
  6 44  1  0  0  0
  7 45  1  0  0  0
  8 46  1  0  0  0
  9 47  1  0  0  0
 10 48  1  0  0  0
 12 49  1  0  0  0
 12 50  1  0  0  0
 14 51  1  0  0  0
 15 52  1  0  0  0
 16 53  1  0  0  0
 18 54  1  0  0  0
 18 55  1  0  0  0
 19 56  1  0  0  0
 20 57  1  0  0  0
 20 58  1  0  0  0
 22 59  1  0  0  0
 23 60  1  0  0  0
 24 61  1  0  0  0
 25 62  1  0  0  0
 26 63  1  0  0  0
 27 64  1  0  0  0
 27 65  1  0  0  0
 29 66  1  0  0  0
 30 67  1  0  0  0
 31 68  1  0  0  0
 32 69  1  0  0  0
 33 70  1  0  0  0
 35 71  1  0  0  0
 37 72  1  0  0  0
 37 73  1  0  0  0
 38 74  1  0  0  0
 39 75  1  0  0  0
 40 76  1  0  0  0
M  END
$$$$
