5c3p_ligand
  -I-interpret- 

 16 15  0  0  0  0  0  0  0  0999 V2000
   19.1520   18.6540   94.3030 C   0  0  0  0  0
   18.4440   18.0420   93.4730 O   0  0  0  0  0
   19.8560   18.0360   95.1380 O   0  0  0  0  0
   19.1540   20.1270   94.2700 C   0  0  0  0  0
   18.6620   20.7240   93.3130 O   0  0  0  0  0
   19.7680   20.8950   95.4230 C   0  0  0  0  0
   19.3540   22.3630   95.4090 C   0  0  0  0  0
   19.8110   23.1100   96.6410 C   0  0  0  0  0
   19.2830   24.2180   96.8690 O   0  0  0  0  0
   20.7110   22.6390   97.3710 O   0  0  0  0  0
   20.3264   18.6670   95.6877 H   0  0  0  0  0
   20.8528   20.8438   95.3301 H   0  0  0  0  0
   19.4207   20.4496   96.3553 H   0  0  0  0  0
   18.2652   22.4033   95.3780 H   0  0  0  0  0
   19.8174   22.8331   94.5416 H   0  0  0  0  0
   20.9835   21.7840   97.0299 H   0  0  0  0  0
  1  2  2  0  0  0
  1  3  1  0  0  0
  1  4  1  0  0  0
  4  5  2  0  0  0
  4  6  1  0  0  0
  6  7  1  0  0  0
  7  8  1  0  0  0
  8  9  2  0  0  0
  8 10  1  0  0  0
  3 11  1  0  0  0
  6 12  1  0  0  0
  6 13  1  0  0  0
  7 14  1  0  0  0
  7 15  1  0  0  0
 10 16  1  0  0  0
M  END
$$$$
