6nu5_ligand
  -I-interpret- 

 15 14  0  0  0  0  0  0  0  0999 V2000
   25.1890   -5.6890   44.0960 N   0  3  0  0  0
   25.0530   -4.5230   43.2290 C   0  0  0  0  0
   26.2810   -3.6110   43.3520 C   0  0  0  0  0
   26.4160   -2.5940   42.6470 O   0  0  0  0  0
   23.7760   -3.7550   43.5640 C   0  0  0  0  0
   23.7260   -3.1950   45.2880 S   0  0  0  0  0
   27.1940   -3.9060   44.1440 O   0  0  0  0  0
   26.0456   -6.1894   43.8590 H   0  0  0  0  0
   25.2295   -5.3850   45.0688 H   0  0  0  0  0
   24.3866   -6.3047   43.9641 H   0  0  0  0  0
   24.9868   -4.8674   42.1970 H   0  0  0  0  0
   25.6427   -2.4885   42.0881 H   0  0  0  0  0
   22.9315   -4.4257   43.4059 H   0  0  0  0  0
   23.7392   -2.8728   42.9249 H   0  0  0  0  0
   22.5909   -2.5370   45.5060 H   0  0  0  0  0
  1  2  1  0  0  0
  2  3  1  0  0  0
  2  5  1  0  0  0
  3  4  1  0  0  0
  3  7  2  0  0  0
  5  6  1  0  0  0
  1  8  1  0  0  0
  1  9  1  0  0  0
  1 10  1  0  0  0
  2 11  1  0  0  0
  4 12  1  0  0  0
  5 13  1  0  0  0
  5 14  1  0  0  0
  6 15  1  0  0  0
M  END
$$$$
