6qrd_ligand
  -I-interpret- 

 66 70  0  0  0  0  0  0  0  0999 V2000
  -22.2830  -20.4060   11.5810 C   0  0  0  0  0
  -24.3840  -18.5500   11.3170 C   0  0  0  0  0
  -25.7410  -20.7050   10.5870 C   0  0  0  0  0
  -22.5920  -22.9330    8.3890 C   0  0  0  0  0
  -21.7080  -23.1630    7.3130 C   0  0  0  0  0
  -20.5950  -23.9990    7.4830 C   0  0  0  0  0
  -16.8870  -24.3360    6.8870 C   0  0  0  0  0
  -16.5810  -22.7540    5.3560 C   0  0  0  0  0
  -17.8080  -16.4960   12.9260 N   0  0  0  0  0
  -18.7500  -17.5320   12.6400 C   0  0  0  0  0
  -18.4840  -18.8600   12.5040 N   0  0  0  0  0
  -19.6520  -19.4910   12.2440 N   0  0  0  0  0
  -20.6620  -18.6230   12.2520 C   0  0  0  0  0
  -20.1220  -17.3610   12.4620 C   0  0  0  0  0
  -20.7970  -16.0090   12.5530 C   0  0  0  0  0
  -21.2710  -14.9760   12.6340 N   0  0  0  0  0
  -22.0860  -19.0500   11.8940 C   0  0  0  0  0
  -23.5750  -20.8480   11.1610 C   0  0  0  0  0
  -24.6040  -19.9300   11.0330 C   0  0  0  0  0
  -23.1110  -18.1140   11.7280 C   0  0  0  0  0
  -25.3410  -22.0420   10.4840 C   0  0  0  0  0
  -24.0500  -22.1070   10.8220 N   0  0  0  0  0
  -23.2770  -23.3340   10.8530 C   0  0  0  0  0
  -22.3520  -23.5400    9.6300 C   0  0  0  0  0
  -19.6170  -24.2190    6.2680 C   0  0  0  0  0
  -18.9560  -25.3340    6.1990 N   0  3  0  0  0
  -17.8990  -25.4540    7.0430 C   0  0  0  0  0
  -16.5590  -24.0300    5.6060 N   0  3  0  0  0
  -15.4560  -22.4170    4.3880 C   0  0  0  0  0
  -16.5570  -21.8360    6.5810 C   0  0  0  0  0
  -17.2160  -24.6940    4.6090 C   0  0  0  0  0
  -18.4830  -25.4880    4.9370 C   0  0  0  0  0
  -20.3730  -24.5890    8.7370 C   0  0  0  0  0
  -21.2480  -24.3640    9.8100 C   0  0  0  0  0
  -21.4577  -21.1138   11.6580 H   0  0  0  0  0
  -25.2001  -17.8346   11.2159 H   0  0  0  0  0
  -26.7355  -20.3156   10.3692 H   0  0  0  0  0
  -23.4586  -22.2855    8.2557 H   0  0  0  0  0
  -21.8908  -22.6900    6.3481 H   0  0  0  0  0
  -15.9712  -24.6719    7.3735 H   0  0  0  0  0
  -17.3386  -23.4420    7.3171 H   0  0  0  0  0
  -17.5535  -22.5522    4.9070 H   0  0  0  0  0
  -16.8215  -16.7237   13.0499 H   0  0  0  0  0
  -18.1222  -15.5289   13.0062 H   0  0  0  0  0
  -22.9257  -17.0563   11.9152 H   0  0  0  0  0
  -25.9696  -22.8798   10.1823 H   0  0  0  0  0
  -23.9887  -24.1596   10.8576 H   0  0  0  0  0
  -22.6361  -23.2853   11.7333 H   0  0  0  0  0
  -18.8578  -23.4435    6.3693 H   0  0  0  0  0
  -20.2545  -24.2105    5.3839 H   0  0  0  0  0
  -19.6282  -26.0489    6.4772 H   0  0  0  0  0
  -18.2821  -25.4154    8.0627 H   0  0  0  0  0
  -17.3951  -26.3927    6.8129 H   0  0  0  0  0
  -15.6011  -24.3794    5.5777 H   0  0  0  0  0
  -14.4998  -22.6872    4.8360 H   0  0  0  0  0
  -15.5956  -22.9752    3.4622 H   0  0  0  0  0
  -15.4698  -21.3481    4.1749 H   0  0  0  0  0
  -17.4277  -22.0407    7.2039 H   0  0  0  0  0
  -15.6478  -22.0199    7.1535 H   0  0  0  0  0
  -16.5784  -20.7962    6.2547 H   0  0  0  0  0
  -16.5042  -25.4421    4.2601 H   0  0  0  0  0
  -17.5498  -23.9103    3.9290 H   0  0  0  0  0
  -19.2611  -25.1233    4.2664 H   0  0  0  0  0
  -18.2270  -26.5418    4.8271 H   0  0  0  0  0
  -19.5055  -25.2333    8.8796 H   0  0  0  0  0
  -21.0633  -24.8318   10.7770 H   0  0  0  0  0
  1 17  4  0  0  0
 18  1  4  0  0  0
 19  2  4  0  0  0
  2 20  4  0  0  0
  3 19  4  0  0  0
 21  3  4  0  0  0
  5  4  4  0  0  0
  4 24  4  0  0  0
  6  5  4  0  0  0
 25  6  1  0  0  0
  6 33  4  0  0  0
 27  7  1  0  0  0
  7 28  1  0  0  0
 28  8  1  0  0  0
  8 29  1  0  0  0
  8 30  1  0  0  0
 10  9  1  0  0  0
 10 11  4  0  0  0
 14 10  4  0  0  0
 12 11  4  0  0  0
 13 12  4  0  0  0
 13 14  4  0  0  0
 17 13  1  0  0  0
 14 15  1  0  0  0
 15 16  3  0  0  0
 17 20  4  0  0  0
 18 19  4  0  0  0
 22 18  4  0  0  0
 22 21  4  0  0  0
 23 22  1  0  0  0
 24 23  1  0  0  0
 24 34  4  0  0  0
 26 25  1  0  0  0
 26 27  1  0  0  0
 26 32  1  0  0  0
 28 31  1  0  0  0
 31 32  1  0  0  0
 33 34  4  0  0  0
  1 35  1  0  0  0
  2 36  1  0  0  0
  3 37  1  0  0  0
  4 38  1  0  0  0
  5 39  1  0  0  0
  7 40  1  0  0  0
  7 41  1  0  0  0
  8 42  1  0  0  0
  9 43  1  0  0  0
  9 44  1  0  0  0
 20 45  1  0  0  0
 21 46  1  0  0  0
 23 47  1  0  0  0
 23 48  1  0  0  0
 25 49  1  0  0  0
 25 50  1  0  0  0
 26 51  1  0  0  0
 27 52  1  0  0  0
 27 53  1  0  0  0
 28 54  1  0  0  0
 29 55  1  0  0  0
 29 56  1  0  0  0
 29 57  1  0  0  0
 30 58  1  0  0  0
 30 59  1  0  0  0
 30 60  1  0  0  0
 31 61  1  0  0  0
 31 62  1  0  0  0
 32 63  1  0  0  0
 32 64  1  0  0  0
 33 65  1  0  0  0
 34 66  1  0  0  0
M  END
$$$$
