6imt_ligand
  -I-interpret- 

 50 53  0  0  0  0  0  0  0  0999 V2000
   83.1280   76.9190   24.7000 C   0  0  0  0  0
   82.9520   76.5190   28.9560 C   0  0  0  0  0
   82.3760   77.8590   25.4250 C   0  0  0  0  0
   81.4360   78.6340   24.7560 C   0  0  0  0  0
   84.4730   74.9410   23.1690 C   0  0  0  0  0
   82.6300   78.0190   26.9030 C   0  0  0  0  0
   80.6170   79.4040   26.9740 C   0  0  0  0  0
   80.6200   79.6660   25.4870 C   0  0  0  0  0
   81.0830   78.2020   20.5610 C   0  0  0  0  0
   82.6610   80.2000   28.1230 C   0  0  0  0  0
   82.1840   76.7530   27.6590 C   0  0  0  0  0
   81.9940   79.2330   27.4490 N   0  0  0  0  0
   83.3270   73.1410   30.4180 N   0  0  0  0  0
   82.9330   76.7560   23.3480 C   0  0  0  0  0
   81.2620   78.4760   23.3780 C   0  0  0  0  0
   83.1580   75.0710   29.2830 C   0  0  0  0  0
   83.0700   74.4820   30.5110 C   0  0  0  0  0
   83.6000   72.8280   29.1100 C   0  0  0  0  0
   83.5060   74.0200   28.3590 C   0  0  0  0  0
   83.9220   71.6190   28.5060 C   0  0  0  0  0
   82.0040   77.5600   22.6680 C   0  0  0  0  0
   84.1460   71.6210   27.1530 C   0  0  0  0  0
   84.0620   72.7690   26.3800 C   0  0  0  0  0
   83.7450   73.9660   26.9770 C   0  0  0  0  0
   84.4640   70.4480   26.5330 F   0  0  0  0  0
   81.8990   77.3160   21.3270 O   0  0  0  0  0
   83.6010   75.8780   22.5410 O   0  0  0  0  0
   83.8480   80.1270   28.3750 O   0  0  0  0  0
   83.8736   76.3127   25.2143 H   0  0  0  0  0
   82.3654   76.9550   29.7647 H   0  0  0  0  0
   83.9375   76.9690   28.8363 H   0  0  0  0  0
   85.2479   75.4779   23.7162 H   0  0  0  0  0
   83.9015   74.3214   23.8600 H   0  0  0  0  0
   84.9340   74.3099   22.4092 H   0  0  0  0  0
   83.7030   78.1457   27.0468 H   0  0  0  0  0
   80.0487   78.4969   27.1798 H   0  0  0  0  0
   80.1597   80.2490   27.4887 H   0  0  0  0  0
   79.5936   79.6206   25.1230 H   0  0  0  0  0
   81.0576   80.6479   25.3069 H   0  0  0  0  0
   80.0621   78.1743   20.9418 H   0  0  0  0  0
   81.4748   79.2159   20.6417 H   0  0  0  0  0
   81.0912   77.8900   19.5167 H   0  0  0  0  0
   82.1103   81.0808   28.4534 H   0  0  0  0  0
   81.1327   76.8785   27.9180 H   0  0  0  0  0
   82.3709   75.8989   27.0081 H   0  0  0  0  0
   80.5262   79.0887   22.8571 H   0  0  0  0  0
   82.8289   75.0060   31.4359 H   0  0  0  0  0
   83.9941   70.7001   29.0877 H   0  0  0  0  0
   84.2460   72.7227   25.3066 H   0  0  0  0  0
   83.6792   74.8735   26.3769 H   0  0  0  0  0
  1  3  4  0  0  0
 14  1  4  0  0  0
 11  2  1  0  0  0
  2 16  1  0  0  0
  4  3  4  0  0  0
  3  6  1  0  0  0
  4  8  1  0  0  0
 15  4  4  0  0  0
 27  5  1  0  0  0
  6 11  1  0  0  0
  6 12  1  0  0  0
  8  7  1  0  0  0
  7 12  1  0  0  0
 26  9  1  0  0  0
 12 10  1  0  0  0
 10 28  2  0  0  0
 17 13  4  0  0  0
 18 13  4  0  0  0
 21 14  4  0  0  0
 14 27  1  0  0  0
 21 15  4  0  0  0
 16 17  4  0  0  0
 16 19  4  0  0  0
 19 18  4  0  0  0
 18 20  4  0  0  0
 19 24  4  0  0  0
 20 22  4  0  0  0
 21 26  1  0  0  0
 22 23  4  0  0  0
 22 25  1  0  0  0
 23 24  4  0  0  0
  1 29  1  0  0  0
  2 30  1  0  0  0
  2 31  1  0  0  0
  5 32  1  0  0  0
  5 33  1  0  0  0
  5 34  1  0  0  0
  6 35  1  0  0  0
  7 36  1  0  0  0
  7 37  1  0  0  0
  8 38  1  0  0  0
  8 39  1  0  0  0
  9 40  1  0  0  0
  9 41  1  0  0  0
  9 42  1  0  0  0
 10 43  1  0  0  0
 11 44  1  0  0  0
 11 45  1  0  0  0
 15 46  1  0  0  0
 17 47  1  0  0  0
 20 48  1  0  0  0
 23 49  1  0  0  0
 24 50  1  0  0  0
M  END
$$$$
