2xk9_ligand
  -I-interpret- 

 45 47  0  0  0  0  0  0  0  0999 V2000
  -49.4250   16.0170   -3.8370 O   0  0  0  0  0
  -48.5750   17.1210   -3.4920 N   0  0  0  0  0
  -48.6520   17.6130   -2.1630 O   0  0  0  0  0
  -47.7140   17.6810   -4.3580 C   0  0  0  0  0
  -47.0550   18.8570   -3.9970 C   0  0  0  0  0
  -47.4530   17.1090   -5.6020 C   0  0  0  0  0
  -47.9290   16.0360   -6.2110 N   0  0  0  0  0
  -47.3310   15.9560   -7.4100 C   0  0  0  0  0
  -46.5060   16.9910   -7.5980 C   0  0  0  0  0
  -46.5510   17.7210   -6.4800 C   0  0  0  0  0
  -45.9110   18.8990   -6.1160 C   0  0  0  0  0
  -46.1580   19.4680   -4.8740 C   0  0  0  0  0
  -47.6150   14.8550   -8.4340 C   0  0  0  0  0
  -48.5070   14.0330   -8.1960 O   0  0  0  0  0
  -46.8650   14.9010   -9.5530 N   0  0  0  0  0
  -47.0230   14.0950  -10.6320 C   0  0  0  0  0
  -46.2130   14.2930  -11.7600 C   0  0  0  0  0
  -46.3710   13.5150  -12.9170 C   0  0  0  0  0
  -47.3700   12.5220  -12.9770 C   0  0  0  0  0
  -48.1740   12.3480  -11.8490 C   0  0  0  0  0
  -48.0100   13.1280  -10.7020 C   0  0  0  0  0
  -47.5440   11.7410  -14.1270 C   0  0  0  0  0
  -48.1860   10.3650  -14.0960 C   0  0  0  0  0
  -47.1370   12.2310  -15.2950 N   0  0  0  0  0
  -47.2120   11.6260  -16.3830 N   0  0  0  0  0
  -46.7910   12.2450  -17.5070 C   0  0  0  0  0
  -46.8680   11.6900  -18.7090 N   0  0  0  0  0
  -46.2840   13.4570  -17.4490 N   0  0  0  0  0
  -45.8650   14.0680  -18.6050 O   0  0  0  0  0
  -47.2429   19.3027   -3.0202 H   0  0  0  0  0
  -45.9130   17.1986   -8.4887 H   0  0  0  0  0
  -45.2149   19.3766   -6.8055 H   0  0  0  0  0
  -45.6527   20.3894   -4.5847 H   0  0  0  0  0
  -46.1201   15.5967   -9.5912 H   0  0  0  0  0
  -45.4455   15.0667  -11.7373 H   0  0  0  0  0
  -45.7178   13.6793  -13.7740 H   0  0  0  0  0
  -48.9504   11.5831  -11.8638 H   0  0  0  0  0
  -48.6700   12.9724   -9.8486 H   0  0  0  0  0
  -49.0790   10.3680  -14.7210 H   0  0  0  0  0
  -47.4787    9.6269  -14.4742 H   0  0  0  0  0
  -48.4594   10.1160  -13.0706 H   0  0  0  0  0
  -47.5857   10.6778  -16.4233 H   0  0  0  0  0
  -47.2592   10.7539  -18.8144 H   0  0  0  0  0
  -46.2028   13.9387  -16.5536 H   0  0  0  0  0
  -45.5226   14.9408  -18.3984 H   0  0  0  0  0
  1  2  2  0  0  0
  2  3  2  0  0  0
  2  4  1  0  0  0
  4  5  4  0  0  0
  4  6  4  0  0  0
  5 12  4  0  0  0
  6  7  4  0  0  0
  6 10  4  0  0  0
  7  8  4  0  0  0
  8  9  4  0  0  0
  8 13  1  0  0  0
  9 10  4  0  0  0
 10 11  4  0  0  0
 11 12  4  0  0  0
 13 14  2  0  0  0
 13 15  1  0  0  0
 15 16  1  0  0  0
 16 17  4  0  0  0
 16 21  4  0  0  0
 17 18  4  0  0  0
 18 19  4  0  0  0
 19 20  4  0  0  0
 19 22  1  0  0  0
 20 21  4  0  0  0
 22 23  1  0  0  0
 22 24  2  0  0  0
 24 25  1  0  0  0
 25 26  1  0  0  0
 26 27  2  0  0  0
 26 28  1  0  0  0
 28 29  1  0  0  0
  5 30  1  0  0  0
  9 31  1  0  0  0
 11 32  1  0  0  0
 12 33  1  0  0  0
 15 34  1  0  0  0
 17 35  1  0  0  0
 18 36  1  0  0  0
 20 37  1  0  0  0
 21 38  1  0  0  0
 23 39  1  0  0  0
 23 40  1  0  0  0
 23 41  1  0  0  0
 25 42  1  0  0  0
 27 43  1  0  0  0
 28 44  1  0  0  0
 29 45  1  0  0  0
M  END
$$$$
