3l4t_ligand
  -I-interpret- 

 43 43  0  0  0  0  0  0  0  0999 V2000
   41.3810   87.1480   31.3680 O   0  0  0  0  0
   43.0890   94.7440   36.0540 O   0  0  0  0  0
   43.1620   86.1780   33.4480 O   0  0  0  0  0
   47.8800   94.2930   34.0510 O   0  0  0  0  0
   44.6570   89.8960   32.0640 O   0  0  0  0  0
   46.8690   94.2400   36.6970 O   0  0  0  0  0
   45.3230   88.5870   36.8070 O   0  0  0  0  0
   43.7000   86.8590   36.2730 O   0  0  0  0  0
   46.0650   86.5100   35.9230 O   0  0  0  0  0
   41.7900   87.9280   32.5020 C   0  0  0  0  0
   43.6770   93.6370   36.7340 C   0  0  0  0  0
   45.7890   93.2480   33.3150 C   0  0  0  0  0
   44.7500   90.6850   34.3820 C   0  0  0  0  0
   44.9900   87.9200   34.4750 O   0  0  0  0  0
   43.1860   87.5070   32.8860 C   0  0  0  0  0
   46.8090   93.4260   34.4430 C   0  0  0  0  0
   43.9810   89.8790   33.3560 C   0  0  0  0  0
   45.9910   94.0990   35.5800 C   0  0  0  0  0
   44.8760   93.0740   35.8940 C   0  0  0  0  0
   43.7650   88.4540   33.9260 C   0  0  0  0  0
   44.4190   92.4650   34.2410 S   0  0  0  0  0
   45.0170   87.4590   35.8830 S   0  0  0  0  0
   40.4925   87.4032   31.1092 H   0  0  0  0  0
   42.3562   95.0841   36.5726 H   0  0  0  0  0
   44.0539   85.9178   33.6896 H   0  0  0  0  0
   48.4999   94.3831   34.7785 H   0  0  0  0  0
   44.1510   89.3794   31.4326 H   0  0  0  0  0
   46.3971   94.6542   37.4232 H   0  0  0  0  0
   43.4941   86.1305   35.6826 H   0  0  0  0  0
   41.1069   87.7637   33.3354 H   0  0  0  0  0
   41.7744   88.9888   32.2519 H   0  0  0  0  0
   42.9290   92.8549   36.8637 H   0  0  0  0  0
   44.0413   93.9642   37.7078 H   0  0  0  0  0
   46.1516   92.6634   32.4695 H   0  0  0  0  0
   45.5164   94.1724   32.8058 H   0  0  0  0  0
   45.8146   90.5229   34.2130 H   0  0  0  0  0
   44.4376   90.3588   35.3740 H   0  0  0  0  0
   43.8027   87.5280   31.9875 H   0  0  0  0  0
   47.2661   92.4788   34.7293 H   0  0  0  0  0
   43.0023   90.3208   33.1687 H   0  0  0  0  0
   45.5786   95.0768   35.3312 H   0  0  0  0  0
   45.2164   92.2804   36.5591 H   0  0  0  0  0
   43.0367   88.5414   34.7322 H   0  0  0  0  0
 10  1  1  0  0  0
 11  2  1  0  0  0
 15  3  1  0  0  0
 16  4  1  0  0  0
 17  5  1  0  0  0
 18  6  1  0  0  0
 22  7  2  0  0  0
 22  8  1  0  0  0
 22  9  2  0  0  0
 15 10  1  0  0  0
 19 11  1  0  0  0
 16 12  1  0  0  0
 12 21  1  0  0  0
 13 17  1  0  0  0
 21 13  1  0  0  0
 20 14  1  0  0  0
 14 22  1  0  0  0
 20 15  1  0  0  0
 18 16  1  0  0  0
 17 20  1  0  0  0
 18 19  1  0  0  0
 19 21  1  0  0  0
  1 23  1  0  0  0
  2 24  1  0  0  0
  3 25  1  0  0  0
  4 26  1  0  0  0
  5 27  1  0  0  0
  6 28  1  0  0  0
  8 29  1  0  0  0
 10 30  1  0  0  0
 10 31  1  0  0  0
 11 32  1  0  0  0
 11 33  1  0  0  0
 12 34  1  0  0  0
 12 35  1  0  0  0
 13 36  1  0  0  0
 13 37  1  0  0  0
 15 38  1  0  0  0
 16 39  1  0  0  0
 17 40  1  0  0  0
 18 41  1  0  0  0
 19 42  1  0  0  0
 20 43  1  0  0  0
M  END
$$$$
