### 
### Created by X-TOOL on Mon Sep 10 21:13:33 2018
### 

@<TRIPOS>MOLECULE
5wrs_ligand
   43    45     1     0     0
SMALL
GAST_HUCK


@<TRIPOS>ATOM
      1 PG        -38.7720   58.6880    6.1030 P.3       1 ATP         0.1879
      2 O1G       -39.9200   59.3150    5.3540 O.co2     1 ATP        -0.6091
      3 O2G       -39.0690   57.3010    6.6170 O.co2     1 ATP        -0.6091
      4 O3G       -37.4280   58.8290    5.4270 O.co2     1 ATP        -0.6091
      5 PB        -39.1540   59.1360    8.8710 P.3       1 ATP         0.3553
      6 O1B       -40.6580   59.2660    8.9100 O.co2     1 ATP        -0.5652
      7 O2B       -38.4960   57.8290    9.2430 O.co2     1 ATP        -0.5652
      8 O3B       -38.6230   59.5990    7.4220 O.3       1 ATP        -0.1546
      9 PA        -37.0080   60.7670    9.5040 P.3       1 ATP         0.3266
     10 O1A       -37.0850   62.0920    8.7840 O.co2     1 ATP        -0.5692
     11 O2A       -36.2420   59.6210    8.8860 O.co2     1 ATP        -0.5692
     12 O3A       -38.5140   60.2810    9.8020 O.3       1 ATP        -0.1171
     13 O5'       -36.3930   61.0110   10.9680 O.3       1 ATP        -0.2441
     14 C5'       -36.9810   61.9470   11.8620 C.3       1 ATP         0.1131
     15 C4'       -36.0900   62.0410   13.0910 C.3       1 ATP         0.1189
     16 O4'       -36.6610   62.9420   14.0390 O.3       1 ATP        -0.3364
     17 C3'       -35.9510   60.6980   13.7890 C.3       1 ATP         0.1149
     18 O3'       -34.7340   60.0450   13.4170 O.3       1 ATP        -0.3864
     19 C2'       -35.9550   61.0290   15.2670 C.3       1 ATP         0.1385
     20 O2'       -34.6170   61.0100   15.7730 O.3       1 ATP        -0.3836
     21 C1'       -36.5140   62.4380   15.3670 C.3       1 ATP         0.2010
     22 N9        -37.8460   62.3620   16.0110 N.pl3     1 ATP        -0.1919
     23 C8        -39.0220   62.2300   15.3670 C.2       1 ATP         0.1123
     24 N7        -40.0560   62.1880   16.2450 N.2       1 ATP        -0.2958
     25 C5        -39.5380   62.2940   17.4830 C.ar      1 ATP         0.1045
     26 C6        -40.0670   62.3200   18.8660 C.ar      1 ATP         0.1298
     27 N6        -41.3950   62.2200   19.1060 N.pl3     1 ATP        -0.3152
     28 N1        -39.1830   62.4470   19.8800 N.ar      1 ATP        -0.2698
     29 C2        -37.8600   62.5470   19.6570 C.ar      1 ATP         0.0533
     30 N3        -37.3090   62.5300   18.4300 N.ar      1 ATP        -0.2714
     31 C4        -38.0800   62.4080   17.3230 C.ar      1 ATP         0.1613
     32 H1        -37.9853   61.6058   12.1535 H         1 ATP         0.0648
     33 H2        -37.0546   62.9317   11.3773 H         1 ATP         0.0648
     34 H3        -35.0966   62.4005   12.7845 H         1 ATP         0.0651
     35 H4        -36.8014   60.0467   13.5389 H         1 ATP         0.0648
     36 H5        -33.9957   60.5913   13.6601 H         1 ATP         0.2100
     37 H6        -36.5803   60.3174   15.8261 H         1 ATP         0.0676
     38 H7        -34.2437   60.1457   15.6456 H         1 ATP         0.2101
     39 H8        -35.8416   63.0830   15.9517 H         1 ATP         0.0996
     40 H9        -39.1287   62.1655   14.2852 H         1 ATP         0.1349
     41 H10       -41.7463   62.2398   20.0740 H         1 ATP         0.1820
     42 H11       -42.0545   62.1241   18.3206 H         1 ATP         0.1820
     43 H12       -37.2022   62.6467   20.5128 H         1 ATP         0.0996
@<TRIPOS>BOND
     1    1    2 ar 
     2    1    3 ar 
     3    1    4 ar 
     4    8    1 1  
     5    5    6 ar 
     6    5    7 ar 
     7    5    8 1  
     8   12    5 1  
     9    9   10 ar 
    10    9   11 ar 
    11    9   12 1  
    12    9   13 1  
    13   13   14 1  
    14   14   15 1  
    15   15   16 1  
    16   15   17 1  
    17   16   21 1  
    18   17   18 1  
    19   17   19 1  
    20   19   20 1  
    21   19   21 1  
    22   21   22 1  
    23   22   23 1  
    24   22   31 1  
    25   23   24 2  
    26   24   25 1  
    27   25   26 ar 
    28   25   31 ar 
    29   26   27 1  
    30   26   28 ar 
    31   28   29 ar 
    32   29   30 ar 
    33   30   31 ar 
    34   14   32 1  
    35   14   33 1  
    36   15   34 1  
    37   17   35 1  
    38   18   36 1  
    39   19   37 1  
    40   20   38 1  
    41   21   39 1  
    42   23   40 1  
    43   27   41 1  
    44   27   42 1  
    45   29   43 1  
@<TRIPOS>SUBSTRUCTURE
     1 ATP         1

