5wrs_ligand
  -I-interpret- 

 47 49  0  0  0  0  0  0  0  0999 V2000
  -38.7720   58.6880    6.1030 P   0  0  0  0  0
  -39.9200   59.3150    5.3540 O   0  0  0  0  0
  -39.0690   57.3010    6.6170 O   0  0  0  0  0
  -37.4280   58.8290    5.4270 O   0  0  0  0  0
  -39.1540   59.1360    8.8710 P   0  0  0  0  0
  -40.6580   59.2660    8.9100 O   0  0  0  0  0
  -38.4960   57.8290    9.2430 O   0  0  0  0  0
  -38.6230   59.5990    7.4220 O   0  0  0  0  0
  -37.0080   60.7670    9.5040 P   0  0  0  0  0
  -37.0850   62.0920    8.7840 O   0  0  0  0  0
  -36.2420   59.6210    8.8860 O   0  0  0  0  0
  -38.5140   60.2810    9.8020 O   0  0  0  0  0
  -36.3930   61.0110   10.9680 O   0  0  0  0  0
  -36.9810   61.9470   11.8620 C   0  0  0  0  0
  -36.0900   62.0410   13.0910 C   0  0  0  0  0
  -36.6610   62.9420   14.0390 O   0  0  0  0  0
  -35.9510   60.6980   13.7890 C   0  0  0  0  0
  -34.7340   60.0450   13.4170 O   0  0  0  0  0
  -35.9550   61.0290   15.2670 C   0  0  0  0  0
  -34.6170   61.0100   15.7730 O   0  0  0  0  0
  -36.5140   62.4380   15.3670 C   0  0  0  0  0
  -37.8460   62.3620   16.0110 N   0  0  0  0  0
  -39.0220   62.2300   15.3670 C   0  0  0  0  0
  -40.0560   62.1880   16.2450 N   0  0  0  0  0
  -39.5380   62.2940   17.4830 C   0  0  0  0  0
  -40.0670   62.3200   18.8660 C   0  0  0  0  0
  -41.3950   62.2200   19.1060 N   0  0  0  0  0
  -39.1830   62.4470   19.8800 N   0  0  0  0  0
  -37.8600   62.5470   19.6570 C   0  0  0  0  0
  -37.3090   62.5300   18.4300 N   0  0  0  0  0
  -38.0800   62.4080   17.3230 C   0  0  0  0  0
  -38.3005   56.9618    7.0816 H   0  0  0  0  0
  -36.7547   58.4058    5.9647 H   0  0  0  0  0
  -40.9082   60.1546    8.6467 H   0  0  0  0  0
  -36.2897   58.8566    9.4648 H   0  0  0  0  0
  -37.9821   61.6218   12.1450 H   0  0  0  0  0
  -37.0692   62.9225   11.3837 H   0  0  0  0  0
  -35.1141   62.3836   12.7469 H   0  0  0  0  0
  -36.7540   60.0130   13.5168 H   0  0  0  0  0
  -34.6728   59.2016   13.8715 H   0  0  0  0  0
  -36.5425   60.3119   15.8404 H   0  0  0  0  0
  -34.6273   61.2205   16.7096 H   0  0  0  0  0
  -35.8576   63.0859   15.9479 H   0  0  0  0  0
  -39.1288   62.1655   14.2842 H   0  0  0  0  0
  -42.0481   62.1250   18.3283 H   0  0  0  0  0
  -41.7429   62.2396   20.0646 H   0  0  0  0  0
  -37.1985   62.6473   20.5175 H   0  0  0  0  0
  1  2  2  0  0  0
  1  3  1  0  0  0
  1  4  1  0  0  0
  8  1  1  0  0  0
  5  6  1  0  0  0
  5  7  2  0  0  0
  5  8  1  0  0  0
 12  5  1  0  0  0
  9 10  2  0  0  0
  9 11  1  0  0  0
  9 12  1  0  0  0
  9 13  1  0  0  0
 13 14  1  0  0  0
 14 15  1  0  0  0
 15 16  1  0  0  0
 15 17  1  0  0  0
 16 21  1  0  0  0
 17 18  1  0  0  0
 17 19  1  0  0  0
 19 20  1  0  0  0
 19 21  1  0  0  0
 21 22  1  0  0  0
 22 23  4  0  0  0
 22 31  4  0  0  0
 23 24  4  0  0  0
 24 25  4  0  0  0
 25 26  4  0  0  0
 25 31  4  0  0  0
 26 27  1  0  0  0
 26 28  4  0  0  0
 28 29  4  0  0  0
 29 30  4  0  0  0
 30 31  4  0  0  0
  3 32  1  0  0  0
  4 33  1  0  0  0
  6 34  1  0  0  0
 11 35  1  0  0  0
 14 36  1  0  0  0
 14 37  1  0  0  0
 15 38  1  0  0  0
 17 39  1  0  0  0
 18 40  1  0  0  0
 19 41  1  0  0  0
 20 42  1  0  0  0
 21 43  1  0  0  0
 23 44  1  0  0  0
 27 45  1  0  0  0
 27 46  1  0  0  0
 29 47  1  0  0  0
M  END
$$$$
