4abb_ligand
  -I-interpret- 

 21 22  0  0  0  0  0  0  0  0999 V2000
    1.2680  -15.3950   15.7530 C   0  0  0  0  0
    1.9540  -16.1940   18.4390 N   0  3  0  0  0
    1.1050  -14.6540   14.2090 S   0  0  0  0  0
    1.7750  -13.1340   14.7650 C   0  0  0  0  0
    2.1480  -13.2550   16.1330 C   0  0  0  0  0
    1.8680  -14.4890   16.6930 C   0  0  0  0  0
    2.0200  -11.9520   14.0810 C   0  0  0  0  0
    2.6010  -10.8140   14.7530 C   0  0  0  0  0
    2.1440  -14.7840   18.1170 C   0  0  0  0  0
    2.9120  -10.9230   16.0570 C   0  0  0  0  0
    2.7090  -12.1640   16.8330 C   0  0  0  0  0
    0.9581  -16.4136   15.9865 H   0  0  0  0  0
    2.1555  -16.3460   19.4273 H   0  0  0  0  0
    0.9888  -16.4593   18.2428 H   0  0  0  0  0
    2.5853  -16.7592   17.8712 H   0  0  0  0  0
    1.7705  -11.8817   13.0223 H   0  0  0  0  0
    2.7841   -9.8844   14.2140 H   0  0  0  0  0
    3.1843  -14.5289   18.3191 H   0  0  0  0  0
    1.4489  -14.2028   18.7230 H   0  0  0  0  0
    3.3334  -10.0555   16.5650 H   0  0  0  0  0
    2.9773  -12.2336   17.8872 H   0  0  0  0  0
  1  3  4  0  0  0
  6  1  4  0  0  0
  9  2  1  0  0  0
  4  3  4  0  0  0
  5  4  4  0  0  0
  4  7  4  0  0  0
  6  5  4  0  0  0
  5 11  4  0  0  0
  6  9  1  0  0  0
  7  8  4  0  0  0
  8 10  4  0  0  0
 10 11  4  0  0  0
  1 12  1  0  0  0
  2 13  1  0  0  0
  2 14  1  0  0  0
  2 15  1  0  0  0
  7 16  1  0  0  0
  8 17  1  0  0  0
  9 18  1  0  0  0
  9 19  1  0  0  0
 10 20  1  0  0  0
 11 21  1  0  0  0
M  END
$$$$
