4jfx_ligand
  -I-interpret- 

128129  0  0  0  0  0  0  0  0999 V2000
   39.1000  -52.5680  -62.3200 N   0  3  0  0  0
   39.6760  -51.9200  -61.1520 C   0  0  0  0  0
   40.4130  -52.8860  -60.2390 C   0  0  0  0  0
   40.1570  -54.0940  -60.2610 O   0  0  0  0  0
   41.3250  -52.3530  -59.4270 N   0  0  0  0  0
   42.1320  -53.1810  -58.5270 C   0  0  0  0  0
   41.9060  -52.9180  -57.0380 C   0  0  0  0  0
   42.7760  -53.2160  -56.2190 O   0  0  0  0  0
   43.6340  -53.0500  -58.8560 C   0  0  0  0  0
   44.2160  -51.6840  -58.4720 C   0  0  0  0  0
   43.4840  -50.7540  -58.1440 O   0  0  0  0  0
   45.5450  -51.5670  -58.5190 N   0  0  0  0  0
   40.7560  -52.3510  -56.6850 N   0  0  0  0  0
   40.4610  -52.0940  -55.2750 C   0  0  0  0  0
   38.9690  -52.1730  -54.9340 C   0  0  0  0  0
   38.1180  -52.0060  -55.8020 O   0  0  0  0  0
   41.0390  -50.7420  -54.8410 C   0  0  0  0  0
   40.3410  -49.5300  -55.4200 C   0  0  0  0  0
   39.1740  -49.0460  -54.8480 C   0  0  0  0  0
   40.8590  -48.8530  -56.5250 C   0  0  0  0  0
   38.5360  -47.9480  -55.3520 C   0  0  0  0  0
   40.2190  -47.7430  -57.0420 C   0  0  0  0  0
   39.0550  -47.2960  -56.4440 C   0  0  0  0  0
   38.3860  -46.1910  -56.9110 O   0  0  0  0  0
   38.6620  -52.4210  -53.6640 N   0  0  0  0  0
   37.2780  -52.3940  -53.1940 C   0  0  0  0  0
   37.0650  -51.2210  -52.2460 C   0  0  0  0  0
   38.0180  -50.6990  -51.6520 O   0  0  0  0  0
   36.8560  -53.7160  -52.5010 C   0  0  0  0  0
   36.8900  -54.8640  -53.4900 C   0  0  0  0  0
   37.7490  -54.0080  -51.3150 C   0  0  0  0  0
   35.8110  -50.7980  -52.1230 N   0  0  0  0  0
   35.4510  -49.6750  -51.2660 C   0  0  0  0  0
   34.4550  -50.1290  -50.1970 C   0  0  0  0  0
   34.6640  -49.9170  -48.9990 O   0  0  0  0  0
   34.8650  -48.4980  -52.0820 C   0  0  0  0  0
   34.2740  -47.4480  -51.1530 C   0  0  0  0  0
   35.9410  -47.8880  -52.9770 C   0  0  0  0  0
   33.3700  -50.7580  -50.6320 N   0  0  0  0  0
   32.4210  -51.3300  -49.6910 C   0  0  0  0  0
   32.8480  -52.7470  -49.3490 C   0  0  0  0  0
   32.6950  -53.6530  -50.1700 O   0  0  0  0  0
   30.9960  -51.3650  -50.2630 C   0  0  0  0  0
   30.6080  -50.0450  -50.6540 O   0  0  0  0  0
   30.0150  -51.9050  -49.2100 C   0  0  0  0  0
   33.3740  -52.9390  -48.1390 N   0  0  0  0  0
   33.8990  -54.2390  -47.7320 C   0  0  0  0  0
   33.6360  -54.3860  -46.2770 C   0  0  0  0  0
   34.2320  -53.6830  -45.4810 O   0  0  0  0  0
   35.3900  -54.4090  -47.9600 C   0  0  0  0  0
   35.9550  -55.8350  -47.9560 C   0  0  0  0  0
   36.5770  -56.3930  -46.8270 C   0  0  0  0  0
   35.8450  -56.5860  -49.1240 C   0  0  0  0  0
   37.0760  -57.7070  -46.8780 C   0  0  0  0  0
   36.3440  -57.8850  -49.1760 C   0  0  0  0  0
   36.9650  -58.4530  -48.0610 C   0  0  0  0  0
   37.4070  -59.7290  -48.1780 O   0  0  0  0  0
   38.5950  -60.3340  -47.3760 P   0  0  0  0  0
   38.1520  -60.5960  -45.9420 O   0  0  0  0  0
   38.9800  -61.6390  -48.0170 O   0  0  0  0  0
   39.7730  -59.3910  -47.4030 O   0  0  0  0  0
   32.7400  -55.3000  -45.9170 N   0  0  0  0  0
   32.4640  -55.5850  -44.5160 C   0  0  0  0  0
   33.5590  -56.4850  -43.9460 C   0  0  0  0  0
   34.1880  -56.1820  -42.9300 O   0  0  0  0  0
   31.0920  -56.2460  -44.3640 C   0  0  0  0  0
   33.8510  -57.5430  -44.5030 O   0  0  0  0  0
   38.6209  -51.8723  -62.8916 H   0  0  0  0  0
   39.8427  -53.0051  -62.8657 H   0  0  0  0  0
   38.4340  -53.2794  -62.0188 H   0  0  0  0  0
   38.8590  -51.4805  -60.5798 H   0  0  0  0  0
   40.3960  -51.1812  -61.5038 H   0  0  0  0  0
   41.4650  -51.3427  -59.4320 H   0  0  0  0  0
   41.7913  -54.2003  -58.7087 H   0  0  0  0  0
   43.7490  -53.1684  -59.9334 H   0  0  0  0  0
   44.1663  -53.8099  -58.2839 H   0  0  0  0  0
   45.9878  -50.6805  -58.2772 H   0  0  0  0  0
   46.1176  -52.3641  -58.7967 H   0  0  0  0  0
   40.0762  -52.0940  -57.4007 H   0  0  0  0  0
   40.9440  -52.8947  -54.7149 H   0  0  0  0  0
   42.0685  -50.7116  -55.1978 H   0  0  0  0  0
   40.9230  -50.6839  -53.7587 H   0  0  0  0  0
   38.7568  -49.5525  -53.9776 H   0  0  0  0  0
   41.7815  -49.2049  -56.9867 H   0  0  0  0  0
   37.6168  -47.5900  -54.8884 H   0  0  0  0  0
   40.6266  -47.2259  -57.9107 H   0  0  0  0  0
   38.8515  -45.8340  -57.6709 H   0  0  0  0  0
   39.4089  -52.6348  -53.0031 H   0  0  0  0  0
   36.6476  -52.2754  -54.0753 H   0  0  0  0  0
   35.8349  -53.6027  -52.1369 H   0  0  0  0  0
   36.2020  -54.6563  -54.3096 H   0  0  0  0  0
   37.9011  -54.9745  -53.8818 H   0  0  0  0  0
   36.5912  -55.7839  -52.9874 H   0  0  0  0  0
   38.7811  -54.1010  -51.6531 H   0  0  0  0  0
   37.6732  -53.1929  -50.5953 H   0  0  0  0  0
   37.4338  -54.9397  -50.8452 H   0  0  0  0  0
   35.0762  -51.2749  -52.6455 H   0  0  0  0  0
   36.3605  -49.3189  -50.7821 H   0  0  0  0  0
   34.0645  -48.8770  -52.7174 H   0  0  0  0  0
   33.4792  -47.8974  -50.5577 H   0  0  0  0  0
   35.0539  -47.0685  -50.4928 H   0  0  0  0  0
   33.8670  -46.6285  -51.7453 H   0  0  0  0  0
   36.7605  -47.5209  -52.3592 H   0  0  0  0  0
   36.3141  -48.6477  -53.6638 H   0  0  0  0  0
   35.5138  -47.0614  -53.5447 H   0  0  0  0  0
   33.2008  -50.8406  -51.6345 H   0  0  0  0  0
   32.4141  -50.7004  -48.8012 H   0  0  0  0  0
   30.9757  -52.0233  -51.1315 H   0  0  0  0  0
   29.7173  -50.0672  -51.0115 H   0  0  0  0  0
   30.3104  -52.9145  -48.9240 H   0  0  0  0  0
   30.0326  -51.2577  -48.3332 H   0  0  0  0  0
   29.0088  -51.9244  -49.6288 H   0  0  0  0  0
   33.4104  -52.1594  -47.4823 H   0  0  0  0  0
   33.4040  -54.9937  -48.3431 H   0  0  0  0  0
   35.8721  -53.9023  -47.1240 H   0  0  0  0  0
   35.5771  -54.0244  -48.9626 H   0  0  0  0  0
   36.6729  -55.8082  -45.9122 H   0  0  0  0  0
   35.3655  -56.1543  -50.0025 H   0  0  0  0  0
   37.5486  -58.1454  -45.9991 H   0  0  0  0  0
   36.2492  -58.4637  -50.0948 H   0  0  0  0  0
   37.9050  -59.7659  -45.5279 H   0  0  0  0  0
   39.5249  -58.5590  -46.9934 H   0  0  0  0  0
   32.2343  -55.8134  -46.6389 H   0  0  0  0  0
   32.4528  -54.6477  -43.9598 H   0  0  0  0  0
   33.8668  -55.3417  -42.5949 H   0  0  0  0  0
   30.3228  -55.5760  -44.7480 H   0  0  0  0  0
   31.0758  -57.1798  -44.9259 H   0  0  0  0  0
   30.9038  -56.4513  -43.3102 H   0  0  0  0  0
  1  2  1  0  0  0
  2  3  1  0  0  0
  3  4  2  0  0  0
  3  5  1  0  0  0
  5  6  1  0  0  0
  6  7  1  0  0  0
  6  9  1  0  0  0
  7  8  2  0  0  0
  7 13  1  0  0  0
  9 10  1  0  0  0
 10 11  2  0  0  0
 10 12  1  0  0  0
 13 14  1  0  0  0
 14 15  1  0  0  0
 14 17  1  0  0  0
 15 16  2  0  0  0
 15 25  1  0  0  0
 17 18  1  0  0  0
 18 19  4  0  0  0
 18 20  4  0  0  0
 19 21  4  0  0  0
 20 22  4  0  0  0
 21 23  4  0  0  0
 22 23  4  0  0  0
 23 24  1  0  0  0
 25 26  1  0  0  0
 26 27  1  0  0  0
 26 29  1  0  0  0
 27 28  2  0  0  0
 27 32  1  0  0  0
 29 30  1  0  0  0
 29 31  1  0  0  0
 32 33  1  0  0  0
 33 34  1  0  0  0
 33 36  1  0  0  0
 34 35  2  0  0  0
 34 39  1  0  0  0
 36 37  1  0  0  0
 36 38  1  0  0  0
 39 40  1  0  0  0
 40 41  1  0  0  0
 40 43  1  0  0  0
 41 42  2  0  0  0
 41 46  1  0  0  0
 43 44  1  0  0  0
 43 45  1  0  0  0
 46 47  1  0  0  0
 47 48  1  0  0  0
 47 50  1  0  0  0
 48 49  2  0  0  0
 48 62  1  0  0  0
 50 51  1  0  0  0
 51 52  4  0  0  0
 51 53  4  0  0  0
 52 54  4  0  0  0
 53 55  4  0  0  0
 54 56  4  0  0  0
 55 56  4  0  0  0
 56 57  1  0  0  0
 57 58  1  0  0  0
 58 59  1  0  0  0
 58 60  2  0  0  0
 58 61  1  0  0  0
 62 63  1  0  0  0
 63 64  1  0  0  0
 63 66  1  0  0  0
 64 65  1  0  0  0
 64 67  2  0  0  0
  1 68  1  0  0  0
  1 69  1  0  0  0
  1 70  1  0  0  0
  2 71  1  0  0  0
  2 72  1  0  0  0
  5 73  1  0  0  0
  6 74  1  0  0  0
  9 75  1  0  0  0
  9 76  1  0  0  0
 12 77  1  0  0  0
 12 78  1  0  0  0
 13 79  1  0  0  0
 14 80  1  0  0  0
 17 81  1  0  0  0
 17 82  1  0  0  0
 19 83  1  0  0  0
 20 84  1  0  0  0
 21 85  1  0  0  0
 22 86  1  0  0  0
 24 87  1  0  0  0
 25 88  1  0  0  0
 26 89  1  0  0  0
 29 90  1  0  0  0
 30 91  1  0  0  0
 30 92  1  0  0  0
 30 93  1  0  0  0
 31 94  1  0  0  0
 31 95  1  0  0  0
 31 96  1  0  0  0
 32 97  1  0  0  0
 33 98  1  0  0  0
 36 99  1  0  0  0
 37100  1  0  0  0
 37101  1  0  0  0
 37102  1  0  0  0
 38103  1  0  0  0
 38104  1  0  0  0
 38105  1  0  0  0
 39106  1  0  0  0
 40107  1  0  0  0
 43108  1  0  0  0
 44109  1  0  0  0
 45110  1  0  0  0
 45111  1  0  0  0
 45112  1  0  0  0
 46113  1  0  0  0
 47114  1  0  0  0
 50115  1  0  0  0
 50116  1  0  0  0
 52117  1  0  0  0
 53118  1  0  0  0
 54119  1  0  0  0
 55120  1  0  0  0
 59121  1  0  0  0
 61122  1  0  0  0
 62123  1  0  0  0
 63124  1  0  0  0
 65125  1  0  0  0
 66126  1  0  0  0
 66127  1  0  0  0
 66128  1  0  0  0
M  END
$$$$
