### 
### Created by X-TOOL on Mon Sep 10 21:13:12 2018
### 

@<TRIPOS>MOLECULE
4jfx_ligand
  125   126     1     0     0
SMALL
GAST_HUCK


@<TRIPOS>ATOM
      1 N          39.1000  -52.5680  -62.3200 N.4       1 GLY         0.2357
      2 CA         39.6760  -51.9200  -61.1520 C.3       1 GLY         0.0545
      3 C          40.4130  -52.8860  -60.2390 C.2       1 GLY         0.2238
      4 O          40.1570  -54.0940  -60.2610 O.2       1 GLY        -0.3910
      5 N          41.3250  -52.3530  -59.4270 N.am      1 ASN        -0.2591
      6 CA         42.1320  -53.1810  -58.5270 C.3       1 ASN         0.1477
      7 C          41.9060  -52.9180  -57.0380 C.2       1 ASN         0.2064
      8 O          42.7760  -53.2160  -56.2190 O.2       1 ASN        -0.3942
      9 CB         43.6340  -53.0500  -58.8560 C.3       1 ASN         0.0773
     10 CG         44.2160  -51.6840  -58.4720 C.2       1 ASN         0.1780
     11 OD1        43.4840  -50.7540  -58.1440 O.2       1 ASN        -0.3970
     12 ND2        45.5450  -51.5670  -58.5190 N.am      1 ASN        -0.3007
     13 N          40.7560  -52.3510  -56.6850 N.am      1 TYR        -0.2620
     14 CA         40.4610  -52.0940  -55.2750 C.3       1 TYR         0.1390
     15 C          38.9690  -52.1730  -54.9340 C.2       1 TYR         0.2057
     16 O          38.1180  -52.0060  -55.8020 O.2       1 TYR        -0.3942
     17 CB         41.0390  -50.7420  -54.8410 C.3       1 TYR         0.0163
     18 CG         40.3410  -49.5300  -55.4200 C.ar      1 TYR        -0.0493
     19 CD1        39.1740  -49.0460  -54.8480 C.ar      1 TYR        -0.0685
     20 CD2        40.8590  -48.8530  -56.5250 C.ar      1 TYR        -0.0685
     21 CE1        38.5360  -47.9480  -55.3520 C.ar      1 TYR        -0.0398
     22 CE2        40.2190  -47.7430  -57.0420 C.ar      1 TYR        -0.0398
     23 CZ         39.0550  -47.2960  -56.4440 C.ar      1 TYR         0.0805
     24 OH         38.3860  -46.1910  -56.9110 O.3       1 TYR        -0.3376
     25 N          38.6620  -52.4210  -53.6640 N.am      1 VAL        -0.2633
     26 CA         37.2780  -52.3940  -53.1940 C.3       1 VAL         0.1333
     27 C          37.0650  -51.2210  -52.2460 C.2       1 VAL         0.2042
     28 O          38.0180  -50.6990  -51.6520 O.2       1 VAL        -0.3944
     29 CB         36.8560  -53.7160  -52.5010 C.3       1 VAL        -0.0063
     30 CG1        36.8900  -54.8640  -53.4900 C.3       1 VAL        -0.0584
     31 CG2        37.7490  -54.0080  -51.3150 C.3       1 VAL        -0.0584
     32 N          35.8110  -50.7980  -52.1230 N.am      1 VAL        -0.2635
     33 CA         35.4510  -49.6750  -51.2660 C.3       1 VAL         0.1333
     34 C          34.4550  -50.1290  -50.1970 C.2       1 VAL         0.2042
     35 O          34.6640  -49.9170  -48.9990 O.2       1 VAL        -0.3944
     36 CB         34.8650  -48.4980  -52.0820 C.3       1 VAL        -0.0063
     37 CG1        34.2740  -47.4480  -51.1530 C.3       1 VAL        -0.0584
     38 CG2        35.9410  -47.8880  -52.9770 C.3       1 VAL        -0.0584
     39 N          33.3700  -50.7580  -50.6320 N.am      1 THR        -0.2613
     40 CA         32.4210  -51.3300  -49.6910 C.3       1 THR         0.1565
     41 C          32.8480  -52.7470  -49.3490 C.2       1 THR         0.2067
     42 O          32.6950  -53.6530  -50.1700 O.2       1 THR        -0.3943
     43 CB         30.9960  -51.3650  -50.2630 C.3       1 THR         0.0924
     44 OG1        30.6080  -50.0450  -50.6540 O.3       1 THR        -0.3874
     45 CG2        30.0150  -51.9050  -49.2100 C.3       1 THR        -0.0346
     46 N          33.3740  -52.9390  -48.1390 N.am      1 PTR        -0.2606
     47 CA         33.8990  -54.2390  -47.7320 C.3       1 PTR         0.1468
     48 C          33.6360  -54.3860  -46.2770 C.2       1 PTR         0.2069
     49 O          34.2320  -53.6830  -45.4810 O.2       1 PTR        -0.3941
     50 CB         35.3900  -54.4090  -47.9600 C.3       1 PTR         0.0400
     51 CG         35.9550  -55.8350  -47.9560 C.ar      1 PTR        -0.0004
     52 CD1        36.5770  -56.3930  -46.8270 C.ar      1 PTR        -0.0239
     53 CD2        35.8450  -56.5860  -49.1240 C.ar      1 PTR        -0.0239
     54 CE1        37.0760  -57.7070  -46.8780 C.ar      1 PTR         0.0115
     55 CE2        36.3440  -57.8850  -49.1760 C.ar      1 PTR         0.0115
     56 CZ         36.9650  -58.4530  -48.0610 C.ar      1 PTR         0.1728
     57 OH         37.4070  -59.7290  -48.1780 O.3       1 PTR        -0.2040
     58 P          38.5950  -60.3340  -47.3760 P.3       1 PTR         0.1348
     59 O1P        38.1520  -60.5960  -45.9420 O.co2     1 PTR        -0.6653
     60 O2P        38.9800  -61.6390  -48.0170 O.co2     1 PTR        -0.6653
     61 O3P        39.7730  -59.3910  -47.4030 O.co2     1 PTR        -0.6653
     62 N          32.7400  -55.3000  -45.9170 N.am      1 ALA        -0.2695
     63 CA         32.4640  -55.5850  -44.5160 C.3       1 ALA         0.0916
     64 C          33.5590  -56.4850  -43.9460 C.2       1 ALA         0.0598
     65 O          34.1880  -56.1820  -42.9300 O.co2     1 ALA        -0.5666
     66 CB         31.0920  -56.2460  -44.3640 C.3       1 ALA        -0.0300
     67 OXT        33.8510  -57.5430  -44.5030 O.co2     1 ALA        -0.5666
     68 H1         38.6262  -51.8813  -62.8857 H         1 GLY         0.2012
     69 H2         38.4416  -53.2713  -62.0236 H         1 GLY         0.2012
     70 H3         39.8331  -53.0003  -62.8601 H         1 GLY         0.2012
     71 H4         38.8656  -51.4457  -60.5791 H         1 GLY         0.1061
     72 H5         40.3841  -51.1500  -61.4920 H         1 GLY         0.1061
     73 H6         41.4622  -51.3625  -59.4319 H         1 ASN         0.1886
     74 H7         41.8402  -54.2249  -58.7141 H         1 ASN         0.0826
     75 H8         43.7698  -53.1970  -59.9376 H         1 ASN         0.0551
     76 H9         44.1820  -53.8307  -58.3081 H         1 ASN         0.0551
     77 H10        45.9793  -50.6988  -58.2790 H         1 ASN         0.1814
     78 H11        46.1062  -52.3476  -58.7942 H         1 ASN         0.1814
     79 H12        40.0895  -52.0990  -57.3867 H         1 TYR         0.1885
     80 H13        40.9676  -52.8769  -54.6915 H         1 TYR         0.0821
     81 H14        42.0942  -50.7075  -55.1498 H         1 TYR         0.0453
     82 H15        40.9756  -50.6803  -53.7446 H         1 TYR         0.0453
     83 H16        38.7591  -49.5497  -53.9824 H         1 TYR         0.0530
     84 H17        41.7765  -49.2030  -56.9842 H         1 TYR         0.0530
     85 H18        37.6218  -47.5920  -54.8909 H         1 TYR         0.0525
     86 H19        40.6244  -47.2288  -57.9059 H         1 TYR         0.0525
     87 H20        38.1241  -46.3382  -57.8123 H         1 TYR         0.2458
     88 H21        39.3943  -52.6306  -53.0161 H         1 VAL         0.1883
     89 H22        36.6291  -52.2516  -54.0707 H         1 VAL         0.0802
     90 H23        35.8243  -53.6023  -52.1369 H         1 VAL         0.0343
     91 H24        36.5886  -55.7930  -52.9839 H         1 VAL         0.0234
     92 H25        37.9100  -54.9766  -53.8862 H         1 VAL         0.0234
     93 H26        36.1960  -54.6557  -54.3176 H         1 VAL         0.0234
     94 H27        37.7103  -53.1642  -50.6104 H         1 VAL         0.0234
     95 H28        38.7835  -54.1496  -51.6610 H         1 VAL         0.0234
     96 H29        37.4024  -54.9224  -50.8113 H         1 VAL         0.0234
     97 H30        35.0906  -51.2656  -52.6353 H         1 VAL         0.1883
     98 H31        36.3632  -49.3214  -50.7633 H         1 VAL         0.0802
     99 H32        34.0595  -48.8856  -52.7230 H         1 VAL         0.0343
    100 H33        33.8629  -46.6203  -51.7496 H         1 VAL         0.0234
    101 H34        35.0601  -47.0641  -50.4862 H         1 VAL         0.0234
    102 H35        33.4717  -47.9003  -50.5516 H         1 VAL         0.0234
    103 H36        36.3521  -48.6653  -53.6380 H         1 VAL         0.0234
    104 H37        36.7464  -47.4744  -52.3523 H         1 VAL         0.0234
    105 H38        35.4998  -47.0849  -53.5856 H         1 VAL         0.0234
    106 H39        33.2041  -50.8390  -51.6148 H         1 THR         0.1884
    107 H40        32.4201  -50.7195  -48.7760 H         1 THR         0.0826
    108 H41        30.9768  -52.0240  -51.1435 H         1 THR         0.0639
    109 H42        31.2082  -49.7228  -51.3161 H         1 THR         0.2101
    110 H43        28.9991  -51.9251  -49.6315 H         1 THR         0.0257
    111 H44        30.0317  -51.2526  -48.3245 H         1 THR         0.0257
    112 H45        30.3120  -52.9238  -48.9205 H         1 THR         0.0257
    113 H46        33.4097  -52.1746  -47.4952 H         1 PTR         0.1886
    114 H47        33.3681  -55.0240  -48.2905 H         1 PTR         0.0840
    115 H48        35.9092  -53.8480  -47.1690 H         1 PTR         0.0584
    116 H49        35.6251  -53.9655  -48.9388 H         1 PTR         0.0584
    117 H50        36.6724  -55.8114  -45.9172 H         1 PTR         0.0703
    118 H51        35.3681  -56.1567  -49.9977 H         1 PTR         0.0703
    119 H52        37.5460  -58.1430  -46.0039 H         1 PTR         0.0736
    120 H53        36.2497  -58.4605  -50.0898 H         1 PTR         0.0736
    121 H54        32.2442  -55.8033  -46.6247 H         1 ALA         0.1875
    122 H55        32.4599  -54.6375  -43.9573 H         1 ALA         0.0723
    123 H56        30.9009  -56.4537  -43.3008 H         1 ALA         0.0270
    124 H57        31.0743  -57.1886  -44.9306 H         1 ALA         0.0270
    125 H58        30.3147  -55.5708  -44.7512 H         1 ALA         0.0270
@<TRIPOS>BOND
     1    1    2 1  
     2    2    3 1  
     3    3    4 2  
     4    3    5 am 
     5    5    6 1  
     6    6    7 1  
     7    6    9 1  
     8    7    8 2  
     9    7   13 am 
    10    9   10 1  
    11   10   11 2  
    12   10   12 am 
    13   13   14 1  
    14   14   15 1  
    15   14   17 1  
    16   15   16 2  
    17   15   25 am 
    18   17   18 1  
    19   18   19 ar 
    20   18   20 ar 
    21   19   21 ar 
    22   20   22 ar 
    23   21   23 ar 
    24   22   23 ar 
    25   23   24 1  
    26   25   26 1  
    27   26   27 1  
    28   26   29 1  
    29   27   28 2  
    30   27   32 am 
    31   29   30 1  
    32   29   31 1  
    33   32   33 1  
    34   33   34 1  
    35   33   36 1  
    36   34   35 2  
    37   34   39 am 
    38   36   37 1  
    39   36   38 1  
    40   39   40 1  
    41   40   41 1  
    42   40   43 1  
    43   41   42 2  
    44   41   46 am 
    45   43   44 1  
    46   43   45 1  
    47   46   47 1  
    48   47   48 1  
    49   47   50 1  
    50   48   49 2  
    51   48   62 am 
    52   50   51 1  
    53   51   52 ar 
    54   51   53 ar 
    55   52   54 ar 
    56   53   55 ar 
    57   54   56 ar 
    58   55   56 ar 
    59   56   57 1  
    60   57   58 1  
    61   58   59 ar 
    62   58   60 ar 
    63   58   61 ar 
    64   62   63 1  
    65   63   64 1  
    66   63   66 1  
    67   64   65 ar 
    68   64   67 ar 
    69    1   68 1  
    70    1   69 1  
    71    1   70 1  
    72    2   71 1  
    73    2   72 1  
    74    5   73 1  
    75    6   74 1  
    76    9   75 1  
    77    9   76 1  
    78   12   77 1  
    79   12   78 1  
    80   13   79 1  
    81   14   80 1  
    82   17   81 1  
    83   17   82 1  
    84   19   83 1  
    85   20   84 1  
    86   21   85 1  
    87   22   86 1  
    88   24   87 1  
    89   25   88 1  
    90   26   89 1  
    91   29   90 1  
    92   30   91 1  
    93   30   92 1  
    94   30   93 1  
    95   31   94 1  
    96   31   95 1  
    97   31   96 1  
    98   32   97 1  
    99   33   98 1  
   100   36   99 1  
   101   37  100 1  
   102   37  101 1  
   103   37  102 1  
   104   38  103 1  
   105   38  104 1  
   106   38  105 1  
   107   39  106 1  
   108   40  107 1  
   109   43  108 1  
   110   44  109 1  
   111   45  110 1  
   112   45  111 1  
   113   45  112 1  
   114   46  113 1  
   115   47  114 1  
   116   50  115 1  
   117   50  116 1  
   118   52  117 1  
   119   53  118 1  
   120   54  119 1  
   121   55  120 1  
   122   62  121 1  
   123   63  122 1  
   124   66  123 1  
   125   66  124 1  
   126   66  125 1  
@<TRIPOS>SUBSTRUCTURE
     1 GLY         1

