5a69_ligand
  -I-interpret- 

 45 46  0  0  0  0  0  0  0  0999 V2000
   -5.9190  -31.5920  -17.2190 C   0  0  0  0  0
   -4.3860  -31.5010  -17.4020 C   0  0  0  0  0
   -3.8040  -30.1350  -16.9290 C   0  0  0  0  0
   -4.8360  -29.1610  -17.3900 C   0  0  0  0  0
   -6.0590  -29.1950  -16.5920 C   0  0  0  0  0
   -7.0100  -28.0040  -16.8410 C   0  0  0  0  0
   -4.3100  -32.8270  -15.3350 C   0  0  0  0  0
   -3.6530  -33.9520  -14.5510 C   0  0  0  0  0
   -3.8380  -32.5900  -16.5590 N   0  0  0  0  0
   -2.4930  -29.7490  -17.4140 O   0  0  0  0  0
   -4.7710  -28.5820  -18.4550 O   0  0  0  0  0
   -6.6720  -30.3770  -17.0790 O   0  0  0  0  0
   -7.6110  -28.0230  -18.1420 O   0  0  0  0  0
   -5.2400  -32.1670  -14.8560 O   0  0  0  0  0
  -10.1270  -32.8150  -18.9690 N   0  0  0  0  0
   -8.8050  -32.8770  -19.1540 C   0  0  0  0  0
   -7.9620  -32.2400  -18.1560 O   0  0  0  0  0
   -8.2420  -33.4050  -20.1050 O   0  0  0  0  0
  -11.0710  -33.3660  -19.8370 C   0  0  0  0  0
  -10.9290  -33.2940  -21.2240 C   0  0  0  0  0
  -11.9120  -33.8560  -22.0470 C   0  0  0  0  0
  -13.0260  -34.4900  -21.4920 C   0  0  0  0  0
  -13.1670  -34.5540  -20.1110 C   0  0  0  0  0
  -12.1930  -33.9850  -19.2890 C   0  0  0  0  0
   -6.6210  -32.2520  -18.2700 N   0  3  0  0  0
   -5.8875  -32.1408  -16.2777 H   0  0  0  0  0
   -4.1221  -31.5893  -18.4559 H   0  0  0  0  0
   -3.6214  -30.1831  -15.8555 H   0  0  0  0  0
   -5.8447  -29.1552  -15.5240 H   0  0  0  0  0
   -6.4216  -27.0898  -16.7625 H   0  0  0  0  0
   -7.8125  -28.0631  -16.1058 H   0  0  0  0  0
   -3.2284  -33.5518  -13.6303 H   0  0  0  0  0
   -4.3993  -34.7088  -14.3094 H   0  0  0  0  0
   -2.8620  -34.3990  -15.1532 H   0  0  0  0  0
   -3.0830  -33.1710  -16.9235 H   0  0  0  0  0
   -1.8407  -30.3842  -17.1097 H   0  0  0  0  0
   -8.1886  -27.2622  -18.2376 H   0  0  0  0  0
  -10.4691  -32.3327  -18.1379 H   0  0  0  0  0
  -10.0596  -32.8041  -21.6625 H   0  0  0  0  0
  -11.8072  -33.7984  -23.1304 H   0  0  0  0  0
  -13.7822  -34.9331  -22.1400 H   0  0  0  0  0
  -14.0345  -35.0464  -19.6716 H   0  0  0  0  0
  -12.3112  -34.0252  -18.2062 H   0  0  0  0  0
   -6.3329  -33.2302  -18.2467 H   0  0  0  0  0
   -6.3950  -31.7550  -19.1316 H   0  0  0  0  0
  1  2  1  0  0  0
  1 12  1  0  0  0
 25  1  1  0  0  0
  2  3  1  0  0  0
  2  9  1  0  0  0
  3  4  1  0  0  0
  3 10  1  0  0  0
  5  4  1  0  0  0
  4 11  2  0  0  0
  5  6  1  0  0  0
 12  5  1  0  0  0
  6 13  1  0  0  0
  7  8  1  0  0  0
  9  7  1  0  0  0
  7 14  2  0  0  0
 16 15  1  0  0  0
 15 19  1  0  0  0
 17 16  1  0  0  0
 16 18  2  0  0  0
 17 25  1  0  0  0
 19 20  4  0  0  0
 19 24  4  0  0  0
 20 21  4  0  0  0
 21 22  4  0  0  0
 22 23  4  0  0  0
 23 24  4  0  0  0
  1 26  1  0  0  0
  2 27  1  0  0  0
  3 28  1  0  0  0
  5 29  1  0  0  0
  6 30  1  0  0  0
  6 31  1  0  0  0
  8 32  1  0  0  0
  8 33  1  0  0  0
  8 34  1  0  0  0
  9 35  1  0  0  0
 10 36  1  0  0  0
 13 37  1  0  0  0
 15 38  1  0  0  0
 20 39  1  0  0  0
 21 40  1  0  0  0
 22 41  1  0  0  0
 23 42  1  0  0  0
 24 43  1  0  0  0
 25 44  1  0  0  0
 25 45  1  0  0  0
M  END
$$$$
