6g9i_ligand
  -I-interpret- 

 46 48  0  0  0  0  0  0  0  0999 V2000
  -46.0460   13.5580   -5.7700 C   0  0  0  0  0
  -45.8490   14.0080   -7.0720 C   0  0  0  0  0
  -46.4530   13.3390   -8.1260 C   0  0  0  0  0
  -47.2500   12.2320   -7.8610 C   0  0  0  0  0
  -48.3360   10.5510   -6.4100 C   0  0  0  0  0
  -48.1290    9.7710   -5.1190 C   0  0  0  0  0
  -50.6370   10.8920   -2.4990 C   0  0  0  0  0
  -50.0230   12.0510   -2.0350 C   0  0  0  0  0
  -48.8050   12.4510   -2.5760 C   0  0  0  0  0
  -48.2020   11.6980   -3.5820 C   0  0  0  0  0
  -47.4470   11.7720   -6.5590 C   0  0  0  0  0
  -46.8430   12.4480   -5.4950 C   0  0  0  0  0
  -45.1790   11.2010   -1.0670 C   0  0  0  0  0
  -44.4840   10.1950    0.9890 C   0  0  0  0  0
  -50.0310   10.1390   -3.5000 C   0  0  0  0  0
  -48.8130   10.5500   -4.0300 C   0  0  0  0  0
  -45.7910   12.1730   -3.2880 C   0  0  0  0  0
  -45.7340   10.8970   -2.4530 C   0  0  0  0  0
  -43.3590    9.6390   -1.0610 C   0  0  0  0  0
  -46.9720   12.0860   -4.1390 N   0  0  0  0  0
  -44.6560    9.9730   -0.4540 N   0  3  0  0  0
  -44.8170   15.4460   -7.3890 Cl  0  0  0  0  0
  -45.5659   14.0858   -4.9460 H   0  0  0  0  0
  -46.3041   13.6779   -9.1512 H   0  0  0  0  0
  -47.7318   11.7117   -8.6888 H   0  0  0  0  0
  -49.3665   10.9061   -6.4057 H   0  0  0  0  0
  -48.0921    9.8774   -7.2315 H   0  0  0  0  0
  -47.0673    9.6514   -4.9032 H   0  0  0  0  0
  -48.5466    8.7674   -5.2000 H   0  0  0  0  0
  -51.5913   10.5743   -2.0790 H   0  0  0  0  0
  -50.4942   12.6434   -1.2507 H   0  0  0  0  0
  -48.3205   13.3569   -2.2116 H   0  0  0  0  0
  -45.9766   11.6020   -0.4417 H   0  0  0  0  0
  -44.3724   11.9288   -1.1557 H   0  0  0  0  0
  -43.7825   11.0139    1.1482 H   0  0  0  0  0
  -45.4465   10.4477    1.4337 H   0  0  0  0  0
  -44.0959    9.2874    1.4512 H   0  0  0  0  0
  -50.5091    9.2308   -3.8671 H   0  0  0  0  0
  -44.8905   12.2732   -3.8939 H   0  0  0  0  0
  -45.8495   13.0493   -2.6424 H   0  0  0  0  0
  -46.7402   10.4899   -2.3535 H   0  0  0  0  0
  -45.0841   10.1751   -2.9476 H   0  0  0  0  0
  -43.4895    9.4851   -2.1322 H   0  0  0  0  0
  -42.6590   10.4575   -0.8928 H   0  0  0  0  0
  -42.9704    8.7277   -0.6064 H   0  0  0  0  0
  -45.3073    9.2032   -0.6074 H   0  0  0  0  0
  1  2  4  0  0  0
 12  1  4  0  0  0
  2  3  4  0  0  0
  2 22  1  0  0  0
  4  3  4  0  0  0
 11  4  4  0  0  0
  5  6  1  0  0  0
 11  5  1  0  0  0
 16  6  1  0  0  0
  8  7  4  0  0  0
 15  7  4  0  0  0
  9  8  4  0  0  0
 10  9  4  0  0  0
 10 16  4  0  0  0
 20 10  1  0  0  0
 12 11  4  0  0  0
 20 12  1  0  0  0
 18 13  1  0  0  0
 13 21  1  0  0  0
 21 14  1  0  0  0
 16 15  4  0  0  0
 17 18  1  0  0  0
 17 20  1  0  0  0
 21 19  1  0  0  0
  1 23  1  0  0  0
  3 24  1  0  0  0
  4 25  1  0  0  0
  5 26  1  0  0  0
  5 27  1  0  0  0
  6 28  1  0  0  0
  6 29  1  0  0  0
  7 30  1  0  0  0
  8 31  1  0  0  0
  9 32  1  0  0  0
 13 33  1  0  0  0
 13 34  1  0  0  0
 14 35  1  0  0  0
 14 36  1  0  0  0
 14 37  1  0  0  0
 15 38  1  0  0  0
 17 39  1  0  0  0
 17 40  1  0  0  0
 18 41  1  0  0  0
 18 42  1  0  0  0
 19 43  1  0  0  0
 19 44  1  0  0  0
 19 45  1  0  0  0
 21 46  1  0  0  0
M  END
$$$$
