4eny_ligand
  -I-interpret- 

 37 39  0  0  0  0  0  0  0  0999 V2000
  -68.9440  122.3670    2.6510 C   0  0  0  0  0
  -64.9580  119.2810    4.5850 O   0  0  0  0  0
  -65.2360  118.9750    3.4460 C   0  0  0  0  0
  -64.5180  117.8920    2.8130 N   0  0  0  0  0
  -66.2890  119.6300    2.5910 C   0  0  0  0  0
  -66.2450  118.7650    1.0160 S   0  0  0  0  0
  -64.9100  117.6560    1.5800 C   0  0  0  0  0
  -64.4210  116.6990    0.7220 N   0  0  0  0  0
  -64.8520  116.4750   -0.6160 C   0  0  0  0  0
  -64.4820  117.3120   -1.6840 C   0  0  0  0  0
  -64.9190  117.0480   -2.9760 C   0  0  0  0  0
  -65.6750  115.3790   -0.9380 C   0  0  0  0  0
  -66.2010  114.2840    0.2770 Cl  0  0  0  0  0
  -66.1130  115.1130   -2.2290 C   0  0  0  0  0
  -65.7320  115.9580   -3.2590 C   0  0  0  0  0
  -67.1270  120.6580    2.8910 C   0  0  0  0  0
  -68.0440  121.4690    2.0510 C   0  0  0  0  0
  -69.8150  123.1440    1.8870 C   0  0  0  0  0
  -69.7980  123.0430    0.4850 C   0  0  0  0  0
  -70.6430  123.8000   -0.2800 O   0  0  0  0  0
  -68.9010  122.1500   -0.1220 C   0  0  0  0  0
  -68.0440  121.3840    0.6540 C   0  0  0  0  0
  -68.8680  122.0360   -1.4900 O   0  0  0  0  0
  -68.0870  120.9670   -2.0060 C   0  0  0  0  0
  -68.9616  122.4581    3.7370 H   0  0  0  0  0
  -63.6809  116.0936    1.0773 H   0  0  0  0  0
  -63.8457  118.1768   -1.4960 H   0  0  0  0  0
  -64.6169  117.7115   -3.7863 H   0  0  0  0  0
  -66.7485  114.2504   -2.4294 H   0  0  0  0  0
  -66.0663  115.7695   -4.2792 H   0  0  0  0  0
  -67.1252  120.9389    3.9442 H   0  0  0  0  0
  -70.5078  123.8285    2.3765 H   0  0  0  0  0
  -70.4953  123.6034   -1.2080 H   0  0  0  0  0
  -67.3530  120.6984    0.1635 H   0  0  0  0  0
  -67.0520  121.0875   -1.6861 H   0  0  0  0  0
  -68.4766  120.0204   -1.6315 H   0  0  0  0  0
  -68.1354  120.9760   -3.0949 H   0  0  0  0  0
 17  1  4  0  0  0
  1 18  4  0  0  0
  3  2  2  0  0  0
  3  4  1  0  0  0
  5  3  1  0  0  0
  7  4  2  0  0  0
  5  6  1  0  0  0
 16  5  2  0  0  0
  6  7  1  0  0  0
  7  8  1  0  0  0
  8  9  1  0  0  0
  9 10  4  0  0  0
  9 12  4  0  0  0
 10 11  4  0  0  0
 11 15  4  0  0  0
 12 13  1  0  0  0
 12 14  4  0  0  0
 14 15  4  0  0  0
 16 17  1  0  0  0
 17 22  4  0  0  0
 18 19  4  0  0  0
 19 20  1  0  0  0
 19 21  4  0  0  0
 21 22  4  0  0  0
 21 23  1  0  0  0
 23 24  1  0  0  0
  1 25  1  0  0  0
  8 26  1  0  0  0
 10 27  1  0  0  0
 11 28  1  0  0  0
 14 29  1  0  0  0
 15 30  1  0  0  0
 16 31  1  0  0  0
 18 32  1  0  0  0
 20 33  1  0  0  0
 22 34  1  0  0  0
 24 35  1  0  0  0
 24 36  1  0  0  0
 24 37  1  0  0  0
M  END
$$$$
