3okh_ligand
  -I-interpret- 

 67 71  0  0  0  0  0  0  0  0999 V2000
   19.6920   64.2510   11.7340 C   0  0  0  0  0
   21.0740   64.5030   11.6130 C   0  0  0  0  0
   21.9210   64.4820   12.7150 C   0  0  0  0  0
   19.1220   64.0120   12.9750 C   0  0  0  0  0
   19.9440   64.0120   14.1130 C   0  0  0  0  0
   21.3530   64.2800   13.9710 C   0  0  0  0  0
   21.9030   64.1930   15.2530 N   0  0  0  0  0
   20.8290   63.9860   16.1400 C   0  0  0  0  0
   19.6740   63.7790   15.4620 N   0  0  0  0  0
   21.0600   63.7900   17.5880 C   0  0  0  0  0
   23.2900   64.2470   15.6100 C   0  0  0  0  0
   23.8360   65.6920   15.4950 C   0  0  0  0  0
   24.2500   63.3920   14.7620 C   0  0  0  0  0
   23.8170   66.2970   14.3980 O   0  0  0  0  0
   24.3960   66.2250   16.6230 N   0  0  0  0  0
   25.1190   67.4730   16.5390 C   0  0  0  0  0
   21.6890   64.8370   10.3170 C   0  0  0  0  0
   21.3140   64.0880    9.2580 O   0  0  0  0  0
   22.5060   65.7390   10.0440 O   0  0  0  0  0
   20.6760   62.5760   18.2170 C   0  0  0  0  0
   20.9350   62.3680   19.5830 C   0  0  0  0  0
   21.6360   63.3420   20.3240 C   0  0  0  0  0
   22.0410   64.5420   19.6930 C   0  0  0  0  0
   21.7680   64.7540   18.3330 C   0  0  0  0  0
   25.6960   63.8380   15.0630 C   0  0  0  0  0
   26.7400   62.9070   14.5010 C   0  0  0  0  0
   26.4560   61.4820   14.9060 C   0  0  0  0  0
   25.0690   61.0650   14.4360 C   0  0  0  0  0
   23.9680   61.9230   15.0450 C   0  0  0  0  0
   26.6250   67.3300   16.2240 C   0  0  0  0  0
   27.1560   68.7000   15.8620 C   0  0  0  0  0
   26.9260   69.7050   16.9850 C   0  0  0  0  0
   25.4700   69.7610   17.4220 C   0  0  0  0  0
   24.8760   68.4010   17.7370 C   0  0  0  0  0
   21.9770   63.0450   21.9840 Cl  0  0  0  0  0
   19.0651   64.2440   10.8423 H   0  0  0  0  0
   22.9962   64.6193   12.6000 H   0  0  0  0  0
   18.0517   63.8269   13.0657 H   0  0  0  0  0
   23.2806   63.8518   16.6258 H   0  0  0  0  0
   24.1021   63.5308   13.6910 H   0  0  0  0  0
   24.3038   65.7445   17.5180 H   0  0  0  0  0
   24.6840   67.9573   15.6647 H   0  0  0  0  0
   20.6882   63.4194    9.5459 H   0  0  0  0  0
   20.1769   61.8000   17.6365 H   0  0  0  0  0
   20.5941   61.4541   20.0694 H   0  0  0  0  0
   22.5675   65.3053   20.2660 H   0  0  0  0  0
   22.1059   65.6706   17.8496 H   0  0  0  0  0
   25.8167   63.8509   16.1462 H   0  0  0  0  0
   25.8420   64.8133   14.5988 H   0  0  0  0  0
   27.7164   63.1962   14.8898 H   0  0  0  0  0
   26.7237   62.9744   13.4132 H   0  0  0  0  0
   26.5015   61.4052   15.9923 H   0  0  0  0  0
   27.1982   60.8276   14.4488 H   0  0  0  0  0
   24.9035   60.0333   14.7464 H   0  0  0  0  0
   25.0296   61.1841   13.3532 H   0  0  0  0  0
   23.0092   61.6471   14.6060 H   0  0  0  0  0
   23.9369   61.7612   16.1225 H   0  0  0  0  0
   26.7736   66.6365   15.3963 H   0  0  0  0  0
   27.1563   66.9358   17.0903 H   0  0  0  0  0
   26.6302   69.0497   14.9735 H   0  0  0  0  0
   28.2287   68.6186   15.6868 H   0  0  0  0  0
   27.2065   70.6921   16.6176 H   0  0  0  0  0
   27.5243   69.3963   17.8423 H   0  0  0  0  0
   24.8976   70.1837   16.5963 H   0  0  0  0  0
   25.4259   70.3555   18.3345 H   0  0  0  0  0
   25.3465   67.9874   18.6290 H   0  0  0  0  0
   23.8061   68.4965   17.9222 H   0  0  0  0  0
  1  2  4  0  0  0
  1  4  4  0  0  0
  2  3  4  0  0  0
  2 17  1  0  0  0
  3  6  4  0  0  0
  4  5  4  0  0  0
  5  6  4  0  0  0
  5  9  4  0  0  0
  6  7  4  0  0  0
  7  8  4  0  0  0
  7 11  1  0  0  0
  8  9  4  0  0  0
  8 10  1  0  0  0
 10 20  4  0  0  0
 10 24  4  0  0  0
 11 12  1  0  0  0
 11 13  1  0  0  0
 12 14  2  0  0  0
 12 15  1  0  0  0
 13 25  1  0  0  0
 13 29  1  0  0  0
 15 16  1  0  0  0
 16 30  1  0  0  0
 16 34  1  0  0  0
 17 18  1  0  0  0
 17 19  2  0  0  0
 20 21  4  0  0  0
 21 22  4  0  0  0
 22 23  4  0  0  0
 22 35  1  0  0  0
 23 24  4  0  0  0
 25 26  1  0  0  0
 26 27  1  0  0  0
 27 28  1  0  0  0
 28 29  1  0  0  0
 30 31  1  0  0  0
 31 32  1  0  0  0
 32 33  1  0  0  0
 33 34  1  0  0  0
  1 36  1  0  0  0
  3 37  1  0  0  0
  4 38  1  0  0  0
 11 39  1  0  0  0
 13 40  1  0  0  0
 15 41  1  0  0  0
 16 42  1  0  0  0
 18 43  1  0  0  0
 20 44  1  0  0  0
 21 45  1  0  0  0
 23 46  1  0  0  0
 24 47  1  0  0  0
 25 48  1  0  0  0
 25 49  1  0  0  0
 26 50  1  0  0  0
 26 51  1  0  0  0
 27 52  1  0  0  0
 27 53  1  0  0  0
 28 54  1  0  0  0
 28 55  1  0  0  0
 29 56  1  0  0  0
 29 57  1  0  0  0
 30 58  1  0  0  0
 30 59  1  0  0  0
 31 60  1  0  0  0
 31 61  1  0  0  0
 32 62  1  0  0  0
 32 63  1  0  0  0
 33 64  1  0  0  0
 33 65  1  0  0  0
 34 66  1  0  0  0
 34 67  1  0  0  0
M  END
$$$$
