5nkc_ligand
  -I-interpret- 

 54 57  0  0  0  0  0  0  0  0999 V2000
  -82.4520  -15.2930    1.5140 O   0  0  0  0  0
  -81.3260  -14.8110    1.2670 C   0  0  0  0  0
  -80.8820  -14.4870    0.1380 O   0  0  0  0  0
  -80.4210  -14.6190    2.4710 C   0  0  0  0  0
  -81.2740  -14.1530    3.6330 C   0  0  0  0  0
  -79.5270  -13.4230    2.2810 C   0  0  0  0  0
  -80.5550  -12.3090    2.2460 C   0  0  0  0  0
  -81.5030  -12.7230    3.3270 N   0  0  0  0  0
  -82.3370  -11.8290    3.8700 C   0  0  0  0  0
  -82.3080  -10.6640    3.4590 O   0  0  0  0  0
  -83.2500  -12.1720    4.8930 C   0  0  0  0  0
  -84.6110  -12.3120    4.6050 C   0  0  0  0  0
  -82.8440  -12.3250    6.2190 C   0  0  0  0  0
  -83.7670  -12.6160    7.2150 C   0  0  0  0  0
  -85.1210  -12.7400    6.9090 C   0  0  0  0  0
  -85.5480  -12.6040    5.5940 C   0  0  0  0  0
  -86.8290  -12.6710    5.1620 N   0  0  0  0  0
  -87.8590  -13.1720    5.8630 C   0  0  0  0  0
  -87.8890  -13.9550    7.3850 S   0  0  0  0  0
  -89.1200  -13.1090    5.3860 N   0  0  0  0  0
  -90.0660  -13.6730    6.1960 C   0  0  0  0  0
  -89.5900  -14.1910    7.3480 C   0  0  0  0  0
  -90.2440  -14.8260    8.3730 C   0  0  0  0  0
  -89.6080  -15.0700    9.3960 O   0  0  0  0  0
  -91.5380  -15.2070    8.2230 N   0  0  0  0  0
  -92.2140  -15.8520    9.2470 C   0  0  0  0  0
  -92.7250  -15.1240   10.3220 C   0  0  0  0  0
  -92.4860  -13.4100   10.4310 Cl  0  0  0  0  0
  -93.4340  -15.7840   11.3310 C   0  0  0  0  0
  -93.6460  -17.1650   11.2590 C   0  0  0  0  0
  -93.1500  -17.8990   10.1790 C   0  0  0  0  0
  -92.4380  -17.2280    9.1770 C   0  0  0  0  0
  -91.9480  -17.9560    8.0880 C   0  0  0  0  0
  -79.9907  -14.1431    0.2325 H   0  0  0  0  0
  -79.8796  -15.5537    2.6167 H   0  0  0  0  0
  -80.7918  -14.3060    4.5985 H   0  0  0  0  0
  -82.2013  -14.7178    3.7289 H   0  0  0  0  0
  -78.8973  -13.4751    1.3928 H   0  0  0  0  0
  -78.7703  -13.3057    3.0567 H   0  0  0  0  0
  -81.0338  -12.1951    1.2735 H   0  0  0  0  0
  -80.1245  -11.3204    2.4059 H   0  0  0  0  0
  -84.9491  -12.1890    3.5761 H   0  0  0  0  0
  -81.7905  -12.2149    6.4761 H   0  0  0  0  0
  -83.4301  -12.7483    8.2432 H   0  0  0  0  0
  -85.8433  -12.9432    7.6996 H   0  0  0  0  0
  -87.0281  -12.3118    4.2283 H   0  0  0  0  0
  -91.1231  -13.7021    5.9319 H   0  0  0  0  0
  -92.0198  -15.0161    7.3445 H   0  0  0  0  0
  -93.8235  -15.2193   12.1781 H   0  0  0  0  0
  -94.2008  -17.6706   12.0494 H   0  0  0  0  0
  -93.3142  -18.9748   10.1172 H   0  0  0  0  0
  -92.3836  -17.5676    7.1674 H   0  0  0  0  0
  -90.8630  -17.8599    8.0469 H   0  0  0  0  0
  -92.2169  -19.0059    8.2039 H   0  0  0  0  0
  1  2  2  0  0  0
  2  3  1  0  0  0
  2  4  1  0  0  0
  4  5  1  0  0  0
  4  6  1  0  0  0
  5  8  1  0  0  0
  6  7  1  0  0  0
  7  8  1  0  0  0
  8  9  1  0  0  0
  9 10  2  0  0  0
  9 11  1  0  0  0
 11 12  4  0  0  0
 11 13  4  0  0  0
 12 16  4  0  0  0
 13 14  4  0  0  0
 14 15  4  0  0  0
 15 16  4  0  0  0
 16 17  1  0  0  0
 17 18  1  0  0  0
 18 19  4  0  0  0
 18 20  4  0  0  0
 19 22  4  0  0  0
 20 21  4  0  0  0
 21 22  4  0  0  0
 22 23  1  0  0  0
 23 24  2  0  0  0
 23 25  1  0  0  0
 25 26  1  0  0  0
 26 27  4  0  0  0
 26 32  4  0  0  0
 27 28  1  0  0  0
 27 29  4  0  0  0
 29 30  4  0  0  0
 30 31  4  0  0  0
 31 32  4  0  0  0
 32 33  1  0  0  0
  3 34  1  0  0  0
  4 35  1  0  0  0
  5 36  1  0  0  0
  5 37  1  0  0  0
  6 38  1  0  0  0
  6 39  1  0  0  0
  7 40  1  0  0  0
  7 41  1  0  0  0
 12 42  1  0  0  0
 13 43  1  0  0  0
 14 44  1  0  0  0
 15 45  1  0  0  0
 17 46  1  0  0  0
 21 47  1  0  0  0
 25 48  1  0  0  0
 29 49  1  0  0  0
 30 50  1  0  0  0
 31 51  1  0  0  0
 33 52  1  0  0  0
 33 53  1  0  0  0
 33 54  1  0  0  0
M  END
$$$$
