6ciy_ligand
  -I-interpret- 

 89 95  0  0  0  0  0  0  0  0999 V2000
   -2.7570    7.7090   -4.7200 C   0  0  0  0  0
   -1.7500    8.3260   -3.7550 C   0  0  0  0  0
   -3.3740   10.2060   -3.7280 C   0  0  0  0  0
   -4.2020    9.0230   -3.2230 C   0  0  0  0  0
    1.0630    9.0190   -8.0470 C   0  0  0  0  0
   -0.9640   10.6270   -3.5190 C   0  0  0  0  0
    5.4300    7.5550    0.6700 C   0  0  0  0  0
    0.4190   10.2490   -3.9920 C   0  0  0  0  0
    0.6080    9.8570   -5.3290 C   0  0  0  0  0
    1.8720    9.4840   -5.7840 C   0  0  0  0  0
    3.0270    9.5090   -4.8610 C   0  0  0  0  0
    2.8130    9.9260   -3.5400 C   0  0  0  0  0
    1.5190   10.2830   -3.1170 C   0  0  0  0  0
    5.2790    8.5030   -4.8470 C   0  0  0  0  0
    7.2370    7.1970   -5.1530 C   0  0  0  0  0
    7.4710    7.1660   -3.7760 C   0  0  0  0  0
    6.4660    7.8590   -2.9310 C   0  0  0  0  0
    7.7510    8.4920   -1.0480 C   0  0  0  0  0
    7.6920    9.6080   -0.2110 C   0  0  0  0  0
   10.2380    8.5970   -0.8900 C   0  0  0  0  0
   10.3820    6.1840   -2.0830 O   0  0  0  0  0
    9.3640    6.8130   -2.3160 C   0  0  0  0  0
    8.5700    6.4340   -3.3100 N   0  0  0  0  0
    8.7890    5.1550   -3.9950 C   0  0  0  0  0
    6.1780    7.8720   -5.6360 N   0  0  0  0  0
    9.1060    7.9920   -1.4290 C   0  0  0  0  0
   10.1130    9.6870   -0.0360 C   0  0  0  0  0
    8.8560   10.1810    0.3000 C   0  0  0  0  0
    6.5220    8.0230   -1.5470 N   0  0  0  0  0
    5.2870    8.0920   -0.7530 C   0  0  0  0  0
    5.4430    8.5090   -3.5160 N   0  0  0  0  0
    4.2320    9.1570   -5.4080 N   0  0  0  0  0
   -4.1860    7.8620   -4.2120 C   0  0  0  0  0
    4.2510    7.0160   -1.0740 C   0  0  0  0  0
    4.2100    6.6700    0.4140 C   0  0  0  0  0
    2.1100    9.0860   -7.0800 O   0  0  0  0  0
   -1.1500   11.7150   -2.9950 O   0  0  0  0  0
   -1.9770    9.7720   -3.6750 N   0  0  0  0  0
   -4.6750    6.6190   -3.5690 N   0  3  0  0  0
   -6.1150    6.7350   -3.2680 C   0  0  0  0  0
   -6.6040    5.4820   -2.5380 C   0  0  0  0  0
   -6.3730    4.2870   -3.3740 N   0  3  0  0  0
   -4.9440    4.1770   -3.7220 C   0  0  0  0  0
   -4.4820    5.4450   -4.4420 C   0  0  0  0  0
   -6.8080    3.0870   -2.6390 C   0  0  0  0  0
   -2.5368    6.6457   -4.8147 H   0  0  0  0  0
   -2.6750    8.2219   -5.6783 H   0  0  0  0  0
   -0.7383    8.1352   -4.1129 H   0  0  0  0  0
   -1.8732    7.8826   -2.7669 H   0  0  0  0  0
   -3.5359   11.0920   -3.1141 H   0  0  0  0  0
   -3.6624   10.4861   -4.7412 H   0  0  0  0  0
   -5.2330    9.3536   -3.0973 H   0  0  0  0  0
   -3.7724    8.6792   -2.2821 H   0  0  0  0  0
    0.3016    8.3165   -7.7081 H   0  0  0  0  0
    0.6191   10.0070   -8.1690 H   0  0  0  0  0
    1.4713    8.6825   -9.0000 H   0  0  0  0  0
    5.4611    8.2323    1.5235 H   0  0  0  0  0
    6.3708    7.1255    1.0144 H   0  0  0  0  0
   -0.2394    9.8446   -6.0144 H   0  0  0  0  0
    3.6480    9.9737   -2.8410 H   0  0  0  0  0
    1.3656   10.5941   -2.0837 H   0  0  0  0  0
    7.9102    6.6760   -5.8339 H   0  0  0  0  0
    6.7235   10.0369    0.0463 H   0  0  0  0  0
   11.2277    8.2141   -1.1388 H   0  0  0  0  0
    7.9109    4.5216   -3.8687 H   0  0  0  0  0
    8.9576    5.3370   -5.0564 H   0  0  0  0  0
    9.6605    4.6596   -3.5670 H   0  0  0  0  0
   11.0064   10.1583    0.3736 H   0  0  0  0  0
    8.7799   11.0327    0.9760 H   0  0  0  0  0
    5.0439    9.1405   -0.9253 H   0  0  0  0  0
    4.3613    9.4271   -6.3831 H   0  0  0  0  0
   -4.8541    8.0608   -5.0500 H   0  0  0  0  0
    4.4538    6.2491   -1.8216 H   0  0  0  0  0
    3.3383    7.2620   -1.6168 H   0  0  0  0  0
    3.2943    6.8367    0.9813 H   0  0  0  0  0
    4.2266    5.6256    0.7254 H   0  0  0  0  0
   -4.1372    6.4921   -2.7116 H   0  0  0  0  0
   -6.6674    6.8429   -4.2014 H   0  0  0  0  0
   -6.2780    7.6052   -2.6322 H   0  0  0  0  0
   -7.6710    5.5779   -2.3370 H   0  0  0  0  0
   -6.0558    5.3758   -1.6019 H   0  0  0  0  0
   -6.9109    4.3702   -4.2366 H   0  0  0  0  0
   -4.7998    3.3190   -4.3786 H   0  0  0  0  0
   -4.3614    4.0502   -2.8096 H   0  0  0  0  0
   -3.4246    5.3520   -4.6897 H   0  0  0  0  0
   -5.0676    5.5745   -5.3522 H   0  0  0  0  0
   -6.2371    3.0020   -1.7143 H   0  0  0  0  0
   -7.8695    3.1702   -2.4058 H   0  0  0  0  0
   -6.6381    2.2038   -3.2548 H   0  0  0  0  0
  2  1  1  0  0  0
  1 33  1  0  0  0
 38  2  1  0  0  0
  3  4  1  0  0  0
 38  3  1  0  0  0
  4 33  1  0  0  0
 36  5  1  0  0  0
  8  6  1  0  0  0
  6 37  2  0  0  0
  6 38  1  0  0  0
 30  7  1  0  0  0
  7 35  1  0  0  0
  9  8  4  0  0  0
 13  8  4  0  0  0
 10  9  4  0  0  0
 11 10  4  0  0  0
 10 36  1  0  0  0
 11 12  4  0  0  0
 32 11  1  0  0  0
 12 13  4  0  0  0
 14 25  4  0  0  0
 31 14  4  0  0  0
 14 32  1  0  0  0
 16 15  4  0  0  0
 15 25  4  0  0  0
 17 16  4  0  0  0
 16 23  1  0  0  0
 29 17  1  0  0  0
 17 31  4  0  0  0
 18 19  4  0  0  0
 18 26  4  0  0  0
 29 18  1  0  0  0
 19 28  4  0  0  0
 26 20  4  0  0  0
 20 27  4  0  0  0
 22 21  2  0  0  0
 22 23  1  0  0  0
 26 22  1  0  0  0
 23 24  1  0  0  0
 28 27  4  0  0  0
 29 30  1  0  0  0
 30 34  1  0  0  0
 33 39  1  0  0  0
 34 35  1  0  0  0
 39 40  1  0  0  0
 39 44  1  0  0  0
 40 41  1  0  0  0
 41 42  1  0  0  0
 42 43  1  0  0  0
 42 45  1  0  0  0
 43 44  1  0  0  0
  1 46  1  0  0  0
  1 47  1  0  0  0
  2 48  1  0  0  0
  2 49  1  0  0  0
  3 50  1  0  0  0
  3 51  1  0  0  0
  4 52  1  0  0  0
  4 53  1  0  0  0
  5 54  1  0  0  0
  5 55  1  0  0  0
  5 56  1  0  0  0
  7 57  1  0  0  0
  7 58  1  0  0  0
  9 59  1  0  0  0
 12 60  1  0  0  0
 13 61  1  0  0  0
 15 62  1  0  0  0
 19 63  1  0  0  0
 20 64  1  0  0  0
 24 65  1  0  0  0
 24 66  1  0  0  0
 24 67  1  0  0  0
 27 68  1  0  0  0
 28 69  1  0  0  0
 30 70  1  0  0  0
 32 71  1  0  0  0
 33 72  1  0  0  0
 34 73  1  0  0  0
 34 74  1  0  0  0
 35 75  1  0  0  0
 35 76  1  0  0  0
 39 77  1  0  0  0
 40 78  1  0  0  0
 40 79  1  0  0  0
 41 80  1  0  0  0
 41 81  1  0  0  0
 42 82  1  0  0  0
 43 83  1  0  0  0
 43 84  1  0  0  0
 44 85  1  0  0  0
 44 86  1  0  0  0
 45 87  1  0  0  0
 45 88  1  0  0  0
 45 89  1  0  0  0
M  END
$$$$
