1pb8_ligand
  -I-interpret- 

 15 14  0  0  0  0  0  0  0  0999 V2000
   21.1060   41.7630   40.4690 N   0  3  0  0  0
   21.2850   40.3230   40.1650 C   0  0  0  0  0
   22.6950   40.0630   39.5830 C   0  0  0  0  0
   22.9860   38.8950   39.3030 O   0  0  0  0  0
   23.4230   41.0790   39.4360 O   0  0  0  0  0
   20.9860   39.4720   41.3850 C   0  0  0  0  0
   21.7150   39.8780   42.5080 O   0  0  0  0  0
   21.3123   42.3134   39.6354 H   0  0  0  0  0
   20.1426   41.9309   40.7590 H   0  0  0  0  0
   21.7404   42.0319   41.2211 H   0  0  0  0  0
   20.5670   40.0298   39.3991 H   0  0  0  0  0
   22.9477   41.8578   39.7347 H   0  0  0  0  0
   21.2637   38.4432   41.1557 H   0  0  0  0  0
   19.9255   39.5731   41.6159 H   0  0  0  0  0
   21.4944   39.3135   43.2525 H   0  0  0  0  0
  1  2  1  0  0  0
  2  3  1  0  0  0
  2  6  1  0  0  0
  3  4  2  0  0  0
  3  5  1  0  0  0
  6  7  1  0  0  0
  1  8  1  0  0  0
  1  9  1  0  0  0
  1 10  1  0  0  0
  2 11  1  0  0  0
  5 12  1  0  0  0
  6 13  1  0  0  0
  6 14  1  0  0  0
  7 15  1  0  0  0
M  END
$$$$
