6c0r_ligand
  -I-interpret- 

 71 75  0  0  0  0  0  0  0  0999 V2000
   52.7230  -27.7230   38.7740 C   0  0  0  0  0
   51.2410  -27.3910   38.9640 C   0  0  0  0  0
   50.2960  -28.2650   39.5460 C   0  0  0  0  0
   48.9210  -27.9570   39.7050 C   0  0  0  0  0
   47.9110  -28.8450   40.3520 C   0  0  0  0  0
   47.1100  -28.5670   41.4020 C   0  0  0  0  0
   46.2560  -29.5430   41.8790 C   0  0  0  0  0
   48.5280  -26.6890   39.2620 C   0  0  0  0  0
   49.4130  -25.7760   38.6740 C   0  0  0  0  0
   48.9120  -24.4340   38.1990 C   0  0  0  0  0
   50.7630  -26.1340   38.5080 C   0  0  0  0  0
   52.0500  -25.1960   36.7300 C   0  0  0  0  0
   52.2050  -26.2610   34.7290 C   0  0  0  0  0
   51.0230  -28.4870   34.2160 C   0  0  0  0  0
   51.6590  -29.4900   35.0830 C   0  0  0  0  0
   50.7170  -30.5680   35.3960 C   0  0  0  0  0
   49.0620  -32.0400   34.6210 C   0  0  0  0  0
   49.6200  -33.2900   35.1860 C   0  0  0  0  0
   50.8610  -33.7620   34.6910 C   0  0  0  0  0
   51.4310  -34.9330   35.1890 C   0  0  0  0  0
   50.8460  -35.7370   36.1920 C   0  0  0  0  0
   49.6220  -35.2190   36.6380 C   0  0  0  0  0
   49.0180  -34.0510   36.1700 C   0  0  0  0  0
   49.5790  -30.1390   33.1080 C   0  0  0  0  0
   50.5820  -29.0310   32.8880 C   0  0  0  0  0
   53.2960  -24.2640   34.9350 C   0  0  0  0  0
   54.1070  -23.1180   34.5660 C   0  0  0  0  0
   54.2360  -22.2270   35.5770 C   0  0  0  0  0
   52.8320  -24.1700   36.2650 C   0  0  0  0  0
   45.5330  -30.3730   42.3110 N   0  0  0  0  0
   51.7130  -26.2520   36.0050 N   0  0  0  0  0
   51.8710  -27.3550   33.9520 N   0  0  0  0  0
   50.1280  -31.1540   34.0830 N   0  3  0  0  0
   51.5770  -38.3240   35.5750 N   0  0  0  0  0
   52.9940  -25.3130   34.1360 N   0  0  0  0  0
   51.5790  -25.1670   37.9710 O   0  0  0  0  0
   52.9410  -36.9950   37.1610 O   0  0  0  0  0
   50.7800  -37.7290   37.8640 O   0  0  0  0  0
   51.5780  -37.2130   36.8040 S   0  0  0  0  0
   53.3860  -22.7360   36.9880 S   0  0  0  0  0
   53.1767  -27.9224   39.7448 H   0  0  0  0  0
   52.8182  -28.6039   38.1392 H   0  0  0  0  0
   53.2258  -26.8783   38.3032 H   0  0  0  0  0
   50.6456  -29.2368   39.8946 H   0  0  0  0  0
   47.8074  -29.8418   39.9233 H   0  0  0  0  0
   47.1365  -27.5825   41.8691 H   0  0  0  0  0
   47.4842  -26.3981   39.3800 H   0  0  0  0  0
   48.1443  -24.5823   37.4396 H   0  0  0  0  0
   48.4904  -23.8860   39.0416 H   0  0  0  0  0
   49.7408  -23.8679   37.7739 H   0  0  0  0  0
   50.1494  -28.1778   34.7899 H   0  0  0  0  0
   51.9698  -29.0103   36.0111 H   0  0  0  0  0
   52.5204  -29.9114   34.5648 H   0  0  0  0  0
   49.9068  -30.1709   36.0075 H   0  0  0  0  0
   51.2397  -31.3558   35.9384 H   0  0  0  0  0
   48.5418  -31.5065   35.4165 H   0  0  0  0  0
   48.3900  -32.3030   33.8041 H   0  0  0  0  0
   51.3768  -33.2023   33.9107 H   0  0  0  0  0
   52.3899  -35.2482   34.7777 H   0  0  0  0  0
   49.0981  -35.7750   37.4155 H   0  0  0  0  0
   48.0608  -33.7356   36.5853 H   0  0  0  0  0
   49.3768  -30.6312   32.1567 H   0  0  0  0  0
   48.6613  -29.7139   33.5146 H   0  0  0  0  0
   51.4453  -29.4229   32.3503 H   0  0  0  0  0
   50.1222  -28.2346   32.3029 H   0  0  0  0  0
   54.5617  -22.9892   33.5838 H   0  0  0  0  0
   54.8072  -21.3013   35.5075 H   0  0  0  0  0
   52.3023  -27.3605   33.0277 H   0  0  0  0  0
   50.8389  -31.6134   33.5138 H   0  0  0  0  0
   52.4586  -38.7037   35.2300 H   0  0  0  0  0
   50.6948  -38.6284   35.1634 H   0  0  0  0  0
  2  1  1  0  0  0
  2  3  4  0  0  0
 11  2  4  0  0  0
  3  4  4  0  0  0
  4  5  1  0  0  0
  8  4  4  0  0  0
  5  6  2  0  0  0
  6  7  1  0  0  0
  7 30  3  0  0  0
  9  8  4  0  0  0
  9 10  1  0  0  0
 11  9  4  0  0  0
 36 11  1  0  0  0
 29 12  4  0  0  0
 12 31  4  0  0  0
 12 36  1  0  0  0
 31 13  4  0  0  0
 13 32  1  0  0  0
 13 35  4  0  0  0
 14 15  1  0  0  0
 14 25  1  0  0  0
 32 14  1  0  0  0
 15 16  1  0  0  0
 16 33  1  0  0  0
 17 18  1  0  0  0
 33 17  1  0  0  0
 18 19  4  0  0  0
 18 23  4  0  0  0
 19 20  4  0  0  0
 20 21  4  0  0  0
 22 21  4  0  0  0
 21 39  1  0  0  0
 23 22  4  0  0  0
 25 24  1  0  0  0
 24 33  1  0  0  0
 26 27  4  0  0  0
 26 29  4  0  0  0
 26 35  4  0  0  0
 27 28  4  0  0  0
 28 40  4  0  0  0
 29 40  4  0  0  0
 39 34  1  0  0  0
 39 37  2  0  0  0
 39 38  2  0  0  0
  1 41  1  0  0  0
  1 42  1  0  0  0
  1 43  1  0  0  0
  3 44  1  0  0  0
  5 45  1  0  0  0
  6 46  1  0  0  0
  8 47  1  0  0  0
 10 48  1  0  0  0
 10 49  1  0  0  0
 10 50  1  0  0  0
 14 51  1  0  0  0
 15 52  1  0  0  0
 15 53  1  0  0  0
 16 54  1  0  0  0
 16 55  1  0  0  0
 17 56  1  0  0  0
 17 57  1  0  0  0
 19 58  1  0  0  0
 20 59  1  0  0  0
 22 60  1  0  0  0
 23 61  1  0  0  0
 24 62  1  0  0  0
 24 63  1  0  0  0
 25 64  1  0  0  0
 25 65  1  0  0  0
 27 66  1  0  0  0
 28 67  1  0  0  0
 32 68  1  0  0  0
 33 69  1  0  0  0
 34 70  1  0  0  0
 34 71  1  0  0  0
M  END
$$$$
