3zi0_ligand
  -I-interpret- 

 50 52  0  0  0  0  0  0  0  0999 V2000
   39.2970   21.9940   23.7130 C   0  0  0  0  0
   39.9430   21.5760   24.8150 N   0  0  0  0  0
   38.0950   21.7940   23.5360 O   0  0  0  0  0
   45.8090   24.4220   24.3370 Cl  0  0  0  0  0
   41.3770   21.8070   25.0930 C   0  0  0  0  0
   40.7400   25.1810   24.8160 N   0  0  0  0  0
   39.2020   20.9370   25.7630 O   0  0  0  0  0
   45.9070   24.3710   21.1930 Cl  0  0  0  0  0
   42.1650   20.5140   25.4150 C   0  0  0  0  0
   41.8860   25.5970   24.6300 N   0  0  0  0  0
   42.9440   20.0230   24.1780 C   0  0  0  0  0
   41.6890   25.1010   26.7190 N   0  0  0  0  0
   43.7270   21.1380   23.4560 C   0  0  0  0  0
   44.3620   22.1640   24.1550 C   0  0  0  0  0
   45.0300   23.1590   23.4530 C   0  0  0  0  0
   45.0710   23.1310   22.0580 C   0  0  0  0  0
   44.4420   22.1060   21.3510 C   0  0  0  0  0
   43.7670   21.1150   22.0640 C   0  0  0  0  0
   40.0830   22.7420   22.6150 C   0  0  0  0  0
   40.2430   24.1380   22.6520 C   0  0  0  0  0
   40.9500   24.7620   21.6170 C   0  0  0  0  0
   41.4790   24.0250   20.5530 C   0  0  0  0  0
   41.2980   22.6510   20.5170 C   0  0  0  0  0
   40.5980   22.0110   21.5420 C   0  0  0  0  0
   39.7150   25.0540   23.7650 C   0  0  0  0  0
   42.5290   25.5690   25.7970 C   0  0  0  0  0
   40.5420   24.8570   26.0910 C   0  0  0  0  0
   44.0080   18.5480   24.5010 P   0  0  0  0  0
   43.7730   17.9210   25.9560 O   0  0  0  0  0
   43.2510   17.5390   23.5040 O   0  0  0  0  0
   45.4380   18.6500   24.1070 O   0  0  0  0  0
   41.4391   22.4530   25.9687 H   0  0  0  0  0
   41.8170   22.2417   24.1954 H   0  0  0  0  0
   38.2960   20.8533   25.4567 H   0  0  0  0  0
   41.4599   19.7392   25.7159 H   0  0  0  0  0
   42.8743   20.7255   26.2151 H   0  0  0  0  0
   42.1633   19.6952   23.4916 H   0  0  0  0  0
   44.3343   22.1850   25.2444 H   0  0  0  0  0
   44.4773   22.0799   20.2619 H   0  0  0  0  0
   43.2643   20.3122   21.5247 H   0  0  0  0  0
   41.0907   25.8426   21.6412 H   0  0  0  0  0
   42.0297   24.5272   19.7576 H   0  0  0  0  0
   41.7023   22.0699   19.6882 H   0  0  0  0  0
   40.4522   20.9314   21.5043 H   0  0  0  0  0
   39.4902   26.0377   23.3529 H   0  0  0  0  0
   38.8067   24.6267   24.1899 H   0  0  0  0  0
   43.5611   25.8753   25.9672 H   0  0  0  0  0
   39.6239   24.4693   26.5326 H   0  0  0  0  0
   42.8315   17.8868   26.1402 H   0  0  0  0  0
   42.3276   17.4728   23.7579 H   0  0  0  0  0
  1  2  1  0  0  0
  1  3  2  0  0  0
 19  1  1  0  0  0
  2  5  1  0  0  0
  2  7  1  0  0  0
 15  4  1  0  0  0
  5  9  1  0  0  0
  6 10  4  0  0  0
 25  6  1  0  0  0
  6 27  4  0  0  0
 16  8  1  0  0  0
  9 11  1  0  0  0
 10 26  4  0  0  0
 11 13  1  0  0  0
 11 28  1  0  0  0
 12 26  4  0  0  0
 27 12  4  0  0  0
 13 14  4  0  0  0
 13 18  4  0  0  0
 14 15  4  0  0  0
 15 16  4  0  0  0
 17 16  4  0  0  0
 18 17  4  0  0  0
 20 19  4  0  0  0
 19 24  4  0  0  0
 20 21  4  0  0  0
 20 25  1  0  0  0
 21 22  4  0  0  0
 22 23  4  0  0  0
 23 24  4  0  0  0
 28 29  1  0  0  0
 28 30  1  0  0  0
 28 31  2  0  0  0
  5 32  1  0  0  0
  5 33  1  0  0  0
  7 34  1  0  0  0
  9 35  1  0  0  0
  9 36  1  0  0  0
 11 37  1  0  0  0
 14 38  1  0  0  0
 17 39  1  0  0  0
 18 40  1  0  0  0
 21 41  1  0  0  0
 22 42  1  0  0  0
 23 43  1  0  0  0
 24 44  1  0  0  0
 25 45  1  0  0  0
 25 46  1  0  0  0
 26 47  1  0  0  0
 27 48  1  0  0  0
 29 49  1  0  0  0
 30 50  1  0  0  0
M  END
$$$$
