### 
### Created by X-TOOL on Mon Sep 10 21:13:07 2018
### 

@<TRIPOS>MOLECULE
2y2p_ligand
   36    37     1     0     0
SMALL
GAST_HUCK


@<TRIPOS>ATOM
      1 F15        43.4540   66.4840   42.0610 F         1 Z10        -0.1774
      2 C14        44.3640   66.0410   41.1720 C.ar      1 Z10         0.1534
      3 C13        45.6160   65.6420   41.6330 C.ar      1 Z10        -0.0223
      4 C12        46.5800   65.1800   40.7400 C.ar      1 Z10        -0.0588
      5 C11        46.3000   65.1340   39.3790 C.ar      1 Z10        -0.0528
      6 C8         45.0520   65.5550   38.9150 C.ar      1 Z10        -0.0006
      7 C10        44.7400   65.4170   37.4750 C.ar      1 Z10        -0.0151
      8 C21        45.4100   66.1770   36.5180 C.ar      1 Z10        -0.0530
      9 C20        45.1270   65.9880   35.1650 C.ar      1 Z10        -0.0604
     10 C19        44.1880   65.0330   34.7720 C.ar      1 Z10        -0.0611
     11 C18        43.5480   64.2530   35.7300 C.ar      1 Z10        -0.0604
     12 C17        43.8410   64.4280   37.0800 C.ar      1 Z10        -0.0530
     13 C7         44.0790   65.9830   39.8060 C.ar      1 Z10         0.0874
     14 C5         42.7660   66.4570   39.2490 C.2       1 Z10         0.1756
     15 O6         42.7120   67.6090   38.8380 O.2       1 Z10        -0.3903
     16 N4         41.7380   65.6150   39.1760 N.am      1 Z10        -0.4387
     17 C3         40.4280   65.9640   38.6130 C.3       1 Z10        -0.2301
     18 C16        39.5520   66.5530   39.7160 C.3       1 Z10        -0.1732
     19 B          39.7930   64.7810   37.9620 B         1 Z10         3.0000
     20 O1         40.0920   63.4610   38.7380 O.3       1 Z10        -0.8710
     21 O2         40.4070   64.6320   36.5460 O.3       1 Z10        -0.8710
     22 H          45.8428   65.6915   42.6980 H         1 Z10         0.0615
     23 H          47.5531   64.8548   41.1080 H         1 Z10         0.0642
     24 H          47.0511   64.7710   38.6774 H         1 Z10         0.0601
     25 H          46.1511   66.9150   36.8249 H         1 Z10         0.0630
     26 H          45.6403   66.5875   34.4132 H         1 Z10         0.0620
     27 H          43.9563   64.8984   33.7155 H         1 Z10         0.0623
     28 H          42.8170   63.5047   35.4237 H         1 Z10         0.0620
     29 H          43.3674   63.7917   37.8276 H         1 Z10         0.0630
     30 H          41.8684   64.6686   39.5334 H         1 Z10         0.1452
     31 H          40.5526   66.7150   37.8329 H         1 Z10        -0.1825
     32 H          39.4265   65.8172   40.5104 H         1 Z10        -0.0100
     33 H          40.0289   67.4466   40.1187 H         1 Z10        -0.0100
     34 H          38.5774   66.8142   39.3036 H         1 Z10        -0.0100
     35 H          41.0417   63.3320   38.7937 H         1 Z10        -0.1290
     36 H          40.2400   65.4307   36.0404 H         1 Z10        -0.1290
@<TRIPOS>BOND
     1    1    2 1  
     2    2    3 ar 
     3    2   13 ar 
     4    3    4 ar 
     5    4    5 ar 
     6    5    6 ar 
     7    6    7 1  
     8    6   13 ar 
     9    7    8 ar 
    10    7   12 ar 
    11    8    9 ar 
    12    9   10 ar 
    13   10   11 ar 
    14   11   12 ar 
    15   13   14 1  
    16   14   15 2  
    17   14   16 am 
    18   16   17 1  
    19   17   18 1  
    20   17   19 1  
    21   19   20 1  
    22   19   21 1  
    23    3   22 1  
    24    4   23 1  
    25    5   24 1  
    26    8   25 1  
    27    9   26 1  
    28   10   27 1  
    29   11   28 1  
    30   12   29 1  
    31   16   30 1  
    32   17   31 1  
    33   18   32 1  
    34   18   33 1  
    35   18   34 1  
    36   20   35 1  
    37   21   36 1  
@<TRIPOS>SUBSTRUCTURE
     1 Z10         1

