3zyb_ligand
  -I-interpret- 

 60 60  0  0  0  0  0  0  0  0999 V2000
    5.3150  -18.9740   -6.9140 N   0  3  0  0  0
    3.9350  -18.9440   -6.4450 C   0  0  0  0  0
    3.0690  -18.0680   -7.3410 C   0  0  0  0  0
    3.5310  -17.0520   -7.8580 O   0  0  0  0  0
    3.8640  -18.4330   -5.0040 C   0  0  0  0  0
    4.6070  -19.2880   -3.9870 C   0  0  0  0  0
    6.0740  -18.9020   -3.8970 C   0  0  0  0  0
    6.7010  -19.4490   -2.6230 C   0  0  0  0  0
    5.9900  -18.9740   -1.3920 N   0  3  0  0  0
    1.7980  -18.4580   -7.5170 N   0  0  0  0  0
    0.8510  -17.7010   -8.3430 C   0  0  0  0  0
    0.5860  -16.3110   -7.7730 C   0  0  0  0  0
    0.6790  -16.1110   -6.5610 O   0  0  0  0  0
   -0.4230  -18.5510   -8.2790 C   0  0  0  0  0
   -0.2930  -19.3400   -7.0170 C   0  0  0  0  0
    1.1700  -19.6370   -6.8960 C   0  0  0  0  0
    0.2600  -15.3620   -8.6430 N   0  0  0  0  0
   -0.0110  -13.9970   -8.2100 C   0  0  0  0  0
   -1.4580  -13.8410   -7.7510 C   0  0  0  0  0
   -2.3870  -14.2840   -8.4290 O   0  0  0  0  0
    0.3020  -13.0050   -9.3320 C   0  0  0  0  0
    1.7320  -13.0520   -9.8730 C   0  0  0  0  0
    1.9310  -12.0060  -10.9590 C   0  0  0  0  0
    2.7410  -12.8640   -8.7480 C   0  0  0  0  0
   -1.6410  -13.2110   -6.5950 N   0  0  0  0  0
    5.3391  -19.3169   -7.8743 H   0  0  0  0  0
    5.7056  -18.0324   -6.8780 H   0  0  0  0  0
    5.8625  -19.5936   -6.3167 H   0  0  0  0  0
    3.5540  -19.9646   -6.4812 H   0  0  0  0  0
    2.8126  -18.4409   -4.7166 H   0  0  0  0  0
    4.3328  -17.4490   -4.9934 H   0  0  0  0  0
    4.5437  -20.3298   -4.3011 H   0  0  0  0  0
    4.1501  -19.1352   -3.0093 H   0  0  0  0  0
    6.1508  -17.8148   -3.8872 H   0  0  0  0  0
    6.6003  -19.3205   -4.7549 H   0  0  0  0  0
    7.7320  -19.0986   -2.5753 H   0  0  0  0  0
    6.6362  -20.5366   -2.6534 H   0  0  0  0  0
    6.4440  -19.3648   -0.5664 H   0  0  0  0  0
    6.0265  -17.9555   -1.3514 H   0  0  0  0  0
    5.0174  -19.2796   -1.4233 H   0  0  0  0  0
    1.2224  -17.5363   -9.3544 H   0  0  0  0  0
   -0.5246  -19.1959   -9.1519 H   0  0  0  0  0
   -1.3222  -17.9349   -8.2813 H   0  0  0  0  0
   -0.8896  -20.2517   -7.0468 H   0  0  0  0  0
   -0.6662  -18.7878   -6.1545 H   0  0  0  0  0
    1.4866  -19.7909   -5.8644 H   0  0  0  0  0
    1.4535  -20.5716   -7.3800 H   0  0  0  0  0
    0.1980  -15.5932   -9.6345 H   0  0  0  0  0
    0.6377  -13.7807   -7.3612 H   0  0  0  0  0
    0.1613  -12.0085   -8.9133 H   0  0  0  0  0
   -0.3533  -13.2613  -10.1645 H   0  0  0  0  0
    1.8971  -14.0347  -10.3147 H   0  0  0  0  0
    1.2376  -12.1978  -11.7778 H   0  0  0  0  0
    1.7425  -11.0150  -10.5461 H   0  0  0  0  0
    2.9551  -12.0582  -11.3286 H   0  0  0  0  0
    2.5761  -11.8977   -8.2715 H   0  0  0  0  0
    2.6160  -13.6591   -8.0129 H   0  0  0  0  0
    3.7506  -12.9012   -9.1572 H   0  0  0  0  0
   -2.5844  -13.0758   -6.2316 H   0  0  0  0  0
   -0.8380  -12.8627   -6.0713 H   0  0  0  0  0
  1  2  1  0  0  0
  2  3  1  0  0  0
  2  5  1  0  0  0
  3  4  2  0  0  0
  3 10  1  0  0  0
  5  6  1  0  0  0
  6  7  1  0  0  0
  7  8  1  0  0  0
  8  9  1  0  0  0
 10 11  1  0  0  0
 10 16  1  0  0  0
 11 12  1  0  0  0
 11 14  1  0  0  0
 12 13  2  0  0  0
 12 17  1  0  0  0
 14 15  1  0  0  0
 15 16  1  0  0  0
 17 18  1  0  0  0
 18 19  1  0  0  0
 18 21  1  0  0  0
 19 20  2  0  0  0
 19 25  1  0  0  0
 21 22  1  0  0  0
 22 23  1  0  0  0
 22 24  1  0  0  0
  1 26  1  0  0  0
  1 27  1  0  0  0
  1 28  1  0  0  0
  2 29  1  0  0  0
  5 30  1  0  0  0
  5 31  1  0  0  0
  6 32  1  0  0  0
  6 33  1  0  0  0
  7 34  1  0  0  0
  7 35  1  0  0  0
  8 36  1  0  0  0
  8 37  1  0  0  0
  9 38  1  0  0  0
  9 39  1  0  0  0
  9 40  1  0  0  0
 11 41  1  0  0  0
 14 42  1  0  0  0
 14 43  1  0  0  0
 15 44  1  0  0  0
 15 45  1  0  0  0
 16 46  1  0  0  0
 16 47  1  0  0  0
 17 48  1  0  0  0
 18 49  1  0  0  0
 21 50  1  0  0  0
 21 51  1  0  0  0
 22 52  1  0  0  0
 23 53  1  0  0  0
 23 54  1  0  0  0
 23 55  1  0  0  0
 24 56  1  0  0  0
 24 57  1  0  0  0
 24 58  1  0  0  0
 25 59  1  0  0  0
 25 60  1  0  0  0
M  END
$$$$
