6fil_ligand
  -I-interpret- 

 58 62  0  0  0  0  0  0  0  0999 V2000
   22.1140   -1.6240   -0.7680 C   0  0  0  0  0
   20.7720   -2.1170   -0.2130 C   0  0  0  0  0
   25.6390   -2.3180   -0.6300 C   0  0  0  0  0
   23.6030   -3.5440   -0.1860 C   0  0  0  0  0
   25.9860    0.5540   -0.8090 C   0  0  0  0  0
   25.3080    2.8110   -0.2450 C   0  0  0  0  0
   23.8780    0.9450    0.2700 C   0  0  0  0  0
   18.8590   -0.0050    0.8740 C   0  0  0  0  0
   19.3630    0.7440   -0.1540 C   0  0  0  0  0
   18.4620    1.4910   -0.9110 C   0  0  0  0  0
   16.5570    0.7190    0.4680 C   0  0  0  0  0
   18.6090    2.3350   -2.0710 C   0  0  0  0  0
   21.6060   -2.4370    2.0580 C   0  0  0  0  0
   22.9910   -1.9220    1.6380 C   0  0  0  0  0
   23.2750   -2.0790    0.1260 C   0  0  0  0  0
   20.6660   -1.7070    1.2120 N   0  0  0  0  0
   24.5280   -1.3660   -0.3120 N   0  0  0  0  0
   24.9560   -3.6380   -0.5790 N   0  0  0  0  0
   22.8640   -4.5050   -0.1380 O   0  0  0  0  0
   24.8040    0.0540   -0.2770 C   0  0  0  0  0
   26.2310    1.9260   -0.7980 C   0  0  0  0  0
   24.1370    2.3180    0.2910 C   0  0  0  0  0
   19.7480   -0.7920    1.7400 C   0  0  0  0  0
   19.6210   -0.6730    2.9630 O   0  0  0  0  0
   17.0880    1.4770   -0.6040 C   0  0  0  0  0
   17.4690   -0.0310    1.1970 C   0  0  0  0  0
   17.4040    2.7980   -2.4460 N   0  0  0  0  0
   16.4890    2.2960   -1.5680 N   0  0  0  0  0
   25.6050   -4.8660   -1.0500 C   0  0  0  0  0
   25.2890   -5.0790   -2.5320 C   0  0  0  0  0
   24.4720   -4.4100   -3.1300 O   0  0  0  0  0
   25.9550   -6.0730   -3.1740 N   0  0  0  0  0
   25.6400   -6.2640   -4.5910 C   0  0  0  0  0
   22.1017   -0.5345   -0.8000 H   0  0  0  0  0
   22.2553   -2.0398   -1.7656 H   0  0  0  0  0
   20.7154   -3.2027   -0.2911 H   0  0  0  0  0
   19.9525   -1.6823   -0.7853 H   0  0  0  0  0
   26.4768   -2.2435    0.0632 H   0  0  0  0  0
   26.1106   -2.1180   -1.5921 H   0  0  0  0  0
   26.7224   -0.1273   -1.2353 H   0  0  0  0  0
   25.5094    3.8822   -0.2361 H   0  0  0  0  0
   22.9440    0.5656    0.6846 H   0  0  0  0  0
   20.4307    0.7561   -0.3731 H   0  0  0  0  0
   15.4935    0.7244    0.7067 H   0  0  0  0  0
   19.5523    2.5626   -2.5675 H   0  0  0  0  0
   21.4141   -2.2688    3.1177 H   0  0  0  0  0
   21.5168   -3.5155    1.9278 H   0  0  0  0  0
   23.7357   -2.5103    2.1741 H   0  0  0  0  0
   23.0288   -0.8576    1.8697 H   0  0  0  0  0
   27.1559    2.3112   -1.2272 H   0  0  0  0  0
   23.4114    3.0012    0.7323 H   0  0  0  0  0
   17.1198   -0.6470    2.0257 H   0  0  0  0  0
   25.2339   -5.7146   -0.4754 H   0  0  0  0  0
   26.6835   -4.7783   -0.9190 H   0  0  0  0  0
   26.6397   -6.6568   -2.6936 H   0  0  0  0  0
   24.5808   -6.4979   -4.6981 H   0  0  0  0  0
   25.8688   -5.3501   -5.1391 H   0  0  0  0  0
   26.2367   -7.0857   -4.9870 H   0  0  0  0  0
  1  2  1  0  0  0
 15  1  1  0  0  0
  2 16  1  0  0  0
 17  3  1  0  0  0
  3 18  1  0  0  0
 15  4  1  0  0  0
  4 18  1  0  0  0
  4 19  2  0  0  0
 20  5  4  0  0  0
  5 21  4  0  0  0
 21  6  4  0  0  0
 22  6  4  0  0  0
 20  7  4  0  0  0
  7 22  4  0  0  0
  8  9  4  0  0  0
 23  8  1  0  0  0
  8 26  4  0  0  0
  9 10  4  0  0  0
 10 12  4  0  0  0
 10 25  4  0  0  0
 11 25  4  0  0  0
 26 11  4  0  0  0
 12 27  4  0  0  0
 14 13  1  0  0  0
 13 16  1  0  0  0
 15 14  1  0  0  0
 17 15  1  0  0  0
 16 23  1  0  0  0
 17 20  1  0  0  0
 18 29  1  0  0  0
 23 24  2  0  0  0
 25 28  4  0  0  0
 27 28  4  0  0  0
 29 30  1  0  0  0
 30 31  2  0  0  0
 30 32  1  0  0  0
 32 33  1  0  0  0
  1 34  1  0  0  0
  1 35  1  0  0  0
  2 36  1  0  0  0
  2 37  1  0  0  0
  3 38  1  0  0  0
  3 39  1  0  0  0
  5 40  1  0  0  0
  6 41  1  0  0  0
  7 42  1  0  0  0
  9 43  1  0  0  0
 11 44  1  0  0  0
 12 45  1  0  0  0
 13 46  1  0  0  0
 13 47  1  0  0  0
 14 48  1  0  0  0
 14 49  1  0  0  0
 21 50  1  0  0  0
 22 51  1  0  0  0
 26 52  1  0  0  0
 29 53  1  0  0  0
 29 54  1  0  0  0
 32 55  1  0  0  0
 33 56  1  0  0  0
 33 57  1  0  0  0
 33 58  1  0  0  0
M  END
$$$$
