1kc7_ligand
  -I-interpret- 

 15 14  0  0  0  0  0  0  0  0999 V2000
   12.2140    8.4000    4.2270 C   0  0  0  0  0
   12.8380    8.8970    3.2100 O   0  0  0  0  0
   10.9970    8.4700    4.3360 O   0  0  0  0  0
   13.0990    7.7160    5.2690 C   0  0  0  0  0
   14.4390    7.5000    5.2770 C   0  0  0  0  0
   12.4330    7.2480    6.3020 O   0  0  0  0  0
   14.5980    5.6080    4.7980 P   0  0  0  0  0
   15.9860    5.4370    4.1140 O   0  0  0  0  0
   13.4770    5.3690    3.9050 O   0  0  0  0  0
   14.5940    4.8220    6.0460 O   0  0  0  0  0
   13.7804    8.7421    3.3073 H   0  0  0  0  0
   14.8935    7.7270    6.2414 H   0  0  0  0  0
   14.9720    8.1527    4.5857 H   0  0  0  0  0
   16.6804    5.6078    4.7545 H   0  0  0  0  0
   15.3682    5.0471    6.5671 H   0  0  0  0  0
  4  1  1  0  0  0
  1  3  2  0  0  0
  1  2  1  0  0  0
  4  6  2  0  0  0
  4  5  1  0  0  0
  5  7  1  0  0  0
  7 10  1  0  0  0
  7  9  2  0  0  0
  7  8  1  0  0  0
  2 11  1  0  0  0
  5 12  1  0  0  0
  5 13  1  0  0  0
  8 14  1  0  0  0
 10 15  1  0  0  0
M  END
$$$$
