### 
### Created by X-TOOL on Mon Sep 10 21:13:19 2018
### 

@<TRIPOS>MOLECULE
4pxf_ligand
  105   104     1     0     0
SMALL
GAST_HUCK


@<TRIPOS>ATOM
      1 N         122.4400  222.0030   32.9890 N.4       1 ASP         0.2391
      2 CA        122.3090  222.0260   34.4760 C.3       1 ASP         0.0764
      3 C         122.0800  223.4590   34.9330 C.2       1 ASP         0.2284
      4 O         122.8000  224.3690   34.5250 O.2       1 ASP        -0.3906
      5 CB        123.5490  221.4330   35.1550 C.3       1 ASP         0.0607
      6 CG        123.3380  221.1830   36.6480 C.2       1 ASP         0.0425
      7 OD1       122.5960  221.9570   37.2930 O.co2     1 ASP        -0.5686
      8 OD2       123.9160  220.2110   37.1780 O.co2     1 ASP        -0.5686
      9 N         121.0760  223.6410   35.7890 N.am      1 ILE        -0.2607
     10 CA        120.4960  224.9680   36.0710 C.3       1 ILE         0.1336
     11 C         120.8870  225.5520   37.4420 C.2       1 ILE         0.2042
     12 O         120.9960  226.7770   37.6030 O.2       1 ILE        -0.3944
     13 CB        118.9450  224.9190   35.9310 C.3       1 ILE        -0.0037
     14 CG1       118.5550  224.9460   34.4420 C.3       1 ILE        -0.0491
     15 CG2       118.2730  226.0550   36.7040 C.3       1 ILE        -0.0582
     16 CD1       117.0800  225.1760   34.1670 C.3       1 ILE        -0.0648
     17 N         121.1060  224.6830   38.4240 N.am      1 ASP        -0.2622
     18 CA        121.3820  225.1480   39.7810 C.3       1 ASP         0.1423
     19 C         122.8350  225.5850   39.9670 C.2       1 ASP         0.2056
     20 O         123.1660  226.2740   40.9400 O.2       1 ASP        -0.3943
     21 CB        121.0190  224.0750   40.8070 C.3       1 ASP         0.0406
     22 CG        120.4810  224.6660   42.0880 C.2       1 ASP         0.0393
     23 OD1       119.8160  225.7200   42.0270 O.co2     1 ASP        -0.5688
     24 OD2       120.7070  224.0720   43.1540 O.co2     1 ASP        -0.5688
     25 N         123.6880  225.1920   39.0240 N.am      1 VAL        -0.2634
     26 CA        125.1130  225.5340   39.0610 C.3       1 VAL         0.1333
     27 C         125.3660  227.0240   38.7960 C.2       1 VAL         0.2041
     28 O         126.5090  227.4550   38.6320 O.2       1 VAL        -0.3944
     29 CB        125.9450  224.6320   38.1220 C.3       1 VAL        -0.0063
     30 CG1       125.8900  223.1830   38.5830 C.3       1 VAL        -0.0584
     31 CG2       125.4600  224.7400   36.6880 C.3       1 VAL        -0.0584
     32 N         124.2930  227.7950   38.6950 N.am      1 MET        -0.2637
     33 CA        124.4060  229.2240   38.4330 C.3       1 MET         0.1317
     34 C         125.3070  229.9540   39.4380 C.2       1 MET         0.2037
     35 O         125.9760  230.9180   39.0760 O.2       1 MET        -0.3944
     36 CB        123.0200  229.8680   38.3410 C.3       1 MET        -0.0034
     37 CG        122.5490  230.6310   39.5690 C.3       1 MET        -0.0024
     38 SD        121.0240  231.5280   39.2600 S.3       1 MET        -0.1639
     39 CE        121.5290  233.2230   39.4270 C.3       1 MET        -0.0181
     40 N         125.3210  229.4900   40.6860 N.am      1 GLY        -0.2664
     41 CA        126.1740  230.0320   41.7290 C.3       1 GLY         0.1201
     42 C         126.0390  229.1990   42.9770 C.2       1 GLY         0.2003
     43 O         126.9880  229.0410   43.7420 O.2       1 GLY        -0.3947
     44 N         124.8540  228.6380   43.1660 N.am      1 LEU        -0.2673
     45 CA        124.5050  227.9510   44.3990 C.3       1 LEU         0.1228
     46 C         124.8700  226.4720   44.3130 C.2       1 LEU         0.2149
     47 O         124.1200  225.6050   44.7660 O.co2     1 LEU        -0.4120
     48 CB        123.0080  228.1010   44.6820 C.3       1 LEU        -0.0132
     49 CG        122.4270  229.5130   44.5360 C.3       1 LEU        -0.0430
     50 CD1       120.9670  229.4470   44.1230 C.3       1 LEU        -0.0625
     51 CD2       122.5960  230.3200   45.8170 C.3       1 LEU        -0.0625
     52 H         122.5920  221.0557   32.6797 H         1 ASP         0.2016
     53 H         123.2212  222.5764   32.7116 H         1 ASP         0.2016
     54 H         121.5953  222.3612   32.5717 H         1 ASP         0.2016
     55 H         121.4362  221.4202   34.7610 H         1 ASP         0.1117
     56 H         124.3880  222.1333   35.0301 H         1 ASP         0.0512
     57 H         123.7938  220.4771   34.6688 H         1 ASP         0.0512
     58 H         120.6991  222.8440   36.2609 H         1 ILE         0.1885
     59 H         120.8817  225.6572   35.3054 H         1 ILE         0.0803
     60 H         118.5938  223.9686   36.3592 H         1 ILE         0.0345
     61 H         118.8378  223.9802   33.9980 H         1 ILE         0.0267
     62 H         119.1222  225.7533   33.9557 H         1 ILE         0.0267
     63 H         118.5724  226.0063   37.7613 H         1 ILE         0.0235
     64 H         117.1803  225.9545   36.6274 H         1 ILE         0.0235
     65 H         118.5831  227.0212   36.2793 H         1 ILE         0.0235
     66 H         116.9055  225.1781   33.0809 H         1 ILE         0.0230
     67 H         116.7750  226.1449   34.5892 H         1 ILE         0.0230
     68 H         116.4906  224.3717   34.6315 H         1 ILE         0.0230
     69 H         121.0816  223.7019   38.2319 H         1 ASP         0.1884
     70 H         120.7441  226.0247   39.9665 H         1 ASP         0.0819
     71 H         121.9200  223.4883   41.0392 H         1 ASP         0.0478
     72 H         120.2534  223.4151   40.3730 H         1 ASP         0.0478
     73 H         123.3441  224.6431   38.2621 H         1 VAL         0.1883
     74 H         125.4598  225.3323   40.0852 H         1 VAL         0.0802
     75 H         126.9913  224.9693   38.1595 H         1 VAL         0.0343
     76 H         126.4876  222.5588   37.9024 H         1 VAL         0.0234
     77 H         124.8462  222.8358   38.5776 H         1 VAL         0.0234
     78 H         126.2965  223.1068   39.6023 H         1 VAL         0.0234
     79 H         125.5036  225.7904   36.3644 H         1 VAL         0.0234
     80 H         124.4229  224.3792   36.6235 H         1 VAL         0.0234
     81 H         126.1021  224.1288   36.0367 H         1 VAL         0.0234
     82 H         123.3860  227.3873   38.8009 H         1 MET         0.1883
     83 H         124.8807  229.3318   37.4466 H         1 MET         0.0800
     84 H         122.2912  229.0681   38.1435 H         1 MET         0.0320
     85 H         123.0322  230.5702   37.4944 H         1 MET         0.0320
     86 H         123.3296  231.3483   39.8625 H         1 MET         0.0378
     87 H         122.3809  229.9165   40.3882 H         1 MET         0.0378
     88 H         120.6646  233.8816   39.2567 H         1 MET         0.0340
     89 H         122.3118  233.4470   38.6874 H         1 MET         0.0340
     90 H         121.9232  233.3901   40.4402 H         1 MET         0.0340
     91 H         124.7135  228.7299   40.9168 H         1 GLY         0.1881
     92 H         125.8736  231.0677   41.9461 H         1 GLY         0.0763
     93 H         127.2205  230.0170   41.3905 H         1 GLY         0.0763
     94 H         124.1747  228.6888   42.4339 H         1 LEU         0.1876
     95 H         125.0692  228.4059   45.2265 H         1 LEU         0.0751
     96 O1        125.9550  226.1316   43.7704 O.co2     1 LEU        -0.4120
     97 H         122.8273  227.7695   45.7152 H         1 LEU         0.0309
     98 H         122.4677  227.4427   43.9858 H         1 LEU         0.0309
     99 H         122.9832  230.0272   43.7384 H         1 LEU         0.0297
    100 H         120.5677  230.4671   44.0233 H         1 LEU         0.0232
    101 H         120.3939  228.9021   44.8876 H         1 LEU         0.0232
    102 H         120.8819  228.9241   43.1590 H         1 LEU         0.0232
    103 H         123.6604  230.3516   46.0927 H         1 LEU         0.0232
    104 H         122.0214  229.8469   46.6269 H         1 LEU         0.0232
    105 H         122.2283  231.3442   45.6564 H         1 LEU         0.0232
@<TRIPOS>BOND
     1    1    2 1  
     2    2    3 1  
     3    2    5 1  
     4    3    4 2  
     5    3    9 am 
     6    5    6 1  
     7    6    7 ar 
     8    6    8 ar 
     9    9   10 1  
    10   10   11 1  
    11   10   13 1  
    12   11   12 2  
    13   11   17 am 
    14   13   14 1  
    15   13   15 1  
    16   14   16 1  
    17   17   18 1  
    18   18   19 1  
    19   18   21 1  
    20   19   20 2  
    21   19   25 am 
    22   21   22 1  
    23   22   23 ar 
    24   22   24 ar 
    25   25   26 1  
    26   26   27 1  
    27   26   29 1  
    28   27   28 2  
    29   27   32 am 
    30   29   30 1  
    31   29   31 1  
    32   32   33 1  
    33   33   34 1  
    34   33   36 1  
    35   34   35 2  
    36   34   40 am 
    37   36   37 1  
    38   37   38 1  
    39   38   39 1  
    40   40   41 1  
    41   41   42 1  
    42   42   43 2  
    43   42   44 am 
    44   44   45 1  
    45   45   46 1  
    46   45   48 1  
    47   46   47 ar 
    48   48   49 1  
    49   49   50 1  
    50   49   51 1  
    51    1   52 1  
    52    1   53 1  
    53    1   54 1  
    54    2   55 1  
    55    5   56 1  
    56    5   57 1  
    57    9   58 1  
    58   10   59 1  
    59   13   60 1  
    60   14   61 1  
    61   14   62 1  
    62   15   63 1  
    63   15   64 1  
    64   15   65 1  
    65   16   66 1  
    66   16   67 1  
    67   16   68 1  
    68   17   69 1  
    69   18   70 1  
    70   21   71 1  
    71   21   72 1  
    72   25   73 1  
    73   26   74 1  
    74   29   75 1  
    75   30   76 1  
    76   30   77 1  
    77   30   78 1  
    78   31   79 1  
    79   31   80 1  
    80   31   81 1  
    81   32   82 1  
    82   33   83 1  
    83   36   84 1  
    84   36   85 1  
    85   37   86 1  
    86   37   87 1  
    87   39   88 1  
    88   39   89 1  
    89   39   90 1  
    90   40   91 1  
    91   41   92 1  
    92   41   93 1  
    93   44   94 1  
    94   45   95 1  
    95   46   96 ar 
    96   48   97 1  
    97   48   98 1  
    98   49   99 1  
    99   50  100 1  
   100   50  101 1  
   101   50  102 1  
   102   51  103 1  
   103   51  104 1  
   104   51  105 1  
@<TRIPOS>SUBSTRUCTURE
     1 ASP         1

