4pxf_ligand
  -I-interpret- 

108107  0  0  0  0  0  0  0  0999 V2000
  122.4400  222.0030   32.9890 N   0  3  0  0  0
  122.3090  222.0260   34.4760 C   0  0  0  0  0
  122.0800  223.4590   34.9330 C   0  0  0  0  0
  122.8000  224.3690   34.5250 O   0  0  0  0  0
  123.5490  221.4330   35.1550 C   0  0  0  0  0
  123.3380  221.1830   36.6480 C   0  0  0  0  0
  122.5960  221.9570   37.2930 O   0  0  0  0  0
  123.9160  220.2110   37.1780 O   0  0  0  0  0
  121.0760  223.6410   35.7890 N   0  0  0  0  0
  120.4960  224.9680   36.0710 C   0  0  0  0  0
  120.8870  225.5520   37.4420 C   0  0  0  0  0
  120.9960  226.7770   37.6030 O   0  0  0  0  0
  118.9450  224.9190   35.9310 C   0  0  0  0  0
  118.5550  224.9460   34.4420 C   0  0  0  0  0
  118.2730  226.0550   36.7040 C   0  0  0  0  0
  117.0800  225.1760   34.1670 C   0  0  0  0  0
  121.1060  224.6830   38.4240 N   0  0  0  0  0
  121.3820  225.1480   39.7810 C   0  0  0  0  0
  122.8350  225.5850   39.9670 C   0  0  0  0  0
  123.1660  226.2740   40.9400 O   0  0  0  0  0
  121.0190  224.0750   40.8070 C   0  0  0  0  0
  120.4810  224.6660   42.0880 C   0  0  0  0  0
  119.8160  225.7200   42.0270 O   0  0  0  0  0
  120.7070  224.0720   43.1540 O   0  0  0  0  0
  123.6880  225.1920   39.0240 N   0  0  0  0  0
  125.1130  225.5340   39.0610 C   0  0  0  0  0
  125.3660  227.0240   38.7960 C   0  0  0  0  0
  126.5090  227.4550   38.6320 O   0  0  0  0  0
  125.9450  224.6320   38.1220 C   0  0  0  0  0
  125.8900  223.1830   38.5830 C   0  0  0  0  0
  125.4600  224.7400   36.6880 C   0  0  0  0  0
  124.2930  227.7950   38.6950 N   0  0  0  0  0
  124.4060  229.2240   38.4330 C   0  0  0  0  0
  125.3070  229.9540   39.4380 C   0  0  0  0  0
  125.9760  230.9180   39.0760 O   0  0  0  0  0
  123.0200  229.8680   38.3410 C   0  0  0  0  0
  122.5490  230.6310   39.5690 C   0  0  0  0  0
  121.0240  231.5280   39.2600 S   0  0  0  0  0
  121.5290  233.2230   39.4270 C   0  0  0  0  0
  125.3210  229.4900   40.6860 N   0  0  0  0  0
  126.1740  230.0320   41.7290 C   0  0  0  0  0
  126.0390  229.1990   42.9770 C   0  0  0  0  0
  126.9880  229.0410   43.7420 O   0  0  0  0  0
  124.8540  228.6380   43.1660 N   0  0  0  0  0
  124.5050  227.9510   44.3990 C   0  0  0  0  0
  124.8700  226.4720   44.3130 C   0  0  0  0  0
  124.1200  225.6050   44.7660 O   0  0  0  0  0
  123.0080  228.1010   44.6820 C   0  0  0  0  0
  122.4270  229.5130   44.5360 C   0  0  0  0  0
  120.9670  229.4470   44.1230 C   0  0  0  0  0
  122.5960  230.3200   45.8170 C   0  0  0  0  0
  125.9550  226.1316   43.7704 O   0  0  0  0  0
  121.6012  222.4032   32.5688 H   0  0  0  0  0
  123.2548  222.5506   32.7122 H   0  0  0  0  0
  122.5532  221.0396   32.6737 H   0  0  0  0  0
  121.4573  221.4100   34.7645 H   0  0  0  0  0
  124.3650  222.1474   35.0464 H   0  0  0  0  0
  123.7651  220.4752   34.6816 H   0  0  0  0  0
  122.2520  222.6331   36.7046 H   0  0  0  0  0
  120.6915  222.8280   36.2703 H   0  0  0  0  0
  120.9216  225.6418   35.3274 H   0  0  0  0  0
  118.5885  223.9868   36.3690 H   0  0  0  0  0
  118.8009  223.9651   34.0353 H   0  0  0  0  0
  119.0921  225.7809   33.9919 H   0  0  0  0  0
  118.5262  225.9730   37.7610 H   0  0  0  0  0
  118.6236  227.0123   36.3183 H   0  0  0  0  0
  117.1921  225.9864   36.5816 H   0  0  0  0  0
  116.4971  224.3785   34.6278 H   0  0  0  0  0
  116.7791  226.1363   34.5858 H   0  0  0  0  0
  116.9084  225.1778   33.0906 H   0  0  0  0  0
  121.0811  223.6823   38.2281 H   0  0  0  0  0
  120.7560  226.0254   39.9434 H   0  0  0  0  0
  121.9236  223.5159   41.0462 H   0  0  0  0  0
  120.2439  223.4422   40.3748 H   0  0  0  0  0
  119.7620  226.0105   41.1136 H   0  0  0  0  0
  123.3373  224.6322   38.2468 H   0  0  0  0  0
  125.4524  225.3395   40.0784 H   0  0  0  0  0
  126.9786  224.9758   38.1615 H   0  0  0  0  0
  126.2930  223.1089   39.5930 H   0  0  0  0  0
  124.8553  222.8402   38.5772 H   0  0  0  0  0
  126.4824  222.5655   37.9078 H   0  0  0  0  0
  124.4162  224.4306   36.6345 H   0  0  0  0  0
  125.5518  225.7727   36.3515 H   0  0  0  0  0
  126.0648  224.0940   36.0516 H   0  0  0  0  0
  123.3679  227.3792   38.8030 H   0  0  0  0  0
  124.8995  229.3291   37.4668 H   0  0  0  0  0
  122.3135  229.0496   38.2026 H   0  0  0  0  0
  123.0774  230.5980   37.5336 H   0  0  0  0  0
  123.3202  231.3526   39.8384 H   0  0  0  0  0
  122.3657  229.9120   40.3674 H   0  0  0  0  0
  121.9194  233.3872   40.4313 H   0  0  0  0  0
  122.3047  233.4436   38.6937 H   0  0  0  0  0
  120.6716  233.8745   39.2581 H   0  0  0  0  0
  124.7013  228.7147   40.9214 H   0  0  0  0  0
  125.8750  231.0578   41.9445 H   0  0  0  0  0
  127.2109  230.0157   41.3934 H   0  0  0  0  0
  124.1611  228.6899   42.4193 H   0  0  0  0  0
  125.0700  228.4029   45.2143 H   0  0  0  0  0
  122.8669  227.8211   45.7260 H   0  0  0  0  0
  122.4961  227.4842   43.9433 H   0  0  0  0  0
  122.9839  230.0258   43.7518 H   0  0  0  0  0
  120.8840  228.9287   43.1677 H   0  0  0  0  0
  120.4003  228.9068   44.8814 H   0  0  0  0  0
  120.5725  230.4583   44.0245 H   0  0  0  0  0
  122.0790  229.8157   46.6334 H   0  0  0  0  0
  123.6565  230.4049   46.0542 H   0  0  0  0  0
  122.1730  231.3147   45.6767 H   0  0  0  0  0
  126.4216  226.9154   43.4713 H   0  0  0  0  0
  1  2  1  0  0  0
  2  3  1  0  0  0
  2  5  1  0  0  0
  3  4  2  0  0  0
  3  9  1  0  0  0
  5  6  1  0  0  0
  6  7  1  0  0  0
  6  8  2  0  0  0
  9 10  1  0  0  0
 10 11  1  0  0  0
 10 13  1  0  0  0
 11 12  2  0  0  0
 11 17  1  0  0  0
 13 14  1  0  0  0
 13 15  1  0  0  0
 14 16  1  0  0  0
 17 18  1  0  0  0
 18 19  1  0  0  0
 18 21  1  0  0  0
 19 20  2  0  0  0
 19 25  1  0  0  0
 21 22  1  0  0  0
 22 23  1  0  0  0
 22 24  2  0  0  0
 25 26  1  0  0  0
 26 27  1  0  0  0
 26 29  1  0  0  0
 27 28  2  0  0  0
 27 32  1  0  0  0
 29 30  1  0  0  0
 29 31  1  0  0  0
 32 33  1  0  0  0
 33 34  1  0  0  0
 33 36  1  0  0  0
 34 35  2  0  0  0
 34 40  1  0  0  0
 36 37  1  0  0  0
 37 38  1  0  0  0
 38 39  1  0  0  0
 40 41  1  0  0  0
 41 42  1  0  0  0
 42 43  2  0  0  0
 42 44  1  0  0  0
 44 45  1  0  0  0
 45 46  1  0  0  0
 45 48  1  0  0  0
 46 47  2  0  0  0
 48 49  1  0  0  0
 49 50  1  0  0  0
 49 51  1  0  0  0
 46 52  1  0  0  0
  1 53  1  0  0  0
  1 54  1  0  0  0
  1 55  1  0  0  0
  2 56  1  0  0  0
  5 57  1  0  0  0
  5 58  1  0  0  0
  7 59  1  0  0  0
  9 60  1  0  0  0
 10 61  1  0  0  0
 13 62  1  0  0  0
 14 63  1  0  0  0
 14 64  1  0  0  0
 15 65  1  0  0  0
 15 66  1  0  0  0
 15 67  1  0  0  0
 16 68  1  0  0  0
 16 69  1  0  0  0
 16 70  1  0  0  0
 17 71  1  0  0  0
 18 72  1  0  0  0
 21 73  1  0  0  0
 21 74  1  0  0  0
 23 75  1  0  0  0
 25 76  1  0  0  0
 26 77  1  0  0  0
 29 78  1  0  0  0
 30 79  1  0  0  0
 30 80  1  0  0  0
 30 81  1  0  0  0
 31 82  1  0  0  0
 31 83  1  0  0  0
 31 84  1  0  0  0
 32 85  1  0  0  0
 33 86  1  0  0  0
 36 87  1  0  0  0
 36 88  1  0  0  0
 37 89  1  0  0  0
 37 90  1  0  0  0
 39 91  1  0  0  0
 39 92  1  0  0  0
 39 93  1  0  0  0
 40 94  1  0  0  0
 41 95  1  0  0  0
 41 96  1  0  0  0
 44 97  1  0  0  0
 45 98  1  0  0  0
 48 99  1  0  0  0
 48100  1  0  0  0
 49101  1  0  0  0
 50102  1  0  0  0
 50103  1  0  0  0
 50104  1  0  0  0
 51105  1  0  0  0
 51106  1  0  0  0
 51107  1  0  0  0
 52108  1  0  0  0
M  END
$$$$
