4z5w_ligand
  -I-interpret- 

104105  0  0  0  0  0  0  0  0999 V2000
  -59.7560   32.8820  -14.3150 N   0  3  0  0  0
  -60.0300   33.2320  -12.9310 C   0  0  0  0  0
  -61.4510   33.7970  -12.8190 C   0  0  0  0  0
  -62.5290   32.8600  -13.3090 C   0  0  0  0  0
  -63.1420   31.9780  -12.4390 C   0  0  0  0  0
  -62.9370   32.8590  -14.6380 C   0  0  0  0  0
  -64.1290   31.1190  -12.8690 C   0  0  0  0  0
  -63.9280   31.9960  -15.0830 C   0  0  0  0  0
  -64.5250   31.1300  -14.1850 C   0  0  0  0  0
  -65.4610   30.2910  -14.5350 O   0  0  0  0  0
  -66.4290   30.4980  -15.8130 S   0  0  0  0  0
  -65.6900   30.0300  -17.0100 O   0  0  0  0  0
  -66.8030   31.9830  -15.9830 O   0  0  0  0  0
  -67.6950   29.6410  -15.6010 O   0  0  0  0  0
  -59.8270   32.0280  -12.0180 C   0  0  0  0  0
  -59.5750   30.9190  -12.4860 O   0  0  0  0  0
  -59.9420   32.2670  -10.7160 N   0  0  0  0  0
  -59.7880   31.2370   -9.7030 C   0  0  0  0  0
  -61.1490   30.8530   -9.1270 C   0  0  0  0  0
  -61.9930   31.7150   -8.8600 O   0  0  0  0  0
  -58.8470   31.7280   -8.5760 C   0  0  0  0  0
  -57.4730   32.0750   -9.1600 C   0  0  0  0  0
  -58.7210   30.7040   -7.4790 C   0  0  0  0  0
  -56.5710   32.8600   -8.2180 C   0  0  0  0  0
  -61.3580   29.5530   -8.9450 N   0  0  0  0  0
  -62.5580   29.0240   -8.2980 C   0  0  0  0  0
  -63.5570   28.5180   -9.3490 C   0  0  0  0  0
  -63.0850   27.3490  -10.2000 C   0  0  0  0  0
  -63.4600   26.0430   -9.8960 C   0  0  0  0  0
  -62.2700   27.5530  -11.3170 C   0  0  0  0  0
  -63.0410   24.9780  -10.6820 C   0  0  0  0  0
  -61.8470   26.5000  -12.0990 C   0  0  0  0  0
  -62.2270   25.2100  -11.7870 C   0  0  0  0  0
  -61.7960   24.2120  -12.5320 O   0  0  0  0  0
  -62.7040   23.5780  -13.7050 S   0  0  0  0  0
  -62.9910   24.6700  -14.6590 O   0  0  0  0  0
  -61.9430   22.4700  -14.4490 O   0  0  0  0  0
  -64.0000   22.9970  -13.1190 O   0  0  0  0  0
  -62.0980   27.9240   -7.3390 C   0  0  0  0  0
  -60.9060   27.6030   -7.3330 O   0  0  0  0  0
  -62.9990   27.3890   -6.5140 N   0  0  0  0  0
  -62.7150   26.1260   -5.8320 C   0  0  0  0  0
  -63.7750   25.1180   -6.2190 C   0  0  0  0  0
  -64.7290   25.4590   -6.8880 O   0  0  0  0  0
  -62.6370   26.2390   -4.2820 C   0  0  0  0  0
  -63.9450   26.4360   -3.7270 O   0  0  0  0  0
  -61.6870   27.3530   -3.8520 C   0  0  0  0  0
  -63.6210   23.8740   -5.7970 N   0  0  0  0  0
  -64.6160   22.8620   -6.1380 C   0  0  0  0  0
  -64.4580   21.6260   -5.2770 C   0  0  0  0  0
  -65.2440   20.6850   -5.3820 O   0  0  0  0  0
  -64.5360   22.4730   -7.6250 C   0  0  0  0  0
  -63.2460   21.7850   -8.0360 C   0  0  0  0  0
  -63.2610   21.3400   -9.4920 C   0  0  0  0  0
  -64.2520   20.7930   -9.9790 O   0  0  0  0  0
  -62.1620   21.5820  -10.1920 N   0  0  0  0  0
  -63.5220   21.5420   -4.4890 O   0  0  0  0  0
  -59.8980   33.7011  -14.9061 H   0  0  0  0  0
  -58.7906   32.5637  -14.3992 H   0  0  0  0  0
  -60.3878   32.1365  -14.6074 H   0  0  0  0  0
  -59.3281   33.9999  -12.6060 H   0  0  0  0  0
  -61.4926   34.6899  -13.4428 H   0  0  0  0  0
  -61.6415   33.9821  -11.7619 H   0  0  0  0  0
  -62.8384   31.9620  -11.3923 H   0  0  0  0  0
  -62.4705   33.5478  -15.3422 H   0  0  0  0  0
  -64.5963   30.4302  -12.1653 H   0  0  0  0  0
  -64.2329   32.0005  -16.1295 H   0  0  0  0  0
  -68.1648   29.9529  -14.8241 H   0  0  0  0  0
  -60.1482   33.2190  -10.4133 H   0  0  0  0  0
  -59.3449   30.3558  -10.1671 H   0  0  0  0  0
  -59.2802   32.6249   -8.1332 H   0  0  0  0  0
  -57.6457   32.7019  -10.0348 H   0  0  0  0  0
  -56.9690   31.1327   -9.3751 H   0  0  0  0  0
  -59.7040   30.5107   -7.0495 H   0  0  0  0  0
  -58.3150   29.7801   -7.8910 H   0  0  0  0  0
  -58.0531   31.0826   -6.7053 H   0  0  0  0  0
  -57.0534   33.8016   -7.9557 H   0  0  0  0  0
  -56.3955   32.2762   -7.3144 H   0  0  0  0  0
  -55.6205   33.0623   -8.7117 H   0  0  0  0  0
  -60.6499   28.8952   -9.2711 H   0  0  0  0  0
  -63.0864   29.7947   -7.7368 H   0  0  0  0  0
  -63.7306   29.3478  -10.0341 H   0  0  0  0  0
  -64.4307   28.1668   -8.8000 H   0  0  0  0  0
  -64.0918   25.8539   -9.0282 H   0  0  0  0  0
  -61.9625   28.5664  -11.5751 H   0  0  0  0  0
  -63.3489   23.9622  -10.4342 H   0  0  0  0  0
  -61.2116   26.6859  -12.9649 H   0  0  0  0  0
  -63.7840   22.2917  -12.5045 H   0  0  0  0  0
  -63.8892   27.8619   -6.3579 H   0  0  0  0  0
  -61.7230   25.8093   -6.1541 H   0  0  0  0  0
  -62.2367   25.3016   -3.8958 H   0  0  0  0  0
  -63.8792   26.5036   -2.7716 H   0  0  0  0  0
  -60.6880   27.1448   -4.2349 H   0  0  0  0  0
  -62.0397   28.3039   -4.2514 H   0  0  0  0  0
  -61.6571   27.4033   -2.7636 H   0  0  0  0  0
  -62.8084   23.6223   -5.2343 H   0  0  0  0  0
  -65.5952   23.3007   -5.9463 H   0  0  0  0  0
  -65.9154   20.9014   -6.0332 H   0  0  0  0  0
  -64.5968   23.3985   -8.1975 H   0  0  0  0  0
  -65.3444   21.7658   -7.8106 H   0  0  0  0  0
  -63.1251   20.8978   -7.4144 H   0  0  0  0  0
  -62.4303   22.4969   -7.9103 H   0  0  0  0  0
  -62.1136   21.3128  -11.1746 H   0  0  0  0  0
  -61.3646   22.0375   -9.7481 H   0  0  0  0  0
  1  2  1  0  0  0
  2  3  1  0  0  0
  2 15  1  0  0  0
  3  4  1  0  0  0
  4  5  4  0  0  0
  4  6  4  0  0  0
  5  7  4  0  0  0
  6  8  4  0  0  0
  7  9  4  0  0  0
  8  9  4  0  0  0
  9 10  1  0  0  0
 10 11  1  0  0  0
 11 12  2  0  0  0
 11 13  2  0  0  0
 11 14  1  0  0  0
 15 16  2  0  0  0
 15 17  1  0  0  0
 17 18  1  0  0  0
 18 19  1  0  0  0
 18 21  1  0  0  0
 19 20  2  0  0  0
 19 25  1  0  0  0
 21 22  1  0  0  0
 21 23  1  0  0  0
 22 24  1  0  0  0
 25 26  1  0  0  0
 26 27  1  0  0  0
 26 39  1  0  0  0
 27 28  1  0  0  0
 28 29  4  0  0  0
 28 30  4  0  0  0
 29 31  4  0  0  0
 30 32  4  0  0  0
 31 33  4  0  0  0
 32 33  4  0  0  0
 33 34  1  0  0  0
 34 35  1  0  0  0
 35 36  2  0  0  0
 35 37  2  0  0  0
 35 38  1  0  0  0
 39 40  2  0  0  0
 39 41  1  0  0  0
 41 42  1  0  0  0
 42 43  1  0  0  0
 42 45  1  0  0  0
 43 44  2  0  0  0
 43 48  1  0  0  0
 45 46  1  0  0  0
 45 47  1  0  0  0
 48 49  1  0  0  0
 49 50  1  0  0  0
 49 52  1  0  0  0
 50 51  1  0  0  0
 50 57  2  0  0  0
 52 53  1  0  0  0
 53 54  1  0  0  0
 54 55  2  0  0  0
 54 56  1  0  0  0
  1 58  1  0  0  0
  1 59  1  0  0  0
  1 60  1  0  0  0
  2 61  1  0  0  0
  3 62  1  0  0  0
  3 63  1  0  0  0
  5 64  1  0  0  0
  6 65  1  0  0  0
  7 66  1  0  0  0
  8 67  1  0  0  0
 14 68  1  0  0  0
 17 69  1  0  0  0
 18 70  1  0  0  0
 21 71  1  0  0  0
 22 72  1  0  0  0
 22 73  1  0  0  0
 23 74  1  0  0  0
 23 75  1  0  0  0
 23 76  1  0  0  0
 24 77  1  0  0  0
 24 78  1  0  0  0
 24 79  1  0  0  0
 25 80  1  0  0  0
 26 81  1  0  0  0
 27 82  1  0  0  0
 27 83  1  0  0  0
 29 84  1  0  0  0
 30 85  1  0  0  0
 31 86  1  0  0  0
 32 87  1  0  0  0
 38 88  1  0  0  0
 41 89  1  0  0  0
 42 90  1  0  0  0
 45 91  1  0  0  0
 46 92  1  0  0  0
 47 93  1  0  0  0
 47 94  1  0  0  0
 47 95  1  0  0  0
 48 96  1  0  0  0
 49 97  1  0  0  0
 51 98  1  0  0  0
 52 99  1  0  0  0
 52100  1  0  0  0
 53101  1  0  0  0
 53102  1  0  0  0
 56103  1  0  0  0
 56104  1  0  0  0
M  END
$$$$
