### 
### Created by X-TOOL on Mon Sep 10 21:13:29 2018
### 

@<TRIPOS>MOLECULE
4z5w_ligand
  101   102     1     0     0
SMALL
GAST_HUCK


@<TRIPOS>ATOM
      1 N         -59.7560   32.8820  -14.3150 N.4       1 TYS         0.2392
      2 CA        -60.0300   33.2320  -12.9310 C.3       1 TYS         0.0730
      3 CB        -61.4510   33.7970  -12.8190 C.3       1 TYS         0.0365
      4 CG        -62.5290   32.8600  -13.3090 C.ar      1 TYS        -0.0460
      5 CD1       -63.1420   31.9780  -12.4390 C.ar      1 TYS        -0.0683
      6 CD2       -62.9370   32.8590  -14.6380 C.ar      1 TYS        -0.0683
      7 CE1       -64.1290   31.1190  -12.8690 C.ar      1 TYS        -0.0372
      8 CE2       -63.9280   31.9960  -15.0830 C.ar      1 TYS        -0.0372
      9 CZ        -64.5250   31.1300  -14.1850 C.ar      1 TYS         0.1129
     10 OH        -65.4610   30.2910  -14.5350 O.3       1 TYS        -0.2030
     11 S         -66.4290   30.4980  -15.8130 S.o2      1 TYS        -0.0526
     12 O1        -65.6900   30.0300  -17.0100 O.co2     1 TYS        -0.4580
     13 O2        -66.8030   31.9830  -15.9830 O.co2     1 TYS        -0.4580
     14 O3        -67.6950   29.6410  -15.6010 O.co2     1 TYS        -0.4580
     15 C         -59.8270   32.0280  -12.0180 C.2       1 TYS         0.2286
     16 O         -59.5750   30.9190  -12.4860 O.2       1 TYS        -0.3905
     17 N         -59.9420   32.2670  -10.7160 N.am      1 ILE        -0.2606
     18 CA        -59.7880   31.2370   -9.7030 C.3       1 ILE         0.1336
     19 C         -61.1490   30.8530   -9.1270 C.2       1 ILE         0.2043
     20 O         -61.9930   31.7150   -8.8600 O.2       1 ILE        -0.3944
     21 CB        -58.8470   31.7280   -8.5760 C.3       1 ILE        -0.0037
     22 CG1       -57.4730   32.0750   -9.1600 C.3       1 ILE        -0.0491
     23 CG2       -58.7210   30.7040   -7.4790 C.3       1 ILE        -0.0582
     24 CD1       -56.5710   32.8600   -8.2180 C.3       1 ILE        -0.0648
     25 N         -61.3580   29.5530   -8.9450 N.am      1 TYS        -0.2621
     26 CA        -62.5580   29.0240   -8.2980 C.3       1 TYS         0.1390
     27 CB        -63.5570   28.5180   -9.3490 C.3       1 TYS         0.0163
     28 CG        -63.0850   27.3490  -10.2000 C.ar      1 TYS        -0.0493
     29 CD1       -63.4600   26.0430   -9.8960 C.ar      1 TYS        -0.0684
     30 CD2       -62.2700   27.5530  -11.3170 C.ar      1 TYS        -0.0684
     31 CE1       -63.0410   24.9780  -10.6820 C.ar      1 TYS        -0.0372
     32 CE2       -61.8470   26.5000  -12.0990 C.ar      1 TYS        -0.0372
     33 CZ        -62.2270   25.2100  -11.7870 C.ar      1 TYS         0.1129
     34 OH        -61.7960   24.2120  -12.5320 O.3       1 TYS        -0.2030
     35 S         -62.7040   23.5780  -13.7050 S.o2      1 TYS        -0.0526
     36 O1        -62.9910   24.6700  -14.6590 O.co2     1 TYS        -0.4580
     37 O2        -61.9430   22.4700  -14.4490 O.co2     1 TYS        -0.4580
     38 O3        -64.0000   22.9970  -13.1190 O.co2     1 TYS        -0.4580
     39 C         -62.0980   27.9240   -7.3390 C.2       1 TYS         0.2058
     40 O         -60.9060   27.6030   -7.3330 O.2       1 TYS        -0.3942
     41 N         -62.9990   27.3890   -6.5140 N.am      1 THR        -0.2612
     42 CA        -62.7150   26.1260   -5.8320 C.3       1 THR         0.1564
     43 C         -63.7750   25.1180   -6.2190 C.2       1 THR         0.2059
     44 O         -64.7290   25.4590   -6.8880 O.2       1 THR        -0.3943
     45 CB        -62.6370   26.2390   -4.2820 C.3       1 THR         0.0924
     46 OG1       -63.9450   26.4360   -3.7270 O.3       1 THR        -0.3874
     47 CG2       -61.6870   27.3530   -3.8520 C.3       1 THR        -0.0346
     48 N         -63.6210   23.8740   -5.7970 N.am      1 GLN        -0.2693
     49 CA        -64.6160   22.8620   -6.1380 C.3       1 GLN         0.0964
     50 C         -64.4580   21.6260   -5.2770 C.2       1 GLN         0.0602
     51 O         -65.2440   20.6850   -5.3820 O.co2     1 GLN        -0.5666
     52 CB        -64.5360   22.4730   -7.6250 C.3       1 GLN        -0.0010
     53 CG        -63.2460   21.7850   -8.0360 C.3       1 GLN         0.0407
     54 CD        -63.2610   21.3400   -9.4920 C.2       1 GLN         0.1737
     55 OE1       -64.2520   20.7930   -9.9790 O.2       1 GLN        -0.3973
     56 NE2       -62.1620   21.5820  -10.1920 N.am      1 GLN        -0.3009
     57 OXT       -63.5220   21.5420   -4.4890 O.co2     1 GLN        -0.5666
     58 H1        -59.8960   33.6908  -14.9001 H         1 TYS         0.2017
     59 H2        -60.3799   32.1453  -14.6051 H         1 TYS         0.2017
     60 H3        -58.8021   32.5673  -14.3995 H         1 TYS         0.2017
     61 H4        -59.3220   34.0155  -12.6230 H         1 TYS         0.1120
     62 H5        -61.5023   34.7222  -13.4118 H         1 TYS         0.0486
     63 H6        -61.6485   34.0275  -11.7617 H         1 TYS         0.0486
     64 H7        -62.8400   31.9621  -11.3980 H         1 TYS         0.0530
     65 H8        -62.4730   33.5440  -15.3384 H         1 TYS         0.0530
     66 H9        -64.5937   30.4339  -12.1691 H         1 TYS         0.0526
     67 H10       -64.2312   32.0004  -16.1237 H         1 TYS         0.0526
     68 H11       -60.1442   33.2003  -10.4192 H         1 ILE         0.1885
     69 H12       -59.3410   30.3477  -10.1713 H         1 ILE         0.0803
     70 H13       -59.2787   32.6414   -8.1408 H         1 ILE         0.0345
     71 H14       -57.6268   32.6750  -10.0690 H         1 ILE         0.0267
     72 H15       -56.9632   31.1362   -9.4221 H         1 ILE         0.0267
     73 H16       -59.7185   30.4725   -7.0772 H         1 ILE         0.0235
     74 H17       -58.0858   31.1041   -6.6750 H         1 ILE         0.0235
     75 H18       -58.2668   29.7874   -7.8834 H         1 ILE         0.0235
     76 H19       -55.6114   33.0648   -8.7151 H         1 ILE         0.0230
     77 H20       -56.3931   32.2718   -7.3057 H         1 ILE         0.0230
     78 H21       -57.0567   33.8106   -7.9526 H         1 ILE         0.0230
     79 H22       -60.6638   28.9081   -9.2647 H         1 TYS         0.1885
     80 H23       -63.0433   29.8231   -7.7183 H         1 TYS         0.0821
     81 H24       -63.7900   29.3547  -10.0240 H         1 TYS         0.0453
     82 H25       -64.4712   28.2055   -8.8232 H         1 TYS         0.0453
     83 H26       -64.0883   25.8550   -9.0329 H         1 TYS         0.0530
     84 H27       -61.9642   28.5608  -11.5736 H         1 TYS         0.0530
     85 H28       -63.3472   23.9678  -10.4356 H         1 TYS         0.0526
     86 H29       -61.2151   26.6849  -12.9602 H         1 TYS         0.0526
     87 H30       -63.8717   27.8526   -6.3610 H         1 THR         0.1884
     88 H31       -61.7388   25.7646   -6.1876 H         1 THR         0.0826
     89 H32       -62.2413   25.2895   -3.8923 H         1 THR         0.0639
     90 H33       -63.8798   26.5029   -2.7816 H         1 THR         0.2101
     91 H34       -61.6560   27.4048   -2.7537 H         1 THR         0.0257
     92 H35       -62.0419   28.3133   -4.2544 H         1 THR         0.0257
     93 H36       -60.6783   27.1440   -4.2378 H         1 THR         0.0257
     94 H37       -62.8243   23.6272   -5.2453 H         1 GLN         0.1875
     95 H38       -65.6117   23.2891   -5.9478 H         1 GLN         0.0727
     96 H39       -64.6407   23.3894   -8.2243 H         1 GLN         0.0330
     97 H40       -65.3717   21.7928   -7.8460 H         1 GLN         0.0330
     98 H41       -63.0991   20.9008   -7.3984 H         1 GLN         0.0504
     99 H42       -62.4105   22.4854   -7.8898 H         1 GLN         0.0504
    100 H43       -62.1123   21.3126  -11.1538 H         1 GLN         0.1814
    101 H44       -61.3824   22.0340   -9.7584 H         1 GLN         0.1814
@<TRIPOS>BOND
     1    1    2 1  
     2    2    3 1  
     3    2   15 1  
     4    3    4 1  
     5    4    5 ar 
     6    4    6 ar 
     7    5    7 ar 
     8    6    8 ar 
     9    7    9 ar 
    10    8    9 ar 
    11    9   10 1  
    12   10   11 1  
    13   11   12 ar 
    14   11   13 ar 
    15   11   14 ar 
    16   15   16 2  
    17   15   17 am 
    18   17   18 1  
    19   18   19 1  
    20   18   21 1  
    21   19   20 2  
    22   19   25 am 
    23   21   22 1  
    24   21   23 1  
    25   22   24 1  
    26   25   26 1  
    27   26   27 1  
    28   26   39 1  
    29   27   28 1  
    30   28   29 ar 
    31   28   30 ar 
    32   29   31 ar 
    33   30   32 ar 
    34   31   33 ar 
    35   32   33 ar 
    36   33   34 1  
    37   34   35 1  
    38   35   36 ar 
    39   35   37 ar 
    40   35   38 ar 
    41   39   40 2  
    42   39   41 am 
    43   41   42 1  
    44   42   43 1  
    45   42   45 1  
    46   43   44 2  
    47   43   48 am 
    48   45   46 1  
    49   45   47 1  
    50   48   49 1  
    51   49   50 1  
    52   49   52 1  
    53   50   51 ar 
    54   50   57 ar 
    55   52   53 1  
    56   53   54 1  
    57   54   55 2  
    58   54   56 am 
    59    1   58 1  
    60    1   59 1  
    61    1   60 1  
    62    2   61 1  
    63    3   62 1  
    64    3   63 1  
    65    5   64 1  
    66    6   65 1  
    67    7   66 1  
    68    8   67 1  
    69   17   68 1  
    70   18   69 1  
    71   21   70 1  
    72   22   71 1  
    73   22   72 1  
    74   23   73 1  
    75   23   74 1  
    76   23   75 1  
    77   24   76 1  
    78   24   77 1  
    79   24   78 1  
    80   25   79 1  
    81   26   80 1  
    82   27   81 1  
    83   27   82 1  
    84   29   83 1  
    85   30   84 1  
    86   31   85 1  
    87   32   86 1  
    88   41   87 1  
    89   42   88 1  
    90   45   89 1  
    91   46   90 1  
    92   47   91 1  
    93   47   92 1  
    94   47   93 1  
    95   48   94 1  
    96   49   95 1  
    97   52   96 1  
    98   52   97 1  
    99   53   98 1  
   100   53   99 1  
   101   56  100 1  
   102   56  101 1  
@<TRIPOS>SUBSTRUCTURE
     1 TYS         1

