2qoa_ligand
  -I-interpret- 

 24 25  0  0  0  0  0  0  0  0999 V2000
   -5.9060    3.3040   15.2620 C   0  0  0  0  0
   -5.1180    2.2440   15.7130 C   0  0  0  0  0
   -3.7180    2.1880   15.4380 C   0  0  0  0  0
   -3.1230    3.2270   14.6870 C   0  0  0  0  0
   -5.2930    4.3460   14.5040 C   0  0  0  0  0
   -3.9010    4.2780   14.2420 C   0  0  0  0  0
   -3.5290    5.4720   13.4500 C   0  0  0  0  0
   -4.7500    6.1760   13.1140 C   0  0  0  0  0
   -5.8590    5.5680   13.9090 C   0  0  0  0  0
   -5.8500    0.9300   16.6770 S   0  0  0  0  0
   -7.2650    0.9890   16.4730 O   0  0  0  0  0
   -5.3300    1.0710   18.0030 O   0  0  0  0  0
   -5.3110   -0.4260   16.1300 N   0  0  0  0  0
   -6.9724    3.3354   15.4852 H   0  0  0  0  0
   -3.1163    1.3553   15.8023 H   0  0  0  0  0
   -2.0572    3.1991   14.4605 H   0  0  0  0  0
   -3.0001    5.1763   12.5439 H   0  0  0  0  0
   -2.8654    6.1172   14.0257 H   0  0  0  0  0
   -4.9564    6.0891   12.0473 H   0  0  0  0  0
   -4.6529    7.2362   13.3479 H   0  0  0  0  0
   -6.2235    6.2529   14.6746 H   0  0  0  0  0
   -6.7228    5.3441   13.2830 H   0  0  0  0  0
   -5.9532   -1.0980   15.7101 H   0  0  0  0  0
   -4.3160   -0.6416   16.1919 H   0  0  0  0  0
  1  2  4  0  0  0
  1  5  4  0  0  0
  2  3  4  0  0  0
  2 10  1  0  0  0
  3  4  4  0  0  0
  4  6  4  0  0  0
  5  6  4  0  0  0
  5  9  1  0  0  0
  6  7  1  0  0  0
  7  8  1  0  0  0
  8  9  1  0  0  0
 10 11  2  0  0  0
 10 12  2  0  0  0
 10 13  1  0  0  0
  1 14  1  0  0  0
  3 15  1  0  0  0
  4 16  1  0  0  0
  7 17  1  0  0  0
  7 18  1  0  0  0
  8 19  1  0  0  0
  8 20  1  0  0  0
  9 21  1  0  0  0
  9 22  1  0  0  0
 13 23  1  0  0  0
 13 24  1  0  0  0
M  END
$$$$
