4tkn_ligand
  -I-interpret- 

154156  0  0  0  0  0  0  0  0999 V2000
   25.6600   23.0290    7.8730 N   0  3  0  0  0
   25.4460   23.9910    6.8020 C   0  0  0  0  0
   24.3240   24.9580    7.1620 C   0  0  0  0  0
   24.5390   25.9550    7.8550 O   0  0  0  0  0
   25.0910   23.2790    5.4770 C   0  0  0  0  0
   23.7890   22.6810    5.5760 O   0  0  0  0  0
   26.1120   22.1980    5.1720 C   0  0  0  0  0
   23.1250   24.6480    6.6800 N   0  0  0  0  0
   21.9370   25.4570    6.9110 C   0  0  0  0  0
   21.4000   25.3110    8.3340 C   0  0  0  0  0
   21.1080   24.2050    8.7850 O   0  0  0  0  0
   20.8620   25.0480    5.9140 C   0  0  0  0  0
   20.5720   23.2630    5.8650 S   0  0  0  0  0
   21.2700   26.4330    9.0360 N   0  0  0  0  0
   20.8160   26.4200   10.4250 C   0  0  0  0  0
   19.3170   26.1260   10.5360 C   0  0  0  0  0
   18.5000   26.7970    9.9170 O   0  0  0  0  0
   21.1760   27.7340   11.1680 C   0  0  0  0  0
   20.5350   28.9470   10.4860 C   0  0  0  0  0
   22.6780   27.9250   11.1970 C   0  0  0  0  0
   19.3160   29.4780   11.2020 C   0  0  0  0  0
   18.9590   25.1310   11.3380 N   0  0  0  0  0
   17.5610   24.7270   11.4270 C   0  0  0  0  0
   16.7360   25.7400   12.2030 C   0  0  0  0  0
   17.1880   26.2920   13.2060 O   0  0  0  0  0
   17.4210   23.3450   12.0570 C   0  0  0  0  0
   15.9870   22.8740   12.1920 C   0  0  0  0  0
   15.3190   22.2980   11.1200 C   0  0  0  0  0
   15.2980   23.0160   13.3870 C   0  0  0  0  0
   14.0100   21.8630   11.2420 C   0  0  0  0  0
   13.9890   22.5870   13.5140 C   0  0  0  0  0
   13.3520   22.0130   12.4430 C   0  0  0  0  0
   12.0520   21.5900   12.5810 O   0  0  0  0  0
   15.5150   25.9650   11.7360 N   0  0  0  0  0
   14.6200   26.9340   12.3470 C   0  0  0  0  0
   13.8150   26.2430   13.4320 C   0  0  0  0  0
   12.9730   25.4020   13.1410 O   0  0  0  0  0
   13.6930   27.5200   11.2880 C   0  0  0  0  0
   12.7470   28.5600   11.8420 C   0  0  0  0  0
   12.7090   28.8100   13.0460 O   0  0  0  0  0
   11.9640   29.1650   10.9610 N   0  0  0  0  0
   14.0700   26.6090   14.6950 N   0  0  0  0  0
   13.4300   25.9450   15.8350 C   0  0  0  0  0
   11.9090   26.0590   15.8530 C   0  0  0  0  0
   11.2480   25.2080   16.4480 O   0  0  0  0  0
   14.0270   26.6790   17.0450 C   0  0  0  0  0
   14.4880   27.9870   16.5130 C   0  0  0  0  0
   14.9340   27.7230   15.1130 C   0  0  0  0  0
   11.3640   27.0840   15.2070 N   0  0  0  0  0
    9.9200   27.3000   15.2020 C   0  0  0  0  0
    9.2060   26.6170   14.0500 C   0  0  0  0  0
    7.9760   26.6160   13.9910 O   0  0  0  0  0
    9.6260   28.7880   15.1570 C   0  0  0  0  0
    9.9040   29.4120   16.5140 C   0  0  0  0  0
    9.9980   30.9100   16.3840 C   0  0  0  0  0
    8.8210   29.0070   17.5040 C   0  0  0  0  0
    9.9810   26.0500   13.1350 N   0  0  0  0  0
    9.4340   25.4380   11.9320 C   0  0  0  0  0
    8.3270   24.4240   12.1930 C   0  0  0  0  0
    8.4220   23.5970   13.0990 O   0  0  0  0  0
   10.5400   24.7680   11.1200 C   0  0  0  0  0
   10.0310   24.0240    9.9250 C   0  0  0  0  0
    9.5070   24.7040    8.8420 C   0  0  0  0  0
   10.0510   22.6450    9.8940 C   0  0  0  0  0
    9.0320   24.0180    7.7420 C   0  0  0  0  0
    9.5730   21.9570    8.7970 C   0  0  0  0  0
    9.0640   22.6420    7.7230 C   0  0  0  0  0
    7.2750   24.5050   11.3860 N   0  0  0  0  0
    6.1440   23.6070   11.4870 C   0  0  0  0  0
    5.0970   24.0290   12.4920 C   0  0  0  0  0
    4.1140   23.3190   12.6960 O   0  0  0  0  0
    5.2940   25.1890   13.1080 N   0  0  0  0  0
    4.3290   25.7090   14.0700 C   0  0  0  0  0
    4.6080   27.1650   14.4000 C   0  0  0  0  0
    4.8340   27.5060   15.5600 O   0  0  0  0  0
    4.3550   24.8810   15.3550 C   0  0  0  0  0
    5.6780   24.7530   15.8430 O   0  0  0  0  0
    4.6080   28.0274   13.4814 O   0  0  0  0  0
   25.8921   23.5257    8.7332 H   0  0  0  0  0
   24.8098   22.4831    8.0130 H   0  0  0  0  0
   26.4276   22.4064    7.6208 H   0  0  0  0  0
   26.3759   24.5445    6.6717 H   0  0  0  0  0
   25.0957   24.0173    4.6752 H   0  0  0  0  0
   23.1395   23.3611    5.7689 H   0  0  0  0  0
   26.1071   21.4590    5.9732 H   0  0  0  0  0
   25.8570   21.7149    4.2288 H   0  0  0  0  0
   27.1025   22.6466    5.0958 H   0  0  0  0  0
   23.0325   23.8005    6.1200 H   0  0  0  0  0
   22.2118   26.5033    6.7772 H   0  0  0  0  0
   21.1982   25.3541    4.9234 H   0  0  0  0  0
   19.9307   25.5245    6.2202 H   0  0  0  0  0
   19.6230   22.9939    4.9728 H   0  0  0  0  0
   21.4927   27.3248    8.5939 H   0  0  0  0  0
   21.3508   25.6061   10.9146 H   0  0  0  0  0
   20.7922   27.6541   12.1850 H   0  0  0  0  0
   20.2154   28.6296    9.4934 H   0  0  0  0  0
   21.2784   29.7441   10.4766 H   0  0  0  0  0
   23.1400   27.0842   11.7145 H   0  0  0  0  0
   23.0561   27.9771   10.1760 H   0  0  0  0  0
   22.9152   28.8507   11.7213 H   0  0  0  0  0
   18.5572   28.6972   11.2528 H   0  0  0  0  0
   19.5931   29.7833   12.2110 H   0  0  0  0  0
   18.9209   30.3354   10.6572 H   0  0  0  0  0
   19.6643   24.6473   11.8939 H   0  0  0  0  0
   17.1779   24.6825   10.4075 H   0  0  0  0  0
   17.8391   23.4030   13.0620 H   0  0  0  0  0
   17.9343   22.6381   11.4052 H   0  0  0  0  0
   15.8338   22.1862   10.1657 H   0  0  0  0  0
   15.7966   23.4737   14.2414 H   0  0  0  0  0
   13.5032   21.4046   10.3928 H   0  0  0  0  0
   13.4650   22.7047   14.4625 H   0  0  0  0  0
   11.7514   21.7696   13.4749 H   0  0  0  0  0
   15.1937   25.4412   10.9219 H   0  0  0  0  0
   15.1965   27.7472   12.7880 H   0  0  0  0  0
   13.0917   26.7050   10.8852 H   0  0  0  0  0
   14.3139   28.0038   10.5340 H   0  0  0  0  0
   11.2955   29.8697   11.2722 H   0  0  0  0  0
   12.0297   28.9260    9.9716 H   0  0  0  0  0
   13.6137   24.8709   15.8114 H   0  0  0  0  0
   14.8442   26.1159   17.4958 H   0  0  0  0  0
   13.2952   26.8031   17.8432 H   0  0  0  0  0
   15.2980   28.3969   17.1163 H   0  0  0  0  0
   13.6907   28.7296   16.5415 H   0  0  0  0  0
   14.8390   28.5963   14.4677 H   0  0  0  0  0
   15.9951   27.4827   15.0460 H   0  0  0  0  0
   11.9675   27.7342   14.7036 H   0  0  0  0  0
    9.5401   26.8525   16.1204 H   0  0  0  0  0
    8.5776   28.9394   14.8999 H   0  0  0  0  0
   10.2637   29.2577   14.4082 H   0  0  0  0  0
   10.8592   29.0475   16.8918 H   0  0  0  0  0
   10.8075   31.1639   15.6997 H   0  0  0  0  0
    9.0568   31.2995   15.9960 H   0  0  0  0  0
   10.1974   31.3465   17.3626 H   0  0  0  0  0
    7.8523   29.3511   17.1417 H   0  0  0  0  0
    8.8086   27.9216   17.6031 H   0  0  0  0  0
    9.0293   29.4593   18.4736 H   0  0  0  0  0
   10.9909   26.0424   13.2783 H   0  0  0  0  0
    8.9856   26.2593   11.3730 H   0  0  0  0  0
   11.0348   24.0467   11.7704 H   0  0  0  0  0
   11.2054   25.5528   10.7601 H   0  0  0  0  0
    9.4683   25.7932    8.8564 H   0  0  0  0  0
   10.4487   22.0925   10.7453 H   0  0  0  0  0
    8.6318   24.5658    6.8889 H   0  0  0  0  0
    9.6000   20.8674    8.7841 H   0  0  0  0  0
    8.6860   22.0983    6.8572 H   0  0  0  0  0
    7.2636   25.2283   10.6669 H   0  0  0  0  0
    6.5308   22.6422   11.8151 H   0  0  0  0  0
    5.6607   23.5913   10.5101 H   0  0  0  0  0
    6.1365   25.7266   12.9043 H   0  0  0  0  0
    3.3414   25.6397   13.6140 H   0  0  0  0  0
    3.9612   23.8873   15.1413 H   0  0  0  0  0
    3.7489   25.3829   16.1092 H   0  0  0  0  0
    5.6716   24.2308   16.6485 H   0  0  0  0  0
    4.4162   27.6005   12.6432 H   0  0  0  0  0
  1  2  1  0  0  0
  2  3  1  0  0  0
  2  5  1  0  0  0
  3  4  2  0  0  0
  3  8  1  0  0  0
  5  6  1  0  0  0
  5  7  1  0  0  0
  8  9  1  0  0  0
  9 10  1  0  0  0
  9 12  1  0  0  0
 10 11  2  0  0  0
 10 14  1  0  0  0
 12 13  1  0  0  0
 14 15  1  0  0  0
 15 16  1  0  0  0
 15 18  1  0  0  0
 16 17  2  0  0  0
 16 22  1  0  0  0
 18 19  1  0  0  0
 18 20  1  0  0  0
 19 21  1  0  0  0
 22 23  1  0  0  0
 23 24  1  0  0  0
 23 26  1  0  0  0
 24 25  2  0  0  0
 24 34  1  0  0  0
 26 27  1  0  0  0
 27 28  4  0  0  0
 27 29  4  0  0  0
 28 30  4  0  0  0
 29 31  4  0  0  0
 30 32  4  0  0  0
 31 32  4  0  0  0
 32 33  1  0  0  0
 34 35  1  0  0  0
 35 36  1  0  0  0
 35 38  1  0  0  0
 36 37  2  0  0  0
 36 42  1  0  0  0
 38 39  1  0  0  0
 39 40  2  0  0  0
 39 41  1  0  0  0
 42 43  1  0  0  0
 42 48  1  0  0  0
 43 44  1  0  0  0
 43 46  1  0  0  0
 44 45  2  0  0  0
 44 49  1  0  0  0
 46 47  1  0  0  0
 47 48  1  0  0  0
 49 50  1  0  0  0
 50 51  1  0  0  0
 50 53  1  0  0  0
 51 52  2  0  0  0
 51 57  1  0  0  0
 53 54  1  0  0  0
 54 55  1  0  0  0
 54 56  1  0  0  0
 57 58  1  0  0  0
 58 59  1  0  0  0
 58 61  1  0  0  0
 59 60  2  0  0  0
 59 68  1  0  0  0
 61 62  1  0  0  0
 62 63  4  0  0  0
 62 64  4  0  0  0
 63 65  4  0  0  0
 64 66  4  0  0  0
 65 67  4  0  0  0
 66 67  4  0  0  0
 68 69  1  0  0  0
 69 70  1  0  0  0
 70 71  2  0  0  0
 70 72  1  0  0  0
 72 73  1  0  0  0
 73 74  1  0  0  0
 73 76  1  0  0  0
 74 75  2  0  0  0
 76 77  1  0  0  0
 74 78  1  0  0  0
  1 79  1  0  0  0
  1 80  1  0  0  0
  1 81  1  0  0  0
  2 82  1  0  0  0
  5 83  1  0  0  0
  6 84  1  0  0  0
  7 85  1  0  0  0
  7 86  1  0  0  0
  7 87  1  0  0  0
  8 88  1  0  0  0
  9 89  1  0  0  0
 12 90  1  0  0  0
 12 91  1  0  0  0
 13 92  1  0  0  0
 14 93  1  0  0  0
 15 94  1  0  0  0
 18 95  1  0  0  0
 19 96  1  0  0  0
 19 97  1  0  0  0
 20 98  1  0  0  0
 20 99  1  0  0  0
 20100  1  0  0  0
 21101  1  0  0  0
 21102  1  0  0  0
 21103  1  0  0  0
 22104  1  0  0  0
 23105  1  0  0  0
 26106  1  0  0  0
 26107  1  0  0  0
 28108  1  0  0  0
 29109  1  0  0  0
 30110  1  0  0  0
 31111  1  0  0  0
 33112  1  0  0  0
 34113  1  0  0  0
 35114  1  0  0  0
 38115  1  0  0  0
 38116  1  0  0  0
 41117  1  0  0  0
 41118  1  0  0  0
 43119  1  0  0  0
 46120  1  0  0  0
 46121  1  0  0  0
 47122  1  0  0  0
 47123  1  0  0  0
 48124  1  0  0  0
 48125  1  0  0  0
 49126  1  0  0  0
 50127  1  0  0  0
 53128  1  0  0  0
 53129  1  0  0  0
 54130  1  0  0  0
 55131  1  0  0  0
 55132  1  0  0  0
 55133  1  0  0  0
 56134  1  0  0  0
 56135  1  0  0  0
 56136  1  0  0  0
 57137  1  0  0  0
 58138  1  0  0  0
 61139  1  0  0  0
 61140  1  0  0  0
 63141  1  0  0  0
 64142  1  0  0  0
 65143  1  0  0  0
 66144  1  0  0  0
 67145  1  0  0  0
 68146  1  0  0  0
 69147  1  0  0  0
 69148  1  0  0  0
 72149  1  0  0  0
 73150  1  0  0  0
 76151  1  0  0  0
 76152  1  0  0  0
 77153  1  0  0  0
 78154  1  0  0  0
M  END
$$$$
