### 
### Created by X-TOOL on Mon Sep 10 21:13:20 2018
### 

@<TRIPOS>MOLECULE
4tkn_ligand
  153   155     1     0     0
SMALL
GAST_HUCK


@<TRIPOS>ATOM
      1 N          25.6600   23.0290    7.8730 N.4       1 THR         0.2398
      2 CA         25.4460   23.9910    6.8020 C.3       1 THR         0.0910
      3 C          24.3240   24.9580    7.1620 C.2       1 THR         0.2293
      4 O          24.5390   25.9550    7.8550 O.2       1 THR        -0.3906
      5 CB         25.0910   23.2790    5.4770 C.3       1 THR         0.1120
      6 OG1        23.7890   22.6810    5.5760 O.3       1 THR        -0.3840
      7 CG2        26.1120   22.1980    5.1720 C.3       1 THR        -0.0314
      8 N          23.1250   24.6480    6.6800 N.am      1 CYS        -0.2601
      9 CA         21.9370   25.4570    6.9110 C.3       1 CYS         0.1397
     10 C          21.4000   25.3110    8.3340 C.2       1 CYS         0.2047
     11 O          21.1080   24.2050    8.7850 O.2       1 CYS        -0.3944
     12 CB         20.8620   25.0480    5.9140 C.3       1 CYS         0.0311
     13 SG         20.5720   23.2630    5.8650 S.3       1 CYS        -0.1735
     14 N          21.2700   26.4330    9.0360 N.am      1 ILE        -0.2634
     15 CA         20.8160   26.4200   10.4250 C.3       1 ILE         0.1335
     16 C          19.3170   26.1260   10.5360 C.2       1 ILE         0.2043
     17 O          18.5000   26.7970    9.9170 O.2       1 ILE        -0.3944
     18 CB         21.1760   27.7340   11.1680 C.3       1 ILE        -0.0037
     19 CG1        20.5350   28.9470   10.4860 C.3       1 ILE        -0.0491
     20 CG2        22.6780   27.9250   11.1970 C.3       1 ILE        -0.0582
     21 CD1        19.3160   29.4780   11.2020 C.3       1 ILE        -0.0648
     22 N          18.9590   25.1310   11.3380 N.am      1 TYR        -0.2621
     23 CA         17.5610   24.7270   11.4270 C.3       1 TYR         0.1390
     24 C          16.7360   25.7400   12.2030 C.2       1 TYR         0.2059
     25 O          17.1880   26.2920   13.2060 O.2       1 TYR        -0.3942
     26 CB         17.4210   23.3450   12.0570 C.3       1 TYR         0.0163
     27 CG         15.9870   22.8740   12.1920 C.ar      1 TYR        -0.0493
     28 CD1        15.3190   22.2980   11.1200 C.ar      1 TYR        -0.0685
     29 CD2        15.2980   23.0160   13.3870 C.ar      1 TYR        -0.0685
     30 CE1        14.0100   21.8630   11.2420 C.ar      1 TYR        -0.0398
     31 CE2        13.9890   22.5870   13.5140 C.ar      1 TYR        -0.0398
     32 CZ         13.3520   22.0130   12.4430 C.ar      1 TYR         0.0805
     33 OH         12.0520   21.5900   12.5810 O.3       1 TYR        -0.3376
     34 N          15.5150   25.9650   11.7360 N.am      1 ASN        -0.2615
     35 CA         14.6200   26.9340   12.3470 C.3       1 ASN         0.1478
     36 C          13.8150   26.2430   13.4320 C.2       1 ASN         0.2088
     37 O          12.9730   25.4020   13.1410 O.2       1 ASN        -0.3940
     38 CB         13.6930   27.5200   11.2880 C.3       1 ASN         0.0773
     39 CG         12.7470   28.5600   11.8420 C.2       1 ASN         0.1780
     40 OD1        12.7090   28.8100   13.0460 O.2       1 ASN        -0.3970
     41 ND2        11.9640   29.1650   10.9610 N.am      1 ASN        -0.3007
     42 N          14.0700   26.6090   14.6950 N.am      1 PRO        -0.2497
     43 CA         13.4300   25.9450   15.8350 C.3       1 PRO         0.1338
     44 C          11.9090   26.0590   15.8530 C.2       1 PRO         0.2041
     45 O          11.2480   25.2080   16.4480 O.2       1 PRO        -0.3944
     46 CB         14.0270   26.6790   17.0450 C.3       1 PRO        -0.0104
     47 CG         14.4880   27.9870   16.5130 C.3       1 PRO        -0.0281
     48 CD         14.9340   27.7230   15.1130 C.3       1 PRO         0.0369
     49 N          11.3640   27.0840   15.2070 N.am      1 LEU        -0.2637
     50 CA          9.9200   27.3000   15.2020 C.3       1 LEU         0.1312
     51 C           9.2060   26.6170   14.0500 C.2       1 LEU         0.2040
     52 O           7.9760   26.6160   13.9910 O.2       1 LEU        -0.3944
     53 CB          9.6260   28.7880   15.1570 C.3       1 LEU        -0.0101
     54 CG          9.9040   29.4120   16.5140 C.3       1 LEU        -0.0425
     55 CD1         9.9980   30.9100   16.3840 C.3       1 LEU        -0.0625
     56 CD2         8.8210   29.0070   17.5040 C.3       1 LEU        -0.0625
     57 N           9.9810   26.0500   13.1350 N.am      1 PHE        -0.2619
     58 CA          9.4340   25.4380   11.9320 C.3       1 PHE         0.1404
     59 C           8.3270   24.4240   12.1930 C.2       1 PHE         0.2058
     60 O           8.4220   23.5970   13.0990 O.2       1 PHE        -0.3942
     61 CB         10.5400   24.7680   11.1200 C.3       1 PHE         0.0214
     62 CG         10.0310   24.0240    9.9250 C.ar      1 PHE        -0.0386
     63 CD1         9.5070   24.7040    8.8420 C.ar      1 PHE        -0.0601
     64 CD2        10.0510   22.6450    9.8940 C.ar      1 PHE        -0.0601
     65 CE1         9.0320   24.0180    7.7420 C.ar      1 PHE        -0.0686
     66 CE2         9.5730   21.9570    8.7970 C.ar      1 PHE        -0.0686
     67 CZ          9.0640   22.6420    7.7230 C.ar      1 PHE        -0.0687
     68 N           7.2750   24.5050   11.3860 N.am      1 GLY        -0.2663
     69 CA          6.1440   23.6070   11.4870 C.3       1 GLY         0.1201
     70 C           5.0970   24.0290   12.4920 C.2       1 GLY         0.2003
     71 O           4.1140   23.3190   12.6960 O.2       1 GLY        -0.3947
     72 N           5.2940   25.1890   13.1080 N.am      1 SER        -0.2650
     73 CA          4.3290   25.7090   14.0700 C.3       1 SER         0.1454
     74 C           4.6080   27.1650   14.4000 C.2       1 SER         0.2172
     75 O           4.8340   27.5060   15.5600 O.co2     1 SER        -0.4119
     76 CB          4.3550   24.8810   15.3550 C.3       1 SER         0.0812
     77 OG          5.6780   24.7530   15.8430 O.3       1 SER        -0.3909
     78 H          25.8895   23.5187    8.7236 H         1 THR         0.2016
     79 H          26.4184   22.4131    7.6249 H         1 THR         0.2016
     80 H          24.8204   22.4889    8.0123 H         1 THR         0.2016
     81 H          26.3746   24.5627    6.6581 H         1 THR         0.1125
     82 H          25.0906   24.0172    4.6615 H         1 THR         0.0674
     83 H          23.1442   23.3562    5.7517 H         1 THR         0.2102
     84 H          25.8476   21.6999    4.2275 H         1 THR         0.0258
     85 H          26.1183   21.4591    5.9869 H         1 THR         0.0258
     86 H          27.1100   22.6515    5.0805 H         1 THR         0.0258
     87 H          23.0343   23.8171    6.1310 H         1 CYS         0.1885
     88 H          22.1966   26.5131    6.7458 H         1 CYS         0.0808
     89 H          21.1716   25.3789    4.9117 H         1 CYS         0.0422
     90 H          19.9215   25.5468    6.1906 H         1 CYS         0.0422
     91 H          21.4241   22.7924    5.6032 H         1 CYS         0.1019
     92 H          21.4884   27.3074    8.6026 H         1 ILE         0.1883
     93 H          21.3486   25.6014   10.9312 H         1 ILE         0.0803
     94 H          20.8024   27.6673   12.2005 H         1 ILE         0.0345
     95 H          20.2388   28.6554    9.4675 H         1 ILE         0.0267
     96 H          21.2838   29.7511   10.4341 H         1 ILE         0.0267
     97 H          23.1484   27.0587   11.6851 H         1 ILE         0.0235
     98 H          22.9206   28.8389   11.7590 H         1 ILE         0.0235
     99 H          23.0560   28.0160   10.1680 H         1 ILE         0.0235
    100 H          18.9164   30.3434   10.6531 H         1 ILE         0.0230
    101 H          19.5943   29.7866   12.2205 H         1 ILE         0.0230
    102 H          18.5494   28.6909   11.2539 H         1 ILE         0.0230
    103 H          19.6504   24.6568   11.8830 H         1 TYR         0.1885
    104 H          17.1613   24.6762   10.4035 H         1 TYR         0.0821
    105 H          17.8717   23.3743   13.0600 H         1 TYR         0.0453
    106 H          17.9654   22.6224   11.4313 H         1 TYR         0.0453
    107 H          15.8309   22.1868   10.1710 H         1 TYR         0.0530
    108 H          15.7939   23.4712   14.2367 H         1 TYR         0.0530
    109 H          13.5060   21.4071   10.3975 H         1 TYR         0.0525
    110 H          13.4679   22.7041   14.4573 H         1 TYR         0.0525
    111 H          11.7524   21.2178   11.7599 H         1 TYR         0.2458
    112 H          15.2000   25.4515   10.9378 H         1 ASN         0.1885
    113 H          15.2118   27.7456   12.7955 H         1 ASN         0.0826
    114 H          13.0994   26.7035   10.8511 H         1 ASN         0.0551
    115 H          14.3072   27.9870   10.5040 H         1 ASN         0.0551
    116 H          11.3157   29.8632   11.2647 H         1 ASN         0.1814
    117 H          12.0213   28.9234    9.9923 H         1 ASN         0.1814
    118 H          13.7025   24.8794   15.8503 H         1 PRO         0.0802
    119 H          14.8721   26.1121   17.4625 H         1 PRO         0.0313
    120 H          13.2636   26.8257   17.8233 H         1 PRO         0.0313
    121 H          15.3242   28.3720   17.1151 H         1 PRO         0.0287
    122 H          13.6640   28.7157   16.5214 H         1 PRO         0.0287
    123 H          14.7776   28.6055   14.4753 H         1 PRO         0.0524
    124 H          15.9947   27.4330   15.0841 H         1 PRO         0.0524
    125 H          11.9556   27.7215   14.7134 H         1 LEU         0.1883
    126 H           9.5164   26.8900   16.1395 H         1 LEU         0.0800
    127 H           8.5692   28.9431   14.8940 H         1 LEU         0.0315
    128 H          10.2660   29.2634   14.3991 H         1 LEU         0.0315
    129 H          10.8693   29.0352   16.8831 H         1 LEU         0.0298
    130 H          10.1993   31.3518   17.3711 H         1 LEU         0.0232
    131 H           9.0487   31.3044   15.9925 H         1 LEU         0.0232
    132 H          10.8147   31.1676   15.6936 H         1 LEU         0.0232
    133 H           8.7800   27.9100   17.5741 H         1 LEU         0.0232
    134 H           7.8485   29.3890   17.1602 H         1 LEU         0.0232
    135 H           9.0519   29.4292   18.4931 H         1 LEU         0.0232
    136 H          10.9711   26.0425   13.2755 H         1 PHE         0.1885
    137 H           9.0035   26.2471   11.3237 H         1 PHE         0.0823
    138 H          11.0711   24.0590   11.7722 H         1 PHE         0.0474
    139 H          11.2393   25.5442   10.7759 H         1 PHE         0.0474
    140 H           9.4685   25.7872    8.8563 H         1 PHE         0.0557
    141 H          10.4465   22.0956   10.7406 H         1 PHE         0.0557
    142 H           8.6340   24.5628    6.8936 H         1 PHE         0.0599
    143 H           9.5999   20.8734    8.7842 H         1 PHE         0.0599
    144 H           8.6881   22.1013    6.8619 H         1 PHE         0.0559
    145 H           7.2639   25.2141   10.6810 H         1 GLY         0.1881
    146 H           6.5183   22.6142   11.7771 H         1 GLY         0.0763
    147 H           5.6657   23.5441   10.4984 H         1 GLY         0.0763
    148 H           6.1200   25.7161   12.9083 H         1 SER         0.1877
    149 H           3.3253   25.6378   13.6255 H         1 SER         0.0774
    150 O1          4.6080   28.0274   13.4814 O.co2     1 SER        -0.4119
    151 H           3.9486   23.8801   15.1476 H         1 SER         0.0600
    152 H           3.7360   25.3775   16.1168 H         1 SER         0.0600
    153 H           6.0316   25.6155   16.0263 H         1 SER         0.2096
@<TRIPOS>BOND
     1    1    2 1  
     2    2    3 1  
     3    2    5 1  
     4    3    4 2  
     5    3    8 am 
     6    5    6 1  
     7    5    7 1  
     8    8    9 1  
     9    9   10 1  
    10    9   12 1  
    11   10   11 2  
    12   10   14 am 
    13   12   13 1  
    14   14   15 1  
    15   15   16 1  
    16   15   18 1  
    17   16   17 2  
    18   16   22 am 
    19   18   19 1  
    20   18   20 1  
    21   19   21 1  
    22   22   23 1  
    23   23   24 1  
    24   23   26 1  
    25   24   25 2  
    26   24   34 am 
    27   26   27 1  
    28   27   28 ar 
    29   27   29 ar 
    30   28   30 ar 
    31   29   31 ar 
    32   30   32 ar 
    33   31   32 ar 
    34   32   33 1  
    35   34   35 1  
    36   35   36 1  
    37   35   38 1  
    38   36   37 2  
    39   36   42 am 
    40   38   39 1  
    41   39   40 2  
    42   39   41 am 
    43   42   43 1  
    44   42   48 1  
    45   43   44 1  
    46   43   46 1  
    47   44   45 2  
    48   44   49 am 
    49   46   47 1  
    50   47   48 1  
    51   49   50 1  
    52   50   51 1  
    53   50   53 1  
    54   51   52 2  
    55   51   57 am 
    56   53   54 1  
    57   54   55 1  
    58   54   56 1  
    59   57   58 1  
    60   58   59 1  
    61   58   61 1  
    62   59   60 2  
    63   59   68 am 
    64   61   62 1  
    65   62   63 ar 
    66   62   64 ar 
    67   63   65 ar 
    68   64   66 ar 
    69   65   67 ar 
    70   66   67 ar 
    71   68   69 1  
    72   69   70 1  
    73   70   71 2  
    74   70   72 am 
    75   72   73 1  
    76   73   74 1  
    77   73   76 1  
    78   74   75 ar 
    79   76   77 1  
    80    1   78 1  
    81    1   79 1  
    82    1   80 1  
    83    2   81 1  
    84    5   82 1  
    85    6   83 1  
    86    7   84 1  
    87    7   85 1  
    88    7   86 1  
    89    8   87 1  
    90    9   88 1  
    91   12   89 1  
    92   12   90 1  
    93   13   91 1  
    94   14   92 1  
    95   15   93 1  
    96   18   94 1  
    97   19   95 1  
    98   19   96 1  
    99   20   97 1  
   100   20   98 1  
   101   20   99 1  
   102   21  100 1  
   103   21  101 1  
   104   21  102 1  
   105   22  103 1  
   106   23  104 1  
   107   26  105 1  
   108   26  106 1  
   109   28  107 1  
   110   29  108 1  
   111   30  109 1  
   112   31  110 1  
   113   33  111 1  
   114   34  112 1  
   115   35  113 1  
   116   38  114 1  
   117   38  115 1  
   118   41  116 1  
   119   41  117 1  
   120   43  118 1  
   121   46  119 1  
   122   46  120 1  
   123   47  121 1  
   124   47  122 1  
   125   48  123 1  
   126   48  124 1  
   127   49  125 1  
   128   50  126 1  
   129   53  127 1  
   130   53  128 1  
   131   54  129 1  
   132   55  130 1  
   133   55  131 1  
   134   55  132 1  
   135   56  133 1  
   136   56  134 1  
   137   56  135 1  
   138   57  136 1  
   139   58  137 1  
   140   61  138 1  
   141   61  139 1  
   142   63  140 1  
   143   64  141 1  
   144   65  142 1  
   145   66  143 1  
   146   67  144 1  
   147   68  145 1  
   148   69  146 1  
   149   69  147 1  
   150   72  148 1  
   151   73  149 1  
   152   74  150 ar 
   153   76  151 1  
   154   76  152 1  
   155   77  153 1  
@<TRIPOS>SUBSTRUCTURE
     1 THR         1

