4ej2_ligand
  -I-interpret- 

 50 51  0  0  0  0  0  0  0  0999 V2000
   34.0600   23.7760   28.9530 N   0  0  0  0  0
   33.2520   24.4370   29.8330 C   0  0  0  0  0
   32.0170   24.4210   29.7030 O   0  0  0  0  0
   33.7980   25.1930   30.9040 N   0  0  0  0  0
   35.1860   25.2460   31.0670 C   0  0  0  0  0
   35.7380   25.8740   31.9770 O   0  0  0  0  0
   35.9920   24.5660   30.1890 C   0  0  0  0  0
   35.4940   23.8150   29.1100 C   0  0  0  0  0
   37.3950   24.8240   30.6520 C   0  0  0  0  0
   38.4760   24.9740   31.0040 C   0  0  0  0  0
   39.8680   25.2700   31.5330 C   0  0  0  0  0
   33.3370   23.0080   27.8710 C   0  0  0  0  0
   40.6560   23.9770   31.8800 C   0  0  0  0  0
   42.1020   24.1790   32.3720 C   0  0  0  0  0
   42.9250   22.9200   32.6980 C   0  0  0  0  0
   44.1940   22.8200   31.8470 C   0  0  0  0  0
   33.8730   23.1370   26.4240 C   0  0  0  0  0
   34.2650   24.5200   26.1610 O   0  0  0  0  0
   32.7610   22.5320   25.4480 C   0  0  0  0  0
   33.1250   22.5360   24.0420 O   0  0  0  0  0
   32.4350   21.0780   25.8730 C   0  0  0  0  0
   31.3390   20.5260   25.0620 O   0  0  0  0  0
   32.1650   20.9600   27.4260 C   0  0  0  0  0
   33.1990   21.6020   28.2040 O   0  0  0  0  0
   32.1070   19.4980   27.8790 C   0  0  0  0  0
   33.2090   18.7620   27.3340 O   0  0  0  0  0
   33.1842   25.6922   31.5477 H   0  0  0  0  0
   36.1585   23.2879   28.4254 H   0  0  0  0  0
   39.7646   25.8574   32.4454 H   0  0  0  0  0
   40.4179   25.8024   30.7569 H   0  0  0  0  0
   32.3688   23.5085   27.8564 H   0  0  0  0  0
   40.7244   23.4029   30.9560 H   0  0  0  0  0
   40.1175   23.5009   32.6994 H   0  0  0  0  0
   42.0183   24.7258   33.3112 H   0  0  0  0  0
   42.6258   24.6668   31.5500 H   0  0  0  0  0
   42.3066   22.0474   32.4875 H   0  0  0  0  0
   43.2229   22.9721   33.7452 H   0  0  0  0  0
   43.9207   22.7822   30.7925 H   0  0  0  0  0
   44.8222   23.6918   32.0298 H   0  0  0  0  0
   44.7393   21.9151   32.1150 H   0  0  0  0  0
   34.7854   22.5654   26.2542 H   0  0  0  0  0
   34.5960   24.5923   25.2628 H   0  0  0  0  0
   31.8955   23.1873   25.5459 H   0  0  0  0  0
   32.4086   22.1589   23.5261 H   0  0  0  0  0
   33.3166   20.4677   25.6770 H   0  0  0  0  0
   31.1558   19.6266   25.3434 H   0  0  0  0  0
   31.2067   21.4516   27.5932 H   0  0  0  0  0
   31.1754   19.0543   27.5278 H   0  0  0  0  0
   32.1590   19.4612   28.9671 H   0  0  0  0  0
   33.1586   17.8491   27.6266 H   0  0  0  0  0
  1  2  1  0  0  0
  1  8  1  0  0  0
  1 12  1  0  0  0
  2  3  2  0  0  0
  2  4  1  0  0  0
  4  5  1  0  0  0
  5  6  2  0  0  0
  5  7  1  0  0  0
  7  8  2  0  0  0
  7  9  1  0  0  0
  9 10  3  0  0  0
 10 11  1  0  0  0
 11 13  1  0  0  0
 12 17  1  0  0  0
 12 24  1  0  0  0
 13 14  1  0  0  0
 14 15  1  0  0  0
 15 16  1  0  0  0
 17 18  1  0  0  0
 17 19  1  0  0  0
 19 20  1  0  0  0
 19 21  1  0  0  0
 21 22  1  0  0  0
 21 23  1  0  0  0
 23 24  1  0  0  0
 23 25  1  0  0  0
 25 26  1  0  0  0
  4 27  1  0  0  0
  8 28  1  0  0  0
 11 29  1  0  0  0
 11 30  1  0  0  0
 12 31  1  0  0  0
 13 32  1  0  0  0
 13 33  1  0  0  0
 14 34  1  0  0  0
 14 35  1  0  0  0
 15 36  1  0  0  0
 15 37  1  0  0  0
 16 38  1  0  0  0
 16 39  1  0  0  0
 16 40  1  0  0  0
 17 41  1  0  0  0
 18 42  1  0  0  0
 19 43  1  0  0  0
 20 44  1  0  0  0
 21 45  1  0  0  0
 22 46  1  0  0  0
 23 47  1  0  0  0
 25 48  1  0  0  0
 25 49  1  0  0  0
 26 50  1  0  0  0
M  END
$$$$
