1ih0_ligand
  -I-interpret- 

 56 59  0  0  0  0  0  0  0  0999 V2000
   60.9590    0.5740    3.2660 S   0  0  0  0  0
   62.4690    1.1230    2.5010 C   0  0  0  0  0
   63.5220    0.5220    2.7080 O   0  0  0  0  0
   62.4250    2.1130    1.6170 N   0  0  0  0  0
   61.2730    2.7490    1.2080 N   0  3  0  0  0
   60.0220    2.5500    1.4510 C   0  0  0  0  0
   59.6350    1.3010    2.2710 C   0  0  0  0  0
   59.1030    0.2120    1.3390 C   0  0  0  0  0
   58.9890    3.6990    1.1740 C   0  0  0  0  0
   58.2730    4.2610    2.2390 C   0  0  0  0  0
   57.3470    5.2920    2.0030 C   0  0  0  0  0
   57.1480    5.7490    0.6770 C   0  0  0  0  0
   57.8670    5.1830   -0.3830 C   0  0  0  0  0
   58.7890    4.1590   -0.1340 C   0  0  0  0  0
   56.1340    6.8600    0.4330 N   0  0  0  0  0
   55.6720    7.6960    1.6210 C   0  0  0  0  0
   56.3190    7.3990    2.9580 C   0  0  0  0  0
   56.5690    5.8900    3.1840 C   0  0  0  0  0
   55.6070    7.1480   -0.8220 C   0  0  0  0  0
   55.9380    6.5090   -1.8200 O   0  0  0  0  0
   54.5880    8.2730   -1.0210 C   0  0  0  0  0
   54.9240    9.3930   -1.7930 C   0  0  0  0  0
   54.0530   10.4920   -1.8520 C   0  0  0  0  0
   54.4330   11.5860   -2.6380 O   0  0  0  0  0
   52.8600   10.4720   -1.1490 C   0  0  0  0  0
   51.9610   11.5440   -1.1760 O   0  0  0  0  0
   52.5190    9.3530   -0.3750 C   0  0  0  0  0
   53.3820    8.2540   -0.3110 C   0  0  0  0  0
   55.7920   11.8610   -3.0630 C   0  0  0  0  0
   51.0400   11.8670   -0.1040 C   0  0  0  0  0
   63.3074    2.4251    1.2116 H   0  0  0  0  0
   61.2885    2.4919    0.2211 H   0  0  0  0  0
   61.3941    3.6342    1.7000 H   0  0  0  0  0
   59.6776    2.1156    0.5125 H   0  0  0  0  0
   58.8823    1.6626    2.9715 H   0  0  0  0  0
   58.2242    0.5839    0.8122 H   0  0  0  0  0
   59.8747   -0.0556    0.6172 H   0  0  0  0  0
   58.8322   -0.6659    1.9255 H   0  0  0  0  0
   58.4345    3.8976    3.2539 H   0  0  0  0  0
   57.7091    5.5392   -1.4010 H   0  0  0  0  0
   59.3512    3.7197   -0.9580 H   0  0  0  0  0
   54.6116    7.4772    1.7465 H   0  0  0  0  0
   55.9365    8.7263    1.3828 H   0  0  0  0  0
   55.6422    7.7448    3.7393 H   0  0  0  0  0
   57.2851    7.9032    2.9795 H   0  0  0  0  0
   57.1528    5.7600    4.0953 H   0  0  0  0  0
   55.6092    5.3807    3.2704 H   0  0  0  0  0
   55.8620    9.4108   -2.3479 H   0  0  0  0  0
   51.5796    9.3398    0.1777 H   0  0  0  0  0
   53.1159    7.3848    0.2905 H   0  0  0  0  0
   56.4261   11.9918   -2.1861 H   0  0  0  0  0
   56.1611   11.0260   -3.6585 H   0  0  0  0  0
   55.8067   12.7711   -3.6626 H   0  0  0  0  0
   50.3710   11.0232    0.0651 H   0  0  0  0  0
   51.6024   12.0746    0.8063 H   0  0  0  0  0
   50.4565   12.7452   -0.3803 H   0  0  0  0  0
  1  2  1  0  0  0
  1  7  1  0  0  0
  2  3  2  0  0  0
  2  4  1  0  0  0
  4  5  1  0  0  0
  5  6  1  0  0  0
  6  7  1  0  0  0
  6  9  1  0  0  0
  7  8  1  0  0  0
  9 10  4  0  0  0
  9 14  4  0  0  0
 10 11  4  0  0  0
 11 12  4  0  0  0
 11 18  1  0  0  0
 12 13  4  0  0  0
 12 15  1  0  0  0
 13 14  4  0  0  0
 15 16  1  0  0  0
 15 19  1  0  0  0
 16 17  1  0  0  0
 17 18  1  0  0  0
 19 20  2  0  0  0
 19 21  1  0  0  0
 21 22  4  0  0  0
 21 28  4  0  0  0
 22 23  4  0  0  0
 23 24  1  0  0  0
 23 25  4  0  0  0
 24 29  1  0  0  0
 25 26  1  0  0  0
 25 27  4  0  0  0
 26 30  1  0  0  0
 27 28  4  0  0  0
  4 31  1  0  0  0
  5 32  1  0  0  0
  5 33  1  0  0  0
  6 34  1  0  0  0
  7 35  1  0  0  0
  8 36  1  0  0  0
  8 37  1  0  0  0
  8 38  1  0  0  0
 10 39  1  0  0  0
 13 40  1  0  0  0
 14 41  1  0  0  0
 16 42  1  0  0  0
 16 43  1  0  0  0
 17 44  1  0  0  0
 17 45  1  0  0  0
 18 46  1  0  0  0
 18 47  1  0  0  0
 22 48  1  0  0  0
 27 49  1  0  0  0
 28 50  1  0  0  0
 29 51  1  0  0  0
 29 52  1  0  0  0
 29 53  1  0  0  0
 30 54  1  0  0  0
 30 55  1  0  0  0
 30 56  1  0  0  0
M  END
$$$$
