5mar_ligand
  -I-interpret- 

 27 28  0  0  0  0  0  0  0  0999 V2000
    4.9540  -35.6850    0.1680 C   0  0  0  0  0
    6.1120  -36.4570    0.7900 C   0  0  0  0  0
    6.1570  -36.1580    2.2850 C   0  0  0  0  0
    7.2570  -36.9830    2.9410 C   0  0  0  0  0
   12.8430  -37.2950    6.0030 C   0  0  0  0  0
   12.2660  -38.5330    5.7730 C   0  0  0  0  0
   10.9840  -36.2250    4.9300 C   0  0  0  0  0
   10.4090  -37.4610    4.7000 C   0  0  0  0  0
   11.0490  -38.6170    5.1200 C   0  0  0  0  0
   12.2010  -36.1410    5.5830 C   0  0  0  0  0
    9.0720  -37.5470    3.9780 C   0  0  0  0  0
    8.4070  -38.6580    3.6850 N   0  0  0  0  0
    8.3570  -36.4950    3.5140 N   0  0  0  0  0
    7.2930  -38.2970    3.0500 O   0  0  0  0  0
    4.9530  -35.8990   -1.2130 O   0  0  0  0  0
   14.4120  -37.1820    6.8450 Cl  0  0  0  0  0
    5.0690  -34.6210    0.3746 H   0  0  0  0  0
    4.0118  -36.0301    0.5938 H   0  0  0  0  0
    7.0498  -36.1536    0.3247 H   0  0  0  0  0
    5.9700  -37.5261    0.6317 H   0  0  0  0  0
    5.1972  -36.4140    2.7336 H   0  0  0  0  0
    6.3620  -35.0981    2.4354 H   0  0  0  0  0
   12.7701  -39.4402    6.1061 H   0  0  0  0  0
   10.4794  -35.3179    4.5974 H   0  0  0  0  0
   10.5942  -39.5904    4.9361 H   0  0  0  0  0
   12.6547  -35.1671    5.7670 H   0  0  0  0  0
    4.2253  -35.4149   -1.6102 H   0  0  0  0  0
  2  1  1  0  0  0
  1 15  1  0  0  0
  3  2  1  0  0  0
  4  3  1  0  0  0
 13  4  4  0  0  0
  4 14  4  0  0  0
  6  5  4  0  0  0
 10  5  4  0  0  0
  5 16  1  0  0  0
  9  6  4  0  0  0
  8  7  4  0  0  0
  7 10  4  0  0  0
  8  9  4  0  0  0
 11  8  1  0  0  0
 11 12  4  0  0  0
 11 13  4  0  0  0
 12 14  4  0  0  0
  1 17  1  0  0  0
  1 18  1  0  0  0
  2 19  1  0  0  0
  2 20  1  0  0  0
  3 21  1  0  0  0
  3 22  1  0  0  0
  6 23  1  0  0  0
  7 24  1  0  0  0
  9 25  1  0  0  0
 10 26  1  0  0  0
 15 27  1  0  0  0
M  END
$$$$
