5m4f_ligand
  -I-interpret- 

 33 35  0  0  0  0  0  0  0  0999 V2000
  -12.3590   -4.9090  -13.2980 C   0  0  0  0  0
  -13.5960  -10.3130   -8.3640 C   0  0  0  0  0
  -13.5290   -7.9830   -8.3380 C   0  0  0  0  0
  -13.0150   -6.5950  -11.6230 C   0  0  0  0  0
  -13.0230   -8.9900  -11.8320 C   0  0  0  0  0
  -13.2330   -9.0630  -10.4040 C   0  0  0  0  0
  -11.6620   -0.9890  -14.2890 O   0  0  0  0  0
  -12.9620  -10.1130  -12.5860 O   0  0  0  0  0
  -13.0280   -0.2830  -12.6590 O   0  0  0  0  0
  -12.7260   -7.6870  -13.7990 O   0  0  0  0  0
  -13.7000  -11.8210   -7.5730 Cl  0  0  0  0  0
  -13.6130   -6.4950   -7.5390 Cl  0  0  0  0  0
  -13.2710   -2.8740  -11.6350 C   0  0  0  0  0
  -12.2280   -3.6090  -13.6940 C   0  0  0  0  0
  -13.3780   -4.1920  -11.2370 C   0  0  0  0  0
  -13.6780   -9.1610   -7.6480 C   0  0  0  0  0
  -13.3850  -10.3090   -9.7360 C   0  0  0  0  0
  -13.2160   -6.7200  -10.2860 O   0  0  0  0  0
  -12.4810   -1.2060  -13.3180 C   0  0  0  0  0
  -12.6660   -2.6070  -12.8860 C   0  0  0  0  0
  -12.9170   -5.1990  -12.0620 C   0  0  0  0  0
  -12.8970   -7.7070  -12.4260 C   0  0  0  0  0
  -13.3150   -7.9310   -9.7230 C   0  0  0  0  0
  -12.0263   -5.7159  -13.9509 H   0  0  0  0  0
  -12.5984   -9.8763  -12.3035 H   0  0  0  0  0
  -11.3655   -1.8279  -14.6496 H   0  0  0  0  0
  -13.0656  -10.8823  -12.0212 H   0  0  0  0  0
  -12.6707   -8.5877  -14.1266 H   0  0  0  0  0
  -13.6409   -2.0648  -11.0053 H   0  0  0  0  0
  -11.7730   -3.3747  -14.6564 H   0  0  0  0  0
  -13.8254   -4.4370  -10.2737 H   0  0  0  0  0
  -13.8544   -9.1715   -6.5724 H   0  0  0  0  0
  -13.3366  -11.2453  -10.2919 H   0  0  0  0  0
 14  1  4  0  0  0
  1 21  4  0  0  0
  2 11  1  0  0  0
 16  2  4  0  0  0
 17  2  4  0  0  0
  3 12  1  0  0  0
  3 16  4  0  0  0
 23  3  4  0  0  0
  4 18  1  0  0  0
 21  4  1  0  0  0
  4 22  2  0  0  0
  5  6  1  0  0  0
  5  8  1  0  0  0
 22  5  1  0  0  0
  6 17  4  0  0  0
 23  6  4  0  0  0
 19  7  1  0  0  0
 19  9  2  0  0  0
 22 10  1  0  0  0
 13 15  4  0  0  0
 20 13  4  0  0  0
 20 14  4  0  0  0
 15 21  4  0  0  0
 18 23  1  0  0  0
 19 20  1  0  0  0
  1 24  1  0  0  0
  5 25  1  0  0  0
  7 26  1  0  0  0
  8 27  1  0  0  0
 10 28  1  0  0  0
 13 29  1  0  0  0
 14 30  1  0  0  0
 15 31  1  0  0  0
 16 32  1  0  0  0
 17 33  1  0  0  0
M  END
$$$$
