1qwu_ligand
  -I-interpret- 

 23 23  0  0  0  0  0  0  0  0999 V2000
   30.3620   66.0770    6.6520 C   0  0  0  0  0
   32.4770   65.7760    8.8070 C   0  0  0  0  0
   29.6860   65.5500    5.7770 F   0  0  0  0  0
   33.4980   65.4240    9.5600 O   0  0  0  0  0
   32.8450   66.4910    7.4470 C   0  0  0  0  0
   34.1240   66.1290    6.9930 O   0  0  0  0  0
   31.8710   66.5730    6.1380 C   0  0  0  0  0
   31.6410   67.5950    5.3770 O   0  0  0  0  0
   29.4220   67.1420    7.3000 C   0  0  0  0  0
   28.5530   66.9110    7.9970 O   0  0  0  0  0
   30.3510   65.0050    7.7570 O   0  0  0  0  0
   31.5720   64.5480    8.3260 C   0  0  0  0  0
   31.9635   66.4518    9.4909 H   0  0  0  0  0
   33.9943   66.2067    9.8105 H   0  0  0  0  0
   32.7209   67.4966    7.8487 H   0  0  0  0  0
   34.7234   66.0718    7.7407 H   0  0  0  0  0
   32.5020   65.9983    5.4600 H   0  0  0  0  0
   31.0247   67.3449    4.6848 H   0  0  0  0  0
   28.9160   67.5631    6.4312 H   0  0  0  0  0
   30.1043   67.6857    7.9534 H   0  0  0  0  0
   28.1296   67.7310    8.2614 H   0  0  0  0  0
   31.3427   63.9239    9.1897 H   0  0  0  0  0
   32.1202   63.9851    7.5705 H   0  0  0  0  0
  1  3  1  0  0  0
  7  1  1  0  0  0
  1  9  1  0  0  0
  1 11  1  0  0  0
  2  4  1  0  0  0
  5  2  1  0  0  0
  2 12  1  0  0  0
  5  6  1  0  0  0
  5  7  1  0  0  0
  7  8  1  0  0  0
  9 10  1  0  0  0
 11 12  1  0  0  0
  2 13  1  0  0  0
  4 14  1  0  0  0
  5 15  1  0  0  0
  6 16  1  0  0  0
  7 17  1  0  0  0
  8 18  1  0  0  0
  9 19  1  0  0  0
  9 20  1  0  0  0
 10 21  1  0  0  0
 12 22  1  0  0  0
 12 23  1  0  0  0
M  END
$$$$
