2r38_ligand
  -I-interpret- 

 79 83  0  0  0  0  0  0  0  0999 V2000
    9.0910  -15.6380  -14.4700 C   0  0  0  0  0
   17.0880  -24.4640  -22.0150 O   0  0  0  0  0
    5.5910  -14.9370  -15.3750 N   0  0  0  0  0
   14.4900  -23.7450  -21.2580 C   0  0  0  0  0
    7.3040  -13.5910  -14.8850 O   0  0  0  0  0
   17.4820  -25.6230  -20.1460 N   0  0  0  0  0
    7.5230  -17.0750  -15.7590 C   0  0  0  0  0
    7.8340  -15.8330  -15.1470 C   0  0  0  0  0
   15.1830  -24.2720  -18.9590 C   0  0  0  0  0
   15.4290  -24.2640  -20.3520 C   0  0  0  0  0
   13.4650  -18.7130  -15.2480 C   0  0  0  0  0
   16.7330  -24.7990  -20.8980 C   0  0  0  0  0
   10.8400  -19.3140  -14.9990 S   0  0  0  0  0
    6.8880  -14.7080  -15.1350 C   0  0  0  0  0
   11.4550  -22.5440  -18.7730 S   0  0  0  0  0
   10.2440  -20.5080  -15.5810 O   0  0  0  0  0
   11.4530  -22.7950  -17.3490 O   0  0  0  0  0
   14.3370  -19.9700  -15.1960 C   0  0  0  0  0
   13.7750  -21.2360  -14.8290 C   0  0  0  0  0
   15.7290  -19.8980  -15.5270 C   0  0  0  0  0
   10.0240  -16.7160  -14.4420 C   0  0  0  0  0
   13.2560  -23.2270  -20.8000 C   0  0  0  0  0
    8.4590  -18.1500  -15.6960 C   0  0  0  0  0
   13.9410  -23.7450  -18.5020 C   0  0  0  0  0
   12.5480  -17.7440  -18.1340 C   0  0  0  0  0
   13.9080  -18.1870  -18.5630 N   0  3  0  0  0
   11.9170  -18.9640  -17.4310 C   0  0  0  0  0
   12.6710  -20.2210  -18.0330 C   0  0  0  0  0
   13.9840  -19.6560  -18.6380 C   0  0  0  0  0
    9.7200  -17.9720  -15.0360 C   0  0  0  0  0
   12.9930  -23.2100  -19.4050 C   0  0  0  0  0
   12.1900  -18.9500  -15.9490 N   0  0  0  0  0
   14.6280  -22.3830  -14.8010 C   0  0  0  0  0
   16.5830  -21.0400  -15.4640 C   0  0  0  0  0
   16.0200  -22.2980  -15.0980 C   0  0  0  0  0
   11.8070  -20.8900  -19.0730 N   0  0  0  0  0
   11.2780  -20.2790  -20.3230 C   0  0  0  0  0
    9.9940  -19.4760  -20.1590 C   0  0  0  0  0
    9.0510  -19.8620  -19.1850 C   0  0  0  0  0
    7.8680  -19.0780  -19.0800 C   0  0  0  0  0
    7.6650  -17.9450  -19.9230 C   0  0  0  0  0
    9.7850  -18.3620  -21.0180 C   0  0  0  0  0
    8.6190  -17.5620  -20.9020 C   0  0  0  0  0
   10.4790  -22.9790  -19.7570 O   0  0  0  0  0
   11.2960  -19.4340  -13.5890 O   0  0  0  0  0
    9.3235  -14.6875  -13.9899 H   0  0  0  0  0
    4.9240  -14.1657  -15.3510 H   0  0  0  0  0
    5.2698  -15.8828  -15.5818 H   0  0  0  0  0
   14.7142  -23.7413  -22.3247 H   0  0  0  0  0
   18.3662  -25.9807  -20.5074 H   0  0  0  0  0
   17.1663  -25.8908  -19.2138 H   0  0  0  0  0
    6.5723  -17.2073  -16.2755 H   0  0  0  0  0
   15.9188  -24.6680  -18.2591 H   0  0  0  0  0
   14.0125  -17.9420  -15.7902 H   0  0  0  0  0
   13.2393  -18.4136  -14.2245 H   0  0  0  0  0
   12.7183  -21.3228  -14.5762 H   0  0  0  0  0
   16.1492  -18.9411  -15.8367 H   0  0  0  0  0
   10.9892  -16.5746  -13.9558 H   0  0  0  0  0
   12.5186  -22.8469  -21.5070 H   0  0  0  0  0
    8.2149  -19.1099  -16.1510 H   0  0  0  0  0
   13.7168  -23.7542  -17.4353 H   0  0  0  0  0
   11.9480  -17.4195  -18.9841 H   0  0  0  0  0
   12.6011  -16.8833  -17.4673 H   0  0  0  0  0
   14.5904  -17.8580  -17.8800 H   0  0  0  0  0
   14.1019  -17.8012  -19.4871 H   0  0  0  0  0
   10.8374  -18.9708  -17.5808 H   0  0  0  0  0
   12.8877  -20.9841  -17.2854 H   0  0  0  0  0
   14.8482  -20.0223  -18.0839 H   0  0  0  0  0
   14.0981  -19.9800  -19.6725 H   0  0  0  0  0
   14.2010  -23.3526  -14.5447 H   0  0  0  0  0
   17.6454  -20.9521  -15.6914 H   0  0  0  0  0
   16.6484  -23.1871  -15.0457 H   0  0  0  0  0
   11.0486  -21.1013  -21.0007 H   0  0  0  0  0
   12.0388  -19.5839  -20.6780 H   0  0  0  0  0
    9.2206  -20.7241  -18.5399 H   0  0  0  0  0
    7.1077  -19.3464  -18.3465 H   0  0  0  0  0
    6.7533  -17.3579  -19.8124 H   0  0  0  0  0
   10.5304  -18.1196  -21.7754 H   0  0  0  0  0
    8.4624  -16.6904  -21.5375 H   0  0  0  0  0
  1  8  4  0  0  0
 21  1  4  0  0  0
 12  2  2  0  0  0
 14  3  1  0  0  0
  4 10  4  0  0  0
 22  4  4  0  0  0
 14  5  2  0  0  0
 12  6  1  0  0  0
  7  8  4  0  0  0
 23  7  4  0  0  0
  8 14  1  0  0  0
  9 10  4  0  0  0
 24  9  4  0  0  0
 10 12  1  0  0  0
 11 18  1  0  0  0
 32 11  1  0  0  0
 13 16  2  0  0  0
 13 30  1  0  0  0
 32 13  1  0  0  0
 13 45  2  0  0  0
 15 17  2  0  0  0
 15 31  1  0  0  0
 36 15  1  0  0  0
 15 44  2  0  0  0
 18 19  4  0  0  0
 18 20  4  0  0  0
 19 33  4  0  0  0
 20 34  4  0  0  0
 30 21  4  0  0  0
 31 22  4  0  0  0
 30 23  4  0  0  0
 31 24  4  0  0  0
 26 25  1  0  0  0
 27 25  1  0  0  0
 29 26  1  0  0  0
 28 27  1  0  0  0
 27 32  1  0  0  0
 28 29  1  0  0  0
 28 36  1  0  0  0
 33 35  4  0  0  0
 34 35  4  0  0  0
 36 37  1  0  0  0
 37 38  1  0  0  0
 38 39  4  0  0  0
 38 42  4  0  0  0
 39 40  4  0  0  0
 40 41  4  0  0  0
 41 43  4  0  0  0
 42 43  4  0  0  0
  1 46  1  0  0  0
  3 47  1  0  0  0
  3 48  1  0  0  0
  4 49  1  0  0  0
  6 50  1  0  0  0
  6 51  1  0  0  0
  7 52  1  0  0  0
  9 53  1  0  0  0
 11 54  1  0  0  0
 11 55  1  0  0  0
 19 56  1  0  0  0
 20 57  1  0  0  0
 21 58  1  0  0  0
 22 59  1  0  0  0
 23 60  1  0  0  0
 24 61  1  0  0  0
 25 62  1  0  0  0
 25 63  1  0  0  0
 26 64  1  0  0  0
 26 65  1  0  0  0
 27 66  1  0  0  0
 28 67  1  0  0  0
 29 68  1  0  0  0
 29 69  1  0  0  0
 33 70  1  0  0  0
 34 71  1  0  0  0
 35 72  1  0  0  0
 37 73  1  0  0  0
 37 74  1  0  0  0
 39 75  1  0  0  0
 40 76  1  0  0  0
 41 77  1  0  0  0
 42 78  1  0  0  0
 43 79  1  0  0  0
M  END
$$$$
