5qc4_ligand
  -I-interpret- 

 90 94  0  0  0  0  0  0  0  0999 V2000
    8.6560   -6.6430   12.0850 C   0  0  0  0  0
    7.8670   -5.4360   14.0980 C   0  0  0  0  0
    6.4080   -5.1320   14.4160 C   0  0  0  0  0
    5.7940   -4.3170   13.3210 C   0  0  0  0  0
    7.8010   -4.3440   11.8760 C   0  0  0  0  0
    5.4480   -3.1970   11.4590 C   0  0  0  0  0
    3.4990   -3.8880   14.2510 C   0  0  0  0  0
    3.4160   -2.5410   14.9550 C   0  0  0  0  0
    2.0280   -2.2530   15.4820 C   0  0  0  0  0
    2.0310   -1.0350   17.5890 C   0  0  0  0  0
    1.6960    1.4600   17.6200 C   0  0  0  0  0
    1.3440    0.1210   18.2770 C   0  0  0  0  0
    2.9100    1.2690   16.6970 C   0  0  0  0  0
    1.8600    2.6170   18.6520 C   0  0  0  0  0
    5.5800   -2.5530   10.1430 C   0  0  0  0  0
    4.6300   -2.7050    9.1410 C   0  0  0  0  0
    4.8000   -2.0870    7.9180 C   0  0  0  0  0
    5.9160   -1.3020    7.6570 C   0  0  0  0  0
    6.8850   -1.1520    8.6790 C   0  0  0  0  0
    6.7020   -1.7790    9.9060 C   0  0  0  0  0
    2.6820    0.1720   15.6150 C   0  0  0  0  0
    8.2890    0.8480    9.9400 C   0  0  0  0  0
    9.4890    1.7780    9.9990 C   0  0  0  0  0
    8.6180    2.7330   12.1530 C   0  0  0  0  0
    8.8430    4.1920   12.7060 C   0  0  0  0  0
   10.0390    4.7580   11.9270 C   0  0  0  0  0
   10.6910    3.5750   11.2220 C   0  0  0  0  0
    6.0720   -0.6530    6.3070 C   0  0  0  0  0
    8.9580   -7.8090   12.9910 C   0  0  0  0  0
    2.9890    2.3450   19.6260 C   0  0  0  0  0
    0.5650    2.8690   19.4090 C   0  0  0  0  0
    6.4130   -3.9550   12.1810 C   0  0  0  0  0
    7.2060   -1.0090    5.6940 F   0  0  0  0  0
    5.1170   -0.9600    5.4980 F   0  0  0  0  0
    6.0890    0.6540    6.3550 F   0  0  0  0  0
    4.3000   -3.0990   12.1330 N   0  0  0  0  0
    4.5380   -3.8090   13.2770 N   0  0  0  0  0
    1.8730   -0.9410   16.1380 N   0  3  0  0  0
    8.1360   -5.5230   12.6470 N   0  0  0  0  0
    9.5830    2.6280   11.0510 N   0  0  0  0  0
    4.4400   -2.4760   15.9610 O   0  0  0  0  0
    8.8730   -6.6980   10.8810 O   0  0  0  0  0
   10.3340    1.7430    9.1130 O   0  0  0  0  0
    2.2040    3.8270   17.9470 O   0  0  0  0  0
    8.3390   -0.1800    8.4550 S   0  0  0  0  0
    8.1084   -6.4031   14.5390 H   0  0  0  0  0
    8.4709   -4.6222   14.4994 H   0  0  0  0  0
    6.3577   -4.5693   15.3482 H   0  0  0  0  0
    5.8619   -6.0707   14.5087 H   0  0  0  0  0
    8.4778   -3.5295   12.1341 H   0  0  0  0  0
    7.8988   -4.5587   10.8118 H   0  0  0  0  0
    2.5487   -4.1231   13.7717 H   0  0  0  0  0
    3.7147   -4.6778   14.9705 H   0  0  0  0  0
    3.6010   -1.7436   14.2353 H   0  0  0  0  0
    1.8132   -3.0103   16.2360 H   0  0  0  0  0
    1.3570   -2.2577   14.6231 H   0  0  0  0  0
    1.5819   -1.9668   17.9327 H   0  0  0  0  0
    3.0936   -1.0074   17.8302 H   0  0  0  0  0
    0.8577    1.7824   17.0025 H   0  0  0  0  0
    1.6754    0.1496   19.3150 H   0  0  0  0  0
    0.2665   -0.0258   18.2028 H   0  0  0  0  0
    3.7522    0.9574   17.3148 H   0  0  0  0  0
    3.0883    2.2129   16.1818 H   0  0  0  0  0
    3.7453   -3.3156    9.3212 H   0  0  0  0  0
    4.0446   -2.2175    7.1431 H   0  0  0  0  0
    7.4502   -1.6596   10.6896 H   0  0  0  0  0
    3.6525   -0.2197   15.3103 H   0  0  0  0  0
    2.1510    0.6202   14.7752 H   0  0  0  0  0
    7.3807    1.4501    9.9181 H   0  0  0  0  0
    8.3063    0.1989   10.8154 H   0  0  0  0  0
    7.5919    2.5652   11.8257 H   0  0  0  0  0
    8.7722    1.9699   12.9159 H   0  0  0  0  0
    9.0381    4.1828   13.7784 H   0  0  0  0  0
    7.9544    4.8083   12.5690 H   0  0  0  0  0
   10.7437    5.2517   12.5962 H   0  0  0  0  0
    9.7169    5.5124   11.2092 H   0  0  0  0  0
   11.5187    3.1525   11.7917 H   0  0  0  0  0
   11.1527    3.8546   10.2750 H   0  0  0  0  0
    8.3787   -8.6753   12.6715 H   0  0  0  0  0
   10.0215   -8.0422   12.9387 H   0  0  0  0  0
    8.6915   -7.5499   14.0157 H   0  0  0  0  0
    2.7822    1.4246   20.1721 H   0  0  0  0  0
    3.9243    2.2404   19.0761 H   0  0  0  0  0
    3.0696    3.1751   20.3278 H   0  0  0  0  0
   -0.2198    3.1413   18.7033 H   0  0  0  0  0
    0.2764    1.9642   19.9440 H   0  0  0  0  0
    0.7136    3.6815   20.1203 H   0  0  0  0  0
    0.9137   -0.6924   15.8965 H   0  0  0  0  0
    4.3933   -1.6284   16.4092 H   0  0  0  0  0
    2.3067    4.5445   18.5764 H   0  0  0  0  0
  1 29  1  0  0  0
 39  1  1  0  0  0
  1 42  2  0  0  0
  3  2  1  0  0  0
 39  2  1  0  0  0
  4  3  1  0  0  0
 32  4  4  0  0  0
  4 37  4  0  0  0
 32  5  1  0  0  0
  5 39  1  0  0  0
 15  6  1  0  0  0
  6 32  4  0  0  0
  6 36  4  0  0  0
  7  8  1  0  0  0
 37  7  1  0  0  0
  8  9  1  0  0  0
  8 41  1  0  0  0
  9 38  1  0  0  0
 10 12  1  0  0  0
 38 10  1  0  0  0
 12 11  1  0  0  0
 13 11  1  0  0  0
 11 14  1  0  0  0
 21 13  1  0  0  0
 14 30  1  0  0  0
 14 31  1  0  0  0
 14 44  1  0  0  0
 15 16  4  0  0  0
 20 15  4  0  0  0
 17 16  4  0  0  0
 18 17  4  0  0  0
 19 18  4  0  0  0
 18 28  1  0  0  0
 19 20  4  0  0  0
 45 19  1  0  0  0
 38 21  1  0  0  0
 23 22  1  0  0  0
 22 45  1  0  0  0
 40 23  1  0  0  0
 23 43  2  0  0  0
 24 25  1  0  0  0
 24 40  1  0  0  0
 25 26  1  0  0  0
 26 27  1  0  0  0
 27 40  1  0  0  0
 28 33  1  0  0  0
 28 34  1  0  0  0
 28 35  1  0  0  0
 36 37  4  0  0  0
  2 46  1  0  0  0
  2 47  1  0  0  0
  3 48  1  0  0  0
  3 49  1  0  0  0
  5 50  1  0  0  0
  5 51  1  0  0  0
  7 52  1  0  0  0
  7 53  1  0  0  0
  8 54  1  0  0  0
  9 55  1  0  0  0
  9 56  1  0  0  0
 10 57  1  0  0  0
 10 58  1  0  0  0
 11 59  1  0  0  0
 12 60  1  0  0  0
 12 61  1  0  0  0
 13 62  1  0  0  0
 13 63  1  0  0  0
 16 64  1  0  0  0
 17 65  1  0  0  0
 20 66  1  0  0  0
 21 67  1  0  0  0
 21 68  1  0  0  0
 22 69  1  0  0  0
 22 70  1  0  0  0
 24 71  1  0  0  0
 24 72  1  0  0  0
 25 73  1  0  0  0
 25 74  1  0  0  0
 26 75  1  0  0  0
 26 76  1  0  0  0
 27 77  1  0  0  0
 27 78  1  0  0  0
 29 79  1  0  0  0
 29 80  1  0  0  0
 29 81  1  0  0  0
 30 82  1  0  0  0
 30 83  1  0  0  0
 30 84  1  0  0  0
 31 85  1  0  0  0
 31 86  1  0  0  0
 31 87  1  0  0  0
 38 88  1  0  0  0
 41 89  1  0  0  0
 44 90  1  0  0  0
M  END
$$$$
