6nvi_ligand
  -I-interpret- 

 54 56  0  0  0  0  0  0  0  0999 V2000
    3.9070  -21.9860    6.5140 C   0  0  0  0  0
    4.6060  -20.7800    6.5090 C   0  0  0  0  0
    4.1810  -19.6880    7.2650 C   0  0  0  0  0
    3.0300  -19.8420    8.0360 C   0  0  0  0  0
    2.3150  -21.0370    8.0420 C   0  0  0  0  0
    2.7530  -22.1020    7.2690 C   0  0  0  0  0
    4.3640  -23.0110    5.7380 O   0  0  0  0  0
    1.2040  -21.0940    8.8320 O   0  0  0  0  0
    4.3370  -24.3310    6.2730 C   0  0  0  0  0
    0.4090  -22.2780    8.7930 C   0  0  0  0  0
    4.9650  -18.4030    7.2720 C   0  0  0  0  0
    6.1440  -18.5980    8.0690 O   0  0  0  0  0
    7.2520  -17.8140    7.8430 C   0  0  0  0  0
    7.1730  -16.5070    7.4030 C   0  0  0  0  0
    8.2700  -15.7760    7.2020 N   0  0  0  0  0
    9.4540  -16.3750    7.4530 C   0  0  0  0  0
    9.6120  -17.6410    7.8910 N   0  0  0  0  0
    8.4990  -18.3520    8.0820 C   0  0  0  0  0
    6.0310  -20.6290    5.5340 Cl  0  0  0  0  0
    2.4690  -18.5330    9.0230 Cl  0  0  0  0  0
   10.5890  -15.6580    7.2370 N   0  0  0  0  0
   10.7290  -14.3290    6.7870 C   0  0  0  0  0
   11.2490  -13.3580    7.6560 C   0  0  0  0  0
   11.3750  -12.0380    7.1950 C   0  0  0  0  0
   10.9890  -11.7390    5.9090 C   0  0  0  0  0
   10.4820  -12.6810    5.0450 C   0  0  0  0  0
   10.3530  -13.9810    5.4890 C   0  0  0  0  0
    9.7260  -15.1830    4.4040 Cl  0  0  0  0  0
   11.1190  -10.4570    5.4710 F   0  0  0  0  0
   11.6250  -13.7250    8.9670 N   0  0  0  0  0
   11.6460  -12.9520   10.0720 C   0  0  0  0  0
   12.0930  -13.6340   11.3120 C   0  0  0  0  0
   11.3170  -11.7620   10.0580 O   0  0  0  0  0
   11.8970  -15.0890   11.5370 C   0  0  0  0  0
    2.1866  -23.0332    7.2561 H   0  0  0  0  0
    4.9483  -24.3688    7.1746 H   0  0  0  0  0
    3.3098  -24.6017    6.5173 H   0  0  0  0  0
    4.7323  -25.0290    5.5350 H   0  0  0  0  0
    0.0420  -22.4344    7.7786 H   0  0  0  0  0
    1.0152  -23.1313    9.0970 H   0  0  0  0  0
   -0.4355  -22.1697    9.4736 H   0  0  0  0  0
    4.3601  -17.5984    7.6901 H   0  0  0  0  0
    5.2429  -18.1292    6.2542 H   0  0  0  0  0
    6.1945  -16.0644    7.2164 H   0  0  0  0  0
    8.5773  -19.3804    8.4346 H   0  0  0  0  0
   11.4616  -16.1507    7.4272 H   0  0  0  0  0
   11.7732  -11.2607    7.8471 H   0  0  0  0  0
   10.1885  -12.4068    4.0317 H   0  0  0  0  0
   11.9166  -14.6942    9.0937 H   0  0  0  0  0
   11.4808  -13.1740   12.0877 H   0  0  0  0  0
   13.1773  -13.5271   11.2819 H   0  0  0  0  0
   10.8321  -15.3197   11.5077 H   0  0  0  0  0
   12.4129  -15.6487   10.7568 H   0  0  0  0  0
   12.3027  -15.3626   12.5110 H   0  0  0  0  0
  1  2  4  0  0  0
  1  6  4  0  0  0
  1  7  1  0  0  0
  2  3  4  0  0  0
  2 19  1  0  0  0
  3  4  4  0  0  0
  3 11  1  0  0  0
  4  5  4  0  0  0
  4 20  1  0  0  0
  5  6  4  0  0  0
  5  8  1  0  0  0
  7  9  1  0  0  0
  8 10  1  0  0  0
 11 12  1  0  0  0
 12 13  1  0  0  0
 13 14  4  0  0  0
 13 18  4  0  0  0
 14 15  4  0  0  0
 15 16  4  0  0  0
 16 17  4  0  0  0
 16 21  1  0  0  0
 17 18  4  0  0  0
 21 22  1  0  0  0
 22 23  4  0  0  0
 22 27  4  0  0  0
 23 24  4  0  0  0
 23 30  1  0  0  0
 24 25  4  0  0  0
 25 26  4  0  0  0
 25 29  1  0  0  0
 26 27  4  0  0  0
 27 28  1  0  0  0
 30 31  1  0  0  0
 31 32  1  0  0  0
 31 33  2  0  0  0
 32 34  1  0  0  0
  6 35  1  0  0  0
  9 36  1  0  0  0
  9 37  1  0  0  0
  9 38  1  0  0  0
 10 39  1  0  0  0
 10 40  1  0  0  0
 10 41  1  0  0  0
 11 42  1  0  0  0
 11 43  1  0  0  0
 14 44  1  0  0  0
 18 45  1  0  0  0
 21 46  1  0  0  0
 24 47  1  0  0  0
 26 48  1  0  0  0
 30 49  1  0  0  0
 32 50  1  0  0  0
 32 51  1  0  0  0
 34 52  1  0  0  0
 34 53  1  0  0  0
 34 54  1  0  0  0
M  END
$$$$
