3h5s_ligand
  -I-interpret- 

 69 73  0  0  0  0  0  0  0  0999 V2000
  -10.0420    8.2950   12.9910 C   0  0  0  0  0
   -9.7090    9.7350   11.1920 C   0  0  0  0  0
  -10.0370    8.4080   10.6240 C   0  0  0  0  0
  -10.1800    7.5360   11.6890 C   0  0  0  0  0
   -9.2140   10.7180   13.4480 C   0  0  0  0  0
   -7.7720   10.3400   13.7720 C   0  0  0  0  0
   -7.2820   10.4850   15.0730 C   0  0  0  0  0
   -5.9680   10.1750   15.3590 C   0  0  0  0  0
   -5.1160    9.6710   14.3680 C   0  0  0  0  0
  -10.4330    6.2400   11.6520 O   0  0  0  0  0
   -9.6480    9.6510   12.5470 N   0  0  0  0  0
   -5.5680    9.5000   13.0600 C   0  0  0  0  0
   -6.8960    9.8490   12.7930 C   0  0  0  0  0
   -9.4010   10.7500   10.5740 O   0  0  0  0  0
  -10.1360    8.0150    9.1750 C   0  0  0  0  0
  -10.8670    6.6880    7.2690 S   0  0  0  0  0
  -10.7070    6.8880    8.9170 N   0  0  0  0  0
  -10.2430    8.2810    6.8070 C   0  0  0  0  0
   -9.8120    8.8790    8.0120 C   0  0  0  0  0
   -9.2370   10.1720    7.9020 C   0  0  0  0  0
   -9.0890   10.8040    6.6710 C   0  0  0  0  0
   -9.9480    5.7270    6.8140 O   0  0  0  0  0
  -12.2510    6.5600    7.0200 O   0  0  0  0  0
  -11.4500    8.2970   13.7060 C   0  0  0  0  0
  -11.7900    6.9000   14.2460 C   0  0  0  0  0
  -11.5180    9.2010   14.9610 C   0  0  0  0  0
  -12.6160    8.6870   12.7450 C   0  0  0  0  0
   -3.8480    9.3620   14.6900 F   0  0  0  0  0
   -5.4560   10.3540   16.7680 C   0  0  0  0  0
  -10.0890    8.9040    5.6000 C   0  0  0  0  0
   -9.5230   10.1750    5.5060 C   0  0  0  0  0
   -9.3680   10.8900    4.1930 C   0  0  0  0  0
  -10.4240   10.3940    3.1860 C   0  0  0  0  0
  -10.4360    8.9040    3.1670 N   0  0  0  0  0
  -10.5620    8.1370    4.4120 C   0  0  0  0  0
  -10.4750    8.0300    1.7660 S   0  0  0  0  0
   -9.8360    8.8060    0.7490 O   0  0  0  0  0
  -10.0250    6.7130    2.0810 O   0  0  0  0  0
  -12.2670    7.9530    1.4220 C   0  0  0  0  0
   -9.3250    7.8790   13.6988 H   0  0  0  0  0
   -9.2971   11.7070   12.9974 H   0  0  0  0  0
   -9.8377   10.7943   14.3386 H   0  0  0  0  0
   -7.9400   10.8441   15.8643 H   0  0  0  0  0
  -10.4771    5.8980   12.5479 H   0  0  0  0  0
   -4.9145    9.1111   12.2791 H   0  0  0  0  0
   -7.2679    9.7338   11.7749 H   0  0  0  0  0
   -8.9028   10.6831    8.8049 H   0  0  0  0  0
   -8.6329   11.7926    6.6182 H   0  0  0  0  0
  -11.0573    6.6155   15.0012 H   0  0  0  0  0
  -12.7849    6.9161   14.6911 H   0  0  0  0  0
  -11.7683    6.1803   13.4276 H   0  0  0  0  0
  -12.5203    9.1545   15.3868 H   0  0  0  0  0
  -10.7927    8.8539   15.6969 H   0  0  0  0  0
  -11.2887   10.2288   14.6797 H   0  0  0  0  0
  -12.6785    7.9580   11.9371 H   0  0  0  0  0
  -13.5542    8.6978   13.2998 H   0  0  0  0  0
  -12.4269    9.6767   12.3292 H   0  0  0  0  0
   -5.5575   11.3992   17.0601 H   0  0  0  0  0
   -6.0358    9.7280   17.4462 H   0  0  0  0  0
   -4.4063   10.0636   16.8114 H   0  0  0  0  0
   -8.3738   10.6895    3.7938 H   0  0  0  0  0
   -9.5030   11.9598    4.3523 H   0  0  0  0  0
  -10.1791   10.7668    2.1914 H   0  0  0  0  0
  -11.4070   10.7603    3.4822 H   0  0  0  0  0
  -11.6162    7.9021    4.5591 H   0  0  0  0  0
   -9.9472    7.2416    4.3211 H   0  0  0  0  0
  -12.6785    8.9623    1.4173 H   0  0  0  0  0
  -12.4293    7.4886    0.4493 H   0  0  0  0  0
  -12.7590    7.3623    2.1947 H   0  0  0  0  0
  1  4  1  0  0  0
 11  1  1  0  0  0
  1 24  1  0  0  0
  2  3  1  0  0  0
 11  2  1  0  0  0
  2 14  2  0  0  0
  3  4  2  0  0  0
  3 15  1  0  0  0
  4 10  1  0  0  0
  5  6  1  0  0  0
  5 11  1  0  0  0
  6  7  4  0  0  0
  6 13  4  0  0  0
  7  8  4  0  0  0
  8  9  4  0  0  0
  8 29  1  0  0  0
  9 12  4  0  0  0
  9 28  1  0  0  0
 12 13  4  0  0  0
 15 17  2  0  0  0
 15 19  1  0  0  0
 17 16  1  0  0  0
 16 18  1  0  0  0
 16 22  2  0  0  0
 16 23  2  0  0  0
 18 19  4  0  0  0
 18 30  4  0  0  0
 19 20  4  0  0  0
 20 21  4  0  0  0
 21 31  4  0  0  0
 24 25  1  0  0  0
 24 26  1  0  0  0
 24 27  1  0  0  0
 30 31  4  0  0  0
 30 35  1  0  0  0
 31 32  1  0  0  0
 32 33  1  0  0  0
 33 34  1  0  0  0
 34 35  1  0  0  0
 34 36  1  0  0  0
 36 37  2  0  0  0
 36 38  2  0  0  0
 36 39  1  0  0  0
  1 40  1  0  0  0
  5 41  1  0  0  0
  5 42  1  0  0  0
  7 43  1  0  0  0
 10 44  1  0  0  0
 12 45  1  0  0  0
 13 46  1  0  0  0
 20 47  1  0  0  0
 21 48  1  0  0  0
 25 49  1  0  0  0
 25 50  1  0  0  0
 25 51  1  0  0  0
 26 52  1  0  0  0
 26 53  1  0  0  0
 26 54  1  0  0  0
 27 55  1  0  0  0
 27 56  1  0  0  0
 27 57  1  0  0  0
 29 58  1  0  0  0
 29 59  1  0  0  0
 29 60  1  0  0  0
 32 61  1  0  0  0
 32 62  1  0  0  0
 33 63  1  0  0  0
 33 64  1  0  0  0
 35 65  1  0  0  0
 35 66  1  0  0  0
 39 67  1  0  0  0
 39 68  1  0  0  0
 39 69  1  0  0  0
M  END
$$$$
