1pwu_ligand
  -I-interpret- 

 55 56  0  0  0  0  0  0  0  0999 V2000
   83.0400   40.3340  139.6050 O   0  0  0  0  0
   82.8470   39.7140  138.4090 N   0  0  0  0  0
   83.4510   38.5590  138.1410 C   0  0  0  0  0
   84.2060   37.9780  138.9180 O   0  0  0  0  0
   83.1440   37.9800  136.7580 C   0  0  0  0  0
   83.0880   36.4500  136.7520 C   0  0  0  0  0
   82.9290   35.9770  135.3050 C   0  0  0  0  0
   81.9300   36.2720  134.6480 O   0  0  0  0  0
   83.9380   35.2420  134.8450 N   0  0  0  0  0
   84.0040   34.7120  133.4740 C   0  0  0  0  0
   82.8580   33.7340  133.1990 C   0  0  0  0  0
   82.7720   32.6730  133.8090 O   0  0  0  0  0
   81.9870   34.1380  132.2750 N   0  0  0  0  0
   82.2120   33.6980  130.8910 C   0  0  0  0  0
   85.3460   34.0060  133.2670 C   0  0  0  0  0
   86.5130   34.9570  133.5530 C   0  0  0  0  0
   87.2120   35.0510  134.6840 C   0  0  0  0  0
   88.1280   36.0140  134.5890 N   0  0  0  0  0
   88.0720   36.5930  133.3890 C   0  0  0  0  0
   88.7810   37.6230  132.7800 C   0  0  0  0  0
   88.4640   37.9950  131.4760 C   0  0  0  0  0
   87.4440   37.3330  130.7970 C   0  0  0  0  0
   86.7420   36.3060  131.4170 C   0  0  0  0  0
   87.0520   35.9260  132.7260 C   0  0  0  0  0
   81.9410   35.9560  137.6390 C   0  0  0  0  0
   82.0860   34.4710  137.9870 C   0  0  0  0  0
   81.7850   33.5750  136.7830 C   0  0  0  0  0
   81.1490   34.1110  139.1410 C   0  0  0  0  0
   82.5323   41.1484  139.6276 H   0  0  0  0  0
   82.2344   40.1381  137.7124 H   0  0  0  0  0
   83.9436   38.2866  136.0836 H   0  0  0  0  0
   82.1657   38.3503  136.4516 H   0  0  0  0  0
   84.0091   36.0349  137.1610 H   0  0  0  0  0
   84.7097   35.0341  135.4788 H   0  0  0  0  0
   83.9096   35.5459  132.7784 H   0  0  0  0  0
   81.1936   34.7306  132.5192 H   0  0  0  0  0
   83.1825   34.0583  130.5498 H   0  0  0  0  0
   82.1922   32.6090  130.8496 H   0  0  0  0  0
   81.4276   34.1015  130.2507 H   0  0  0  0  0
   85.4109   33.6725  132.2313 H   0  0  0  0  0
   85.4068   33.1602  133.9518 H   0  0  0  0  0
   87.0560   34.4270  135.5640 H   0  0  0  0  0
   89.5782   38.1349  133.3190 H   0  0  0  0  0
   89.0121   38.8013  130.9886 H   0  0  0  0  0
   87.1953   37.6213  129.7757 H   0  0  0  0  0
   85.9445   35.7936  130.8789 H   0  0  0  0  0
   81.0062   36.0895  137.0945 H   0  0  0  0  0
   81.9564   36.5274  138.5671 H   0  0  0  0  0
   83.1209   34.3009  138.2838 H   0  0  0  0  0
   80.7631   33.7510  136.4472 H   0  0  0  0  0
   82.4793   33.8081  135.9757 H   0  0  0  0  0
   81.8991   32.5302  137.0717 H   0  0  0  0  0
   81.4031   34.7114  140.0145 H   0  0  0  0  0
   80.1188   34.3125  138.8473 H   0  0  0  0  0
   81.2596   33.0535  139.3808 H   0  0  0  0  0
  1  2  1  0  0  0
  2  3  1  0  0  0
  3  4  2  0  0  0
  3  5  1  0  0  0
  5  6  1  0  0  0
  6  7  1  0  0  0
  6 25  1  0  0  0
  7  8  2  0  0  0
  7  9  1  0  0  0
  9 10  1  0  0  0
 10 11  1  0  0  0
 10 15  1  0  0  0
 11 12  2  0  0  0
 11 13  1  0  0  0
 13 14  1  0  0  0
 15 16  1  0  0  0
 16 17  4  0  0  0
 16 24  4  0  0  0
 17 18  4  0  0  0
 18 19  4  0  0  0
 19 20  4  0  0  0
 19 24  4  0  0  0
 20 21  4  0  0  0
 21 22  4  0  0  0
 22 23  4  0  0  0
 23 24  4  0  0  0
 25 26  1  0  0  0
 26 27  1  0  0  0
 26 28  1  0  0  0
  1 29  1  0  0  0
  2 30  1  0  0  0
  5 31  1  0  0  0
  5 32  1  0  0  0
  6 33  1  0  0  0
  9 34  1  0  0  0
 10 35  1  0  0  0
 13 36  1  0  0  0
 14 37  1  0  0  0
 14 38  1  0  0  0
 14 39  1  0  0  0
 15 40  1  0  0  0
 15 41  1  0  0  0
 17 42  1  0  0  0
 20 43  1  0  0  0
 21 44  1  0  0  0
 22 45  1  0  0  0
 23 46  1  0  0  0
 25 47  1  0  0  0
 25 48  1  0  0  0
 26 49  1  0  0  0
 27 50  1  0  0  0
 27 51  1  0  0  0
 27 52  1  0  0  0
 28 53  1  0  0  0
 28 54  1  0  0  0
 28 55  1  0  0  0
M  END
$$$$
