1szd_ligand
  -I-interpret- 

 59 62  0  0  0  0  0  0  0  0999 V2000
  -13.1970   32.4900  -34.3580 N   0  0  0  0  0
  -12.1780   31.5510  -34.6210 C   0  0  0  0  0
  -11.8390   31.0940  -35.9550 N   0  0  0  0  0
  -12.6420   31.6880  -36.9760 C   0  0  0  0  0
  -13.6850   32.6270  -36.8310 C   0  0  0  0  0
  -13.9700   33.0450  -35.4480 C   0  0  0  0  0
  -14.9910   33.9960  -35.1210 N   0  0  0  0  0
  -14.2160   32.9540  -38.0560 N   0  0  0  0  0
  -13.5180   32.2390  -38.9410 C   0  0  0  0  0
  -12.5480   31.4570  -38.3260 N   0  0  0  0  0
  -11.5530   30.5400  -38.8690 C   0  0  0  0  0
  -11.8920   29.7570  -40.0570 C   0  0  0  0  0
  -12.2890   28.4150  -39.7130 O   0  0  0  0  0
  -10.7140   29.7710  -40.9290 C   0  0  0  0  0
   -9.8220   28.6440  -40.7920 O   0  0  0  0  0
  -10.5540   31.4300  -39.2840 O   0  0  0  0  0
   -9.9790   31.0440  -40.5380 C   0  0  0  0  0
  -10.0860   32.2430  -41.5020 C   0  0  0  0  0
   -9.5480   31.8810  -42.7890 O   0  0  0  0  0
   -9.4880   32.8610  -43.9620 P   0  0  0  0  0
  -10.7950   33.4870  -44.1880 O   0  0  0  0  0
   -8.9410   32.1710  -45.1380 O   0  0  0  0  0
   -8.4410   33.9480  -43.7350 O   0  0  0  0  0
   -7.0180   34.1300  -43.4470 P   0  0  0  0  0
   -6.3480   32.8550  -43.2620 O   0  0  0  0  0
   -6.5540   34.8920  -42.3940 O   0  0  0  0  0
   -6.7540   34.4970  -44.8790 O   0  0  0  0  0
   -6.9450   35.5660  -45.6440 C   0  0  0  0  0
   -7.9050   36.6760  -47.1900 O   0  0  0  0  0
   -6.5320   38.4170  -47.7010 O   0  0  0  0  0
   -7.2320   37.3180  -48.2500 C   0  0  0  0  0
   -6.9930   36.0840  -49.8250 O   0  0  0  0  0
   -6.1870   36.5590  -48.7430 C   0  0  0  0  0
   -6.3030   34.0130  -48.8210 O   0  0  0  0  0
   -6.1700   35.2420  -48.1280 C   0  0  0  0  0
   -7.1590   35.3780  -47.0310 C   0  0  0  0  0
  -11.6163   31.1480  -33.7782 H   0  0  0  0  0
  -15.1508   34.2585  -34.1484 H   0  0  0  0  0
  -15.5579   34.4103  -35.8609 H   0  0  0  0  0
  -13.6885   32.2654  -40.0173 H   0  0  0  0  0
  -11.3453   29.7870  -38.1087 H   0  0  0  0  0
  -12.7488   30.1925  -40.5711 H   0  0  0  0  0
  -12.5037   27.9308  -40.5137 H   0  0  0  0  0
  -11.0402   29.7197  -41.9678 H   0  0  0  0  0
   -9.0862   28.7439  -41.4005 H   0  0  0  0  0
   -8.9145   30.8097  -40.5304 H   0  0  0  0  0
   -9.5214   33.0832  -41.0977 H   0  0  0  0  0
  -11.1331   32.5241  -41.6142 H   0  0  0  0  0
   -8.0891   31.7883  -44.9156 H   0  0  0  0  0
   -6.6137   32.2510  -43.9593 H   0  0  0  0  0
   -6.0176   36.1344  -45.5743 H   0  0  0  0  0
   -7.8644   36.0195  -45.2737 H   0  0  0  0  0
   -6.0615   38.8768  -48.4001 H   0  0  0  0  0
   -7.9822   37.5381  -49.0095 H   0  0  0  0  0
   -6.4746   35.4887  -50.3713 H   0  0  0  0  0
   -5.2228   37.0671  -48.7601 H   0  0  0  0  0
   -6.2598   33.2872  -48.1942 H   0  0  0  0  0
   -5.1204   35.0647  -47.8936 H   0  0  0  0  0
   -7.5219   34.3614  -47.1822 H   0  0  0  0  0
  2  1  4  0  0  0
  6  1  4  0  0  0
  3  2  4  0  0  0
  4  3  4  0  0  0
  4  5  4  0  0  0
 10  4  4  0  0  0
  5  6  4  0  0  0
  8  5  4  0  0  0
  6  7  1  0  0  0
  9  8  4  0  0  0
 10  9  4  0  0  0
 11 10  1  0  0  0
 11 12  1  0  0  0
 16 11  1  0  0  0
 12 13  1  0  0  0
 14 12  1  0  0  0
 14 15  1  0  0  0
 17 14  1  0  0  0
 17 16  1  0  0  0
 18 17  1  0  0  0
 19 18  1  0  0  0
 20 19  1  0  0  0
 20 21  2  0  0  0
 20 22  1  0  0  0
 23 20  1  0  0  0
 24 23  1  0  0  0
 24 25  1  0  0  0
 24 26  2  0  0  0
 27 24  1  0  0  0
 28 27  1  0  0  0
 36 28  1  0  0  0
 29 31  1  0  0  0
 29 36  1  0  0  0
 31 30  1  0  0  0
 31 33  1  0  0  0
 33 32  1  0  0  0
 33 35  1  0  0  0
 35 34  1  0  0  0
 35 36  1  0  0  0
  2 37  1  0  0  0
  7 38  1  0  0  0
  7 39  1  0  0  0
  9 40  1  0  0  0
 11 41  1  0  0  0
 12 42  1  0  0  0
 13 43  1  0  0  0
 14 44  1  0  0  0
 15 45  1  0  0  0
 17 46  1  0  0  0
 18 47  1  0  0  0
 18 48  1  0  0  0
 22 49  1  0  0  0
 25 50  1  0  0  0
 28 51  1  0  0  0
 28 52  1  0  0  0
 30 53  1  0  0  0
 31 54  1  0  0  0
 32 55  1  0  0  0
 33 56  1  0  0  0
 34 57  1  0  0  0
 35 58  1  0  0  0
 36 59  1  0  0  0
M  END
$$$$
