### 
### Created by X-TOOL on Mon Sep 10 21:12:52 2018
### 

@<TRIPOS>MOLECULE
1nlt_ligand
  119   121     1     0     0
SMALL
GAST_HUCK


@<TRIPOS>ATOM
      1 N          10.1800   37.1920   76.4600 N.4       1 GLY         0.2357
      2 CA         10.2410   36.1990   75.4070 C.3       1 GLY         0.0545
      3 C          11.5820   36.1310   74.6980 C.2       1 GLY         0.2237
      4 O          12.1500   37.1550   74.3550 O.2       1 GLY        -0.3910
      5 N          12.0720   34.9180   74.4430 N.am      1 TRP        -0.2602
      6 CA         13.3400   34.7290   73.7460 C.3       1 TRP         0.1353
      7 C          13.3240   33.4810   72.8830 C.2       1 TRP         0.2052
      8 O          12.5270   32.5660   73.1230 O.2       1 TRP        -0.3942
      9 CB         14.4750   34.6230   74.7360 C.3       1 TRP         0.0042
     10 CG         14.3600   33.4780   75.6610 C.2       1 TRP        -0.0418
     11 CD1        13.4970   33.3570   76.7050 C.2       1 TRP         0.0167
     12 CD2        15.1540   32.2830   75.6430 C.ar      1 TRP        -0.0214
     13 NE1        13.7040   32.1560   77.3430 N.pl3     1 TRP        -0.2890
     14 CE2        14.7090   31.4740   76.7060 C.ar      1 TRP         0.0603
     15 CE3        16.1910   31.8130   74.8200 C.ar      1 TRP        -0.0747
     16 CZ2        15.2690   30.2170   76.9830 C.ar      1 TRP        -0.0443
     17 CZ3        16.7500   30.5620   75.0940 C.ar      1 TRP        -0.0792
     18 CH2        16.2800   29.7780   76.1660 C.ar      1 TRP        -0.0768
     19 N          14.2170   33.4250   71.8930 N.am      1 LEU        -0.2636
     20 CA         14.2290   32.2810   70.9930 C.3       1 LEU         0.1312
     21 C          15.5890   31.6930   70.6580 C.2       1 LEU         0.2040
     22 O          16.6230   32.2780   70.9530 O.2       1 LEU        -0.3944
     23 CB         13.5430   32.6630   69.6770 C.3       1 LEU        -0.0101
     24 CG         12.2750   33.5050   69.7530 C.3       1 LEU        -0.0425
     25 CD1        12.5550   34.8840   69.2180 C.3       1 LEU        -0.0625
     26 CD2        11.1760   32.8480   68.9150 C.3       1 LEU        -0.0625
     27 N          15.5590   30.5320   70.0100 N.am      1 TYR        -0.2621
     28 CA         16.7550   29.8380   69.5540 C.3       1 TYR         0.1390
     29 C          16.3360   28.8950   68.4210 C.2       1 TYR         0.2057
     30 O          15.1780   28.4710   68.3600 O.2       1 TYR        -0.3942
     31 CB         17.4140   29.0680   70.7050 C.3       1 TYR         0.0163
     32 CG         16.6250   27.9170   71.2750 C.ar      1 TYR        -0.0493
     33 CD1        16.6470   26.6590   70.6710 C.ar      1 TYR        -0.0685
     34 CD2        15.8820   28.0740   72.4490 C.ar      1 TYR        -0.0685
     35 CE1        15.9530   25.5790   71.2300 C.ar      1 TYR        -0.0398
     36 CE2        15.1800   27.0040   73.0120 C.ar      1 TYR        -0.0398
     37 CZ         15.2240   25.7610   72.4010 C.ar      1 TYR         0.0805
     38 OH         14.5650   24.7010   72.9820 O.3       1 TYR        -0.3376
     39 N          17.2690   28.5810   67.5260 N.am      1 GLU        -0.2635
     40 CA         16.9910   27.6930   66.3960 C.3       1 GLU         0.1325
     41 C          17.0620   26.2110   66.7370 C.2       1 GLU         0.2040
     42 O          17.9330   25.7650   67.4830 O.2       1 GLU        -0.3944
     43 CB         17.9580   27.9730   65.2530 C.3       1 GLU        -0.0008
     44 CG         17.7910   29.3370   64.6350 C.3       1 GLU         0.0044
     45 CD         18.6800   29.5420   63.4350 C.2       1 GLU         0.0350
     46 OE1        18.7070   28.6480   62.5560 O.co2     1 GLU        -0.5690
     47 OE2        19.3390   30.6010   63.3700 O.co2     1 GLU        -0.5690
     48 N          16.1520   25.4400   66.1660 N.am      1 ILE        -0.2635
     49 CA         16.1280   24.0100   66.4320 C.3       1 ILE         0.1335
     50 C          17.0480   23.2350   65.5010 C.2       1 ILE         0.2043
     51 O          16.9890   23.3870   64.2770 O.2       1 ILE        -0.3944
     52 CB         14.7060   23.4490   66.2960 C.3       1 ILE        -0.0037
     53 CG1        13.8380   23.9450   67.4510 C.3       1 ILE        -0.0491
     54 CG2        14.7430   21.9280   66.2480 C.3       1 ILE        -0.0582
     55 CD1        14.3030   23.4680   68.8010 C.3       1 ILE        -0.0648
     56 N          17.9040   22.4090   66.0950 N.am      1 SER        -0.2627
     57 CA         18.8430   21.5940   65.3380 C.3       1 SER         0.1356
     58 C          20.0880   22.3600   64.9440 C.2       1 SER         0.1267
     59 O          20.1120   22.8950   63.8180 O.2       1 SER        -0.3724
     60 CB         18.1710   21.0080   64.0860 C.3       1 SER         0.0830
     61 OG         19.1020   20.2590   63.3230 O.3       1 SER        -0.3903
     62 H1          9.2647   37.1784   76.8820 H         1 GLY         0.2012
     63 H2         10.3573   38.1051   76.0715 H         1 GLY         0.2012
     64 H3         10.8755   36.9835   77.1592 H         1 GLY         0.2012
     65 H4          9.4677   36.4373   74.6619 H         1 GLY         0.1061
     66 H5         10.0332   35.2133   75.8488 H         1 GLY         0.1061
     67 H6         11.5556   34.1140   74.7379 H         1 TRP         0.1886
     68 H7         13.5124   35.6017   73.0989 H         1 TRP         0.0815
     69 H8         14.5020   35.5474   75.3316 H         1 TRP         0.0397
     70 H9         15.4154   34.5209   74.1745 H         1 TRP         0.0397
     71 H10        12.7538   34.0992   76.9927 H         1 TRP         0.0795
     72 H11        13.1862   31.8219   78.1684 H         1 TRP         0.2216
     73 H12        16.5504   32.4090   73.9889 H         1 TRP         0.0540
     74 H13        14.9155   29.6150   77.8123 H         1 TRP         0.0541
     75 H14        17.5566   30.1895   74.4730 H         1 TRP         0.0510
     76 H15        16.7266   28.8074   76.3492 H         1 TRP         0.0530
     77 H16        14.8761   34.1669   71.7697 H         1 LEU         0.1883
     78 H17        13.6422   31.4867   71.4776 H         1 LEU         0.0800
     79 H18        13.2848   31.7279   69.1585 H         1 LEU         0.0315
     80 H19        14.2741   33.2250   69.0773 H         1 LEU         0.0315
     81 H20        11.9448   33.5774   70.7998 H         1 LEU         0.0298
     82 H21        11.6396   35.4915   69.2730 H         1 LEU         0.0232
     83 H22        12.8844   34.8112   68.1710 H         1 LEU         0.0232
     84 H23        13.3455   35.3570   69.8191 H         1 LEU         0.0232
     85 H24        10.9705   31.8402   69.3051 H         1 LEU         0.0232
     86 H25        11.5067   32.7757   67.8684 H         1 LEU         0.0232
     87 H26        10.2607   33.4557   68.9692 H         1 LEU         0.0232
     88 H27        14.6692   30.1142   69.8265 H         1 TYR         0.1885
     89 H28        17.4762   30.5725   69.1662 H         1 TYR         0.0821
     90 H29        17.6033   29.7813   71.5207 H         1 TYR         0.0453
     91 H30        18.3709   28.6691   70.3372 H         1 TYR         0.0453
     92 H31        17.2097   26.5159   69.7556 H         1 TYR         0.0530
     93 H32        15.8496   29.0439   72.9319 H         1 TYR         0.0530
     94 H33        15.9835   24.6061   70.7529 H         1 TYR         0.0525
     95 H34        14.6053   27.1457   73.9201 H         1 TYR         0.0525
     96 H35        14.6872   23.9235   72.4499 H         1 TYR         0.2458
     97 H36        18.1875   28.9630   67.6283 H         1 GLU         0.1883
     98 H37        15.9693   27.9095   66.0506 H         1 GLU         0.0801
     99 H38        17.7988   27.2162   64.4708 H         1 GLU         0.0330
    100 H39        18.9846   27.8908   65.6393 H         1 GLU         0.0330
    101 H40        18.0369   30.0984   65.3898 H         1 GLU         0.0433
    102 H41        16.7433   29.4561   64.3218 H         1 GLU         0.0433
    103 H42        15.4766   25.8422   65.5479 H         1 ILE         0.1883
    104 H43        16.4696   23.8530   67.4658 H         1 ILE         0.0803
    105 H44        14.2727   23.8149   65.3535 H         1 ILE         0.0345
    106 H45        12.8096   23.5887   67.2914 H         1 ILE         0.0267
    107 H46        13.8497   25.0449   67.4477 H         1 ILE         0.0267
    108 H47        15.3743   21.6029   65.4079 H         1 ILE         0.0235
    109 H48        13.7227   21.5405   66.1112 H         1 ILE         0.0235
    110 H49        15.1588   21.5414   67.1901 H         1 ILE         0.0235
    111 H50        13.6337   23.8625   69.5798 H         1 ILE         0.0230
    112 H51        15.3275   23.8246   68.9830 H         1 ILE         0.0230
    113 H52        14.2875   22.3684   68.8267 H         1 ILE         0.0230
    114 H53        17.9027   22.3457   67.0930 H         1 SER         0.1885
    115 H54        19.1529   20.7582   65.9826 H         1 SER         0.0813
    116 H55        20.9358   22.4412   65.6226 H         1 SER         0.1374
    117 H56        17.7766   21.8293   63.4697 H         1 SER         0.0607
    118 H57        17.3443   20.3508   64.3937 H         1 SER         0.0607
    119 H58        19.4427   19.5469   63.8515 H         1 SER         0.2097
@<TRIPOS>BOND
     1    1    2 1  
     2    2    3 1  
     3    3    4 2  
     4    3    5 am 
     5    5    6 1  
     6    6    7 1  
     7    6    9 1  
     8    7    8 2  
     9    7   19 am 
    10    9   10 1  
    11   10   11 2  
    12   10   12 1  
    13   11   13 1  
    14   12   14 ar 
    15   12   15 ar 
    16   13   14 1  
    17   14   16 ar 
    18   15   17 ar 
    19   16   18 ar 
    20   17   18 ar 
    21   19   20 1  
    22   20   21 1  
    23   20   23 1  
    24   21   22 2  
    25   21   27 am 
    26   23   24 1  
    27   24   25 1  
    28   24   26 1  
    29   27   28 1  
    30   28   29 1  
    31   28   31 1  
    32   29   30 2  
    33   29   39 am 
    34   31   32 1  
    35   32   33 ar 
    36   32   34 ar 
    37   33   35 ar 
    38   34   36 ar 
    39   35   37 ar 
    40   36   37 ar 
    41   37   38 1  
    42   39   40 1  
    43   40   41 1  
    44   40   43 1  
    45   41   42 2  
    46   41   48 am 
    47   43   44 1  
    48   44   45 1  
    49   45   46 ar 
    50   45   47 ar 
    51   48   49 1  
    52   49   50 1  
    53   49   52 1  
    54   50   51 2  
    55   50   56 am 
    56   52   53 1  
    57   52   54 1  
    58   53   55 1  
    59   56   57 1  
    60   57   58 1  
    61   57   60 1  
    62   58   59 2  
    63   60   61 1  
    64    1   62 1  
    65    1   63 1  
    66    1   64 1  
    67    2   65 1  
    68    2   66 1  
    69    5   67 1  
    70    6   68 1  
    71    9   69 1  
    72    9   70 1  
    73   11   71 1  
    74   13   72 1  
    75   15   73 1  
    76   16   74 1  
    77   17   75 1  
    78   18   76 1  
    79   19   77 1  
    80   20   78 1  
    81   23   79 1  
    82   23   80 1  
    83   24   81 1  
    84   25   82 1  
    85   25   83 1  
    86   25   84 1  
    87   26   85 1  
    88   26   86 1  
    89   26   87 1  
    90   27   88 1  
    91   28   89 1  
    92   31   90 1  
    93   31   91 1  
    94   33   92 1  
    95   34   93 1  
    96   35   94 1  
    97   36   95 1  
    98   38   96 1  
    99   39   97 1  
   100   40   98 1  
   101   43   99 1  
   102   43  100 1  
   103   44  101 1  
   104   44  102 1  
   105   48  103 1  
   106   49  104 1  
   107   52  105 1  
   108   53  106 1  
   109   53  107 1  
   110   54  108 1  
   111   54  109 1  
   112   54  110 1  
   113   55  111 1  
   114   55  112 1  
   115   55  113 1  
   116   56  114 1  
   117   57  115 1  
   118   58  116 1  
   119   60  117 1  
   120   60  118 1  
   121   61  119 1  
@<TRIPOS>SUBSTRUCTURE
     1 GLY         1

