1nlt_ligand
  -I-interpret- 

119121  0  0  0  0  0  0  0  0999 V2000
   10.1800   37.1920   76.4600 N   0  3  0  0  0
   10.2410   36.1990   75.4070 C   0  0  0  0  0
   11.5820   36.1310   74.6980 C   0  0  0  0  0
   12.1500   37.1550   74.3550 O   0  0  0  0  0
   12.0720   34.9180   74.4430 N   0  0  0  0  0
   13.3400   34.7290   73.7460 C   0  0  0  0  0
   13.3240   33.4810   72.8830 C   0  0  0  0  0
   12.5270   32.5660   73.1230 O   0  0  0  0  0
   14.4750   34.6230   74.7360 C   0  0  0  0  0
   14.3600   33.4780   75.6610 C   0  0  0  0  0
   13.4970   33.3570   76.7050 C   0  0  0  0  0
   15.1540   32.2830   75.6430 C   0  0  0  0  0
   13.7040   32.1560   77.3430 N   0  0  0  0  0
   14.7090   31.4740   76.7060 C   0  0  0  0  0
   16.1910   31.8130   74.8200 C   0  0  0  0  0
   15.2690   30.2170   76.9830 C   0  0  0  0  0
   16.7500   30.5620   75.0940 C   0  0  0  0  0
   16.2800   29.7780   76.1660 C   0  0  0  0  0
   14.2170   33.4250   71.8930 N   0  0  0  0  0
   14.2290   32.2810   70.9930 C   0  0  0  0  0
   15.5890   31.6930   70.6580 C   0  0  0  0  0
   16.6230   32.2780   70.9530 O   0  0  0  0  0
   13.5430   32.6630   69.6770 C   0  0  0  0  0
   12.2750   33.5050   69.7530 C   0  0  0  0  0
   12.5550   34.8840   69.2180 C   0  0  0  0  0
   11.1760   32.8480   68.9150 C   0  0  0  0  0
   15.5590   30.5320   70.0100 N   0  0  0  0  0
   16.7550   29.8380   69.5540 C   0  0  0  0  0
   16.3360   28.8950   68.4210 C   0  0  0  0  0
   15.1780   28.4710   68.3600 O   0  0  0  0  0
   17.4140   29.0680   70.7050 C   0  0  0  0  0
   16.6250   27.9170   71.2750 C   0  0  0  0  0
   16.6470   26.6590   70.6710 C   0  0  0  0  0
   15.8820   28.0740   72.4490 C   0  0  0  0  0
   15.9530   25.5790   71.2300 C   0  0  0  0  0
   15.1800   27.0040   73.0120 C   0  0  0  0  0
   15.2240   25.7610   72.4010 C   0  0  0  0  0
   14.5650   24.7010   72.9820 O   0  0  0  0  0
   17.2690   28.5810   67.5260 N   0  0  0  0  0
   16.9910   27.6930   66.3960 C   0  0  0  0  0
   17.0620   26.2110   66.7370 C   0  0  0  0  0
   17.9330   25.7650   67.4830 O   0  0  0  0  0
   17.9580   27.9730   65.2530 C   0  0  0  0  0
   17.7910   29.3370   64.6350 C   0  0  0  0  0
   18.6800   29.5420   63.4350 C   0  0  0  0  0
   18.7070   28.6480   62.5560 O   0  0  0  0  0
   19.3390   30.6010   63.3700 O   0  0  0  0  0
   16.1520   25.4400   66.1660 N   0  0  0  0  0
   16.1280   24.0100   66.4320 C   0  0  0  0  0
   17.0480   23.2350   65.5010 C   0  0  0  0  0
   16.9890   23.3870   64.2770 O   0  0  0  0  0
   14.7060   23.4490   66.2960 C   0  0  0  0  0
   13.8380   23.9450   67.4510 C   0  0  0  0  0
   14.7430   21.9280   66.2480 C   0  0  0  0  0
   14.3030   23.4680   68.8010 C   0  0  0  0  0
   17.9040   22.4090   66.0950 N   0  0  0  0  0
   18.8430   21.5940   65.3380 C   0  0  0  0  0
   20.0880   22.3600   64.9440 C   0  0  0  0  0
   20.1120   22.8950   63.8180 O   0  0  0  0  0
   18.1710   21.0080   64.0860 C   0  0  0  0  0
   19.1020   20.2590   63.3230 O   0  0  0  0  0
    9.2535   37.1773   76.8863 H   0  0  0  0  0
   10.8842   36.9800   77.1668 H   0  0  0  0  0
   10.3596   38.1154   76.0657 H   0  0  0  0  0
    9.4948   36.4728   74.6612 H   0  0  0  0  0
   10.0705   35.2268   75.8695 H   0  0  0  0  0
   11.5453   34.0979   74.7438 H   0  0  0  0  0
   13.4854   35.5974   73.1035 H   0  0  0  0  0
   14.4623   35.5298   75.3407 H   0  0  0  0  0
   15.3920   34.4850   74.1631 H   0  0  0  0  0
   12.7532   34.0999   76.9929 H   0  0  0  0  0
   16.5524   32.4123   73.9843 H   0  0  0  0  0
   14.9136   29.6117   77.8169 H   0  0  0  0  0
   17.5611   30.1875   74.4695 H   0  0  0  0  0
   16.7291   28.8020   76.3502 H   0  0  0  0  0
   14.8893   34.1817   71.7673 H   0  0  0  0  0
   13.7019   31.5035   71.5460 H   0  0  0  0  0
   13.2383   31.7196   69.2240 H   0  0  0  0  0
   14.2667   33.2759   69.1396 H   0  0  0  0  0
   11.9485   33.5766   70.7905 H   0  0  0  0  0
   13.3385   35.3515   69.8144 H   0  0  0  0  0
   12.8813   34.8105   68.1806 H   0  0  0  0  0
   11.6473   35.4849   69.2730 H   0  0  0  0  0
   11.5047   32.7775   67.8781 H   0  0  0  0  0
   10.9737   31.8493   69.3021 H   0  0  0  0  0
   10.2696   33.4509   68.9700 H   0  0  0  0  0
   14.6514   30.1058   69.8228 H   0  0  0  0  0
   17.4956   30.5515   69.1928 H   0  0  0  0  0
   17.5380   29.7836   71.5178 H   0  0  0  0  0
   18.3289   28.6374   70.2981 H   0  0  0  0  0
   17.2128   26.5151   69.7505 H   0  0  0  0  0
   15.8495   29.0493   72.9346 H   0  0  0  0  0
   15.9837   24.6007   70.7503 H   0  0  0  0  0
   14.6021   27.1465   73.9252 H   0  0  0  0  0
   14.1164   25.0009   73.7760 H   0  0  0  0  0
   18.2059   28.9706   67.6303 H   0  0  0  0  0
   15.9626   27.9090   66.1063 H   0  0  0  0  0
   17.7616   27.2369   64.4735 H   0  0  0  0  0
   18.9673   27.9228   65.6616 H   0  0  0  0  0
   18.0622   30.0805   65.3845 H   0  0  0  0  0
   16.7561   29.4320   64.3061 H   0  0  0  0  0
   18.1257   27.9290   62.8145 H   0  0  0  0  0
   15.4631   25.8502   65.5355 H   0  0  0  0  0
   16.4816   23.8849   67.4554 H   0  0  0  0  0
   14.2671   23.8034   65.3633 H   0  0  0  0  0
   12.8320   23.5554   67.2950 H   0  0  0  0  0
   13.8879   25.0339   67.4537 H   0  0  0  0  0
   15.3370   21.6071   65.3923 H   0  0  0  0  0
   15.1909   21.5476   67.1660 H   0  0  0  0  0
   13.7275   21.5440   66.1514 H   0  0  0  0  0
   14.2872   22.3784   68.8252 H   0  0  0  0  0
   15.3182   23.8220   68.9801 H   0  0  0  0  0
   13.6391   23.8595   69.5717 H   0  0  0  0  0
   17.9027   22.3444   67.1130 H   0  0  0  0  0
   19.1514   20.7818   65.9962 H   0  0  0  0  0
   20.9366   22.4412   65.6232 H   0  0  0  0  0
   17.7905   21.8260   63.4743 H   0  0  0  0  0
   17.3591   20.3503   64.3965 H   0  0  0  0  0
   18.6642   19.9019   62.5468 H   0  0  0  0  0
  1  2  1  0  0  0
  2  3  1  0  0  0
  3  4  2  0  0  0
  3  5  1  0  0  0
  5  6  1  0  0  0
  6  7  1  0  0  0
  6  9  1  0  0  0
  7  8  2  0  0  0
  7 19  1  0  0  0
  9 10  1  0  0  0
 10 11  4  0  0  0
 10 12  4  0  0  0
 11 13  4  0  0  0
 12 14  4  0  0  0
 12 15  4  0  0  0
 13 14  4  0  0  0
 14 16  4  0  0  0
 15 17  4  0  0  0
 16 18  4  0  0  0
 17 18  4  0  0  0
 19 20  1  0  0  0
 20 21  1  0  0  0
 20 23  1  0  0  0
 21 22  2  0  0  0
 21 27  1  0  0  0
 23 24  1  0  0  0
 24 25  1  0  0  0
 24 26  1  0  0  0
 27 28  1  0  0  0
 28 29  1  0  0  0
 28 31  1  0  0  0
 29 30  2  0  0  0
 29 39  1  0  0  0
 31 32  1  0  0  0
 32 33  4  0  0  0
 32 34  4  0  0  0
 33 35  4  0  0  0
 34 36  4  0  0  0
 35 37  4  0  0  0
 36 37  4  0  0  0
 37 38  1  0  0  0
 39 40  1  0  0  0
 40 41  1  0  0  0
 40 43  1  0  0  0
 41 42  2  0  0  0
 41 48  1  0  0  0
 43 44  1  0  0  0
 44 45  1  0  0  0
 45 46  1  0  0  0
 45 47  2  0  0  0
 48 49  1  0  0  0
 49 50  1  0  0  0
 49 52  1  0  0  0
 50 51  2  0  0  0
 50 56  1  0  0  0
 52 53  1  0  0  0
 52 54  1  0  0  0
 53 55  1  0  0  0
 56 57  1  0  0  0
 57 58  1  0  0  0
 57 60  1  0  0  0
 58 59  2  0  0  0
 60 61  1  0  0  0
  1 62  1  0  0  0
  1 63  1  0  0  0
  1 64  1  0  0  0
  2 65  1  0  0  0
  2 66  1  0  0  0
  5 67  1  0  0  0
  6 68  1  0  0  0
  9 69  1  0  0  0
  9 70  1  0  0  0
 11 71  1  0  0  0
 15 72  1  0  0  0
 16 73  1  0  0  0
 17 74  1  0  0  0
 18 75  1  0  0  0
 19 76  1  0  0  0
 20 77  1  0  0  0
 23 78  1  0  0  0
 23 79  1  0  0  0
 24 80  1  0  0  0
 25 81  1  0  0  0
 25 82  1  0  0  0
 25 83  1  0  0  0
 26 84  1  0  0  0
 26 85  1  0  0  0
 26 86  1  0  0  0
 27 87  1  0  0  0
 28 88  1  0  0  0
 31 89  1  0  0  0
 31 90  1  0  0  0
 33 91  1  0  0  0
 34 92  1  0  0  0
 35 93  1  0  0  0
 36 94  1  0  0  0
 38 95  1  0  0  0
 39 96  1  0  0  0
 40 97  1  0  0  0
 43 98  1  0  0  0
 43 99  1  0  0  0
 44100  1  0  0  0
 44101  1  0  0  0
 46102  1  0  0  0
 48103  1  0  0  0
 49104  1  0  0  0
 52105  1  0  0  0
 53106  1  0  0  0
 53107  1  0  0  0
 54108  1  0  0  0
 54109  1  0  0  0
 54110  1  0  0  0
 55111  1  0  0  0
 55112  1  0  0  0
 55113  1  0  0  0
 56114  1  0  0  0
 57115  1  0  0  0
 58116  1  0  0  0
 60117  1  0  0  0
 60118  1  0  0  0
 61119  1  0  0  0
M  END
$$$$
