6iyw_ligand
  -I-interpret- 

 31 31  0  0  0  0  0  0  0  0999 V2000
  137.4520  103.0840   19.7970 C   0  0  0  0  0
  139.8340  103.4990   15.7630 C   0  0  0  0  0
  138.4360  103.9910   18.9480 C   0  0  0  0  0
  138.3170  103.6560   17.5700 C   0  0  0  0  0
  139.5150  102.1490   16.3370 C   0  0  0  0  0
  136.3190  102.8680   19.4810 O   0  0  0  0  0
  138.1100  105.5000   19.2120 C   0  0  0  0  0
  138.1570  105.7440   20.5800 O   0  0  0  0  0
  136.7140  105.8390   18.7250 C   0  0  0  0  0
  138.6600  102.1330   17.3560 N   0  0  0  0  0
  140.1310  100.8670   15.7640 C   0  0  0  0  0
  141.3540  100.8240   15.4700 O   0  0  0  0  0
  139.4140   99.8490   15.5790 O   0  0  0  0  0
  139.4740  103.7390   13.9940 S   0  0  0  0  0
  137.6750  103.7030   13.7250 C   0  0  0  0  0
  139.3550  104.4360   16.6680 C   0  0  0  0  0
  137.8272  102.6340   20.7161 H   0  0  0  0  0
  140.9122  103.6309   15.6730 H   0  0  0  0  0
  139.4693  103.8146   19.2469 H   0  0  0  0  0
  137.2945  103.9098   17.2904 H   0  0  0  0  0
  138.8410  106.1083   18.6794 H   0  0  0  0  0
  139.0337  105.5359   20.9111 H   0  0  0  0  0
  135.9875  105.2147   19.2452 H   0  0  0  0  0
  136.5045  106.8891   18.9288 H   0  0  0  0  0
  136.6503  105.6560   17.6524 H   0  0  0  0  0
  138.5131  100.0399   15.8501 H   0  0  0  0  0
  137.2799  102.7397   14.0477 H   0  0  0  0  0
  137.2067  104.5008   14.3015 H   0  0  0  0  0
  137.4644  103.8470   12.6653 H   0  0  0  0  0
  138.8890  105.2807   16.1607 H   0  0  0  0  0
  140.1604  104.8649   17.2642 H   0  0  0  0  0
  3  1  1  0  0  0
  1  6  2  0  0  0
  2  5  1  0  0  0
  2 14  1  0  0  0
 16  2  1  0  0  0
  4  3  1  0  0  0
  3  7  1  0  0  0
  4 10  1  0  0  0
  4 16  1  0  0  0
  5 10  2  0  0  0
  5 11  1  0  0  0
  7  8  1  0  0  0
  7  9  1  0  0  0
 11 12  2  0  0  0
 11 13  1  0  0  0
 14 15  1  0  0  0
  1 17  1  0  0  0
  2 18  1  0  0  0
  3 19  1  0  0  0
  4 20  1  0  0  0
  7 21  1  0  0  0
  8 22  1  0  0  0
  9 23  1  0  0  0
  9 24  1  0  0  0
  9 25  1  0  0  0
 13 26  1  0  0  0
 15 27  1  0  0  0
 15 28  1  0  0  0
 15 29  1  0  0  0
 16 30  1  0  0  0
 16 31  1  0  0  0
M  END
$$$$
