### 
### Created by X-TOOL on Mon Sep 10 21:13:05 2018
### 

@<TRIPOS>MOLECULE
3odi_ligand
  197   197     1     0     0
SMALL
GAST_HUCK


@<TRIPOS>ATOM
      1 N          -0.8760  -14.4940   69.4560 N.am      1 DAL        -0.2640
      2 CA         -1.8110  -13.5360   68.8420 C.3       1 DAL         0.1284
      3 CB         -2.1160  -12.3950   69.8130 C.3       1 DAL        -0.0244
      4 C          -3.0750  -14.2250   68.4100 C.2       1 DAL         0.2059
      5 O          -3.6170  -15.0900   69.1000 O.2       1 DAL        -0.3942
      6 N          -3.6350  -13.8730   67.2020 N.am      1 MLE        -0.2529
      7 CN         -3.0080  -12.9610   66.2700 C.3       1 MLE         0.0254
      8 CA         -4.8410  -14.5090   66.6950 C.3       1 MLE         0.1338
      9 CB         -6.0980  -13.6180   66.7300 C.3       1 MLE        -0.0099
     10 CG         -6.5610  -13.1840   68.1230 C.3       1 MLE        -0.0425
     11 CD1        -7.6550  -12.1270   68.0000 C.3       1 MLE        -0.0625
     12 CD2        -7.0620  -14.3680   68.9520 C.3       1 MLE        -0.0625
     13 C          -4.6690  -15.0930   65.3050 C.2       1 MLE         0.2064
     14 O          -5.3330  -14.5120   64.2100 O.2       1 MLE        -0.3942
     15 N          -3.8900  -16.1660   65.1730 N.am      1 MLE        -0.2529
     16 CN         -3.4510  -16.9120   66.3440 C.3       1 MLE         0.0254
     17 CA         -3.6690  -16.7420   63.8530 C.3       1 MLE         0.1338
     18 CB         -2.1630  -16.9570   63.6030 C.3       1 MLE        -0.0099
     19 CG         -1.3380  -15.6660   63.6960 C.3       1 MLE        -0.0425
     20 CD1         0.1310  -15.9460   63.4110 C.3       1 MLE        -0.0625
     21 CD2        -1.8470  -14.5410   62.7930 C.3       1 MLE        -0.0625
     22 C          -4.5080  -17.9900   63.6390 C.2       1 MLE         0.2064
     23 O          -5.1040  -18.6110   64.7560 O.2       1 MLE        -0.3942
     24 N          -4.6770  -18.4450   62.3940 N.am      1 MVA        -0.2526
     25 CN         -4.2930  -17.6340   61.2400 C.3       1 MVA         0.0254
     26 CA         -5.2850  -19.7580   62.1650 C.3       1 MVA         0.1359
     27 CB         -6.6610  -19.7440   61.4660 C.3       1 MVA        -0.0061
     28 CG1        -7.3880  -21.0660   61.6880 C.3       1 MVA        -0.0584
     29 CG2        -7.5920  -18.6130   61.8980 C.3       1 MVA        -0.0584
     30 C          -4.3180  -20.6650   61.4340 C.2       1 MVA         0.2067
     31 O          -4.4550  -20.8650   60.0510 O.2       1 MVA        -0.3942
     32 C          -2.4060  -23.4870   61.5230 C.2       1 XXA         0.2067
     33 N          -3.3420  -21.2450   62.1290 N.am      1 XXA        -0.2503
     34 O          -3.1700  -24.0020   62.3340 O.2       1 XXA        -0.3943
     35 CA         -2.3110  -21.9860   61.3930 C.3       1 XXA         0.1595
     36 CB         -0.8700  -21.4740   61.6070 C.3       1 XXA         0.1003
     37 CE          1.6780  -19.9040   60.5490 C.2       1 XXA        -0.0720
     38 CH          3.6630  -21.0280   59.7220 C.2       1 XXA        -0.0879
     39 CN         -3.3120  -21.2300   63.5920 C.3       1 XXA         0.0255
     40 CT          4.7560  -21.7410   59.9900 C.2       1 XXA        -0.1147
     41 CZ          2.7690  -20.6210   60.8130 C.2       1 XXA        -0.0732
     42 CD1        -1.1930  -19.4450   60.0710 C.3       1 XXA        -0.0574
     43 CD2         0.7480  -19.4830   61.6690 C.3       1 XXA        -0.0144
     44 OG1        -0.4180  -21.8880   62.8800 O.3       1 XXA        -0.3866
     45 CG2        -0.6940  -19.9530   61.4260 C.3       1 XXA        -0.0014
     46 N          -1.6360  -24.1940   60.7010 N.am      1 ABA        -0.2636
     47 CA         -1.6950  -25.6500   60.6370 C.3       1 ABA         0.1309
     48 C          -0.3530  -26.2960   60.9890 C.2       1 ABA         0.2059
     49 O           0.4210  -26.6220   60.0910 O.2       1 ABA        -0.3942
     50 CB         -2.1480  -26.1020   59.2430 C.3       1 ABA        -0.0152
     51 CG         -3.4990  -25.5150   58.8410 C.3       1 ABA        -0.0610
     52 N          -0.0640  -26.4700   62.2850 N.am      1 SAR        -0.2556
     53 CA          1.2020  -27.0810   62.6790 C.3       1 SAR         0.1227
     54 C           1.9860  -26.2970   63.7180 C.2       1 SAR         0.2032
     55 O           2.1040  -26.8060   65.0340 O.2       1 SAR        -0.3945
     56 CN         -0.9920  -26.1960   63.3720 C.3       1 SAR         0.0252
     57 N           2.5480  -25.1490   63.3380 N.am      1 MLE        -0.2531
     58 CN          2.4680  -24.6270   61.9720 C.3       1 MLE         0.0254
     59 CA          3.2210  -24.3170   64.3240 C.3       1 MLE         0.1336
     60 CB          4.6110  -23.8860   63.8380 C.3       1 MLE        -0.0099
     61 CG          5.3850  -22.9960   64.8130 C.3       1 MLE        -0.0425
     62 CD1         5.6400  -23.6910   66.1460 C.3       1 MLE        -0.0625
     63 CD2         6.7100  -22.5630   64.1980 C.3       1 MLE        -0.0625
     64 C           2.3190  -23.1670   64.6940 C.2       1 MLE         0.2041
     65 O           2.2330  -22.0210   63.8850 O.2       1 MLE        -0.3944
     66 N           1.6030  -23.3210   65.8020 N.am      1 VAL        -0.2635
     67 CA          0.6680  -22.3010   66.2540 C.3       1 VAL         0.1334
     68 C           1.4640  -21.1720   66.9160 C.2       1 VAL         0.2064
     69 O           2.2620  -21.4320   67.8240 O.2       1 VAL        -0.3942
     70 CB         -0.4080  -22.8880   67.2090 C.3       1 VAL        -0.0062
     71 CG1        -1.3890  -21.8060   67.6840 C.3       1 VAL        -0.0584
     72 CG2        -1.1680  -24.0390   66.5290 C.3       1 VAL        -0.0584
     73 N           1.2730  -19.9330   66.4500 N.am      1 MLE        -0.2529
     74 CN          0.3040  -19.6640   65.3780 C.3       1 MLE         0.0254
     75 CA          2.0150  -18.8020   67.0220 C.3       1 MLE         0.1336
     76 CB          2.8510  -18.0420   65.9800 C.3       1 MLE        -0.0099
     77 CG          3.8650  -18.9700   65.3090 C.3       1 MLE        -0.0425
     78 CD1         4.2210  -18.4750   63.9090 C.3       1 MLE        -0.0625
     79 CD2         5.1070  -19.1880   66.1660 C.3       1 MLE        -0.0625
     80 C           1.1550  -17.8750   67.8410 C.2       1 MLE         0.2041
     81 O          -0.2310  -18.0830   67.9480 O.2       1 MLE        -0.3944
     82 N           1.7750  -16.8720   68.4550 N.am      1 ALA        -0.2640
     83 CA          1.0680  -16.0080   69.3960 C.3       1 ALA         0.1282
     84 C           0.1290  -15.0600   68.7110 C.2       1 ALA         0.2036
     85 O           0.2250  -14.7660   67.5220 O.2       1 ALA        -0.3944
     86 CB          2.0560  -15.2740   70.2770 C.3       1 ALA        -0.0244
     87 H          -0.9757  -14.7387   70.4412 H         1 DAL         0.1883
     88 H          -1.3399  -13.1148   67.9539 H         1 DAL         0.0797
     89 H          -2.7632  -11.6668   69.3242 H         1 DAL         0.0277
     90 H          -2.6171  -12.7942   70.6948 H         1 DAL         0.0277
     91 H          -1.1843  -11.9134   70.1098 H         1 DAL         0.0277
     92 H          -2.7287  -13.5023   65.3661 H         1 MLE         0.0488
     93 H          -3.7077  -12.1646   66.0165 H         1 MLE         0.0488
     94 H          -2.1169  -12.5315   66.7277 H         1 MLE         0.0488
     95 H          -5.0050  -15.3244   67.3995 H         1 MLE         0.0802
     96 H          -6.9088  -14.2090   66.3040 H         1 MLE         0.0315
     97 H          -5.8465  -12.7059   66.1888 H         1 MLE         0.0315
     98 H          -5.7014  -12.7611   68.6429 H         1 MLE         0.0298
     99 H          -7.2640  -11.2619   67.4644 H         1 MLE         0.0232
    100 H          -8.5007  -12.5432   67.4525 H         1 MLE         0.0232
    101 H          -7.9789  -11.8236   68.9956 H         1 MLE         0.0232
    102 H          -7.9039  -14.8364   68.4423 H         1 MLE         0.0232
    103 H          -6.2574  -15.0938   69.0697 H         1 MLE         0.0232
    104 H          -7.3804  -14.0144   69.9327 H         1 MLE         0.0232
    105 H           1.7088  -24.1581   66.3388 H         1 VAL         0.1883
    106 H          -2.8770  -16.2551   66.9975 H         1 MLE         0.0488
    107 H          -4.3217  -17.2895   66.8801 H         1 MLE         0.0488
    108 H          -2.8269  -17.7478   66.0278 H         1 MLE         0.0488
    109 H          -4.0106  -16.0337   63.0982 H         1 MLE         0.0802
    110 H          -2.0506  -17.3460   62.5910 H         1 MLE         0.0315
    111 H          -1.7965  -17.6368   64.3722 H         1 MLE         0.0315
    112 H          -1.4538  -15.3120   64.7204 H         1 MLE         0.0298
    113 H           0.5112  -16.6616   64.1400 H         1 MLE         0.0232
    114 H           0.2328  -16.3589   62.4074 H         1 MLE         0.0232
    115 H           0.6971  -15.0172   63.4823 H         1 MLE         0.0232
    116 H          -1.8184  -14.8696   61.7541 H         1 MLE         0.0232
    117 H          -2.8716  -14.2913   63.0684 H         1 MLE         0.0232
    118 H          -1.2123  -13.6633   62.9154 H         1 MLE         0.0232
    119 H           2.7435  -16.7062   68.2689 H         1 ALA         0.1883
    120 H          -4.8565  -16.7010   61.2495 H         1 MVA         0.0488
    121 H          -3.2262  -17.4161   61.2895 H         1 MVA         0.0488
    122 H          -4.5110  -18.1823   60.3235 H         1 MVA         0.0488
    123 H          -5.4923  -20.1494   63.1610 H         1 MVA         0.0804
    124 H          -6.4284  -19.5822   60.4135 H         1 MVA         0.0343
    125 H          -6.7910  -21.8808   61.2784 H         1 MVA         0.0234
    126 H          -7.5352  -21.2233   62.7565 H         1 MVA         0.0234
    127 H          -8.3557  -21.0356   61.1873 H         1 MVA         0.0234
    128 H          -7.7850  -18.6916   62.9679 H         1 MVA         0.0234
    129 H          -7.1212  -17.6540   61.6819 H         1 MVA         0.0234
    130 H          -8.5320  -18.6891   61.3514 H         1 MVA         0.0234
    131 H          -2.5510  -21.7602   60.3540 H         1 XXA         0.0829
    132 H          -0.2603  -21.9161   60.8191 H         1 XXA         0.0647
    133 H           1.4528  -19.6184   59.5215 H         1 XXA         0.0751
    134 H           3.4329  -20.7473   58.6942 H         1 XXA         0.0573
    135 H          -3.2794  -20.1985   63.9429 H         1 XXA         0.0488
    136 H          -4.2071  -21.7182   63.9775 H         1 XXA         0.0488
    137 H          -2.4273  -21.7622   63.9415 H         1 XXA         0.0488
    138 H           4.9854  -22.0213   61.0181 H         1 XXA         0.0380
    139 H           5.4209  -22.0441   59.1812 H         1 XXA         0.0380
    140 H           2.9982  -20.9058   61.8399 H         1 XXA         0.0436
    141 H          -0.6385  -19.9384   59.2728 H         1 XXA         0.0235
    142 H          -2.2550  -19.6685   59.9693 H         1 XXA         0.0235
    143 H          -1.0396  -18.3676   60.0094 H         1 XXA         0.0235
    144 H           0.7477  -18.3942   61.7210 H         1 XXA         0.0476
    145 H           1.1027  -19.9354   62.5951 H         1 XXA         0.0476
    146 H           0.4779  -21.5723   63.0185 H         1 XXA         0.2101
    147 H          -1.3251  -19.5118   62.1975 H         1 XXA         0.0355
    148 H          -0.9812  -23.7008   60.0940 H         1 ABA         0.1883
    149 H          -2.4222  -25.9790   61.3793 H         1 ABA         0.0800
    150 H          -2.2472  -27.1874   59.2597 H         1 ABA         0.0310
    151 H          -1.4063  -25.7569   58.5227 H         1 ABA         0.0310
    152 H          -4.2581  -25.8300   59.5570 H         1 ABA         0.0232
    153 H          -3.4334  -24.4270   58.8341 H         1 ABA         0.0232
    154 H          -3.7665  -25.8705   57.8459 H         1 ABA         0.0232
    155 H           1.8225  -27.1327   61.7843 H         1 SAR         0.0765
    156 H           0.9643  -28.0479   63.1225 H         1 SAR         0.0765
    157 H          -1.2786  -25.1446   63.3471 H         1 SAR         0.0488
    158 H          -1.8792  -26.8186   63.2562 H         1 SAR         0.0488
    159 H          -0.5109  -26.4203   64.3240 H         1 SAR         0.0488
    160 H           2.9180  -25.3427   61.2840 H         1 MLE         0.0488
    161 H           1.4228  -24.4716   61.7044 H         1 MLE         0.0488
    162 H           3.0038  -23.6795   61.9145 H         1 MLE         0.0488
    163 H           3.4088  -24.8894   65.2324 H         1 MLE         0.0802
    164 H           4.4616  -23.3037   62.9288 H         1 MLE         0.0315
    165 H           5.1966  -24.7960   63.7075 H         1 MLE         0.0315
    166 H           4.7669  -22.1194   65.0068 H         1 MLE         0.0298
    167 H           4.6871  -23.9514   66.6067 H         1 MLE         0.0232
    168 H           6.2226  -24.5965   65.9766 H         1 MLE         0.0232
    169 H           6.1920  -23.0202   66.8043 H         1 MLE         0.0232
    170 H           7.3084  -23.4449   63.9693 H         1 MLE         0.0232
    171 H           6.5185  -22.0047   63.2817 H         1 MLE         0.0232
    172 H           7.2477  -21.9308   64.9046 H         1 MLE         0.0232
    173 H           0.1222  -21.9040   65.3981 H         1 VAL         0.0803
    174 H           0.1085  -23.2794   68.0855 H         1 VAL         0.0343
    175 H          -0.8408  -21.0290   68.2167 H         1 VAL         0.0234
    176 H          -1.8931  -21.3704   66.8213 H         1 VAL         0.0234
    177 H          -2.1269  -22.2534   68.3499 H         1 VAL         0.0234
    178 H          -1.6591  -23.6672   65.6298 H         1 VAL         0.0234
    179 H          -0.4656  -24.8282   66.2610 H         1 VAL         0.0234
    180 H          -1.9161  -24.4346   67.2160 H         1 VAL         0.0234
    181 H           0.5828  -20.2281   64.4880 H         1 MLE         0.0488
    182 H          -0.6908  -19.9668   65.7048 H         1 MLE         0.0488
    183 H           0.3039  -18.5983   65.1491 H         1 MLE         0.0488
    184 H           2.7221  -19.2534   67.7180 H         1 MLE         0.0802
    185 H           3.3905  -17.2391   66.4824 H         1 MLE         0.0315
    186 H           2.1818  -17.6447   65.2168 H         1 MLE         0.0315
    187 H           3.3888  -19.9450   65.2051 H         1 MLE         0.0298
    188 H           3.3198  -18.4415   63.2968 H         1 MLE         0.0232
    189 H           4.6530  -17.4766   63.9770 H         1 MLE         0.0232
    190 H           4.9435  -19.1549   63.4574 H         1 MLE         0.0232
    191 H           5.5943  -18.2300   66.3476 H         1 MLE         0.0232
    192 H           4.8169  -19.6355   67.1166 H         1 MLE         0.0232
    193 H           5.7946  -19.8537   65.6443 H         1 MLE         0.0232
    194 H           0.4479  -16.6455   70.0261 H         1 ALA         0.0797
    195 H           2.6511  -15.9974   70.8344 H         1 ALA         0.0277
    196 H           2.7116  -14.6640   69.6556 H         1 ALA         0.0277
    197 H           1.5142  -14.6339   70.9733 H         1 ALA         0.0277
@<TRIPOS>BOND
     1    2    1 1  
     2    1   84 am 
     3    2    3 1  
     4    4    2 1  
     5    4    5 2  
     6    6    4 am 
     7    6    7 1  
     8    8    6 1  
     9    8    9 1  
    10   13    8 1  
    11    9   10 1  
    12   10   11 1  
    13   10   12 1  
    14   13   14 2  
    15   15   13 am 
    16   15   16 1  
    17   17   15 1  
    18   17   18 1  
    19   22   17 1  
    20   18   19 1  
    21   19   20 1  
    22   19   21 1  
    23   22   23 2  
    24   24   22 am 
    25   24   25 1  
    26   26   24 1  
    27   26   27 1  
    28   30   26 1  
    29   27   28 1  
    30   27   29 1  
    31   30   31 2  
    32   33   30 am 
    33   32   34 2  
    34   35   32 1  
    35   32   46 am 
    36   35   33 1  
    37   33   39 1  
    38   36   35 1  
    39   36   44 1  
    40   45   36 1  
    41   37   41 2  
    42   43   37 1  
    43   38   40 2  
    44   41   38 1  
    45   45   42 1  
    46   43   45 1  
    47   46   47 1  
    48   47   48 1  
    49   47   50 1  
    50   48   49 2  
    51   48   52 am 
    52   50   51 1  
    53   52   53 1  
    54   52   56 1  
    55   53   54 1  
    56   54   55 2  
    57   54   57 am 
    58   57   58 1  
    59   57   59 1  
    60   59   60 1  
    61   59   64 1  
    62   60   61 1  
    63   61   62 1  
    64   61   63 1  
    65   64   65 2  
    66   64   66 am 
    67   66   67 1  
    68   67   68 1  
    69   67   70 1  
    70   68   69 2  
    71   68   73 am 
    72   70   71 1  
    73   70   72 1  
    74   73   74 1  
    75   73   75 1  
    76   75   76 1  
    77   75   80 1  
    78   76   77 1  
    79   77   78 1  
    80   77   79 1  
    81   80   81 2  
    82   80   82 am 
    83   82   83 1  
    84   83   84 1  
    85   83   86 1  
    86   84   85 2  
    87    1   87 1  
    88    2   88 1  
    89    3   89 1  
    90    3   90 1  
    91    3   91 1  
    92    7   92 1  
    93    7   93 1  
    94    7   94 1  
    95    8   95 1  
    96    9   96 1  
    97    9   97 1  
    98   10   98 1  
    99   11   99 1  
   100   11  100 1  
   101   11  101 1  
   102   12  102 1  
   103   12  103 1  
   104   12  104 1  
   105   66  105 1  
   106   16  106 1  
   107   16  107 1  
   108   16  108 1  
   109   17  109 1  
   110   18  110 1  
   111   18  111 1  
   112   19  112 1  
   113   20  113 1  
   114   20  114 1  
   115   20  115 1  
   116   21  116 1  
   117   21  117 1  
   118   21  118 1  
   119   82  119 1  
   120   25  120 1  
   121   25  121 1  
   122   25  122 1  
   123   26  123 1  
   124   27  124 1  
   125   28  125 1  
   126   28  126 1  
   127   28  127 1  
   128   29  128 1  
   129   29  129 1  
   130   29  130 1  
   131   35  131 1  
   132   36  132 1  
   133   37  133 1  
   134   38  134 1  
   135   39  135 1  
   136   39  136 1  
   137   39  137 1  
   138   40  138 1  
   139   40  139 1  
   140   41  140 1  
   141   42  141 1  
   142   42  142 1  
   143   42  143 1  
   144   43  144 1  
   145   43  145 1  
   146   44  146 1  
   147   45  147 1  
   148   46  148 1  
   149   47  149 1  
   150   50  150 1  
   151   50  151 1  
   152   51  152 1  
   153   51  153 1  
   154   51  154 1  
   155   53  155 1  
   156   53  156 1  
   157   56  157 1  
   158   56  158 1  
   159   56  159 1  
   160   58  160 1  
   161   58  161 1  
   162   58  162 1  
   163   59  163 1  
   164   60  164 1  
   165   60  165 1  
   166   61  166 1  
   167   62  167 1  
   168   62  168 1  
   169   62  169 1  
   170   63  170 1  
   171   63  171 1  
   172   63  172 1  
   173   67  173 1  
   174   70  174 1  
   175   71  175 1  
   176   71  176 1  
   177   71  177 1  
   178   72  178 1  
   179   72  179 1  
   180   72  180 1  
   181   74  181 1  
   182   74  182 1  
   183   74  183 1  
   184   75  184 1  
   185   76  185 1  
   186   76  186 1  
   187   77  187 1  
   188   78  188 1  
   189   78  189 1  
   190   78  190 1  
   191   79  191 1  
   192   79  192 1  
   193   79  193 1  
   194   83  194 1  
   195   86  195 1  
   196   86  196 1  
   197   86  197 1  
@<TRIPOS>SUBSTRUCTURE
     1 DAL         1

