3odi_ligand
  -I-interpret- 

197197  0  0  0  0  0  0  0  0999 V2000
   -0.8760  -14.4940   69.4560 N   0  0  0  0  0
   -1.8110  -13.5360   68.8420 C   0  0  0  0  0
   -2.1160  -12.3950   69.8130 C   0  0  0  0  0
   -3.0750  -14.2250   68.4100 C   0  0  0  0  0
   -3.6170  -15.0900   69.1000 O   0  0  0  0  0
   -3.6350  -13.8730   67.2020 N   0  0  0  0  0
   -3.0080  -12.9610   66.2700 C   0  0  0  0  0
   -4.8410  -14.5090   66.6950 C   0  0  0  0  0
   -6.0980  -13.6180   66.7300 C   0  0  0  0  0
   -6.5610  -13.1840   68.1230 C   0  0  0  0  0
   -7.6550  -12.1270   68.0000 C   0  0  0  0  0
   -7.0620  -14.3680   68.9520 C   0  0  0  0  0
   -4.6690  -15.0930   65.3050 C   0  0  0  0  0
   -5.3330  -14.5120   64.2100 O   0  0  0  0  0
   -3.8900  -16.1660   65.1730 N   0  0  0  0  0
   -3.4510  -16.9120   66.3440 C   0  0  0  0  0
   -3.6690  -16.7420   63.8530 C   0  0  0  0  0
   -2.1630  -16.9570   63.6030 C   0  0  0  0  0
   -1.3380  -15.6660   63.6960 C   0  0  0  0  0
    0.1310  -15.9460   63.4110 C   0  0  0  0  0
   -1.8470  -14.5410   62.7930 C   0  0  0  0  0
   -4.5080  -17.9900   63.6390 C   0  0  0  0  0
   -5.1040  -18.6110   64.7560 O   0  0  0  0  0
   -4.6770  -18.4450   62.3940 N   0  0  0  0  0
   -4.2930  -17.6340   61.2400 C   0  0  0  0  0
   -5.2850  -19.7580   62.1650 C   0  0  0  0  0
   -6.6610  -19.7440   61.4660 C   0  0  0  0  0
   -7.3880  -21.0660   61.6880 C   0  0  0  0  0
   -7.5920  -18.6130   61.8980 C   0  0  0  0  0
   -4.3180  -20.6650   61.4340 C   0  0  0  0  0
   -4.4550  -20.8650   60.0510 O   0  0  0  0  0
   -2.4060  -23.4870   61.5230 C   0  0  0  0  0
   -3.3420  -21.2450   62.1290 N   0  0  0  0  0
   -3.1700  -24.0020   62.3340 O   0  0  0  0  0
   -2.3110  -21.9860   61.3930 C   0  0  0  0  0
   -0.8700  -21.4740   61.6070 C   0  0  0  0  0
    1.6780  -19.9040   60.5490 C   0  0  0  0  0
    3.6630  -21.0280   59.7220 C   0  0  0  0  0
   -3.3120  -21.2300   63.5920 C   0  0  0  0  0
    4.7560  -21.7410   59.9900 C   0  0  0  0  0
    2.7690  -20.6210   60.8130 C   0  0  0  0  0
   -1.1930  -19.4450   60.0710 C   0  0  0  0  0
    0.7480  -19.4830   61.6690 C   0  0  0  0  0
   -0.4180  -21.8880   62.8800 O   0  0  0  0  0
   -0.6940  -19.9530   61.4260 C   0  0  0  0  0
   -1.6360  -24.1940   60.7010 N   0  0  0  0  0
   -1.6950  -25.6500   60.6370 C   0  0  0  0  0
   -0.3530  -26.2960   60.9890 C   0  0  0  0  0
    0.4210  -26.6220   60.0910 O   0  0  0  0  0
   -2.1480  -26.1020   59.2430 C   0  0  0  0  0
   -3.4990  -25.5150   58.8410 C   0  0  0  0  0
   -0.0640  -26.4700   62.2850 N   0  0  0  0  0
    1.2020  -27.0810   62.6790 C   0  0  0  0  0
    1.9860  -26.2970   63.7180 C   0  0  0  0  0
    2.1040  -26.8060   65.0340 O   0  0  0  0  0
   -0.9920  -26.1960   63.3720 C   0  0  0  0  0
    2.5480  -25.1490   63.3380 N   0  0  0  0  0
    2.4680  -24.6270   61.9720 C   0  0  0  0  0
    3.2210  -24.3170   64.3240 C   0  0  0  0  0
    4.6110  -23.8860   63.8380 C   0  0  0  0  0
    5.3850  -22.9960   64.8130 C   0  0  0  0  0
    5.6400  -23.6910   66.1460 C   0  0  0  0  0
    6.7100  -22.5630   64.1980 C   0  0  0  0  0
    2.3190  -23.1670   64.6940 C   0  0  0  0  0
    2.2330  -22.0210   63.8850 O   0  0  0  0  0
    1.6030  -23.3210   65.8020 N   0  0  0  0  0
    0.6680  -22.3010   66.2540 C   0  0  0  0  0
    1.4640  -21.1720   66.9160 C   0  0  0  0  0
    2.2620  -21.4320   67.8240 O   0  0  0  0  0
   -0.4080  -22.8880   67.2090 C   0  0  0  0  0
   -1.3890  -21.8060   67.6840 C   0  0  0  0  0
   -1.1680  -24.0390   66.5290 C   0  0  0  0  0
    1.2730  -19.9330   66.4500 N   0  0  0  0  0
    0.3040  -19.6640   65.3780 C   0  0  0  0  0
    2.0150  -18.8020   67.0220 C   0  0  0  0  0
    2.8510  -18.0420   65.9800 C   0  0  0  0  0
    3.8650  -18.9700   65.3090 C   0  0  0  0  0
    4.2210  -18.4750   63.9090 C   0  0  0  0  0
    5.1070  -19.1880   66.1660 C   0  0  0  0  0
    1.1550  -17.8750   67.8410 C   0  0  0  0  0
   -0.2310  -18.0830   67.9480 O   0  0  0  0  0
    1.7750  -16.8720   68.4550 N   0  0  0  0  0
    1.0680  -16.0080   69.3960 C   0  0  0  0  0
    0.1290  -15.0600   68.7110 C   0  0  0  0  0
    0.2250  -14.7660   67.5220 O   0  0  0  0  0
    2.0560  -15.2740   70.2770 C   0  0  0  0  0
   -0.9757  -14.7387   70.4412 H   0  0  0  0  0
   -1.3399  -13.1148   67.9539 H   0  0  0  0  0
   -2.7632  -11.6668   69.3242 H   0  0  0  0  0
   -2.6171  -12.7942   70.6948 H   0  0  0  0  0
   -1.1843  -11.9134   70.1098 H   0  0  0  0  0
   -2.7287  -13.5023   65.3661 H   0  0  0  0  0
   -3.7077  -12.1646   66.0165 H   0  0  0  0  0
   -2.1169  -12.5315   66.7277 H   0  0  0  0  0
   -5.0050  -15.3244   67.3995 H   0  0  0  0  0
   -6.9088  -14.2090   66.3040 H   0  0  0  0  0
   -5.8465  -12.7059   66.1888 H   0  0  0  0  0
   -5.7014  -12.7611   68.6429 H   0  0  0  0  0
   -7.2640  -11.2619   67.4644 H   0  0  0  0  0
   -8.5007  -12.5432   67.4525 H   0  0  0  0  0
   -7.9789  -11.8236   68.9956 H   0  0  0  0  0
   -7.9039  -14.8364   68.4423 H   0  0  0  0  0
   -6.2574  -15.0938   69.0697 H   0  0  0  0  0
   -7.3804  -14.0144   69.9327 H   0  0  0  0  0
   -2.8770  -16.2551   66.9975 H   0  0  0  0  0
   -4.3217  -17.2895   66.8801 H   0  0  0  0  0
   -2.8269  -17.7478   66.0278 H   0  0  0  0  0
   -4.0106  -16.0337   63.0982 H   0  0  0  0  0
   -2.0506  -17.3460   62.5910 H   0  0  0  0  0
   -1.7965  -17.6368   64.3722 H   0  0  0  0  0
   -1.4538  -15.3120   64.7204 H   0  0  0  0  0
    0.5112  -16.6616   64.1400 H   0  0  0  0  0
    0.2328  -16.3589   62.4074 H   0  0  0  0  0
    0.6971  -15.0172   63.4823 H   0  0  0  0  0
   -1.8184  -14.8696   61.7541 H   0  0  0  0  0
   -2.8716  -14.2913   63.0684 H   0  0  0  0  0
   -1.2123  -13.6633   62.9154 H   0  0  0  0  0
   -4.8565  -16.7010   61.2495 H   0  0  0  0  0
   -3.2262  -17.4161   61.2895 H   0  0  0  0  0
   -4.5110  -18.1823   60.3235 H   0  0  0  0  0
   -5.4923  -20.1494   63.1610 H   0  0  0  0  0
   -6.4284  -19.5822   60.4135 H   0  0  0  0  0
   -6.7910  -21.8808   61.2784 H   0  0  0  0  0
   -7.5352  -21.2233   62.7565 H   0  0  0  0  0
   -8.3557  -21.0356   61.1873 H   0  0  0  0  0
   -7.7850  -18.6916   62.9679 H   0  0  0  0  0
   -7.1212  -17.6540   61.6819 H   0  0  0  0  0
   -8.5320  -18.6891   61.3514 H   0  0  0  0  0
   -2.5510  -21.7602   60.3540 H   0  0  0  0  0
   -0.2603  -21.9161   60.8191 H   0  0  0  0  0
    1.4528  -19.6184   59.5215 H   0  0  0  0  0
    3.4329  -20.7473   58.6942 H   0  0  0  0  0
   -3.2794  -20.1985   63.9429 H   0  0  0  0  0
   -4.2071  -21.7182   63.9775 H   0  0  0  0  0
   -2.4273  -21.7622   63.9415 H   0  0  0  0  0
    4.9854  -22.0213   61.0181 H   0  0  0  0  0
    5.4209  -22.0441   59.1812 H   0  0  0  0  0
    2.9982  -20.9058   61.8399 H   0  0  0  0  0
   -0.6385  -19.9384   59.2728 H   0  0  0  0  0
   -2.2550  -19.6685   59.9693 H   0  0  0  0  0
   -1.0396  -18.3676   60.0094 H   0  0  0  0  0
    0.7477  -18.3942   61.7210 H   0  0  0  0  0
    1.1027  -19.9354   62.5951 H   0  0  0  0  0
    0.4779  -21.5722   63.0185 H   0  0  0  0  0
   -1.3251  -19.5118   62.1975 H   0  0  0  0  0
   -0.9812  -23.7008   60.0940 H   0  0  0  0  0
   -2.4222  -25.9790   61.3793 H   0  0  0  0  0
   -2.2472  -27.1874   59.2597 H   0  0  0  0  0
   -1.4063  -25.7569   58.5227 H   0  0  0  0  0
   -4.2581  -25.8300   59.5570 H   0  0  0  0  0
   -3.4334  -24.4270   58.8341 H   0  0  0  0  0
   -3.7665  -25.8705   57.8459 H   0  0  0  0  0
    1.8225  -27.1327   61.7843 H   0  0  0  0  0
    0.9643  -28.0479   63.1225 H   0  0  0  0  0
   -1.2786  -25.1446   63.3471 H   0  0  0  0  0
   -1.8792  -26.8186   63.2562 H   0  0  0  0  0
   -0.5109  -26.4203   64.3240 H   0  0  0  0  0
    2.9180  -25.3427   61.2840 H   0  0  0  0  0
    1.4228  -24.4716   61.7044 H   0  0  0  0  0
    3.0038  -23.6795   61.9145 H   0  0  0  0  0
    3.4088  -24.8894   65.2324 H   0  0  0  0  0
    4.4616  -23.3037   62.9288 H   0  0  0  0  0
    5.1966  -24.7960   63.7075 H   0  0  0  0  0
    4.7669  -22.1194   65.0068 H   0  0  0  0  0
    4.6871  -23.9514   66.6067 H   0  0  0  0  0
    6.2226  -24.5965   65.9766 H   0  0  0  0  0
    6.1920  -23.0202   66.8043 H   0  0  0  0  0
    7.3084  -23.4449   63.9693 H   0  0  0  0  0
    6.5185  -22.0047   63.2817 H   0  0  0  0  0
    7.2477  -21.9308   64.9046 H   0  0  0  0  0
    1.7109  -24.1748   66.3495 H   0  0  0  0  0
    0.1222  -21.9040   65.3981 H   0  0  0  0  0
    0.1085  -23.2794   68.0855 H   0  0  0  0  0
   -0.8408  -21.0290   68.2167 H   0  0  0  0  0
   -1.8931  -21.3704   66.8213 H   0  0  0  0  0
   -2.1269  -22.2534   68.3499 H   0  0  0  0  0
   -1.6591  -23.6672   65.6298 H   0  0  0  0  0
   -0.4656  -24.8282   66.2610 H   0  0  0  0  0
   -1.9161  -24.4346   67.2160 H   0  0  0  0  0
    0.5828  -20.2281   64.4880 H   0  0  0  0  0
   -0.6908  -19.9668   65.7048 H   0  0  0  0  0
    0.3039  -18.5983   65.1491 H   0  0  0  0  0
    2.7221  -19.2534   67.7180 H   0  0  0  0  0
    3.3905  -17.2391   66.4824 H   0  0  0  0  0
    2.1818  -17.6447   65.2168 H   0  0  0  0  0
    3.3888  -19.9450   65.2051 H   0  0  0  0  0
    3.3198  -18.4415   63.2968 H   0  0  0  0  0
    4.6530  -17.4766   63.9770 H   0  0  0  0  0
    4.9435  -19.1549   63.4574 H   0  0  0  0  0
    5.5943  -18.2300   66.3476 H   0  0  0  0  0
    4.8169  -19.6355   67.1166 H   0  0  0  0  0
    5.7946  -19.8537   65.6443 H   0  0  0  0  0
    2.7628  -16.7029   68.2652 H   0  0  0  0  0
    0.4479  -16.6455   70.0261 H   0  0  0  0  0
    2.6511  -15.9974   70.8344 H   0  0  0  0  0
    2.7116  -14.6640   69.6556 H   0  0  0  0  0
    1.5142  -14.6339   70.9733 H   0  0  0  0  0
  2  1  1  0  0  0
  1 84  1  0  0  0
  2  3  1  0  0  0
  4  2  1  0  0  0
  4  5  2  0  0  0
  6  4  1  0  0  0
  6  7  1  0  0  0
  8  6  1  0  0  0
  8  9  1  0  0  0
 13  8  1  0  0  0
  9 10  1  0  0  0
 10 11  1  0  0  0
 10 12  1  0  0  0
 13 14  2  0  0  0
 15 13  1  0  0  0
 15 16  1  0  0  0
 17 15  1  0  0  0
 17 18  1  0  0  0
 22 17  1  0  0  0
 18 19  1  0  0  0
 19 20  1  0  0  0
 19 21  1  0  0  0
 22 23  2  0  0  0
 24 22  1  0  0  0
 24 25  1  0  0  0
 26 24  1  0  0  0
 26 27  1  0  0  0
 30 26  1  0  0  0
 27 28  1  0  0  0
 27 29  1  0  0  0
 30 31  2  0  0  0
 33 30  1  0  0  0
 32 34  2  0  0  0
 35 32  1  0  0  0
 32 46  1  0  0  0
 35 33  1  0  0  0
 33 39  1  0  0  0
 36 35  1  0  0  0
 36 44  1  0  0  0
 45 36  1  0  0  0
 37 41  2  0  0  0
 43 37  1  0  0  0
 38 40  2  0  0  0
 41 38  1  0  0  0
 45 42  1  0  0  0
 43 45  1  0  0  0
 46 47  1  0  0  0
 47 48  1  0  0  0
 47 50  1  0  0  0
 48 49  2  0  0  0
 48 52  1  0  0  0
 50 51  1  0  0  0
 52 53  1  0  0  0
 52 56  1  0  0  0
 53 54  1  0  0  0
 54 55  2  0  0  0
 54 57  1  0  0  0
 57 58  1  0  0  0
 57 59  1  0  0  0
 59 60  1  0  0  0
 59 64  1  0  0  0
 60 61  1  0  0  0
 61 62  1  0  0  0
 61 63  1  0  0  0
 64 65  2  0  0  0
 64 66  1  0  0  0
 66 67  1  0  0  0
 67 68  1  0  0  0
 67 70  1  0  0  0
 68 69  2  0  0  0
 68 73  1  0  0  0
 70 71  1  0  0  0
 70 72  1  0  0  0
 73 74  1  0  0  0
 73 75  1  0  0  0
 75 76  1  0  0  0
 75 80  1  0  0  0
 76 77  1  0  0  0
 77 78  1  0  0  0
 77 79  1  0  0  0
 80 81  2  0  0  0
 80 82  1  0  0  0
 82 83  1  0  0  0
 83 84  1  0  0  0
 83 86  1  0  0  0
 84 85  2  0  0  0
  1 87  1  0  0  0
  2 88  1  0  0  0
  3 89  1  0  0  0
  3 90  1  0  0  0
  3 91  1  0  0  0
  7 92  1  0  0  0
  7 93  1  0  0  0
  7 94  1  0  0  0
  8 95  1  0  0  0
  9 96  1  0  0  0
  9 97  1  0  0  0
 10 98  1  0  0  0
 11 99  1  0  0  0
 11100  1  0  0  0
 11101  1  0  0  0
 12102  1  0  0  0
 12103  1  0  0  0
 12104  1  0  0  0
 16105  1  0  0  0
 16106  1  0  0  0
 16107  1  0  0  0
 17108  1  0  0  0
 18109  1  0  0  0
 18110  1  0  0  0
 19111  1  0  0  0
 20112  1  0  0  0
 20113  1  0  0  0
 20114  1  0  0  0
 21115  1  0  0  0
 21116  1  0  0  0
 21117  1  0  0  0
 25118  1  0  0  0
 25119  1  0  0  0
 25120  1  0  0  0
 26121  1  0  0  0
 27122  1  0  0  0
 28123  1  0  0  0
 28124  1  0  0  0
 28125  1  0  0  0
 29126  1  0  0  0
 29127  1  0  0  0
 29128  1  0  0  0
 35129  1  0  0  0
 36130  1  0  0  0
 37131  1  0  0  0
 38132  1  0  0  0
 39133  1  0  0  0
 39134  1  0  0  0
 39135  1  0  0  0
 40136  1  0  0  0
 40137  1  0  0  0
 41138  1  0  0  0
 42139  1  0  0  0
 42140  1  0  0  0
 42141  1  0  0  0
 43142  1  0  0  0
 43143  1  0  0  0
 44144  1  0  0  0
 45145  1  0  0  0
 46146  1  0  0  0
 47147  1  0  0  0
 50148  1  0  0  0
 50149  1  0  0  0
 51150  1  0  0  0
 51151  1  0  0  0
 51152  1  0  0  0
 53153  1  0  0  0
 53154  1  0  0  0
 56155  1  0  0  0
 56156  1  0  0  0
 56157  1  0  0  0
 58158  1  0  0  0
 58159  1  0  0  0
 58160  1  0  0  0
 59161  1  0  0  0
 60162  1  0  0  0
 60163  1  0  0  0
 61164  1  0  0  0
 62165  1  0  0  0
 62166  1  0  0  0
 62167  1  0  0  0
 63168  1  0  0  0
 63169  1  0  0  0
 63170  1  0  0  0
 66171  1  0  0  0
 67172  1  0  0  0
 70173  1  0  0  0
 71174  1  0  0  0
 71175  1  0  0  0
 71176  1  0  0  0
 72177  1  0  0  0
 72178  1  0  0  0
 72179  1  0  0  0
 74180  1  0  0  0
 74181  1  0  0  0
 74182  1  0  0  0
 75183  1  0  0  0
 76184  1  0  0  0
 76185  1  0  0  0
 77186  1  0  0  0
 78187  1  0  0  0
 78188  1  0  0  0
 78189  1  0  0  0
 79190  1  0  0  0
 79191  1  0  0  0
 79192  1  0  0  0
 82193  1  0  0  0
 83194  1  0  0  0
 86195  1  0  0  0
 86196  1  0  0  0
 86197  1  0  0  0
M  END
$$$$
