1o5c_ligand
  -I-interpret- 

 50 53  0  0  0  0  0  0  0  0999 V2000
    9.0020    1.4910   24.6770 C   0  0  0  0  0
    9.8640    1.3400   23.5390 C   0  0  0  0  0
   10.1700    0.1120   23.0300 F   0  0  0  0  0
   10.4530    2.4210   22.8940 C   0  0  0  0  0
   10.1720    3.6340   23.4030 C   0  0  0  0  0
    9.3730    3.8380   24.4630 C   0  0  0  0  0
    8.7640    2.8120   25.1330 C   0  0  0  0  0
    8.4260    0.3820   25.3370 C   0  0  0  0  0
    8.1470    0.4560   26.6070 N   0  0  0  0  0
    8.1560   -0.7490   24.7410 N   0  0  0  0  0
   10.5870    4.7790   23.0070 N   0  0  0  0  0
    9.2530    5.1110   24.7770 N   0  0  0  0  0
   10.0320    5.6180   23.8310 C   0  0  0  0  0
   10.2680    7.0030   23.7360 C   0  0  0  0  0
    9.8850    7.8860   24.7700 C   0  0  0  0  0
   10.1310    9.2490   24.7030 C   0  0  0  0  0
   10.7630    9.7800   23.5950 C   0  0  0  0  0
   11.1590    8.9310   22.5420 C   0  0  0  0  0
   10.9110    7.5780   22.6150 C   0  0  0  0  0
   11.3330    6.8450   21.5280 O   0  0  0  0  0
   11.8250    9.3430   21.3970 O   0  0  0  0  0
   12.1860   11.6150   20.7560 C   0  0  0  0  0
   13.0180   11.7970   19.4910 C   0  0  0  0  0
   14.4610   12.1430   19.8460 C   0  0  0  0  0
   14.9590   11.3970   21.0940 C   0  0  0  0  0
   14.1580   10.0860   21.2660 C   0  0  0  0  0
   12.7110   10.4360   21.5990 C   0  0  0  0  0
   10.7240   11.3220   20.3660 C   0  0  0  0  0
   11.1031    2.2937   22.0284 H   0  0  0  0  0
    8.1172    3.0041   25.9891 H   0  0  0  0  0
    7.7381   -0.3458   27.0869 H   0  0  0  0  0
    7.7468   -1.5192   25.2699 H   0  0  0  0  0
    8.3544   -0.8617   23.7468 H   0  0  0  0  0
    9.3802    7.4832   25.6481 H   0  0  0  0  0
    9.8265    9.9000   25.5225 H   0  0  0  0  0
   10.9546   10.8514   23.5355 H   0  0  0  0  0
   11.7410    7.4315   20.8868 H   0  0  0  0  0
   12.2544   12.5308   21.3431 H   0  0  0  0  0
   12.5935   12.6098   18.9017 H   0  0  0  0  0
   13.0063   10.8671   18.9225 H   0  0  0  0  0
   14.5078   13.2120   20.0538 H   0  0  0  0  0
   15.0919   11.8503   19.0067 H   0  0  0  0  0
   14.8186   12.0261   21.9730 H   0  0  0  0  0
   16.0174   11.1632   20.9788 H   0  0  0  0  0
   14.5896    9.4917   22.0714 H   0  0  0  0  0
   14.1955    9.5059   20.3440 H   0  0  0  0  0
   12.7289   10.7077   22.6544 H   0  0  0  0  0
   10.3298   12.1565   19.7860 H   0  0  0  0  0
   10.6843   10.4115   19.7681 H   0  0  0  0  0
   10.1276   11.1916   21.2690 H   0  0  0  0  0
  1  2  4  0  0  0
  7  1  4  0  0  0
  1  8  1  0  0  0
  2  3  1  0  0  0
  4  2  4  0  0  0
  5  4  4  0  0  0
  6  5  4  0  0  0
 11  5  4  0  0  0
  6  7  4  0  0  0
 12  6  4  0  0  0
  8  9  2  0  0  0
  8 10  1  0  0  0
 13 11  4  0  0  0
 13 12  4  0  0  0
 14 13  1  0  0  0
 14 15  4  0  0  0
 19 14  4  0  0  0
 16 15  4  0  0  0
 17 16  4  0  0  0
 18 17  4  0  0  0
 18 19  4  0  0  0
 21 18  1  0  0  0
 19 20  1  0  0  0
 27 21  1  0  0  0
 22 23  1  0  0  0
 22 27  1  0  0  0
 22 28  1  0  0  0
 23 24  1  0  0  0
 24 25  1  0  0  0
 25 26  1  0  0  0
 26 27  1  0  0  0
  4 29  1  0  0  0
  7 30  1  0  0  0
  9 31  1  0  0  0
 10 32  1  0  0  0
 10 33  1  0  0  0
 15 34  1  0  0  0
 16 35  1  0  0  0
 17 36  1  0  0  0
 20 37  1  0  0  0
 22 38  1  0  0  0
 23 39  1  0  0  0
 23 40  1  0  0  0
 24 41  1  0  0  0
 24 42  1  0  0  0
 25 43  1  0  0  0
 25 44  1  0  0  0
 26 45  1  0  0  0
 26 46  1  0  0  0
 27 47  1  0  0  0
 28 48  1  0  0  0
 28 49  1  0  0  0
 28 50  1  0  0  0
M  END
$$$$
