3ckt_ligand
  -I-interpret- 

 79 81  0  0  0  0  0  0  0  0999 V2000
    9.7120    8.5970  -18.1680 N   0  0  0  0  0
    8.9070    6.7760  -16.0830 C   0  0  0  0  0
    9.7430    6.3410  -17.1200 C   0  0  0  0  0
   10.1380    7.3110  -18.2170 C   0  0  0  0  0
    8.4390   -1.2680  -11.1950 C   0  0  0  0  0
    8.5480    5.8930  -15.0690 C   0  0  0  0  0
    6.5330    2.1150  -15.0780 C   0  0  0  0  0
    9.0020    4.5720  -15.0760 C   0  0  0  0  0
    9.8160    4.1260  -16.1180 C   0  0  0  0  0
   10.1630    5.0130  -17.1540 C   0  0  0  0  0
    8.5100    3.5040  -13.7700 S   0  0  0  0  0
    9.7690    3.1490  -13.0950 O   0  0  0  0  0
    7.8910    2.0860  -14.5140 N   0  0  0  0  0
    8.7550    0.8850  -14.4840 C   0  0  0  0  0
    8.8590    0.3180  -13.0720 C   0  0  0  0  0
    8.3200   -0.8350  -12.6390 C   0  0  0  0  0
    7.5380   -1.7970  -13.5040 C   0  0  0  0  0
    6.3410    1.4800  -16.4570 C   0  0  0  0  0
    5.5940    0.2230  -16.3390 N   0  3  0  0  0
    7.4860    4.1060  -12.9360 O   0  0  0  0  0
   10.8730    6.8860  -19.0880 O   0  0  0  0  0
    0.3770   -3.0810   -9.7660 N   0  0  0  0  0
    2.3960   -0.9890  -10.3450 C   0  0  0  0  0
   -0.0470   -3.0300  -11.9750 O   0  0  0  0  0
    1.1860   -0.5350  -12.3880 C   0  0  0  0  0
    1.3830   -1.3260  -11.2620 C   0  0  0  0  0
    0.5100   -2.5460  -11.0080 C   0  0  0  0  0
    4.1990    2.1930  -12.0280 S   0  0  0  0  0
    3.3330    4.2670  -17.2450 C   0  0  0  0  0
    4.0050    6.4600  -16.1560 C   0  0  0  0  0
    3.4850    3.3960  -11.6360 O   0  0  0  0  0
    3.2720    0.0610  -10.6260 C   0  0  0  0  0
    2.0530    0.5330  -12.6680 C   0  0  0  0  0
    5.5330    1.3520  -14.1620 C   0  0  0  0  0
    5.0500    0.1200  -14.9660 C   0  0  0  0  0
    3.0780    0.8340  -11.7780 C   0  0  0  0  0
    4.3850    2.1570  -13.6990 N   0  0  0  0  0
    3.4630    2.8930  -14.5730 C   0  0  0  0  0
    3.7610    4.3720  -14.7770 C   0  0  0  0  0
    3.7100    4.9930  -15.9710 C   0  0  0  0  0
    5.4360    1.7980  -11.3760 O   0  0  0  0  0
   10.0080    9.2600  -18.8844 H   0  0  0  0  0
    9.0955    8.9017  -17.4147 H   0  0  0  0  0
    8.5393    7.8020  -16.0706 H   0  0  0  0  0
    9.4921   -1.3709  -10.9335 H   0  0  0  0  0
    7.9754   -0.5190  -10.5530 H   0  0  0  0  0
    7.9349   -2.2252  -11.0613 H   0  0  0  0  0
    7.9044    6.2366  -14.2591 H   0  0  0  0  0
    6.3531    3.1869  -15.1603 H   0  0  0  0  0
   10.1802    3.0987  -16.1294 H   0  0  0  0  0
   10.7655    4.6580  -17.9901 H   0  0  0  0  0
    9.7529    1.1649  -14.8217 H   0  0  0  0  0
    8.3192    0.1257  -15.1334 H   0  0  0  0  0
    9.4235    0.9026  -12.3456 H   0  0  0  0  0
    6.6642   -1.2889  -13.9119 H   0  0  0  0  0
    8.1705   -2.1464  -14.3200 H   0  0  0  0  0
    7.2174   -2.6470  -12.9016 H   0  0  0  0  0
    7.3185    1.2736  -16.8930 H   0  0  0  0  0
    5.7818    2.1681  -17.0910 H   0  0  0  0  0
    6.2126   -0.5661  -16.5263 H   0  0  0  0  0
    4.8309    0.2091  -17.0156 H   0  0  0  0  0
   -0.2016   -3.9094   -9.6268 H   0  0  0  0  0
    0.8557   -2.6542   -8.9729 H   0  0  0  0  0
    2.4967   -1.5482   -9.4148 H   0  0  0  0  0
    0.3525   -0.7455  -13.0582 H   0  0  0  0  0
    4.0414    3.4582  -17.4240 H   0  0  0  0  0
    2.3285    3.8561  -17.1439 H   0  0  0  0  0
    3.3586    4.9658  -18.0811 H   0  0  0  0  0
    3.3061    7.0477  -15.5608 H   0  0  0  0  0
    5.0247    6.6680  -15.8317 H   0  0  0  0  0
    3.8968    6.7211  -17.2087 H   0  0  0  0  0
    4.1017    0.2780   -9.9532 H   0  0  0  0  0
    1.9237    1.1218  -13.5761 H   0  0  0  0  0
    6.0497    1.0746  -13.2432 H   0  0  0  0  0
    5.3988   -0.7975  -14.4921 H   0  0  0  0  0
    3.9607    0.0944  -14.9950 H   0  0  0  0  0
    2.4858    2.8441  -14.0925 H   0  0  0  0  0
    3.5423    2.4294  -15.5563 H   0  0  0  0  0
    4.0322    4.9646  -13.9033 H   0  0  0  0  0
  4  1  1  0  0  0
  2  3  4  0  0  0
  6  2  4  0  0  0
  3  4  1  0  0  0
 10  3  4  0  0  0
  4 21  2  0  0  0
 16  5  1  0  0  0
  8  6  4  0  0  0
  7 13  1  0  0  0
  7 18  1  0  0  0
 34  7  1  0  0  0
  8  9  4  0  0  0
 11  8  1  0  0  0
  9 10  4  0  0  0
 11 12  2  0  0  0
 13 11  1  0  0  0
 11 20  2  0  0  0
 13 14  1  0  0  0
 14 15  1  0  0  0
 15 16  2  0  0  0
 16 17  1  0  0  0
 19 18  1  0  0  0
 35 19  1  0  0  0
 27 22  1  0  0  0
 23 26  4  0  0  0
 32 23  4  0  0  0
 27 24  2  0  0  0
 25 26  4  0  0  0
 33 25  4  0  0  0
 26 27  1  0  0  0
 28 31  2  0  0  0
 28 36  1  0  0  0
 37 28  1  0  0  0
 28 41  2  0  0  0
 40 29  1  0  0  0
 40 30  1  0  0  0
 36 32  4  0  0  0
 36 33  4  0  0  0
 34 35  1  0  0  0
 37 34  1  0  0  0
 38 37  1  0  0  0
 39 38  1  0  0  0
 39 40  2  0  0  0
  1 42  1  0  0  0
  1 43  1  0  0  0
  2 44  1  0  0  0
  5 45  1  0  0  0
  5 46  1  0  0  0
  5 47  1  0  0  0
  6 48  1  0  0  0
  7 49  1  0  0  0
  9 50  1  0  0  0
 10 51  1  0  0  0
 14 52  1  0  0  0
 14 53  1  0  0  0
 15 54  1  0  0  0
 17 55  1  0  0  0
 17 56  1  0  0  0
 17 57  1  0  0  0
 18 58  1  0  0  0
 18 59  1  0  0  0
 19 60  1  0  0  0
 19 61  1  0  0  0
 22 62  1  0  0  0
 22 63  1  0  0  0
 23 64  1  0  0  0
 25 65  1  0  0  0
 29 66  1  0  0  0
 29 67  1  0  0  0
 29 68  1  0  0  0
 30 69  1  0  0  0
 30 70  1  0  0  0
 30 71  1  0  0  0
 32 72  1  0  0  0
 33 73  1  0  0  0
 34 74  1  0  0  0
 35 75  1  0  0  0
 35 76  1  0  0  0
 38 77  1  0  0  0
 38 78  1  0  0  0
 39 79  1  0  0  0
M  END
$$$$
