2v5a_ligand
  -I-interpret- 

 39 42  0  0  0  0  0  0  0  0999 V2000
    1.7200  -27.6580   24.5340 N   0  0  0  0  0
    2.1640  -26.3900   24.6940 C   0  0  0  0  0
    1.4840  -25.5340   25.5070 N   0  0  0  0  0
    1.8740  -24.2630   25.7090 C   0  0  0  0  0
    3.0170  -23.8050   25.0650 C   0  0  0  0  0
    3.4930  -22.5100   25.2230 C   0  0  0  0  0
    3.2820  -26.0060   24.0340 N   0  0  0  0  0
    3.7490  -24.7490   24.1780 C   0  0  0  0  0
    4.8620  -24.3520   23.5300 N   0  0  0  0  0
    5.3590  -23.0970   23.6510 C   0  0  0  0  0
    6.5270  -22.8100   22.9040 N   0  0  0  0  0
    6.8340  -21.7940   21.9600 C   0  0  0  0  0
    8.1530  -22.0120   21.6090 C   0  0  0  0  0
    8.2920  -23.3580   21.7350 C   0  0  0  0  0
    7.6640  -23.6770   22.9380 C   0  0  0  0  0
    4.6420  -22.1170   24.5370 C   0  0  0  0  0
    5.1360  -20.7340   24.7420 C   0  0  0  0  0
    4.4470  -19.6250   24.2530 C   0  0  0  0  0
    4.9560  -18.3460   24.4780 C   0  0  0  0  0
    6.1410  -18.1860   25.1960 C   0  0  0  0  0
    6.8260  -19.2920   25.6930 C   0  0  0  0  0
    6.3180  -20.5700   25.4700 C   0  0  0  0  0
    0.8796  -27.9694   25.0210 H   0  0  0  0  0
    2.2257  -28.3026   23.9264 H   0  0  0  0  0
    1.3046  -23.6048   26.3652 H   0  0  0  0  0
    2.9742  -21.8083   25.8761 H   0  0  0  0  0
    6.6888  -20.7984   22.3793 H   0  0  0  0  0
    6.1747  -21.8380   21.0931 H   0  0  0  0  0
    8.8511  -21.4576   22.2362 H   0  0  0  0  0
    8.3835  -21.6587   20.6039 H   0  0  0  0  0
    9.3403  -23.6565   21.7361 H   0  0  0  0  0
    7.8462  -23.8896   20.8943 H   0  0  0  0  0
    7.4060  -24.7321   23.0295 H   0  0  0  0  0
    8.2975  -23.5321   23.8131 H   0  0  0  0  0
    3.5175  -19.7565   23.6990 H   0  0  0  0  0
    4.4286  -17.4731   24.0934 H   0  0  0  0  0
    6.5351  -17.1847   25.3700 H   0  0  0  0  0
    7.7522  -19.1589   26.2520 H   0  0  0  0  0
    6.8419  -21.4414   25.8629 H   0  0  0  0  0
  1  2  1  0  0  0
  2  3  4  0  0  0
  2  7  4  0  0  0
  3  4  4  0  0  0
  4  5  4  0  0  0
  5  6  4  0  0  0
  5  8  4  0  0  0
  6 16  4  0  0  0
  7  8  4  0  0  0
  8  9  4  0  0  0
  9 10  4  0  0  0
 10 11  1  0  0  0
 10 16  4  0  0  0
 11 12  1  0  0  0
 11 15  1  0  0  0
 12 13  1  0  0  0
 13 14  1  0  0  0
 14 15  1  0  0  0
 16 17  1  0  0  0
 17 18  4  0  0  0
 17 22  4  0  0  0
 18 19  4  0  0  0
 19 20  4  0  0  0
 20 21  4  0  0  0
 21 22  4  0  0  0
  1 23  1  0  0  0
  1 24  1  0  0  0
  4 25  1  0  0  0
  6 26  1  0  0  0
 12 27  1  0  0  0
 12 28  1  0  0  0
 13 29  1  0  0  0
 13 30  1  0  0  0
 14 31  1  0  0  0
 14 32  1  0  0  0
 15 33  1  0  0  0
 15 34  1  0  0  0
 18 35  1  0  0  0
 19 36  1  0  0  0
 20 37  1  0  0  0
 21 38  1  0  0  0
 22 39  1  0  0  0
M  END
$$$$
