1me4_ligand
  -I-interpret- 

 62 64  0  0  0  0  0  0  0  0999 V2000
    6.2180   10.7430   11.0070 O   0  0  0  0  0
    5.2660   10.8090    9.9630 C   0  0  0  0  0
    5.9290   11.7990    9.0240 C   0  0  0  0  0
    7.1490   11.7390    9.0160 O   0  0  0  0  0
    4.9310   12.6470    8.2430 C   0  0  0  0  0
    4.7030   13.9080    9.1390 C   0  0  0  0  0
    5.9350   14.7530    9.3880 C   0  0  0  0  0
    6.1940   15.8320    8.4980 C   0  0  0  0  0
    7.3530   16.6340    8.6840 C   0  0  0  0  0
    8.2630   16.3900    9.7250 C   0  0  0  0  0
    8.0210   15.3450   10.6430 C   0  0  0  0  0
    6.8570   14.6260   10.4470 C   0  0  0  0  0
    3.6120   11.9500    7.9980 N   0  0  0  0  0
    3.3120   11.3160    6.8300 C   0  0  0  0  0
    4.1430   11.1200    5.9290 O   0  0  0  0  0
    1.8580   10.8110    6.7350 C   0  0  0  0  0
    1.8350    9.3150    7.1400 C   0  0  0  0  0
    0.4980    8.6390    6.7730 C   0  0  0  0  0
    0.5390    7.4400    6.0140 C   0  0  0  0  0
   -0.6940    6.8210    5.7300 C   0  0  0  0  0
   -1.9280    7.3940    6.0990 C   0  0  0  0  0
   -1.9300    8.6020    6.8210 C   0  0  0  0  0
   -0.7240    9.1970    7.1680 C   0  0  0  0  0
    1.4300   10.9870    5.3320 N   0  0  0  0  0
    1.1350   12.1540    4.7370 C   0  0  0  0  0
    1.0010   13.1830    5.3830 O   0  0  0  0  0
    0.9750   12.0350    3.3880 O   0  0  0  0  0
    0.6340   13.2840    2.6650 C   0  0  0  0  0
    0.7730   12.9490    1.2090 C   0  0  0  0  0
   -0.2840   12.3260    0.5080 C   0  0  0  0  0
   -0.1130   12.0140   -0.8360 C   0  0  0  0  0
    1.0880   12.2980   -1.5060 C   0  0  0  0  0
    2.1040   12.9640   -0.8270 C   0  0  0  0  0
    1.9750   13.2340    0.5610 C   0  0  0  0  0
    5.9093   10.1342   11.6820 H   0  0  0  0  0
    4.2725   11.1130   10.2925 H   0  0  0  0  0
    5.0495    9.8445    9.5037 H   0  0  0  0  0
    5.3219   12.8734    7.2510 H   0  0  0  0  0
    4.3705   13.5451   10.1115 H   0  0  0  0  0
    3.9899   14.5418    8.6119 H   0  0  0  0  0
    5.5076   16.0427    7.6779 H   0  0  0  0  0
    7.5404   17.4613    7.9995 H   0  0  0  0  0
    9.1560   17.0071    9.8244 H   0  0  0  0  0
    8.7101   15.1190   11.4567 H   0  0  0  0  0
    6.6246   13.8724   11.1994 H   0  0  0  0  0
    2.9141   11.9546    8.7419 H   0  0  0  0  0
    1.1851   11.3576    7.3957 H   0  0  0  0  0
    1.9641    9.2519    8.2205 H   0  0  0  0  0
    2.6345    8.8038    6.6037 H   0  0  0  0  0
    1.4819    7.0175    5.6667 H   0  0  0  0  0
   -0.6940    5.8650    5.2063 H   0  0  0  0  0
   -2.8661    6.9089    5.8293 H   0  0  0  0  0
   -2.8731    9.0682    7.1064 H   0  0  0  0  0
   -0.7288   10.1137    7.7577 H   0  0  0  0  0
    1.3513   10.1443    4.7628 H   0  0  0  0  0
    1.2901   14.1057    2.9521 H   0  0  0  0  0
   -0.3737   13.6237    2.9042 H   0  0  0  0  0
   -1.2208   12.0932    1.0142 H   0  0  0  0  0
   -0.9285   11.5388   -1.3812 H   0  0  0  0  0
    1.2229   12.0003   -2.5458 H   0  0  0  0  0
    3.0002   13.2789   -1.3616 H   0  0  0  0  0
    2.8098   13.6612    1.1166 H   0  0  0  0  0
  1  2  1  0  0  0
  2  3  1  0  0  0
  3  4  2  0  0  0
  3  5  1  0  0  0
  5  6  1  0  0  0
  5 13  1  0  0  0
  6  7  1  0  0  0
  7  8  4  0  0  0
  7 12  4  0  0  0
  8  9  4  0  0  0
  9 10  4  0  0  0
 10 11  4  0  0  0
 11 12  4  0  0  0
 13 14  1  0  0  0
 14 15  2  0  0  0
 14 16  1  0  0  0
 16 17  1  0  0  0
 16 24  1  0  0  0
 17 18  1  0  0  0
 18 19  4  0  0  0
 18 23  4  0  0  0
 19 20  4  0  0  0
 20 21  4  0  0  0
 21 22  4  0  0  0
 22 23  4  0  0  0
 24 25  1  0  0  0
 25 26  2  0  0  0
 25 27  1  0  0  0
 27 28  1  0  0  0
 28 29  1  0  0  0
 29 30  4  0  0  0
 29 34  4  0  0  0
 30 31  4  0  0  0
 31 32  4  0  0  0
 32 33  4  0  0  0
 33 34  4  0  0  0
  1 35  1  0  0  0
  2 36  1  0  0  0
  2 37  1  0  0  0
  5 38  1  0  0  0
  6 39  1  0  0  0
  6 40  1  0  0  0
  8 41  1  0  0  0
  9 42  1  0  0  0
 10 43  1  0  0  0
 11 44  1  0  0  0
 12 45  1  0  0  0
 13 46  1  0  0  0
 16 47  1  0  0  0
 17 48  1  0  0  0
 17 49  1  0  0  0
 19 50  1  0  0  0
 20 51  1  0  0  0
 21 52  1  0  0  0
 22 53  1  0  0  0
 23 54  1  0  0  0
 24 55  1  0  0  0
 28 56  1  0  0  0
 28 57  1  0  0  0
 30 58  1  0  0  0
 31 59  1  0  0  0
 32 60  1  0  0  0
 33 61  1  0  0  0
 34 62  1  0  0  0
M  END
$$$$
