### 
### Created by X-TOOL on Mon Sep 10 21:13:20 2018
### 

@<TRIPOS>MOLECULE
5a0e_ligand
  218   221     1     0     0
SMALL
GAST_HUCK


@<TRIPOS>ATOM
      1 N          -8.4670    0.4320   26.9420 N.am      1 DAL        -0.1035
      2 CA         -7.9990    0.2380   25.5680 C.3       1 DAL         0.2858
      3 CB         -8.8770    0.9990   24.6180 C.3       1 DAL        -0.0012
      4 C          -8.0020   -1.2380   25.3150 C.2       1 DAL         0.2614
      5 O          -8.9840   -1.9200   25.6530 O.2       1 DAL        -0.3388
      6 N          -6.9210   -1.7510   24.6990 N.am      1 MLE        -0.2498
      7 CN         -5.7320   -0.9600   24.2320 C.3       1 MLE         0.0256
      8 CA         -7.0010   -3.1600   24.2500 C.3       1 MLE         0.1341
      9 CB         -7.1360   -3.2750   22.7220 C.3       1 MLE        -0.0097
     10 CG         -8.4250   -2.6830   22.1510 C.3       1 MLE        -0.0425
     11 CD1        -9.6910   -3.3570   22.6440 C.3       1 MLE        -0.0625
     12 CD2        -8.3370   -2.6920   20.5620 C.3       1 MLE        -0.0625
     13 C          -5.7520   -3.8400   24.7750 C.2       1 MLE         0.2065
     14 O          -4.8510   -4.1900   23.9870 O.2       1 MLE        -0.3942
     15 N          -5.6240   -4.0540   26.1430 N.am      1 MLE        -0.2529
     16 CN         -6.6180   -3.5970   27.1200 C.3       1 MLE         0.0254
     17 CA         -4.4310   -4.7190   26.5920 C.3       1 MLE         0.1338
     18 CB         -3.7120   -3.9230   27.6980 C.3       1 MLE        -0.0099
     19 CG         -3.3480   -2.5340   27.1670 C.3       1 MLE        -0.0425
     20 CD1        -2.4380   -2.4780   25.9460 C.3       1 MLE        -0.0625
     21 CD2        -2.6240   -1.8240   28.3350 C.3       1 MLE        -0.0625
     22 C          -4.7200   -6.1440   27.1290 C.2       1 MLE         0.2064
     23 O          -5.9050   -6.4460   27.2850 O.2       1 MLE        -0.3942
     24 N          -3.7130   -7.0020   27.3390 N.am      1 MVA        -0.2526
     25 CN         -2.3110   -6.7560   26.9890 C.3       1 MVA         0.0254
     26 CA         -4.0170   -8.3540   27.8550 C.3       1 MVA         0.1359
     27 CB         -3.7520   -9.4770   26.8290 C.3       1 MVA        -0.0061
     28 CG1        -4.4420  -10.7180   27.3760 C.3       1 MVA        -0.0584
     29 CG2        -4.2830   -9.1090   25.4520 C.3       1 MVA        -0.0584
     30 C          -3.2560   -8.6110   29.1410 C.2       1 MVA         0.2067
     31 O          -2.1620   -9.1730   29.1120 O.2       1 MVA        -0.3942
     32 C          -3.5530   -9.2240   32.5090 C.2       1 AUX         0.2067
     33 N          -3.7810   -8.1470   30.2820 N.am      1 AUX        -0.2503
     34 O          -4.6770   -9.7070   32.3470 O.2       1 AUX        -0.3943
     35 CA         -2.9720   -8.2290   31.4800 C.3       1 AUX         0.1594
     36 CB         -2.6750   -6.8530   32.1640 C.3       1 AUX         0.0994
     37 CE         -0.7710   -4.4600   32.6950 C.2       1 AUX        -0.0983
     38 CH          0.4640   -4.0980   34.7470 C.3       1 AUX        -0.0346
     39 CN         -5.1750   -7.6110   30.3580 C.3       1 AUX         0.0255
     40 CZ         -0.7840   -4.1810   33.8670 C.2       1 AUX        -0.0986
     41 CAA         1.8410   -3.9840   34.1500 C.3       1 AUX        -0.0263
     42 CAB         3.4290   -2.4360   29.9560 C.2       1 AUX        -0.0600
     43 CAC         4.7420   -2.0980   30.2660 C.2       1 AUX        -0.0717
     44 CAD         2.5280   -2.5940   31.0610 C.3       1 AUX         0.0553
     45 CAE         6.8500   -1.5300   33.1470 C.ar      1 AUX        -0.0787
     46 CAF         5.9790   -1.8170   34.1700 C.ar      1 AUX        -0.0772
     47 CAG         6.5020   -1.5760   31.8280 C.ar      1 AUX        -0.0715
     48 CAH         4.6440   -2.1310   33.9410 C.ar      1 AUX        -0.0465
     49 CAI         1.8990   -2.6600   33.4910 C.3       1 AUX         0.0313
     50 CAJ         5.1430   -1.9500   31.5940 C.ar      1 AUX        -0.0194
     51 CAK         4.2600   -2.2500   32.6000 C.ar      1 AUX         0.0473
     52 NAL         2.9250   -2.4650   32.3480 N.pl3     1 AUX        -0.2959
     53 CD1        -0.9180   -6.3860   30.4310 C.3       1 AUX        -0.0583
     54 CD2        -1.9570   -4.5220   31.7510 C.3       1 AUX        -0.0313
     55 OG1        -3.8830   -6.4330   32.7840 O.3       1 AUX        -0.3867
     56 CG2        -2.1760   -5.8590   31.1250 C.3       1 AUX        -0.0069
     57 N          -2.7350   -9.4580   33.5310 N.am      1 ABA        -0.2636
     58 CA         -3.0040  -10.4930   34.5550 C.3       1 ABA         0.1309
     59 C          -3.0460   -9.8340   35.9340 C.2       1 ABA         0.2059
     60 O          -1.9680   -9.8310   36.6050 O.2       1 ABA        -0.3942
     61 CB         -1.9390  -11.5300   34.4770 C.3       1 ABA        -0.0152
     62 CG         -1.8930  -12.2330   33.1690 C.3       1 ABA        -0.0610
     63 N          -4.1500   -9.1410   36.3010 N.am      1 SAR        -0.2556
     64 CA         -4.2060   -8.4600   37.6290 C.3       1 SAR         0.1227
     65 C          -4.5980   -7.0290   37.5150 C.2       1 SAR         0.2032
     66 O          -5.7520   -6.7260   37.9490 O.2       1 SAR        -0.3945
     67 CN         -5.3550   -8.9520   35.5050 C.3       1 SAR         0.0252
     68 N          -3.8520   -6.1430   36.9890 N.am      1 MLE        -0.2531
     69 CN         -2.5500   -6.5090   36.3620 C.3       1 MLE         0.0254
     70 CA         -4.3560   -4.7410   36.8320 C.3       1 MLE         0.1336
     71 CB         -3.3660   -3.6690   37.1390 C.3       1 MLE        -0.0099
     72 CG         -2.7770   -3.8080   38.5250 C.3       1 MLE        -0.0425
     73 CD1        -3.8550   -3.9350   39.6260 C.3       1 MLE        -0.0625
     74 CD2        -1.8390   -2.6400   38.8260 C.3       1 MLE        -0.0625
     75 C          -4.9450   -4.6220   35.4600 C.2       1 MLE         0.2041
     76 O          -4.1940   -4.4200   34.4960 O.2       1 MLE        -0.3944
     77 N          -6.2640   -4.7550   35.3110 N.am      1 VAL        -0.2635
     78 CA         -6.8510   -4.7540   34.0440 C.3       1 VAL         0.1334
     79 C          -7.0000   -3.3540   33.4640 C.2       1 VAL         0.2064
     80 O          -7.4770   -2.4680   34.2350 O.2       1 VAL        -0.3942
     81 CB         -8.2430   -5.3250   34.1950 C.3       1 VAL        -0.0062
     82 CG1        -8.9830   -5.3040   32.8680 C.3       1 VAL        -0.0584
     83 CG2        -8.2840   -6.6920   34.7760 C.3       1 VAL        -0.0584
     84 N          -6.5140   -2.9830   32.3110 N.am      1 MLE        -0.2529
     85 CN         -5.9660   -3.9920   31.3640 C.3       1 MLE         0.0254
     86 CA         -6.3980   -1.5490   31.9430 C.3       1 MLE         0.1336
     87 CB         -4.9600   -1.0930   31.5770 C.3       1 MLE        -0.0099
     88 CG         -4.0020   -1.4720   32.7420 C.3       1 MLE        -0.0425
     89 CD1        -4.3560   -0.8850   34.0460 C.3       1 MLE        -0.0625
     90 CD2        -2.5750   -1.1380   32.3440 C.3       1 MLE        -0.0625
     91 C          -7.3450   -1.2810   30.7300 C.2       1 MLE         0.2041
     92 O          -7.9510   -2.1850   30.1480 O.2       1 MLE        -0.3944
     93 N          -7.5180    0.0020   30.4380 N.am      1 ALA        -0.2640
     94 CA         -8.3160    0.4460   29.3320 C.3       1 ALA         0.1299
     95 C          -7.6740    0.2040   27.9750 C.2       1 ALA         0.2286
     96 O          -6.5650   -0.2120   27.8600 O.2       1 ALA        -0.3943
     97 CB         -8.6590    1.9360   29.5330 C.3       1 ALA        -0.0244
     98 OXT        -8.2450    0.4170   26.9530 O.3       1 ALA        -0.2125
     99 H1         -8.5199    0.8488   23.5885 H         1 DAL         0.0268
    100 H2         -8.8429    2.0703   24.8653 H         1 DAL         0.0268
    101 H3         -9.9117    0.6356   24.7038 H         1 DAL         0.0268
    102 H4         -5.7920    0.0629   24.6322 H         1 MLE         0.0490
    103 H5         -5.7245   -0.9237   23.1326 H         1 MLE         0.0490
    104 H6         -4.8090   -1.4399   24.5893 H         1 MLE         0.0490
    105 H7         -7.8846   -3.6330   24.7033 H         1 MLE         0.0804
    106 H8         -7.0997   -4.3411   22.4535 H         1 MLE         0.0315
    107 H9         -6.2848   -2.7517   22.2619 H         1 MLE         0.0315
    108 H10        -8.4760   -1.6342   22.4789 H         1 MLE         0.0298
    109 H11       -10.5663   -2.8723   22.1869 H         1 MLE         0.0232
    110 H12        -9.7520   -3.2669   23.7386 H         1 MLE         0.0232
    111 H13        -9.6730   -4.4206   22.3641 H         1 MLE         0.0232
    112 H14        -7.4083   -2.1960   20.2434 H         1 MLE         0.0232
    113 H15        -9.2013   -2.1553   20.1438 H         1 MLE         0.0232
    114 H16        -8.3405   -3.7309   20.2004 H         1 MLE         0.0232
    115 H17        -7.4550   -3.1152   26.5935 H         1 MLE         0.0488
    116 H18        -6.1523   -2.8746   27.8065 H         1 MLE         0.0488
    117 H19        -6.9922   -4.4584   27.6927 H         1 MLE         0.0488
    118 H20        -3.7534   -4.8052   25.7298 H         1 MLE         0.0802
    119 H21        -2.7960   -4.4539   27.9964 H         1 MLE         0.0315
    120 H22        -4.3767   -3.8209   28.5685 H         1 MLE         0.0315
    121 H23        -4.2789   -2.0033   26.9186 H         1 MLE         0.0298
    122 H24        -2.2573   -1.4283   25.6712 H         1 MLE         0.0232
    123 H25        -2.9195   -2.9993   25.1056 H         1 MLE         0.0232
    124 H26        -1.4802   -2.9658   26.1798 H         1 MLE         0.0232
    125 H27        -3.2610   -1.8503   29.2314 H         1 MLE         0.0232
    126 H28        -2.4216   -0.7785   28.0596 H         1 MLE         0.0232
    127 H29        -1.6746   -2.3384   28.5448 H         1 MLE         0.0232
    128 H30        -2.2008   -5.7260   26.6190 H         1 MVA         0.0488
    129 H31        -1.9993   -7.4624   26.2055 H         1 MVA         0.0488
    130 H32        -1.6808   -6.8949   27.8798 H         1 MVA         0.0488
    131 H33        -5.0911   -8.3780   28.0910 H         1 MVA         0.0804
    132 H34        -2.6700   -9.6590   26.7508 H         1 MVA         0.0343
    133 H35        -4.2877  -11.5586   26.6834 H         1 MVA         0.0234
    134 H36        -5.5194  -10.5224   27.4809 H         1 MVA         0.0234
    135 H37        -4.0177  -10.9703   28.3590 H         1 MVA         0.0234
    136 H38        -3.7643   -8.2102   25.0872 H         1 MVA         0.0234
    137 H39        -5.3626   -8.9083   25.5169 H         1 MVA         0.0234
    138 H40        -4.1061   -9.9423   24.7560 H         1 MVA         0.0234
    139 H41        -1.9994   -8.6321   31.1612 H         1 AUX         0.0828
    140 H42        -1.8980   -6.9787   32.9324 H         1 AUX         0.0646
    141 H43         0.2017   -4.6940   32.2648 H         1 AUX         0.0450
    142 H44         0.4684   -5.0074   35.3659 H         1 AUX         0.0389
    143 H45         0.3313   -3.2165   35.3915 H         1 AUX         0.0389
    144 H46        -5.6287   -7.6259   29.3560 H         1 AUX         0.0488
    145 H47        -5.1505   -6.5776   30.7340 H         1 AUX         0.0488
    146 H48        -5.7712   -8.2353   31.0397 H         1 AUX         0.0488
    147 H49        -1.7477   -3.9744   34.3301 H         1 AUX         0.0450
    148 H50         2.0041   -4.7839   33.4128 H         1 AUX         0.0304
    149 H51         2.6049   -4.0508   34.9386 H         1 AUX         0.0304
    150 H52         3.1015   -2.5737   28.9266 H         1 AUX         0.0677
    151 H53         5.4638   -1.9475   29.4646 H         1 AUX         0.0415
    152 H54         2.1091   -3.6071   30.9709 H         1 AUX         0.0701
    153 H55         1.7294   -1.8524   30.9122 H         1 AUX         0.0701
    154 H56         7.8667   -1.2525   33.4006 H         1 AUX         0.0499
    155 H57         6.3449   -1.7980   35.1902 H         1 AUX         0.0552
    156 H58         7.1965   -1.3485   31.0274 H         1 AUX         0.0545
    157 H59         3.9413   -2.2753   34.7537 H         1 AUX         0.0502
    158 H60         2.1293   -1.9167   34.2685 H         1 AUX         0.0519
    159 H61         0.9015   -2.4574   33.0740 H         1 AUX         0.0519
    160 H62        -0.5759   -5.6527   29.6858 H         1 AUX         0.0235
    161 H63        -1.1471   -7.3381   29.9301 H         1 AUX         0.0235
    162 H64        -0.1267   -6.5458   31.1782 H         1 AUX         0.0235
    163 H65        -1.7964   -3.7880   30.9477 H         1 AUX         0.0391
    164 H66        -2.8616   -4.2545   32.3167 H         1 AUX         0.0391
    165 H67        -3.7435   -5.5968   33.2127 H         1 AUX         0.2101
    166 H68        -2.9572   -5.7463   30.3588 H         1 AUX         0.0345
    167 H69        -1.9017   -8.9110   33.6114 H         1 ABA         0.1883
    168 H70        -3.9778  -10.9637   34.3545 H         1 ABA         0.0800
    169 H71        -2.1190  -12.2745   35.2665 H         1 ABA         0.0310
    170 H72        -0.9666  -11.0443   34.6458 H         1 ABA         0.0310
    171 H73        -1.0868  -12.9812   33.1830 H         1 ABA         0.0232
    172 H74        -1.7028  -11.5041   32.3674 H         1 ABA         0.0232
    173 H75        -2.8553  -12.7343   32.9881 H         1 ABA         0.0232
    174 H76        -3.2128   -8.5181   38.0983 H         1 SAR         0.0765
    175 H77        -4.9414   -8.9786   38.2616 H         1 SAR         0.0765
    176 H78        -5.2462   -9.4774   34.5447 H         1 SAR         0.0488
    177 H79        -5.5078   -7.8785   35.3203 H         1 SAR         0.0488
    178 H80        -6.2210   -9.3575   36.0487 H         1 SAR         0.0488
    179 H81        -2.3272   -7.5659   36.5700 H         1 MLE         0.0488
    180 H82        -1.7518   -5.8771   36.7787 H         1 MLE         0.0488
    181 H83        -2.6103   -6.3541   35.2746 H         1 MLE         0.0488
    182 H84        -5.1752   -4.6113   37.5546 H         1 MLE         0.0802
    183 H85        -3.8677   -2.6929   37.0647 H         1 MLE         0.0315
    184 H86        -2.5509   -3.7193   36.4021 H         1 MLE         0.0315
    185 H87        -2.1812   -4.7326   38.5390 H         1 MLE         0.0298
    186 H88        -3.3673   -4.0326   40.6071 H         1 MLE         0.0232
    187 H89        -4.4727   -4.8246   39.4335 H         1 MLE         0.0232
    188 H90        -4.4919   -3.0382   39.6208 H         1 MLE         0.0232
    189 H91        -1.0801   -2.5655   38.0332 H         1 MLE         0.0232
    190 H92        -1.3432   -2.8078   39.7935 H         1 MLE         0.0232
    191 H93        -2.4183   -1.7059   38.8679 H         1 MLE         0.0232
    192 H94        -6.8422   -4.8572   36.1205 H         1 VAL         0.1883
    193 H95        -6.2504   -5.3725   33.3608 H         1 VAL         0.0803
    194 H96        -8.7837   -4.6649   34.8891 H         1 VAL         0.0343
    195 H97        -9.9908   -5.7235   33.0035 H         1 VAL         0.0234
    196 H98        -8.4314   -5.9061   32.1310 H         1 VAL         0.0234
    197 H99        -9.0626   -4.2673   32.5089 H         1 VAL         0.0234
    198 H100       -7.7465   -6.6987   35.7357 H         1 VAL         0.0234
    199 H101       -7.8055   -7.3995   34.0829 H         1 VAL         0.0234
    200 H102       -9.3302   -6.9897   34.9396 H         1 VAL         0.0234
    201 H103       -6.1250   -5.0014   31.7712 H         1 MLE         0.0488
    202 H104       -4.8887   -3.8180   31.2257 H         1 MLE         0.0488
    203 H105       -6.4793   -3.9024   30.3952 H         1 MLE         0.0488
    204 H106       -6.7336   -0.9487   32.8015 H         1 MLE         0.0802
    205 H107       -4.9449   -0.0036   31.4256 H         1 MLE         0.0315
    206 H108       -4.6364   -1.5960   30.6538 H         1 MLE         0.0315
    207 H109       -4.0642   -2.5633   32.8651 H         1 MLE         0.0298
    208 H110       -3.6262   -1.2072   34.8034 H         1 MLE         0.0232
    209 H111       -5.3614   -1.2218   34.3390 H         1 MLE         0.0232
    210 H112       -4.3447    0.2123   33.9694 H         1 MLE         0.0232
    211 H113       -2.3505   -1.5931   31.3680 H         1 MLE         0.0232
    212 H114       -1.8813   -1.5328   33.1009 H         1 MLE         0.0232
    213 H115       -2.4596   -0.0463   32.2747 H         1 MLE         0.0232
    214 H116       -7.0731    0.6883   31.0135 H         1 ALA         0.1883
    215 H117       -9.2558   -0.1254   29.3507 H         1 ALA         0.0796
    216 H118       -9.2716    2.2882   28.6899 H         1 ALA         0.0276
    217 H119       -7.7299    2.5229   29.5815 H         1 ALA         0.0276
    218 H120       -9.2203    2.0598   30.4709 H         1 ALA         0.0276
@<TRIPOS>BOND
     1    2    1 1  
     2    1   95 am 
     3   98    1 1  
     4    2    3 1  
     5    4    2 1  
     6    2   98 1  
     7    4    5 2  
     8    6    4 am 
     9    6    7 1  
    10    8    6 1  
    11    8    9 1  
    12   13    8 1  
    13    9   10 1  
    14   10   11 1  
    15   10   12 1  
    16   13   14 2  
    17   15   13 am 
    18   15   16 1  
    19   17   15 1  
    20   17   18 1  
    21   22   17 1  
    22   18   19 1  
    23   19   20 1  
    24   19   21 1  
    25   22   23 2  
    26   24   22 am 
    27   24   25 1  
    28   26   24 1  
    29   26   27 1  
    30   30   26 1  
    31   27   28 1  
    32   27   29 1  
    33   30   31 2  
    34   33   30 am 
    35   32   34 2  
    36   35   32 1  
    37   32   57 am 
    38   35   33 1  
    39   33   39 1  
    40   36   35 1  
    41   36   55 1  
    42   56   36 1  
    43   37   40 2  
    44   54   37 1  
    45   40   38 1  
    46   38   41 1  
    47   41   49 1  
    48   42   43 2  
    49   44   42 1  
    50   50   43 1  
    51   52   44 1  
    52   46   45 ar 
    53   47   45 ar 
    54   48   46 ar 
    55   50   47 ar 
    56   51   48 ar 
    57   49   52 1  
    58   51   50 ar 
    59   52   51 1  
    60   56   53 1  
    61   54   56 1  
    62   57   58 1  
    63   58   59 1  
    64   58   61 1  
    65   59   60 2  
    66   59   63 am 
    67   61   62 1  
    68   63   64 1  
    69   63   67 1  
    70   64   65 1  
    71   65   66 2  
    72   65   68 am 
    73   68   69 1  
    74   68   70 1  
    75   70   71 1  
    76   70   75 1  
    77   71   72 1  
    78   72   73 1  
    79   72   74 1  
    80   75   76 2  
    81   75   77 am 
    82   77   78 1  
    83   78   79 1  
    84   78   81 1  
    85   79   80 2  
    86   79   84 am 
    87   81   82 1  
    88   81   83 1  
    89   84   85 1  
    90   84   86 1  
    91   86   87 1  
    92   86   91 1  
    93   87   88 1  
    94   88   89 1  
    95   88   90 1  
    96   91   92 2  
    97   91   93 am 
    98   93   94 1  
    99   94   95 1  
   100   94   97 1  
   101   95   96 2  
   102    3   99 1  
   103    3  100 1  
   104    3  101 1  
   105    7  102 1  
   106    7  103 1  
   107    7  104 1  
   108    8  105 1  
   109    9  106 1  
   110    9  107 1  
   111   10  108 1  
   112   11  109 1  
   113   11  110 1  
   114   11  111 1  
   115   12  112 1  
   116   12  113 1  
   117   12  114 1  
   118   16  115 1  
   119   16  116 1  
   120   16  117 1  
   121   17  118 1  
   122   18  119 1  
   123   18  120 1  
   124   19  121 1  
   125   20  122 1  
   126   20  123 1  
   127   20  124 1  
   128   21  125 1  
   129   21  126 1  
   130   21  127 1  
   131   25  128 1  
   132   25  129 1  
   133   25  130 1  
   134   26  131 1  
   135   27  132 1  
   136   28  133 1  
   137   28  134 1  
   138   28  135 1  
   139   29  136 1  
   140   29  137 1  
   141   29  138 1  
   142   35  139 1  
   143   36  140 1  
   144   37  141 1  
   145   38  142 1  
   146   38  143 1  
   147   39  144 1  
   148   39  145 1  
   149   39  146 1  
   150   40  147 1  
   151   41  148 1  
   152   41  149 1  
   153   42  150 1  
   154   43  151 1  
   155   44  152 1  
   156   44  153 1  
   157   45  154 1  
   158   46  155 1  
   159   47  156 1  
   160   48  157 1  
   161   49  158 1  
   162   49  159 1  
   163   53  160 1  
   164   53  161 1  
   165   53  162 1  
   166   54  163 1  
   167   54  164 1  
   168   55  165 1  
   169   56  166 1  
   170   57  167 1  
   171   58  168 1  
   172   61  169 1  
   173   61  170 1  
   174   62  171 1  
   175   62  172 1  
   176   62  173 1  
   177   64  174 1  
   178   64  175 1  
   179   67  176 1  
   180   67  177 1  
   181   67  178 1  
   182   69  179 1  
   183   69  180 1  
   184   69  181 1  
   185   70  182 1  
   186   71  183 1  
   187   71  184 1  
   188   72  185 1  
   189   73  186 1  
   190   73  187 1  
   191   73  188 1  
   192   74  189 1  
   193   74  190 1  
   194   74  191 1  
   195   77  192 1  
   196   78  193 1  
   197   81  194 1  
   198   82  195 1  
   199   82  196 1  
   200   82  197 1  
   201   83  198 1  
   202   83  199 1  
   203   83  200 1  
   204   85  201 1  
   205   85  202 1  
   206   85  203 1  
   207   86  204 1  
   208   87  205 1  
   209   87  206 1  
   210   88  207 1  
   211   89  208 1  
   212   89  209 1  
   213   89  210 1  
   214   90  211 1  
   215   90  212 1  
   216   90  213 1  
   217   93  214 1  
   218   94  215 1  
   219   97  216 1  
   220   97  217 1  
   221   97  218 1  
@<TRIPOS>SUBSTRUCTURE
     1 DAL         1

