5a0e_ligand
  -I-interpret- 

218221  0  0  0  0  0  0  0  0999 V2000
   -8.4670    0.4320   26.9420 N   0  0  0  0  0
   -7.9990    0.2380   25.5680 C   0  0  0  0  0
   -8.8770    0.9990   24.6180 C   0  0  0  0  0
   -8.0020   -1.2380   25.3150 C   0  0  0  0  0
   -8.9840   -1.9200   25.6530 O   0  0  0  0  0
   -6.9210   -1.7510   24.6990 N   0  0  0  0  0
   -5.7320   -0.9600   24.2320 C   0  0  0  0  0
   -7.0010   -3.1600   24.2500 C   0  0  0  0  0
   -7.1360   -3.2750   22.7220 C   0  0  0  0  0
   -8.4250   -2.6830   22.1510 C   0  0  0  0  0
   -9.6910   -3.3570   22.6440 C   0  0  0  0  0
   -8.3370   -2.6920   20.5620 C   0  0  0  0  0
   -5.7520   -3.8400   24.7750 C   0  0  0  0  0
   -4.8510   -4.1900   23.9870 O   0  0  0  0  0
   -5.6240   -4.0540   26.1430 N   0  0  0  0  0
   -6.6180   -3.5970   27.1200 C   0  0  0  0  0
   -4.4310   -4.7190   26.5920 C   0  0  0  0  0
   -3.7120   -3.9230   27.6980 C   0  0  0  0  0
   -3.3480   -2.5340   27.1670 C   0  0  0  0  0
   -2.4380   -2.4780   25.9460 C   0  0  0  0  0
   -2.6240   -1.8240   28.3350 C   0  0  0  0  0
   -4.7200   -6.1440   27.1290 C   0  0  0  0  0
   -5.9050   -6.4460   27.2850 O   0  0  0  0  0
   -3.7130   -7.0020   27.3390 N   0  0  0  0  0
   -2.3110   -6.7560   26.9890 C   0  0  0  0  0
   -4.0170   -8.3540   27.8550 C   0  0  0  0  0
   -3.7520   -9.4770   26.8290 C   0  0  0  0  0
   -4.4420  -10.7180   27.3760 C   0  0  0  0  0
   -4.2830   -9.1090   25.4520 C   0  0  0  0  0
   -3.2560   -8.6110   29.1410 C   0  0  0  0  0
   -2.1620   -9.1730   29.1120 O   0  0  0  0  0
   -3.5530   -9.2240   32.5090 C   0  0  0  0  0
   -3.7810   -8.1470   30.2820 N   0  0  0  0  0
   -4.6770   -9.7070   32.3470 O   0  0  0  0  0
   -2.9720   -8.2290   31.4800 C   0  0  0  0  0
   -2.6750   -6.8530   32.1640 C   0  0  0  0  0
   -0.7710   -4.4600   32.6950 C   0  0  0  0  0
    0.4640   -4.0980   34.7470 C   0  0  0  0  0
   -5.1750   -7.6110   30.3580 C   0  0  0  0  0
   -0.7840   -4.1810   33.8670 C   0  0  0  0  0
    1.8410   -3.9840   34.1500 C   0  0  0  0  0
    3.4290   -2.4360   29.9560 C   0  0  0  0  0
    4.7420   -2.0980   30.2660 C   0  0  0  0  0
    2.5280   -2.5940   31.0610 C   0  0  0  0  0
    6.8500   -1.5300   33.1470 C   0  0  0  0  0
    5.9790   -1.8170   34.1700 C   0  0  0  0  0
    6.5020   -1.5760   31.8280 C   0  0  0  0  0
    4.6440   -2.1310   33.9410 C   0  0  0  0  0
    1.8990   -2.6600   33.4910 C   0  0  0  0  0
    5.1430   -1.9500   31.5940 C   0  0  0  0  0
    4.2600   -2.2500   32.6000 C   0  0  0  0  0
    2.9250   -2.4650   32.3480 N   0  0  0  0  0
   -0.9180   -6.3860   30.4310 C   0  0  0  0  0
   -1.9570   -4.5220   31.7510 C   0  0  0  0  0
   -3.8830   -6.4330   32.7840 O   0  0  0  0  0
   -2.1760   -5.8590   31.1250 C   0  0  0  0  0
   -2.7350   -9.4580   33.5310 N   0  0  0  0  0
   -3.0040  -10.4930   34.5550 C   0  0  0  0  0
   -3.0460   -9.8340   35.9340 C   0  0  0  0  0
   -1.9680   -9.8310   36.6050 O   0  0  0  0  0
   -1.9390  -11.5300   34.4770 C   0  0  0  0  0
   -1.8930  -12.2330   33.1690 C   0  0  0  0  0
   -4.1500   -9.1410   36.3010 N   0  0  0  0  0
   -4.2060   -8.4600   37.6290 C   0  0  0  0  0
   -4.5980   -7.0290   37.5150 C   0  0  0  0  0
   -5.7520   -6.7260   37.9490 O   0  0  0  0  0
   -5.3550   -8.9520   35.5050 C   0  0  0  0  0
   -3.8520   -6.1430   36.9890 N   0  0  0  0  0
   -2.5500   -6.5090   36.3620 C   0  0  0  0  0
   -4.3560   -4.7410   36.8320 C   0  0  0  0  0
   -3.3660   -3.6690   37.1390 C   0  0  0  0  0
   -2.7770   -3.8080   38.5250 C   0  0  0  0  0
   -3.8550   -3.9350   39.6260 C   0  0  0  0  0
   -1.8390   -2.6400   38.8260 C   0  0  0  0  0
   -4.9450   -4.6220   35.4600 C   0  0  0  0  0
   -4.1940   -4.4200   34.4960 O   0  0  0  0  0
   -6.2640   -4.7550   35.3110 N   0  0  0  0  0
   -6.8510   -4.7540   34.0440 C   0  0  0  0  0
   -7.0000   -3.3540   33.4640 C   0  0  0  0  0
   -7.4770   -2.4680   34.2350 O   0  0  0  0  0
   -8.2430   -5.3250   34.1950 C   0  0  0  0  0
   -8.9830   -5.3040   32.8680 C   0  0  0  0  0
   -8.2840   -6.6920   34.7760 C   0  0  0  0  0
   -6.5140   -2.9830   32.3110 N   0  0  0  0  0
   -5.9660   -3.9920   31.3640 C   0  0  0  0  0
   -6.3980   -1.5490   31.9430 C   0  0  0  0  0
   -4.9600   -1.0930   31.5770 C   0  0  0  0  0
   -4.0020   -1.4720   32.7420 C   0  0  0  0  0
   -4.3560   -0.8850   34.0460 C   0  0  0  0  0
   -2.5750   -1.1380   32.3440 C   0  0  0  0  0
   -7.3450   -1.2810   30.7300 C   0  0  0  0  0
   -7.9510   -2.1850   30.1480 O   0  0  0  0  0
   -7.5180    0.0020   30.4380 N   0  0  0  0  0
   -8.3160    0.4460   29.3320 C   0  0  0  0  0
   -7.6740    0.2040   27.9750 C   0  0  0  0  0
   -6.5650   -0.2120   27.8600 O   0  0  0  0  0
   -8.6590    1.9360   29.5330 C   0  0  0  0  0
   -8.2450    0.4170   26.9530 O   0  0  0  0  0
   -9.9159    0.7075   24.7726 H   0  0  0  0  0
   -8.7672    2.0679   24.8008 H   0  0  0  0  0
   -8.5834    0.7723   23.5931 H   0  0  0  0  0
   -4.8181   -1.4366   24.5867 H   0  0  0  0  0
   -5.7257   -0.9249   23.1426 H   0  0  0  0  0
   -5.7926    0.0533   24.6291 H   0  0  0  0  0
   -7.8961   -3.6449   24.6395 H   0  0  0  0  0
   -7.1404   -4.3382   22.4820 H   0  0  0  0  0
   -6.3084   -2.7153   22.2863 H   0  0  0  0  0
   -8.5027   -1.6595   22.5177 H   0  0  0  0  0
   -9.6719   -4.4108   22.3661 H   0  0  0  0  0
   -9.7502   -3.2670   23.7287 H   0  0  0  0  0
  -10.5575   -2.8759   22.1904 H   0  0  0  0  0
   -7.4834   -2.0938   20.2433 H   0  0  0  0  0
   -8.2150   -3.7170   20.2119 H   0  0  0  0  0
   -9.2526   -2.2713   20.1463 H   0  0  0  0  0
   -6.7119   -2.5127   27.0608 H   0  0  0  0  0
   -7.5806   -4.0588   26.9003 H   0  0  0  0  0
   -6.2976   -3.8811   28.1224 H   0  0  0  0  0
   -3.7892   -4.7889   25.7138 H   0  0  0  0  0
   -2.8048   -4.4492   27.9951 H   0  0  0  0  0
   -4.3697   -3.8226   28.5614 H   0  0  0  0  0
   -4.2761   -2.0725   26.8297 H   0  0  0  0  0
   -1.4894   -2.9617   26.1789 H   0  0  0  0  0
   -2.9162   -2.9949   25.1140 H   0  0  0  0  0
   -2.2597   -1.4375   25.6747 H   0  0  0  0  0
   -3.2948   -1.7608   29.1918 H   0  0  0  0  0
   -1.7351   -2.3923   28.6090 H   0  0  0  0  0
   -2.3337   -0.8203   28.0244 H   0  0  0  0  0
   -2.2296   -6.5909   25.9147 H   0  0  0  0  0
   -1.9542   -5.8744   27.5215 H   0  0  0  0  0
   -1.7102   -7.6205   27.2715 H   0  0  0  0  0
   -5.0880   -8.3753   28.0564 H   0  0  0  0  0
   -2.6830   -9.6456   26.6988 H   0  0  0  0  0
   -4.0207  -10.9669   28.3500 H   0  0  0  0  0
   -5.5094  -10.5228   27.4795 H   0  0  0  0  0
   -4.2884  -11.5501   26.6889 H   0  0  0  0  0
   -5.3584   -8.9414   25.5116 H   0  0  0  0  0
   -3.7910   -8.2003   25.1052 H   0  0  0  0  0
   -4.0788   -9.9225   24.7559 H   0  0  0  0  0
   -2.0124   -8.6047   31.1249 H   0  0  0  0  0
   -1.8907   -6.9295   32.9171 H   0  0  0  0  0
    0.2026   -4.6943   32.2644 H   0  0  0  0  0
    0.4828   -5.0578   35.2632 H   0  0  0  0  0
    0.3375   -3.1616   35.2903 H   0  0  0  0  0
   -5.2733   -6.7608   29.6831 H   0  0  0  0  0
   -5.8790   -8.3906   30.0672 H   0  0  0  0  0
   -5.3852   -7.2923   31.3790 H   0  0  0  0  0
   -1.7486   -3.9742   34.3305 H   0  0  0  0  0
    2.0265   -4.7862   33.4357 H   0  0  0  0  0
    2.6099   -4.0743   34.9173 H   0  0  0  0  0
    3.1012   -2.5739   28.9256 H   0  0  0  0  0
    5.4645   -1.9473   29.4639 H   0  0  0  0  0
    2.2278   -3.6397   30.9937 H   0  0  0  0  0
    1.8237   -1.7723   30.9311 H   0  0  0  0  0
    7.8724   -1.2510   33.4020 H   0  0  0  0  0
    6.3470   -1.7979   35.1958 H   0  0  0  0  0
    7.2003   -1.3472   31.0229 H   0  0  0  0  0
    3.9374   -2.2761   34.7582 H   0  0  0  0  0
    2.1974   -1.9601   34.2715 H   0  0  0  0  0
    0.9210   -2.5222   33.0299 H   0  0  0  0  0
   -0.1348   -6.5440   31.1724 H   0  0  0  0  0
   -1.1463   -7.3294   29.9351 H   0  0  0  0  0
   -0.5800   -5.6586   29.6929 H   0  0  0  0  0
   -1.7599   -3.8182   30.9424 H   0  0  0  0  0
   -2.8463   -4.2939   32.3386 H   0  0  0  0  0
   -3.7420   -5.5880   33.2172 H   0  0  0  0  0
   -2.9374   -5.7383   30.3545 H   0  0  0  0  0
   -1.8851   -8.9001   33.6131 H   0  0  0  0  0
   -3.9669  -10.9729   34.3802 H   0  0  0  0  0
   -2.1506  -12.2759   35.2431 H   0  0  0  0  0
   -0.9813  -11.0277   34.6134 H   0  0  0  0  0
   -2.8470  -12.7292   32.9909 H   0  0  0  0  0
   -1.7046  -11.5097   32.3756 H   0  0  0  0  0
   -1.0938  -12.9740   33.1841 H   0  0  0  0  0
   -3.2115   -8.5034   38.0731 H   0  0  0  0  0
   -4.9542   -8.9677   38.2377 H   0  0  0  0  0
   -5.0991   -8.4421   34.5762 H   0  0  0  0  0
   -5.7953   -9.9230   35.2785 H   0  0  0  0  0
   -6.0692   -8.3499   36.0667 H   0  0  0  0  0
   -1.9059   -6.9725   37.1093 H   0  0  0  0  0
   -2.7254   -7.2104   35.5463 H   0  0  0  0  0
   -2.0700   -5.6108   35.9736 H   0  0  0  0  0
   -5.1181   -4.5684   37.5919 H   0  0  0  0  0
   -3.8805   -2.7095   37.0858 H   0  0  0  0  0
   -2.5524   -3.7447   36.4176 H   0  0  0  0  0
   -2.2089   -4.7382   38.5338 H   0  0  0  0  0
   -4.4854   -3.0458   39.6198 H   0  0  0  0  0
   -4.4664   -4.8167   39.4341 H   0  0  0  0  0
   -3.3705   -4.0317   40.5976 H   0  0  0  0  0
   -1.0298   -2.6280   38.0958 H   0  0  0  0  0
   -2.3956   -1.7046   38.7688 H   0  0  0  0  0
   -1.4247   -2.7571   39.8274 H   0  0  0  0  0
   -6.8538   -4.8592   36.1367 H   0  0  0  0  0
   -6.2126   -5.3316   33.3754 H   0  0  0  0  0
   -8.7431   -4.6740   34.9121 H   0  0  0  0  0
   -9.0612   -4.2763   32.5133 H   0  0  0  0  0
   -8.4354   -5.9008   32.1386 H   0  0  0  0  0
   -9.9814   -5.7198   33.0036 H   0  0  0  0  0
   -7.7266   -7.3748   34.1348 H   0  0  0  0  0
   -7.8356   -6.6768   35.7694 H   0  0  0  0  0
   -9.3198   -7.0236   34.8485 H   0  0  0  0  0
   -5.1383   -4.5204   31.8370 H   0  0  0  0  0
   -6.7488   -4.7029   31.0994 H   0  0  0  0  0
   -5.6110   -3.4890   30.4645 H   0  0  0  0  0
   -6.6771   -0.9720   32.8246 H   0  0  0  0  0
   -4.9431   -0.0143   31.4211 H   0  0  0  0  0
   -4.6386   -1.5858   30.6594 H   0  0  0  0  0
   -4.1058   -2.5456   32.8990 H   0  0  0  0  0
   -4.3444    0.2022   33.9688 H   0  0  0  0  0
   -5.3523   -1.2194   34.3351 H   0  0  0  0  0
   -3.6322   -1.2050   34.7956 H   0  0  0  0  0
   -2.3068   -1.7022   31.4508 H   0  0  0  0  0
   -2.4970   -0.0705   32.1381 H   0  0  0  0  0
   -1.9006   -1.4024   33.1585 H   0  0  0  0  0
   -7.0642    0.7020   31.0250 H   0  0  0  0  0
   -9.2266   -0.1531   29.3211 H   0  0  0  0  0
   -9.2151    2.0573   30.4626 H   0  0  0  0  0
   -7.7376    2.5164   29.5809 H   0  0  0  0  0
   -9.2659    2.2838   28.6971 H   0  0  0  0  0
  2  1  1  0  0  0
  1 95  1  0  0  0
 98  1  1  0  0  0
  2  3  1  0  0  0
  4  2  1  0  0  0
  2 98  1  0  0  0
  4  5  2  0  0  0
  6  4  1  0  0  0
  6  7  1  0  0  0
  8  6  1  0  0  0
  8  9  1  0  0  0
 13  8  1  0  0  0
  9 10  1  0  0  0
 10 11  1  0  0  0
 10 12  1  0  0  0
 13 14  2  0  0  0
 15 13  1  0  0  0
 15 16  1  0  0  0
 17 15  1  0  0  0
 17 18  1  0  0  0
 22 17  1  0  0  0
 18 19  1  0  0  0
 19 20  1  0  0  0
 19 21  1  0  0  0
 22 23  2  0  0  0
 24 22  1  0  0  0
 24 25  1  0  0  0
 26 24  1  0  0  0
 26 27  1  0  0  0
 30 26  1  0  0  0
 27 28  1  0  0  0
 27 29  1  0  0  0
 30 31  2  0  0  0
 33 30  1  0  0  0
 32 34  2  0  0  0
 35 32  1  0  0  0
 32 57  1  0  0  0
 35 33  1  0  0  0
 33 39  1  0  0  0
 36 35  1  0  0  0
 36 55  1  0  0  0
 56 36  1  0  0  0
 37 40  2  0  0  0
 54 37  1  0  0  0
 40 38  1  0  0  0
 38 41  1  0  0  0
 41 49  1  0  0  0
 42 43  2  0  0  0
 44 42  1  0  0  0
 50 43  1  0  0  0
 52 44  1  0  0  0
 46 45  4  0  0  0
 47 45  4  0  0  0
 48 46  4  0  0  0
 50 47  4  0  0  0
 51 48  4  0  0  0
 49 52  1  0  0  0
 51 50  4  0  0  0
 52 51  1  0  0  0
 56 53  1  0  0  0
 54 56  1  0  0  0
 57 58  1  0  0  0
 58 59  1  0  0  0
 58 61  1  0  0  0
 59 60  2  0  0  0
 59 63  1  0  0  0
 61 62  1  0  0  0
 63 64  1  0  0  0
 63 67  1  0  0  0
 64 65  1  0  0  0
 65 66  2  0  0  0
 65 68  1  0  0  0
 68 69  1  0  0  0
 68 70  1  0  0  0
 70 71  1  0  0  0
 70 75  1  0  0  0
 71 72  1  0  0  0
 72 73  1  0  0  0
 72 74  1  0  0  0
 75 76  2  0  0  0
 75 77  1  0  0  0
 77 78  1  0  0  0
 78 79  1  0  0  0
 78 81  1  0  0  0
 79 80  2  0  0  0
 79 84  1  0  0  0
 81 82  1  0  0  0
 81 83  1  0  0  0
 84 85  1  0  0  0
 84 86  1  0  0  0
 86 87  1  0  0  0
 86 91  1  0  0  0
 87 88  1  0  0  0
 88 89  1  0  0  0
 88 90  1  0  0  0
 91 92  2  0  0  0
 91 93  1  0  0  0
 93 94  1  0  0  0
 94 95  1  0  0  0
 94 97  1  0  0  0
 95 96  2  0  0  0
  3 99  1  0  0  0
  3100  1  0  0  0
  3101  1  0  0  0
  7102  1  0  0  0
  7103  1  0  0  0
  7104  1  0  0  0
  8105  1  0  0  0
  9106  1  0  0  0
  9107  1  0  0  0
 10108  1  0  0  0
 11109  1  0  0  0
 11110  1  0  0  0
 11111  1  0  0  0
 12112  1  0  0  0
 12113  1  0  0  0
 12114  1  0  0  0
 16115  1  0  0  0
 16116  1  0  0  0
 16117  1  0  0  0
 17118  1  0  0  0
 18119  1  0  0  0
 18120  1  0  0  0
 19121  1  0  0  0
 20122  1  0  0  0
 20123  1  0  0  0
 20124  1  0  0  0
 21125  1  0  0  0
 21126  1  0  0  0
 21127  1  0  0  0
 25128  1  0  0  0
 25129  1  0  0  0
 25130  1  0  0  0
 26131  1  0  0  0
 27132  1  0  0  0
 28133  1  0  0  0
 28134  1  0  0  0
 28135  1  0  0  0
 29136  1  0  0  0
 29137  1  0  0  0
 29138  1  0  0  0
 35139  1  0  0  0
 36140  1  0  0  0
 37141  1  0  0  0
 38142  1  0  0  0
 38143  1  0  0  0
 39144  1  0  0  0
 39145  1  0  0  0
 39146  1  0  0  0
 40147  1  0  0  0
 41148  1  0  0  0
 41149  1  0  0  0
 42150  1  0  0  0
 43151  1  0  0  0
 44152  1  0  0  0
 44153  1  0  0  0
 45154  1  0  0  0
 46155  1  0  0  0
 47156  1  0  0  0
 48157  1  0  0  0
 49158  1  0  0  0
 49159  1  0  0  0
 53160  1  0  0  0
 53161  1  0  0  0
 53162  1  0  0  0
 54163  1  0  0  0
 54164  1  0  0  0
 55165  1  0  0  0
 56166  1  0  0  0
 57167  1  0  0  0
 58168  1  0  0  0
 61169  1  0  0  0
 61170  1  0  0  0
 62171  1  0  0  0
 62172  1  0  0  0
 62173  1  0  0  0
 64174  1  0  0  0
 64175  1  0  0  0
 67176  1  0  0  0
 67177  1  0  0  0
 67178  1  0  0  0
 69179  1  0  0  0
 69180  1  0  0  0
 69181  1  0  0  0
 70182  1  0  0  0
 71183  1  0  0  0
 71184  1  0  0  0
 72185  1  0  0  0
 73186  1  0  0  0
 73187  1  0  0  0
 73188  1  0  0  0
 74189  1  0  0  0
 74190  1  0  0  0
 74191  1  0  0  0
 77192  1  0  0  0
 78193  1  0  0  0
 81194  1  0  0  0
 82195  1  0  0  0
 82196  1  0  0  0
 82197  1  0  0  0
 83198  1  0  0  0
 83199  1  0  0  0
 83200  1  0  0  0
 85201  1  0  0  0
 85202  1  0  0  0
 85203  1  0  0  0
 86204  1  0  0  0
 87205  1  0  0  0
 87206  1  0  0  0
 88207  1  0  0  0
 89208  1  0  0  0
 89209  1  0  0  0
 89210  1  0  0  0
 90211  1  0  0  0
 90212  1  0  0  0
 90213  1  0  0  0
 93214  1  0  0  0
 94215  1  0  0  0
 97216  1  0  0  0
 97217  1  0  0  0
 97218  1  0  0  0
M  END
$$$$
