5aki_ligand
  -I-interpret- 

 38 40  0  0  0  0  0  0  0  0999 V2000
   14.7200  -12.7930  -18.4480 C   0  0  0  0  0
   13.9950  -13.3120  -19.4990 C   0  0  0  0  0
   13.4000  -12.5560  -20.4330 N   0  0  0  0  0
   13.5320  -11.2270  -20.2750 C   0  0  0  0  0
   14.2130  -10.6050  -19.2470 C   0  0  0  0  0
   14.8150  -11.4190  -18.3090 C   0  0  0  0  0
   15.6530  -10.9310  -17.2510 C   0  0  0  0  0
   16.0370  -11.7180  -16.1600 C   0  0  0  0  0
   17.0550  -11.0630  -15.5330 C   0  0  0  0  0
   17.2070   -9.8840  -16.1930 N   0  0  0  0  0
   16.4040   -9.8190  -17.2750 N   0  0  0  0  0
   17.7510  -11.4810  -14.4660 N   0  0  0  0  0
   18.9790  -10.8240  -14.0880 C   0  0  0  0  0
   18.6520   -9.7970  -13.0410 C   0  0  0  0  0
   17.8960  -10.4490  -11.8910 C   0  0  0  0  0
   17.6980   -9.4890  -10.7260 C   0  0  0  0  0
   19.0100   -8.8340  -10.3270 C   0  0  0  0  0
   19.6730   -8.1410  -11.5100 C   0  0  0  0  0
   19.9640   -9.1590  -12.5980 C   0  0  0  0  0
   15.2119  -13.4555  -17.7359 H   0  0  0  0  0
   13.9002  -14.3952  -19.5750 H   0  0  0  0  0
   13.0618  -10.5867  -21.0213 H   0  0  0  0  0
   14.2724   -9.5187  -19.1794 H   0  0  0  0  0
   15.6040  -12.6743  -15.8667 H   0  0  0  0  0
   17.4097  -12.2699  -13.9169 H   0  0  0  0  0
   19.4333  -10.3460  -14.9559 H   0  0  0  0  0
   19.6895  -11.5508  -13.6941 H   0  0  0  0  0
   17.9982   -9.0180  -13.4332 H   0  0  0  0  0
   18.4783  -11.3000  -11.5378 H   0  0  0  0  0
   16.9143  -10.7519  -12.2552 H   0  0  0  0  0
   17.3149  -10.0498   -9.8734 H   0  0  0  0  0
   16.9983   -8.7107  -11.0307 H   0  0  0  0  0
   19.6837   -9.6081   -9.9595 H   0  0  0  0  0
   18.8028   -8.0861   -9.5616 H   0  0  0  0  0
   20.6063   -7.6817  -11.1844 H   0  0  0  0  0
   19.0052   -7.3734  -11.9011 H   0  0  0  0  0
   20.4390   -8.6661  -13.4463 H   0  0  0  0  0
   20.6359   -9.9267  -12.2142 H   0  0  0  0  0
  1  2  4  0  0  0
  1  6  4  0  0  0
  2  3  4  0  0  0
  3  4  4  0  0  0
  4  5  4  0  0  0
  5  6  4  0  0  0
  6  7  1  0  0  0
  7  8  4  0  0  0
  7 11  4  0  0  0
  8  9  4  0  0  0
  9 10  4  0  0  0
  9 12  1  0  0  0
 10 11  4  0  0  0
 12 13  1  0  0  0
 13 14  1  0  0  0
 14 15  1  0  0  0
 14 19  1  0  0  0
 15 16  1  0  0  0
 16 17  1  0  0  0
 17 18  1  0  0  0
 18 19  1  0  0  0
  1 20  1  0  0  0
  2 21  1  0  0  0
  4 22  1  0  0  0
  5 23  1  0  0  0
  8 24  1  0  0  0
 12 25  1  0  0  0
 13 26  1  0  0  0
 13 27  1  0  0  0
 14 28  1  0  0  0
 15 29  1  0  0  0
 15 30  1  0  0  0
 16 31  1  0  0  0
 16 32  1  0  0  0
 17 33  1  0  0  0
 17 34  1  0  0  0
 18 35  1  0  0  0
 18 36  1  0  0  0
 19 37  1  0  0  0
 19 38  1  0  0  0
M  END
$$$$
