3fu5_ligand
  -I-interpret- 

 22 23  0  0  0  0  0  0  0  0999 V2000
   34.3770    1.4710    1.6840 N   0  3  0  0  0
   34.2750    2.3060    0.4980 C   0  0  0  0  0
   33.0110    1.9750   -0.2540 C   0  0  0  0  0
   31.6320    1.4920    0.7720 S   0  0  0  0  0
   30.6100    1.2580   -0.6670 C   0  0  0  0  0
   31.3010    1.5490   -1.8430 C   0  0  0  0  0
   32.6370    1.9430   -1.6030 C   0  0  0  0  0
   29.1780    0.8230   -0.5700 C   0  0  0  0  0
   27.9840    0.9590   -1.8720 S   0  0  0  0  0
   26.6880    0.2600   -0.8360 C   0  0  0  0  0
   27.2530   -0.0370    0.4070 C   0  0  0  0  0
   28.6110    0.2650    0.5660 C   0  0  0  0  0
   35.2340    1.7005    2.1872 H   0  0  0  0  0
   33.5718    1.6392    2.2871 H   0  0  0  0  0
   34.3965    0.4896    1.4067 H   0  0  0  0  0
   35.1352    2.1232   -0.1459 H   0  0  0  0  0
   34.2522    3.3541    0.7966 H   0  0  0  0  0
   30.8596    1.4802   -2.8372 H   0  0  0  0  0
   33.3247    2.2025   -2.4078 H   0  0  0  0  0
   25.6499    0.0978   -1.1261 H   0  0  0  0  0
   26.6667   -0.4810    1.2115 H   0  0  0  0  0
   29.1647    0.0807    1.4866 H   0  0  0  0  0
  1  2  1  0  0  0
  2  3  1  0  0  0
  3  4  4  0  0  0
  3  7  4  0  0  0
  4  5  4  0  0  0
  5  6  4  0  0  0
  5  8  1  0  0  0
  6  7  4  0  0  0
  8  9  4  0  0  0
  8 12  4  0  0  0
  9 10  4  0  0  0
 10 11  4  0  0  0
 11 12  4  0  0  0
  1 13  1  0  0  0
  1 14  1  0  0  0
  1 15  1  0  0  0
  2 16  1  0  0  0
  2 17  1  0  0  0
  6 18  1  0  0  0
  7 19  1  0  0  0
 10 20  1  0  0  0
 11 21  1  0  0  0
 12 22  1  0  0  0
M  END
$$$$
