4ca5_ligand
  -I-interpret- 

 89 93  0  0  0  0  0  0  0  0999 V2000
   14.5300   -5.2310  -15.6870 O   0  0  0  0  0
   13.9720    1.5380  -14.5730 C   0  0  0  0  0
   13.9480    0.6720  -13.4800 C   0  0  0  0  0
   14.2620    1.0350  -15.8350 C   0  0  0  0  0
   14.2010   -0.6940  -13.6500 C   0  0  0  0  0
   14.5240   -0.3330  -16.0070 C   0  0  0  0  0
   14.7660   -2.5900  -15.0900 C   0  0  0  0  0
   13.8740   -3.0980  -16.1180 O   0  0  0  0  0
   13.8750   -4.4280  -16.3710 C   0  0  0  0  0
   14.4980   -1.2040  -14.9150 C   0  0  0  0  0
   13.5850   -5.5040  -20.3280 O   0  0  0  0  0
   14.0670   -6.4240  -19.2700 P   0  0  0  0  0
   15.4610   -6.2180  -18.8090 O   0  0  0  0  0
   13.0010   -6.2550  -17.7980 C   0  0  0  0  0
   13.1400   -4.8440  -17.4080 N   0  0  0  0  0
   11.5020   -6.5100  -18.0560 C   0  0  0  0  0
   10.7540   -6.3270  -16.8560 C   0  0  0  0  0
   10.5190   -7.4100  -16.0070 C   0  0  0  0  0
    9.7940   -7.2590  -14.8180 C   0  0  0  0  0
    9.3020   -5.9970  -14.4560 C   0  0  0  0  0
    9.5480   -4.8910  -15.2840 C   0  0  0  0  0
   10.2600   -5.0610  -16.4800 C   0  0  0  0  0
   11.8930   -8.1260  -21.5850 O   0  0  0  0  0
   16.4370  -13.2200  -28.1550 C   0  0  0  0  0
   16.9230  -11.9060  -28.1550 C   0  0  0  0  0
   15.7750  -13.7130  -27.0260 C   0  0  0  0  0
   16.7420  -11.0910  -27.0290 C   0  0  0  0  0
   15.5980  -12.8880  -25.9050 C   0  0  0  0  0
   15.1610  -10.9640  -23.7260 C   0  0  0  0  0
   14.7180   -9.7260  -21.5100 C   0  0  0  0  0
   13.9330   -8.1230  -19.8020 C   0  0  0  0  0
   16.6460   -9.6630  -24.6630 N   0  0  0  0  0
   16.3050   -9.0770  -23.3920 O   0  0  0  0  0
   13.0140   -8.0250  -22.0930 C   0  0  0  0  0
   15.3870   -9.9360  -22.8780 C   0  0  0  0  0
   16.0630  -11.5680  -25.8990 C   0  0  0  0  0
   15.9310  -10.7720  -24.8080 C   0  0  0  0  0
   14.2850   -8.2590  -21.2810 C   0  0  0  0  0
   13.2220   -7.7320  -23.3800 N   0  0  0  0  0
   12.1020   -7.5790  -24.3000 C   0  0  0  0  0
   11.5140   -8.9800  -24.6180 C   0  0  0  0  0
   10.4990   -9.0120  -25.3340 O   0  0  0  0  0
   12.5370   -6.8530  -25.5850 C   0  0  0  0  0
   13.7990   -7.0770  -26.1400 C   0  0  0  0  0
   13.9420   -7.9620  -27.2130 C   0  0  0  0  0
   14.9210   -6.3740  -25.6660 C   0  0  0  0  0
   15.2030   -8.1650  -27.7920 C   0  0  0  0  0
   16.1770   -6.5780  -26.2470 C   0  0  0  0  0
   16.3200   -7.4690  -27.3110 C   0  0  0  0  0
   17.5490   -7.6610  -27.8880 O   0  0  0  0  0
   12.0670   -9.9920  -24.1000 O   0  0  0  0  0
   13.7651    2.5997  -14.4382 H   0  0  0  0  0
   13.7305    1.0621  -12.4857 H   0  0  0  0  0
   14.2861    1.7050  -16.6944 H   0  0  0  0  0
   14.1659   -1.3630  -12.7902 H   0  0  0  0  0
   14.7497   -0.7192  -17.0010 H   0  0  0  0  0
   15.8040   -2.7364  -15.3886 H   0  0  0  0  0
   14.6026   -3.1245  -14.1542 H   0  0  0  0  0
   15.6701   -6.8617  -18.1282 H   0  0  0  0  0
   13.3087   -6.9908  -17.0550 H   0  0  0  0  0
   12.6474   -4.1420  -17.9602 H   0  0  0  0  0
   11.3705   -7.5346  -18.4040 H   0  0  0  0  0
   11.1459   -5.8056  -18.8077 H   0  0  0  0  0
   10.9074   -8.3927  -16.2747 H   0  0  0  0  0
    9.6127   -8.1207  -14.1756 H   0  0  0  0  0
    8.7310   -5.8755  -13.5355 H   0  0  0  0  0
    9.1868   -3.9030  -14.9984 H   0  0  0  0  0
   10.4341   -4.2022  -17.1283 H   0  0  0  0  0
   16.5741  -13.8548  -29.0304 H   0  0  0  0  0
   17.4421  -11.5172  -29.0310 H   0  0  0  0  0
   15.3975  -14.7355  -27.0170 H   0  0  0  0  0
   17.1340  -10.0739  -27.0320 H   0  0  0  0  0
   15.0901  -13.2815  -25.0245 H   0  0  0  0  0
   14.4778  -11.7971  -23.5610 H   0  0  0  0  0
   15.4419   -9.9872  -20.7381 H   0  0  0  0  0
   13.8249  -10.3498  -21.4733 H   0  0  0  0  0
   12.9062   -8.4572  -19.6535 H   0  0  0  0  0
   14.6266   -8.7289  -19.2191 H   0  0  0  0  0
   15.0659   -7.5551  -21.5690 H   0  0  0  0  0
   14.1755   -7.6141  -23.7225 H   0  0  0  0  0
   11.3321   -6.9656  -23.8319 H   0  0  0  0  0
   12.5531   -5.8001  -25.3034 H   0  0  0  0  0
   11.8442   -7.2168  -26.3438 H   0  0  0  0  0
   13.0730   -8.4944  -27.5996 H   0  0  0  0  0
   14.8115   -5.6677  -24.8430 H   0  0  0  0  0
   15.3146   -8.8664  -28.6188 H   0  0  0  0  0
   17.0457   -6.0398  -25.8677 H   0  0  0  0  0
   18.1994   -7.1128  -27.4429 H   0  0  0  0  0
   12.8321   -9.7123  -23.5921 H   0  0  0  0  0
  9  1  2  0  0  0
  3  2  4  0  0  0
  4  2  4  0  0  0
  5  3  4  0  0  0
  6  4  4  0  0  0
 10  5  4  0  0  0
 10  6  4  0  0  0
  8  7  1  0  0  0
  7 10  1  0  0  0
  9  8  1  0  0  0
 15  9  1  0  0  0
 12 11  2  0  0  0
 12 13  1  0  0  0
 12 14  1  0  0  0
 31 12  1  0  0  0
 14 15  1  0  0  0
 14 16  1  0  0  0
 16 17  1  0  0  0
 17 18  4  0  0  0
 17 22  4  0  0  0
 18 19  4  0  0  0
 19 20  4  0  0  0
 21 20  4  0  0  0
 22 21  4  0  0  0
 34 23  2  0  0  0
 25 24  4  0  0  0
 26 24  4  0  0  0
 27 25  4  0  0  0
 28 26  4  0  0  0
 36 27  4  0  0  0
 36 28  4  0  0  0
 29 35  4  0  0  0
 37 29  4  0  0  0
 35 30  1  0  0  0
 30 38  1  0  0  0
 38 31  1  0  0  0
 32 33  4  0  0  0
 37 32  4  0  0  0
 33 35  4  0  0  0
 38 34  1  0  0  0
 34 39  1  0  0  0
 36 37  1  0  0  0
 39 40  1  0  0  0
 40 41  1  0  0  0
 40 43  1  0  0  0
 41 42  2  0  0  0
 41 51  1  0  0  0
 43 44  1  0  0  0
 44 45  4  0  0  0
 44 46  4  0  0  0
 45 47  4  0  0  0
 46 48  4  0  0  0
 47 49  4  0  0  0
 48 49  4  0  0  0
 49 50  1  0  0  0
  2 52  1  0  0  0
  3 53  1  0  0  0
  4 54  1  0  0  0
  5 55  1  0  0  0
  6 56  1  0  0  0
  7 57  1  0  0  0
  7 58  1  0  0  0
 13 59  1  0  0  0
 14 60  1  0  0  0
 15 61  1  0  0  0
 16 62  1  0  0  0
 16 63  1  0  0  0
 18 64  1  0  0  0
 19 65  1  0  0  0
 20 66  1  0  0  0
 21 67  1  0  0  0
 22 68  1  0  0  0
 24 69  1  0  0  0
 25 70  1  0  0  0
 26 71  1  0  0  0
 27 72  1  0  0  0
 28 73  1  0  0  0
 29 74  1  0  0  0
 30 75  1  0  0  0
 30 76  1  0  0  0
 31 77  1  0  0  0
 31 78  1  0  0  0
 38 79  1  0  0  0
 39 80  1  0  0  0
 40 81  1  0  0  0
 43 82  1  0  0  0
 43 83  1  0  0  0
 45 84  1  0  0  0
 46 85  1  0  0  0
 47 86  1  0  0  0
 48 87  1  0  0  0
 50 88  1  0  0  0
 51 89  1  0  0  0
M  END
$$$$
