6gzl_ligand
  -I-interpret- 

197198  0  0  0  0  0  0  0  0999 V2000
   29.5070  -28.0770  -16.2210 N   0  3  0  0  0
   28.4730  -28.5470  -17.1560 C   0  0  0  0  0
   27.2930  -27.5880  -17.2140 C   0  0  0  0  0
   26.6670  -27.3550  -16.1860 O   0  0  0  0  0
   28.0520  -29.9070  -16.5730 C   0  0  0  0  0
   28.3270  -29.7860  -15.1140 C   0  0  0  0  0
   29.5490  -28.8860  -14.9880 C   0  0  0  0  0
   26.9800  -27.0690  -18.3970 N   0  0  0  0  0
   26.0320  -25.9770  -18.5620 C   0  0  0  0  0
   24.7590  -26.4450  -19.2610 C   0  0  0  0  0
   24.6650  -27.5590  -19.7760 O   0  0  0  0  0
   26.6700  -24.8210  -19.3480 C   0  0  0  0  0
   26.9040  -25.2130  -20.7130 O   0  0  0  0  0
   27.9920  -24.3940  -18.7070 C   0  0  0  0  0
   23.7730  -25.5530  -19.2820 N   0  0  0  0  0
   22.4660  -25.8180  -19.8660 C   0  0  0  0  0
   21.7810  -24.4780  -20.1210 C   0  0  0  0  0
   22.0150  -23.5050  -19.4000 O   0  0  0  0  0
   21.6320  -26.7150  -18.9430 C   0  0  0  0  0
   20.1660  -26.7920  -19.2870 C   0  0  0  0  0
   19.3940  -27.6320  -18.2810 C   0  0  0  0  0
   17.9070  -27.2710  -18.2900 C   0  0  0  0  0
   17.6400  -25.9990  -17.5520 N   0  3  0  0  0
   20.9460  -24.4360  -21.1630 N   0  0  0  0  0
   20.2610  -23.2280  -21.6050 C   0  0  0  0  0
   18.8160  -23.2030  -21.1150 C   0  0  0  0  0
   18.1210  -24.2260  -21.1360 O   0  0  0  0  0
   20.2890  -23.1340  -23.1270 C   0  0  0  0  0
   21.6960  -23.0200  -23.6800 C   0  0  0  0  0
   21.8290  -22.8420  -24.9130 O   0  0  0  0  0
   22.6680  -23.0990  -22.8890 O   0  0  0  0  0
   18.3580  -22.0220  -20.6780 N   0  0  0  0  0
   17.0180  -21.8940  -20.1200 C   0  0  0  0  0
   16.3830  -20.5810  -20.5520 C   0  0  0  0  0
   17.0750  -19.5700  -20.7370 O   0  0  0  0  0
   17.0360  -21.9740  -18.5830 C   0  0  0  0  0
   17.4980  -23.2500  -18.1340 O   0  0  0  0  0
   15.0540  -20.6270  -20.7220 N   0  0  0  0  0
   14.1730  -19.4950  -20.9680 C   0  0  0  0  0
   13.5500  -19.0520  -19.6530 C   0  0  0  0  0
   13.3770  -19.8620  -18.7410 O   0  0  0  0  0
   13.0240  -19.8720  -21.9040 C   0  0  0  0  0
   13.3320  -20.0910  -23.3630 C   0  0  0  0  0
   13.7010  -21.3440  -23.8450 C   0  0  0  0  0
   13.1810  -19.0540  -24.2770 C   0  0  0  0  0
   13.9460  -21.5380  -25.2020 C   0  0  0  0  0
   13.4170  -19.2360  -25.6170 C   0  0  0  0  0
   13.8000  -20.4730  -26.0770 C   0  0  0  0  0
   14.0390  -20.6270  -27.4190 O   0  0  0  0  0
   13.1870  -17.7680  -19.5710 N   0  0  0  0  0
   12.1890  -17.2880  -18.6210 C   0  0  0  0  0
   11.3030  -16.2580  -19.3140 C   0  0  0  0  0
   11.7420  -15.5650  -20.2420 O   0  0  0  0  0
   12.7700  -16.6120  -17.3550 C   0  0  0  0  0
   13.2170  -15.2980  -17.6950 O   0  0  0  0  0
   13.9220  -17.3960  -16.7830 C   0  0  0  0  0
   10.0560  -16.1470  -18.8340 N   0  0  0  0  0
    9.1330  -15.1090  -19.2750 C   0  0  0  0  0
    8.2600  -14.6700  -18.1030 C   0  0  0  0  0
    7.8630  -15.4950  -17.2830 O   0  0  0  0  0
    8.2700  -15.6120  -20.4250 C   0  0  0  0  0
    7.4220  -14.5680  -21.1270 C   0  0  0  0  0
    8.2870  -13.4300  -21.7320 C   0  0  0  0  0
    6.5620  -15.2590  -22.1980 C   0  0  0  0  0
    7.9720  -13.3750  -18.0110 N   0  0  0  0  0
    7.0650  -12.8830  -16.9780 C   0  0  0  0  0
    5.6190  -13.0710  -17.3940 C   0  0  0  0  0
    5.2880  -13.1840  -18.5780 O   0  0  0  0  0
    7.2620  -11.3940  -16.6830 C   0  0  0  0  0
    7.3230  -10.6680  -17.9190 O   0  0  0  0  0
    8.5270  -11.1580  -15.8480 C   0  0  0  0  0
    4.7510  -13.0740  -16.3890 N   0  0  0  0  0
    3.3190  -13.1280  -16.6200 C   0  0  0  0  0
    2.8630  -11.8640  -17.3300 C   0  0  0  0  0
    3.4240  -10.7790  -17.1450 O   0  0  0  0  0
    2.5830  -13.2870  -15.2900 C   0  0  0  0  0
    3.0400  -14.5040  -14.4820 C   0  0  0  0  0
    2.6670  -15.8150  -15.1540 C   0  0  0  0  0
    3.4850  -16.7690  -15.1230 O   0  0  0  0  0
    1.5500  -15.8730  -15.7230 O   0  0  0  0  0
    1.8460  -12.0120  -18.1630 N   0  0  0  0  0
    1.3790  -10.8860  -18.9550 C   0  0  0  0  0
    0.7080   -9.8490  -18.0640 C   0  0  0  0  0
   -0.0180  -10.1860  -17.1220 O   0  0  0  0  0
    0.4180  -11.3700  -20.0370 C   0  0  0  0  0
    0.0720  -10.3190  -21.0620 C   0  0  0  0  0
   -1.0470  -10.7680  -21.9670 C   0  0  0  0  0
   -1.5530   -9.9390  -22.7610 O   0  0  0  0  0
   -1.4220  -11.9560  -21.8740 O   0  0  0  0  0
    0.9690   -8.5810  -18.3570 N   0  0  0  0  0
    0.3740   -7.4880  -17.6030 C   0  0  0  0  0
   -0.1440   -6.4140  -18.5540 C   0  0  0  0  0
   -1.2770   -5.9540  -18.4230 O   0  0  0  0  0
    1.3860   -6.8890  -16.6190 C   0  0  0  0  0
    1.8830   -7.7020  -15.4170 C   0  0  0  0  0
    2.7380   -6.8100  -14.5030 C   0  0  0  0  0
    0.7270   -8.3560  -14.6370 C   0  0  0  0  0
    0.5630   -5.9910  -19.4670 O   0  0  0  0  0
   29.2889  -27.1146  -15.9629 H   0  0  0  0  0
   30.4129  -28.1542  -16.6833 H   0  0  0  0  0
   28.8366  -28.6160  -18.1813 H   0  0  0  0  0
   28.5996  -30.7336  -17.0256 H   0  0  0  0  0
   27.0049  -30.1325  -16.7749 H   0  0  0  0  0
   28.5090  -30.7625  -14.6651 H   0  0  0  0  0
   27.4716  -29.3652  -14.5855 H   0  0  0  0  0
   29.5275  -28.2750  -14.0856 H   0  0  0  0  0
   30.4762  -29.4505  -14.8892 H   0  0  0  0  0
   27.4257  -27.4547  -19.2294 H   0  0  0  0  0
   25.7621  -25.6230  -17.5670 H   0  0  0  0  0
   25.9789  -23.9783  -19.3278 H   0  0  0  0  0
   27.3022  -24.4818  -21.1909 H   0  0  0  0  0
   27.8089  -24.0657  -17.6839 H   0  0  0  0  0
   28.6810  -25.2386  -18.7011 H   0  0  0  0  0
   28.4246  -23.5746  -19.2810 H   0  0  0  0  0
   23.9410  -24.6362  -18.8677 H   0  0  0  0  0
   22.5730  -26.3539  -20.8091 H   0  0  0  0  0
   21.6992  -26.2874  -17.9426 H   0  0  0  0  0
   22.0319  -27.7245  -19.0387 H   0  0  0  0  0
   20.0680  -27.2562  -20.2683 H   0  0  0  0  0
   19.7575  -25.7815  -19.2753 H   0  0  0  0  0
   19.7941  -27.4399  -17.2854 H   0  0  0  0  0
   19.4999  -28.6832  -18.5492 H   0  0  0  0  0
   17.3566  -28.0737  -17.7993 H   0  0  0  0  0
   17.5929  -27.1388  -19.3253 H   0  0  0  0  0
   16.6413  -25.7938  -17.5809 H   0  0  0  0  0
   17.9395  -26.1006  -16.5823 H   0  0  0  0  0
   18.1576  -25.2376  -17.9910 H   0  0  0  0  0
   20.7782  -25.2996  -21.6792 H   0  0  0  0  0
   20.7839  -22.3717  -21.1790 H   0  0  0  0  0
   19.7415  -22.2372  -23.4172 H   0  0  0  0  0
   19.8449  -24.0455  -23.5270 H   0  0  0  0  0
   22.3424  -23.2355  -21.9963 H   0  0  0  0  0
   18.9574  -21.1988  -20.7369 H   0  0  0  0  0
   16.4267  -22.7264  -20.5016 H   0  0  0  0  0
   16.0206  -21.8242  -18.2161 H   0  0  0  0  0
   17.7119  -21.2075  -18.2038 H   0  0  0  0  0
   17.4981  -23.2694  -17.1742 H   0  0  0  0  0
   14.6166  -21.5472  -20.6742 H   0  0  0  0  0
   14.7715  -18.7053  -21.4220 H   0  0  0  0  0
   12.3439  -19.0206  -21.8797 H   0  0  0  0  0
   12.6624  -20.8338  -21.5403 H   0  0  0  0  0
   13.7990  -22.1810  -23.1536 H   0  0  0  0  0
   12.8676  -18.0727  -23.9208 H   0  0  0  0  0
   14.2495  -22.5172  -25.5723 H   0  0  0  0  0
   13.3013  -18.4043  -26.3120 H   0  0  0  0  0
   13.8892  -19.7915  -27.8675 H   0  0  0  0  0
   13.6264  -17.0953  -20.1993 H   0  0  0  0  0
   11.6468  -18.1755  -18.2948 H   0  0  0  0  0
   11.9852  -16.5700  -16.5998 H   0  0  0  0  0
   13.5788  -14.8723  -16.9143 H   0  0  0  0  0
   13.5811  -18.3955  -16.5129 H   0  0  0  0  0
   14.7148  -17.4699  -17.5274 H   0  0  0  0  0
   14.3008  -16.8880  -15.8962 H   0  0  0  0  0
    9.7406  -16.8162  -18.1318 H   0  0  0  0  0
    9.7058  -14.2535  -19.6328 H   0  0  0  0  0
    7.5742  -16.3314  -19.9933 H   0  0  0  0  0
    8.9575  -16.0026  -21.1753 H   0  0  0  0  0
    6.7684  -14.0934  -20.3951 H   0  0  0  0  0
    8.8456  -12.9376  -20.9360 H   0  0  0  0  0
    8.9819  -13.8508  -22.4587 H   0  0  0  0  0
    7.6387  -12.7053  -22.2246 H   0  0  0  0  0
    7.2115  -15.7525  -22.9210 H   0  0  0  0  0
    5.9172  -15.9983  -21.7230 H   0  0  0  0  0
    5.9498  -14.5143  -22.7067 H   0  0  0  0  0
    8.3896  -12.7177  -18.6698 H   0  0  0  0  0
    7.2957  -13.4627  -16.0842 H   0  0  0  0  0
    6.4150  -11.0351  -16.0982 H   0  0  0  0  0
    7.4466   -9.7340  -17.7345 H   0  0  0  0  0
    8.4414  -11.6927  -14.9020 H   0  0  0  0  0
    9.3958  -11.5230  -16.3958 H   0  0  0  0  0
    8.6396  -10.0912  -15.6549 H   0  0  0  0  0
    5.0992  -13.0375  -15.4310 H   0  0  0  0  0
    3.0890  -13.9865  -17.2510 H   0  0  0  0  0
    1.5249  -13.4211  -15.5148 H   0  0  0  0  0
    2.7908  -12.3996  -14.6921 H   0  0  0  0  0
    2.5471  -14.4696  -13.5104 H   0  0  0  0  0
    4.1259  -14.4648  -14.3962 H   0  0  0  0  0
    4.2682  -16.5018  -14.6364 H   0  0  0  0  0
    1.3880  -12.9192  -18.2498 H   0  0  0  0  0
    2.2364  -10.4158  -19.4366 H   0  0  0  0  0
   -0.5095  -11.6574  -19.5417 H   0  0  0  0  0
    0.9091  -12.1878  -20.5644 H   0  0  0  0  0
    0.9546  -10.1332  -21.6741 H   0  0  0  0  0
   -0.2516   -9.4206  -20.5363 H   0  0  0  0  0
   -1.1117   -9.0922  -22.6620 H   0  0  0  0  0
    1.6013   -8.3679  -19.1285 H   0  0  0  0  0
   -0.4639   -7.8829  -17.0285 H   0  0  0  0  0
   -1.7077   -6.3751  -17.6755 H   0  0  0  0  0
    0.8578   -6.0468  -16.1720 H   0  0  0  0  0
    2.2804   -6.7276  -17.2207 H   0  0  0  0  0
    2.4994   -8.5178  -15.7946 H   0  0  0  0  0
    3.5940   -6.4331  -15.0628 H   0  0  0  0  0
    2.1367   -5.9727  -14.1488 H   0  0  0  0  0
    3.0876   -7.3938  -13.6515 H   0  0  0  0  0
    0.0556   -7.5810  -14.2673 H   0  0  0  0  0
    0.1793   -9.0283  -15.2974 H   0  0  0  0  0
    1.1309   -8.9199  -13.7962 H   0  0  0  0  0
  1  2  1  0  0  0
  1  7  1  0  0  0
  2  3  1  0  0  0
  2  5  1  0  0  0
  3  4  2  0  0  0
  3  8  1  0  0  0
  5  6  1  0  0  0
  6  7  1  0  0  0
  8  9  1  0  0  0
  9 10  1  0  0  0
  9 12  1  0  0  0
 10 11  2  0  0  0
 10 15  1  0  0  0
 12 13  1  0  0  0
 12 14  1  0  0  0
 15 16  1  0  0  0
 16 17  1  0  0  0
 16 19  1  0  0  0
 17 18  2  0  0  0
 17 24  1  0  0  0
 19 20  1  0  0  0
 20 21  1  0  0  0
 21 22  1  0  0  0
 22 23  1  0  0  0
 24 25  1  0  0  0
 25 26  1  0  0  0
 25 28  1  0  0  0
 26 27  2  0  0  0
 26 32  1  0  0  0
 28 29  1  0  0  0
 29 30  2  0  0  0
 29 31  1  0  0  0
 32 33  1  0  0  0
 33 34  1  0  0  0
 33 36  1  0  0  0
 34 35  2  0  0  0
 34 38  1  0  0  0
 36 37  1  0  0  0
 38 39  1  0  0  0
 39 40  1  0  0  0
 39 42  1  0  0  0
 40 41  2  0  0  0
 40 50  1  0  0  0
 42 43  1  0  0  0
 43 44  4  0  0  0
 43 45  4  0  0  0
 44 46  4  0  0  0
 45 47  4  0  0  0
 46 48  4  0  0  0
 47 48  4  0  0  0
 48 49  1  0  0  0
 50 51  1  0  0  0
 51 52  1  0  0  0
 51 54  1  0  0  0
 52 53  2  0  0  0
 52 57  1  0  0  0
 54 55  1  0  0  0
 54 56  1  0  0  0
 57 58  1  0  0  0
 58 59  1  0  0  0
 58 61  1  0  0  0
 59 60  2  0  0  0
 59 65  1  0  0  0
 61 62  1  0  0  0
 62 63  1  0  0  0
 62 64  1  0  0  0
 65 66  1  0  0  0
 66 67  1  0  0  0
 66 69  1  0  0  0
 67 68  2  0  0  0
 67 72  1  0  0  0
 69 70  1  0  0  0
 69 71  1  0  0  0
 72 73  1  0  0  0
 73 74  1  0  0  0
 73 76  1  0  0  0
 74 75  2  0  0  0
 74 81  1  0  0  0
 76 77  1  0  0  0
 77 78  1  0  0  0
 78 79  1  0  0  0
 78 80  2  0  0  0
 81 82  1  0  0  0
 82 83  1  0  0  0
 82 85  1  0  0  0
 83 84  2  0  0  0
 83 90  1  0  0  0
 85 86  1  0  0  0
 86 87  1  0  0  0
 87 88  1  0  0  0
 87 89  2  0  0  0
 90 91  1  0  0  0
 91 92  1  0  0  0
 91 94  1  0  0  0
 92 93  1  0  0  0
 92 98  2  0  0  0
 94 95  1  0  0  0
 95 96  1  0  0  0
 95 97  1  0  0  0
  1 99  1  0  0  0
  1100  1  0  0  0
  2101  1  0  0  0
  5102  1  0  0  0
  5103  1  0  0  0
  6104  1  0  0  0
  6105  1  0  0  0
  7106  1  0  0  0
  7107  1  0  0  0
  8108  1  0  0  0
  9109  1  0  0  0
 12110  1  0  0  0
 13111  1  0  0  0
 14112  1  0  0  0
 14113  1  0  0  0
 14114  1  0  0  0
 15115  1  0  0  0
 16116  1  0  0  0
 19117  1  0  0  0
 19118  1  0  0  0
 20119  1  0  0  0
 20120  1  0  0  0
 21121  1  0  0  0
 21122  1  0  0  0
 22123  1  0  0  0
 22124  1  0  0  0
 23125  1  0  0  0
 23126  1  0  0  0
 23127  1  0  0  0
 24128  1  0  0  0
 25129  1  0  0  0
 28130  1  0  0  0
 28131  1  0  0  0
 31132  1  0  0  0
 32133  1  0  0  0
 33134  1  0  0  0
 36135  1  0  0  0
 36136  1  0  0  0
 37137  1  0  0  0
 38138  1  0  0  0
 39139  1  0  0  0
 42140  1  0  0  0
 42141  1  0  0  0
 44142  1  0  0  0
 45143  1  0  0  0
 46144  1  0  0  0
 47145  1  0  0  0
 49146  1  0  0  0
 50147  1  0  0  0
 51148  1  0  0  0
 54149  1  0  0  0
 55150  1  0  0  0
 56151  1  0  0  0
 56152  1  0  0  0
 56153  1  0  0  0
 57154  1  0  0  0
 58155  1  0  0  0
 61156  1  0  0  0
 61157  1  0  0  0
 62158  1  0  0  0
 63159  1  0  0  0
 63160  1  0  0  0
 63161  1  0  0  0
 64162  1  0  0  0
 64163  1  0  0  0
 64164  1  0  0  0
 65165  1  0  0  0
 66166  1  0  0  0
 69167  1  0  0  0
 70168  1  0  0  0
 71169  1  0  0  0
 71170  1  0  0  0
 71171  1  0  0  0
 72172  1  0  0  0
 73173  1  0  0  0
 76174  1  0  0  0
 76175  1  0  0  0
 77176  1  0  0  0
 77177  1  0  0  0
 79178  1  0  0  0
 81179  1  0  0  0
 82180  1  0  0  0
 85181  1  0  0  0
 85182  1  0  0  0
 86183  1  0  0  0
 86184  1  0  0  0
 88185  1  0  0  0
 90186  1  0  0  0
 91187  1  0  0  0
 93188  1  0  0  0
 94189  1  0  0  0
 94190  1  0  0  0
 95191  1  0  0  0
 96192  1  0  0  0
 96193  1  0  0  0
 96194  1  0  0  0
 97195  1  0  0  0
 97196  1  0  0  0
 97197  1  0  0  0
M  END
$$$$
