### 
### Created by X-TOOL on Wed Jan  1 15:39:38 2020
### 

@<TRIPOS>MOLECULE
6gzl_ligand
  193   194     1     0     0
SMALL
GAST_HUCK


@<TRIPOS>ATOM
      1 N          29.5070  -28.0770  -16.2210 N.4       1 PRO         0.2461
      2 CA         28.4730  -28.5470  -17.1560 C.3       1 PRO         0.0670
      3 C          27.2930  -27.5880  -17.2140 C.2       1 PRO         0.2268
      4 O          26.6670  -27.3550  -16.1860 O.2       1 PRO        -0.3907
      5 CB         28.0520  -29.9070  -16.5730 C.3       1 PRO         0.0127
      6 CG         28.3270  -29.7860  -15.1140 C.3       1 PRO        -0.0053
      7 CD         29.5490  -28.8860  -14.9880 C.3       1 PRO        -0.0313
      8 N          26.9800  -27.0690  -18.3970 N.am      1 THR        -0.2586
      9 CA         26.0320  -25.9770  -18.5620 C.3       1 THR         0.1566
     10 C          24.7590  -26.4450  -19.2610 C.2       1 THR         0.2065
     11 O          24.6650  -27.5590  -19.7760 O.2       1 THR        -0.3943
     12 CB         26.6700  -24.8210  -19.3480 C.3       1 THR         0.0924
     13 OG1        26.9040  -25.2130  -20.7130 O.3       1 THR        -0.3874
     14 CG2        27.9920  -24.3940  -18.7070 C.3       1 THR        -0.0346
     15 N          23.7730  -25.5530  -19.2820 N.am      1 LYS        -0.2637
     16 CA         22.4660  -25.8180  -19.8660 C.3       1 LYS         0.1310
     17 C          21.7810  -24.4780  -20.1210 C.2       1 LYS         0.2040
     18 O          22.0150  -23.5050  -19.4000 O.2       1 LYS        -0.3944
     19 CB         21.6320  -26.7150  -18.9430 C.3       1 LYS        -0.0122
     20 CG         20.1660  -26.7920  -19.2870 C.3       1 LYS        -0.0440
     21 CD         19.3940  -27.6320  -18.2810 C.3       1 LYS        -0.0124
     22 CE         17.9070  -27.2710  -18.2900 C.3       1 LYS        -0.0354
     23 NZ         17.6400  -25.9990  -17.5520 N.4       1 LYS         0.2185
     24 N          20.9460  -24.4360  -21.1630 N.am      1 ASP        -0.2622
     25 CA         20.2610  -23.2280  -21.6050 C.3       1 ASP         0.1423
     26 C          18.8160  -23.2030  -21.1150 C.2       1 ASP         0.2057
     27 O          18.1210  -24.2260  -21.1360 O.2       1 ASP        -0.3943
     28 CB         20.2890  -23.1340  -23.1270 C.3       1 ASP         0.0406
     29 CG         21.6960  -23.0200  -23.6800 C.2       1 ASP         0.0393
     30 OD1        21.8290  -22.8420  -24.9130 O.co2     1 ASP        -0.5688
     31 OD2        22.6680  -23.0990  -22.8890 O.co2     1 ASP        -0.5688
     32 N          18.3580  -22.0220  -20.6780 N.am      1 SER        -0.2615
     33 CA         17.0180  -21.8940  -20.1200 C.3       1 SER         0.1539
     34 C          16.3830  -20.5810  -20.5520 C.2       1 SER         0.2063
     35 O          17.0750  -19.5700  -20.7370 O.2       1 SER        -0.3943
     36 CB         17.0360  -21.9740  -18.5830 C.3       1 SER         0.0843
     37 OG         17.4980  -23.2500  -18.1340 O.3       1 SER        -0.3903
     38 N          15.0540  -20.6270  -20.7220 N.am      1 TYR        -0.2621
     39 CA         14.1730  -19.4950  -20.9680 C.3       1 TYR         0.1390
     40 C          13.5500  -19.0520  -19.6530 C.2       1 TYR         0.2058
     41 O          13.3770  -19.8620  -18.7410 O.2       1 TYR        -0.3942
     42 CB         13.0240  -19.8720  -21.9040 C.3       1 TYR         0.0163
     43 CG         13.3320  -20.0910  -23.3630 C.ar      1 TYR        -0.0493
     44 CD1        13.7010  -21.3440  -23.8450 C.ar      1 TYR        -0.0685
     45 CD2        13.1810  -19.0540  -24.2770 C.ar      1 TYR        -0.0685
     46 CE1        13.9460  -21.5380  -25.2020 C.ar      1 TYR        -0.0398
     47 CE2        13.4170  -19.2360  -25.6170 C.ar      1 TYR        -0.0398
     48 CZ         13.8000  -20.4730  -26.0770 C.ar      1 TYR         0.0805
     49 OH         14.0390  -20.6270  -27.4190 O.3       1 TYR        -0.3376
     50 N          13.1870  -17.7680  -19.5710 N.am      1 THR        -0.2612
     51 CA         12.1890  -17.2880  -18.6210 C.3       1 THR         0.1565
     52 C          11.3030  -16.2580  -19.3140 C.2       1 THR         0.2065
     53 O          11.7420  -15.5650  -20.2420 O.2       1 THR        -0.3943
     54 CB         12.7700  -16.6120  -17.3550 C.3       1 THR         0.0924
     55 OG1        13.2170  -15.2980  -17.6950 O.3       1 THR        -0.3874
     56 CG2        13.9220  -17.3960  -16.7830 C.3       1 THR        -0.0346
     57 N          10.0560  -16.1470  -18.8340 N.am      1 LEU        -0.2636
     58 CA          9.1330  -15.1090  -19.2750 C.3       1 LEU         0.1312
     59 C           8.2600  -14.6700  -18.1030 C.2       1 LEU         0.2040
     60 O           7.8630  -15.4950  -17.2830 O.2       1 LEU        -0.3944
     61 CB          8.2700  -15.6120  -20.4250 C.3       1 LEU        -0.0101
     62 CG          7.4220  -14.5680  -21.1270 C.3       1 LEU        -0.0425
     63 CD1         8.2870  -13.4300  -21.7320 C.3       1 LEU        -0.0625
     64 CD2         6.5620  -15.2590  -22.1980 C.3       1 LEU        -0.0625
     65 N           7.9720  -13.3750  -18.0110 N.am      1 THR        -0.2613
     66 CA          7.0650  -12.8830  -16.9780 C.3       1 THR         0.1565
     67 C           5.6190  -13.0710  -17.3940 C.2       1 THR         0.2065
     68 O           5.2880  -13.1840  -18.5780 O.2       1 THR        -0.3943
     69 CB          7.2620  -11.3940  -16.6830 C.3       1 THR         0.0924
     70 OG1         7.3230  -10.6680  -17.9190 O.3       1 THR        -0.3874
     71 CG2         8.5270  -11.1580  -15.8480 C.3       1 THR        -0.0346
     72 N           4.7510  -13.0740  -16.3890 N.am      1 GLU        -0.2635
     73 CA          3.3190  -13.1280  -16.6200 C.3       1 GLU         0.1325
     74 C           2.8630  -11.8640  -17.3300 C.2       1 GLU         0.2040
     75 O           3.4240  -10.7790  -17.1450 O.2       1 GLU        -0.3944
     76 CB          2.5830  -13.2870  -15.2900 C.3       1 GLU        -0.0008
     77 CG          3.0400  -14.5040  -14.4820 C.3       1 GLU         0.0044
     78 CD          2.6670  -15.8150  -15.1540 C.2       1 GLU         0.0350
     79 OE1         3.4850  -16.7690  -15.1230 O.co2     1 GLU        -0.5690
     80 OE2         1.5500  -15.8730  -15.7230 O.co2     1 GLU        -0.5690
     81 N           1.8460  -12.0120  -18.1630 N.am      1 GLU        -0.2636
     82 CA          1.3790  -10.8860  -18.9550 C.3       1 GLU         0.1324
     83 C           0.7080   -9.8490  -18.0640 C.2       1 GLU         0.2034
     84 O          -0.0180  -10.1860  -17.1220 O.2       1 GLU        -0.3944
     85 CB          0.4180  -11.3700  -20.0370 C.3       1 GLU        -0.0008
     86 CG          0.0720  -10.3190  -21.0620 C.3       1 GLU         0.0044
     87 CD         -1.0470  -10.7680  -21.9670 C.2       1 GLU         0.0350
     88 OE1        -1.5530   -9.9390  -22.7610 O.co2     1 GLU        -0.5690
     89 OE2        -1.4220  -11.9560  -21.8740 O.co2     1 GLU        -0.5690
     90 N           0.9690   -8.5810  -18.3570 N.am      1 LEU        -0.2695
     91 CA          0.3740   -7.4880  -17.6030 C.3       1 LEU         0.0946
     92 C          -0.1440   -6.4140  -18.5540 C.2       1 LEU         0.0601
     93 O          -1.2770   -5.9540  -18.4230 O.co2     1 LEU        -0.5666
     94 CB          1.3860   -6.8890  -16.6190 C.3       1 LEU        -0.0156
     95 CG          1.8830   -7.7020  -15.4170 C.3       1 LEU        -0.0431
     96 CD1         2.7380   -6.8100  -14.5030 C.3       1 LEU        -0.0625
     97 CD2         0.7270   -8.3560  -14.6370 C.3       1 LEU        -0.0625
     98 OXT         0.5630   -5.9910  -19.4670 O.co2     1 LEU        -0.5666
     99 H1         29.3116  -27.1193  -15.9748 H         1 PRO         0.2035
    100 H2         30.4050  -28.1306  -16.6757 H         1 PRO         0.2035
    101 H3         28.8900  -28.6683  -18.1667 H         1 PRO         0.1099
    102 H4         28.6460  -30.7206  -17.0148 H         1 PRO         0.0347
    103 H5         26.9831  -30.0937  -16.7534 H         1 PRO         0.0347
    104 H6         28.5355  -30.7756  -14.6814 H         1 PRO         0.0320
    105 H7         27.4659  -29.3348  -14.5993 H         1 PRO         0.0320
    106 H8         29.4768  -28.2471  -14.0955 H         1 PRO         0.0814
    107 H9         30.4727  -29.4813  -14.9391 H         1 PRO         0.0814
    108 H10        27.4170  -27.4471  -19.2131 H         1 THR         0.1885
    109 H11        25.7592  -25.6075  -17.5625 H         1 THR         0.0826
    110 H12        25.9786  -23.9655  -19.3371 H         1 THR         0.0639
    111 H13        26.0781  -25.4466  -21.1202 H         1 THR         0.2101
    112 H14        28.4296  -23.5670  -19.2854 H         1 THR         0.0257
    113 H15        28.6883  -25.2456  -18.7005 H         1 THR         0.0257
    114 H16        27.8086  -24.0624  -17.6744 H         1 THR         0.0257
    115 H17        23.9377  -24.6542  -18.8759 H         1 LYS         0.1883
    116 H18        22.5997  -26.3378  -20.8261 H         1 LYS         0.0800
    117 H19        21.7223  -26.3278  -17.9174 H         1 LYS         0.0312
    118 H20        22.0475  -27.7325  -18.9887 H         1 LYS         0.0312
    119 H21        20.0574  -27.2422  -20.2848 H         1 LYS         0.0269
    120 H22        19.7484  -25.7744  -19.2964 H         1 LYS         0.0269
    121 H23        19.8014  -27.4527  -17.2751 H         1 LYS         0.0317
    122 H24        19.5073  -28.6954  -18.5384 H         1 LYS         0.0317
    123 H25        17.3402  -28.0846  -17.8137 H         1 LYS         0.0813
    124 H26        17.5753  -27.1542  -19.3323 H         1 LYS         0.0813
    125 H27        16.6532  -25.7952  -17.5799 H         1 LYS         0.1994
    126 H28        18.1510  -25.2457  -17.9850 H         1 LYS         0.1994
    127 H29        17.9356  -26.0982  -16.5935 H         1 LYS         0.1994
    128 H30        20.7814  -25.2826  -21.6691 H         1 ASP         0.1884
    129 H31        20.7872  -22.3569  -21.1874 H         1 ASP         0.0819
    130 H32        19.7167  -22.2467  -23.4355 H         1 ASP         0.0478
    131 H33        19.8190  -24.0368  -23.5441 H         1 ASP         0.0478
    132 H34        18.9456  -21.2149  -20.7358 H         1 SER         0.1884
    133 H35        16.4054  -22.7231  -20.5038 H         1 SER         0.0823
    134 H36        16.0168  -21.8084  -18.2037 H         1 SER         0.0606
    135 H37        17.7044  -21.1930  -18.1915 H         1 SER         0.0606
    136 H38        16.9219  -23.9288  -18.4655 H         1 SER         0.2097
    137 H39        14.6252  -21.5292  -20.6751 H         1 TYR         0.1885
    138 H40        14.7544  -18.6716  -21.4083 H         1 TYR         0.0821
    139 H41        12.2790  -19.0648  -21.8463 H         1 TYR         0.0453
    140 H42        12.5846  -20.8047  -21.5206 H         1 TYR         0.0453
    141 H43        13.7985  -22.1764  -23.1574 H         1 TYR         0.0530
    142 H44        12.8693  -18.0781  -23.9227 H         1 TYR         0.0530
    143 H45        14.2478  -22.5119  -25.5702 H         1 TYR         0.0525
    144 H46        13.3019  -18.4089  -26.3082 H         1 TYR         0.0525
    145 H47        13.2499  -20.4201  -27.9058 H         1 TYR         0.2458
    146 H48        13.6178  -17.1084  -20.1870 H         1 THR         0.1884
    147 H49        11.5782  -18.1468  -18.3059 H         1 THR         0.0826
    148 H50        11.9780  -16.5417  -16.5949 H         1 THR         0.0639
    149 H51        13.8880  -15.3564  -18.3649 H         1 THR         0.2101
    150 H52        14.3052  -16.8842  -15.8879 H         1 THR         0.0257
    151 H53        14.7228  -17.4713  -17.5333 H         1 THR         0.0257
    152 H54        13.5793  -18.4049  -16.5100 H         1 THR         0.0257
    153 H55         9.7468  -16.8030  -18.1455 H         1 LEU         0.1883
    154 H56         9.7150  -14.2442  -19.6263 H         1 LEU         0.0800
    155 H57         7.5934  -16.3821  -20.0261 H         1 LEU         0.0315
    156 H58         8.9374  -16.0626  -21.1744 H         1 LEU         0.0315
    157 H59         6.7486  -14.1162  -20.3838 H         1 LEU         0.0298
    158 H60         7.6339  -12.6979  -22.2295 H         1 LEU         0.0232
    159 H61         8.9888  -13.8533  -22.4657 H         1 LEU         0.0232
    160 H62         8.8513  -12.9322  -20.9297 H         1 LEU         0.0232
    161 H63         5.9657  -16.0567  -21.7309 H         1 LEU         0.0232
    162 H64         7.2155  -15.6933  -22.9689 H         1 LEU         0.0232
    163 H65         5.8895  -14.5214  -22.6603 H         1 LEU         0.0232
    164 H66         8.3814  -12.7306  -18.6569 H         1 THR         0.1884
    165 H67         7.2531  -13.4549  -16.0574 H         1 THR         0.0826
    166 H68         6.3969  -11.0340  -16.1069 H         1 THR         0.0639
    167 H69         8.0516  -10.9886  -18.4377 H         1 THR         0.2101
    168 H70         8.6417  -10.0816  -15.6524 H         1 THR         0.0257
    169 H71         9.4046  -11.5259  -16.3998 H         1 THR         0.0257
    170 H72         8.4418  -11.6971  -14.8930 H         1 THR         0.0257
    171 H73         5.0924  -13.0382  -15.4498 H         1 GLU         0.1883
    172 H74         3.0923  -13.9953  -17.2574 H         1 GLU         0.0801
    173 H75         1.5076  -13.3903  -15.4971 H         1 GLU         0.0330
    174 H76         2.7551  -12.3836  -14.6865 H         1 GLU         0.0330
    175 H77         2.5668  -14.4679  -13.4897 H         1 GLU         0.0433
    176 H78         4.1334  -14.4631  -14.3685 H         1 GLU         0.0433
    177 H79         1.3970  -12.9015  -18.2481 H         1 GLU         0.1883
    178 H80         2.2464  -10.4169  -19.4424 H         1 GLU         0.0801
    179 H81        -0.5124  -11.6998  -19.5516 H         1 GLU         0.0330
    180 H82         0.8820  -12.2211  -20.5568 H         1 GLU         0.0330
    181 H83         0.9625  -10.1106  -21.6731 H         1 GLU         0.0433
    182 H84        -0.2380   -9.4013  -20.5407 H         1 GLU         0.0433
    183 H85         1.5889   -8.3720  -19.1134 H         1 LEU         0.1875
    184 H86        -0.4757   -7.8845  -17.0279 H         1 LEU         0.0726
    185 H87         0.9268   -5.9757  -16.2127 H         1 LEU         0.0308
    186 H88         2.2761   -6.6214  -17.2073 H         1 LEU         0.0308
    187 H89         2.5236   -8.5104  -15.7992 H         1 LEU         0.0297
    188 H90         3.0914   -7.3981  -13.6432 H         1 LEU         0.0232
    189 H91         2.1322   -5.9646  -14.1448 H         1 LEU         0.0232
    190 H92         3.6023   -6.4290  -15.0667 H         1 LEU         0.0232
    191 H93         0.1357   -8.9862  -15.3177 H         1 LEU         0.0232
    192 H94         0.0832   -7.5728  -14.2104 H         1 LEU         0.0232
    193 H95         1.1365   -8.9762  -13.8260 H         1 LEU         0.0232
@<TRIPOS>BOND
     1    1    2 1  
     2    1    7 1  
     3    2    3 1  
     4    2    5 1  
     5    3    4 2  
     6    3    8 am 
     7    5    6 1  
     8    6    7 1  
     9    8    9 1  
    10    9   10 1  
    11    9   12 1  
    12   10   11 2  
    13   10   15 am 
    14   12   13 1  
    15   12   14 1  
    16   15   16 1  
    17   16   17 1  
    18   16   19 1  
    19   17   18 2  
    20   17   24 am 
    21   19   20 1  
    22   20   21 1  
    23   21   22 1  
    24   22   23 1  
    25   24   25 1  
    26   25   26 1  
    27   25   28 1  
    28   26   27 2  
    29   26   32 am 
    30   28   29 1  
    31   29   30 ar 
    32   29   31 ar 
    33   32   33 1  
    34   33   34 1  
    35   33   36 1  
    36   34   35 2  
    37   34   38 am 
    38   36   37 1  
    39   38   39 1  
    40   39   40 1  
    41   39   42 1  
    42   40   41 2  
    43   40   50 am 
    44   42   43 1  
    45   43   44 ar 
    46   43   45 ar 
    47   44   46 ar 
    48   45   47 ar 
    49   46   48 ar 
    50   47   48 ar 
    51   48   49 1  
    52   50   51 1  
    53   51   52 1  
    54   51   54 1  
    55   52   53 2  
    56   52   57 am 
    57   54   55 1  
    58   54   56 1  
    59   57   58 1  
    60   58   59 1  
    61   58   61 1  
    62   59   60 2  
    63   59   65 am 
    64   61   62 1  
    65   62   63 1  
    66   62   64 1  
    67   65   66 1  
    68   66   67 1  
    69   66   69 1  
    70   67   68 2  
    71   67   72 am 
    72   69   70 1  
    73   69   71 1  
    74   72   73 1  
    75   73   74 1  
    76   73   76 1  
    77   74   75 2  
    78   74   81 am 
    79   76   77 1  
    80   77   78 1  
    81   78   79 ar 
    82   78   80 ar 
    83   81   82 1  
    84   82   83 1  
    85   82   85 1  
    86   83   84 2  
    87   83   90 am 
    88   85   86 1  
    89   86   87 1  
    90   87   88 ar 
    91   87   89 ar 
    92   90   91 1  
    93   91   92 1  
    94   91   94 1  
    95   92   93 ar 
    96   92   98 ar 
    97   94   95 1  
    98   95   96 1  
    99   95   97 1  
   100    1   99 1  
   101    1  100 1  
   102    2  101 1  
   103    5  102 1  
   104    5  103 1  
   105    6  104 1  
   106    6  105 1  
   107    7  106 1  
   108    7  107 1  
   109    8  108 1  
   110    9  109 1  
   111   12  110 1  
   112   13  111 1  
   113   14  112 1  
   114   14  113 1  
   115   14  114 1  
   116   15  115 1  
   117   16  116 1  
   118   19  117 1  
   119   19  118 1  
   120   20  119 1  
   121   20  120 1  
   122   21  121 1  
   123   21  122 1  
   124   22  123 1  
   125   22  124 1  
   126   23  125 1  
   127   23  126 1  
   128   23  127 1  
   129   24  128 1  
   130   25  129 1  
   131   28  130 1  
   132   28  131 1  
   133   32  132 1  
   134   33  133 1  
   135   36  134 1  
   136   36  135 1  
   137   37  136 1  
   138   38  137 1  
   139   39  138 1  
   140   42  139 1  
   141   42  140 1  
   142   44  141 1  
   143   45  142 1  
   144   46  143 1  
   145   47  144 1  
   146   49  145 1  
   147   50  146 1  
   148   51  147 1  
   149   54  148 1  
   150   55  149 1  
   151   56  150 1  
   152   56  151 1  
   153   56  152 1  
   154   57  153 1  
   155   58  154 1  
   156   61  155 1  
   157   61  156 1  
   158   62  157 1  
   159   63  158 1  
   160   63  159 1  
   161   63  160 1  
   162   64  161 1  
   163   64  162 1  
   164   64  163 1  
   165   65  164 1  
   166   66  165 1  
   167   69  166 1  
   168   70  167 1  
   169   71  168 1  
   170   71  169 1  
   171   71  170 1  
   172   72  171 1  
   173   73  172 1  
   174   76  173 1  
   175   76  174 1  
   176   77  175 1  
   177   77  176 1  
   178   81  177 1  
   179   82  178 1  
   180   85  179 1  
   181   85  180 1  
   182   86  181 1  
   183   86  182 1  
   184   90  183 1  
   185   91  184 1  
   186   94  185 1  
   187   94  186 1  
   188   95  187 1  
   189   96  188 1  
   190   96  189 1  
   191   96  190 1  
   192   97  191 1  
   193   97  192 1  
   194   97  193 1  
@<TRIPOS>SUBSTRUCTURE
     1 PRO         1

