1ykr_ligand
  -I-interpret- 

 44 47  0  0  0  0  0  0  0  0999 V2000
   -1.2410   31.4100    9.7620 C   0  0  0  0  0
   -0.5560   30.3480    9.1260 C   0  0  0  0  0
    0.4010   30.5900    8.2500 N   0  0  0  0  0
    0.7650   31.8510    7.8860 C   0  0  0  0  0
    0.1480   33.0090    8.4460 C   0  0  0  0  0
   -0.8890   32.7610    9.4030 C   0  0  0  0  0
    1.0960   29.6550    7.5990 C   0  0  0  0  0
    1.9670   30.4360    6.8060 C   0  0  0  0  0
    1.7880   31.7880    6.9660 N   0  0  0  0  0
    6.9510   25.4950    7.4530 S   0  0  0  0  0
    5.7450   26.7150    7.0990 C   0  0  0  0  0
    5.6520   27.1910    5.7520 C   0  0  0  0  0
    4.7040   28.1660    5.4230 C   0  0  0  0  0
    3.8370   28.6750    6.4330 C   0  0  0  0  0
    3.9300   28.1940    7.8030 C   0  0  0  0  0
    4.8930   27.2040    8.1400 C   0  0  0  0  0
   -2.2950   31.1080   10.7750 C   0  0  0  0  0
   -2.4620   29.6710   11.2620 C   0  0  0  0  0
   -1.4430   28.9950   12.1060 C   0  0  0  0  0
   -1.6360   27.6710   12.5460 C   0  0  0  0  0
   -2.7880   26.9430   12.1700 C   0  0  0  0  0
   -3.7930   27.5370   11.3550 C   0  0  0  0  0
   -3.6400   28.8750   10.8850 C   0  0  0  0  0
   -3.0090   31.9910   11.2560 O   0  0  0  0  0
    7.5810   25.1800    6.1970 O   0  0  0  0  0
    2.8940   29.6640    5.9640 N   0  0  0  0  0
   -0.3020   29.6390   12.5070 Cl  0  0  0  0  0
   -4.6260   29.4180   10.1010 Cl  0  0  0  0  0
    6.2290   24.1310    7.9880 N   0  0  0  0  0
    7.7810   25.9560    8.5380 O   0  0  0  0  0
   -0.8218   29.3177    9.3623 H   0  0  0  0  0
    0.4466   34.0186    8.1637 H   0  0  0  0  0
   -1.4146   33.5983    9.8621 H   0  0  0  0  0
    1.0133   28.5700    7.6625 H   0  0  0  0  0
    6.3177   26.7950    4.9851 H   0  0  0  0  0
    4.6290   28.5342    4.3998 H   0  0  0  0  0
    3.2635   28.5914    8.5685 H   0  0  0  0  0
    4.9799   26.8289    9.1597 H   0  0  0  0  0
   -0.8876   27.2017   13.1846 H   0  0  0  0  0
   -2.9084   25.9139   12.5083 H   0  0  0  0  0
   -4.6831   26.9669   11.0891 H   0  0  0  0  0
    2.8687   29.8428    4.9601 H   0  0  0  0  0
    6.2870   23.2739    7.4381 H   0  0  0  0  0
    5.7201   24.1364    8.8720 H   0  0  0  0  0
  2  1  4  0  0  0
  6  1  4  0  0  0
  1 17  1  0  0  0
  3  2  4  0  0  0
  4  3  4  0  0  0
  7  3  4  0  0  0
  4  5  4  0  0  0
  9  4  4  0  0  0
  5  6  4  0  0  0
  8  7  4  0  0  0
  8  9  4  0  0  0
 26  8  1  0  0  0
 11 10  1  0  0  0
 10 25  2  0  0  0
 10 29  1  0  0  0
 10 30  2  0  0  0
 12 11  4  0  0  0
 11 16  4  0  0  0
 13 12  4  0  0  0
 14 13  4  0  0  0
 14 15  4  0  0  0
 14 26  1  0  0  0
 15 16  4  0  0  0
 17 18  1  0  0  0
 17 24  2  0  0  0
 18 19  4  0  0  0
 18 23  4  0  0  0
 19 20  4  0  0  0
 19 27  1  0  0  0
 20 21  4  0  0  0
 21 22  4  0  0  0
 22 23  4  0  0  0
 23 28  1  0  0  0
  2 31  1  0  0  0
  5 32  1  0  0  0
  6 33  1  0  0  0
  7 34  1  0  0  0
 12 35  1  0  0  0
 13 36  1  0  0  0
 15 37  1  0  0  0
 16 38  1  0  0  0
 20 39  1  0  0  0
 21 40  1  0  0  0
 22 41  1  0  0  0
 26 42  1  0  0  0
 29 43  1  0  0  0
 29 44  1  0  0  0
M  END
$$$$
