3lq8_ligand
  -I-interpret- 

 81 86  0  0  0  0  0  0  0  0999 V2000
   -4.1270    3.1380   30.7040 C   0  0  0  0  0
   -5.0100    4.3010   30.5130 C   0  0  0  0  0
   -4.5070    5.6010   30.3670 C   0  0  0  0  0
   -3.1310    5.7950   30.3810 C   0  0  0  0  0
   -2.2500    4.6130   30.5820 C   0  0  0  0  0
   -2.7380    3.3300   30.7410 C   0  0  0  0  0
   -2.5880    7.0190   30.2290 N   0  0  0  0  0
   -1.2580    7.2500   30.2170 C   0  0  0  0  0
   -0.3540    6.1810   30.4530 C   0  0  0  0  0
   -0.8220    4.8600   30.6120 C   0  0  0  0  0
   -4.7660    1.9090   30.8150 O   0  0  0  0  0
   -4.0970    0.6650   31.0330 C   0  0  0  0  0
   -6.3280    3.9790   30.5020 O   0  0  0  0  0
   -0.0100    3.7510   30.7610 O   0  0  0  0  0
    1.2820    3.8340   30.3260 C   0  0  0  0  0
    1.6580    3.7710   28.9990 C   0  0  0  0  0
    2.9920    3.8710   28.6730 C   0  0  0  0  0
    3.9860    4.0490   29.6490 C   0  0  0  0  0
    3.6530    4.0910   30.9980 C   0  0  0  0  0
    2.3080    4.0020   31.3610 C   0  0  0  0  0
    1.8570    4.0670   32.6250 F   0  0  0  0  0
    5.2660    4.1510   29.2260 N   0  0  0  0  0
   -7.3870    4.9350   30.6280 C   0  0  0  0  0
   -8.6720    4.1240   30.7980 C   0  0  0  0  0
   -9.1570    3.8610   29.3920 C   0  0  0  0  0
  -10.3380    3.0260   29.3180 N   0  3  0  0  0
  -10.6240    2.5090   27.9740 C   0  0  0  0  0
  -12.1230    2.2180   27.8660 C   0  0  0  0  0
  -12.4340    1.3970   28.9820 O   0  0  0  0  0
  -12.3360    2.2120   30.1590 C   0  0  0  0  0
  -10.8380    2.3140   30.4910 C   0  0  0  0  0
    6.4110    3.8540   29.8760 C   0  0  0  0  0
    7.7140    3.9280   29.1010 C   0  0  0  0  0
    7.6440    4.1760   27.5770 C   0  0  0  0  0
    8.7740    4.3730   26.8710 N   0  0  0  0  0
    6.4690    3.5060   31.0310 O   0  0  0  0  0
    6.5800    4.5870   27.0980 O   0  0  0  0  0
    8.7450    4.5550   25.5100 C   0  0  0  0  0
    8.1720    5.7060   24.9340 C   0  0  0  0  0
    8.1180    5.9050   23.5480 C   0  0  0  0  0
    8.7120    4.9090   22.7350 C   0  0  0  0  0
    9.2930    3.7690   23.2980 C   0  0  0  0  0
    9.3470    3.5810   24.6850 C   0  0  0  0  0
    8.7230    5.0430   21.3910 F   0  0  0  0  0
    8.6780    2.8460   29.6270 C   0  0  0  0  0
    8.9860    4.3190   29.8840 C   0  0  0  0  0
   -5.1842    6.4463   30.2444 H   0  0  0  0  0
   -2.0611    2.4890   30.8913 H   0  0  0  0  0
   -0.8793    8.2542   30.0267 H   0  0  0  0  0
    0.7153    6.3837   30.5121 H   0  0  0  0  0
   -3.4044    0.4777   30.2124 H   0  0  0  0  0
   -3.5457    0.7101   31.9722 H   0  0  0  0  0
   -4.8324   -0.1382   31.0800 H   0  0  0  0  0
    0.9077    3.6436   28.2187 H   0  0  0  0  0
    3.2856    3.8101   27.6251 H   0  0  0  0  0
    4.4277    4.1916   31.7582 H   0  0  0  0  0
    5.3837    4.5042   28.2764 H   0  0  0  0  0
   -7.4415    5.5804   29.7513 H   0  0  0  0  0
   -7.2224    5.5954   31.4794 H   0  0  0  0  0
   -9.4144    4.6621   31.3874 H   0  0  0  0  0
   -8.4957    3.1975   31.3445 H   0  0  0  0  0
   -8.3580    3.3352   28.8692 H   0  0  0  0  0
   -9.4171    4.8254   28.9558 H   0  0  0  0  0
  -11.0699    3.7180   29.4789 H   0  0  0  0  0
  -10.0568    1.5943   27.8017 H   0  0  0  0  0
  -10.3362    3.2471   27.2254 H   0  0  0  0  0
  -12.3659    1.7218   26.9264 H   0  0  0  0  0
  -12.7088    3.1372   27.8721 H   0  0  0  0  0
  -12.8917    1.7724   30.9872 H   0  0  0  0  0
  -12.7677    3.1984   29.9895 H   0  0  0  0  0
  -10.6296    2.8189   31.4343 H   0  0  0  0  0
  -10.3577    1.3500   30.6585 H   0  0  0  0  0
    9.6704    4.3873   27.3575 H   0  0  0  0  0
    7.7554    6.4698   25.5906 H   0  0  0  0  0
    7.6413    6.7849   23.1159 H   0  0  0  0  0
    9.7144    3.0077   22.6415 H   0  0  0  0  0
    9.8393    2.7084   25.1143 H   0  0  0  0  0
    9.1910    1.9606   29.2514 H   0  0  0  0  0
    8.6267    1.9147   30.1910 H   0  0  0  0  0
    9.2635    4.9599   30.7208 H   0  0  0  0  0
    9.8264    5.0058   29.7834 H   0  0  0  0  0
  1  2  4  0  0  0
  1  6  4  0  0  0
  1 11  1  0  0  0
  2  3  4  0  0  0
  2 13  1  0  0  0
  3  4  4  0  0  0
  4  5  4  0  0  0
  4  7  4  0  0  0
  5  6  4  0  0  0
  5 10  4  0  0  0
  7  8  4  0  0  0
  8  9  4  0  0  0
  9 10  4  0  0  0
 10 14  1  0  0  0
 11 12  1  0  0  0
 13 23  1  0  0  0
 14 15  1  0  0  0
 15 16  4  0  0  0
 15 20  4  0  0  0
 16 17  4  0  0  0
 17 18  4  0  0  0
 18 19  4  0  0  0
 18 22  1  0  0  0
 19 20  4  0  0  0
 20 21  1  0  0  0
 22 32  1  0  0  0
 23 24  1  0  0  0
 24 25  1  0  0  0
 25 26  1  0  0  0
 26 27  1  0  0  0
 26 31  1  0  0  0
 27 28  1  0  0  0
 28 29  1  0  0  0
 29 30  1  0  0  0
 30 31  1  0  0  0
 32 33  1  0  0  0
 32 36  2  0  0  0
 33 34  1  0  0  0
 33 45  1  0  0  0
 33 46  1  0  0  0
 34 35  1  0  0  0
 34 37  2  0  0  0
 35 38  1  0  0  0
 38 39  4  0  0  0
 38 43  4  0  0  0
 39 40  4  0  0  0
 40 41  4  0  0  0
 41 42  4  0  0  0
 41 44  1  0  0  0
 42 43  4  0  0  0
 45 46  1  0  0  0
  3 47  1  0  0  0
  6 48  1  0  0  0
  8 49  1  0  0  0
  9 50  1  0  0  0
 12 51  1  0  0  0
 12 52  1  0  0  0
 12 53  1  0  0  0
 16 54  1  0  0  0
 17 55  1  0  0  0
 19 56  1  0  0  0
 22 57  1  0  0  0
 23 58  1  0  0  0
 23 59  1  0  0  0
 24 60  1  0  0  0
 24 61  1  0  0  0
 25 62  1  0  0  0
 25 63  1  0  0  0
 26 64  1  0  0  0
 27 65  1  0  0  0
 27 66  1  0  0  0
 28 67  1  0  0  0
 28 68  1  0  0  0
 30 69  1  0  0  0
 30 70  1  0  0  0
 31 71  1  0  0  0
 31 72  1  0  0  0
 35 73  1  0  0  0
 39 74  1  0  0  0
 40 75  1  0  0  0
 42 76  1  0  0  0
 43 77  1  0  0  0
 45 78  1  0  0  0
 45 79  1  0  0  0
 46 80  1  0  0  0
 46 81  1  0  0  0
M  END
$$$$
