5yum_ligand
  -I-interpret- 

 23 22  0  0  0  0  0  0  0  0999 V2000
  -13.7380   19.8480    9.1170 N   0  3  0  0  0
  -13.2950   21.0630    8.4560 C   0  0  0  0  0
  -14.4120   21.6320    7.5830 C   0  0  0  0  0
  -14.2050   22.5800    6.8240 O   0  0  0  0  0
  -12.0260   20.8180    7.6220 C   0  0  0  0  0
  -12.2480   19.6710    6.6470 C   0  0  0  0  0
  -10.8290   20.5440    8.5230 C   0  0  0  0  0
  -11.3820   19.7690    5.4470 C   0  0  0  0  0
  -15.5490   21.1590    7.6100 O   0  0  0  0  0
  -14.5788   20.0449    9.6598 H   0  0  0  0  0
  -13.9434   19.1364    8.4157 H   0  0  0  0  0
  -13.0018   19.5124    9.7381 H   0  0  0  0  0
  -13.0477   21.7928    9.2270 H   0  0  0  0  0
  -13.2875   22.8528    6.8974 H   0  0  0  0  0
  -11.8107   21.7193    7.0481 H   0  0  0  0  0
  -13.2860   19.7073    6.3162 H   0  0  0  0  0
  -12.0055   18.7411    7.1613 H   0  0  0  0  0
  -11.0050   19.6305    9.0910 H   0  0  0  0  0
   -9.9347   20.4263    7.9111 H   0  0  0  0  0
  -10.6937   21.3798    9.2095 H   0  0  0  0  0
  -11.5936   20.7011    4.9230 H   0  0  0  0  0
  -10.3360   19.7521    5.7530 H   0  0  0  0  0
  -11.5822   18.9256    4.7862 H   0  0  0  0  0
  1  2  1  0  0  0
  2  3  1  0  0  0
  2  5  1  0  0  0
  3  4  1  0  0  0
  3  9  2  0  0  0
  5  6  1  0  0  0
  5  7  1  0  0  0
  6  8  1  0  0  0
  1 10  1  0  0  0
  1 11  1  0  0  0
  1 12  1  0  0  0
  2 13  1  0  0  0
  4 14  1  0  0  0
  5 15  1  0  0  0
  6 16  1  0  0  0
  6 17  1  0  0  0
  7 18  1  0  0  0
  7 19  1  0  0  0
  7 20  1  0  0  0
  8 21  1  0  0  0
  8 22  1  0  0  0
  8 23  1  0  0  0
M  END
$$$$
