6g2o_ligand
  -I-interpret- 

 49 52  0  0  0  0  0  0  0  0999 V2000
   -5.2680    7.8930  -24.2280 C   0  0  0  0  0
   -6.2190    7.7090  -23.2330 C   0  0  0  0  0
   -5.8750    7.3500  -21.9330 C   0  0  0  0  0
   -5.6800    8.2770  -25.6230 C   0  0  0  0  0
   -4.1220    6.7100  -20.2630 C   0  0  0  0  0
   -3.4170    7.3760  -19.2860 C   0  0  0  0  0
   -2.7260    6.6870  -16.8860 C   0  0  0  0  0
   -3.1820   11.0940  -19.1910 C   0  0  0  0  0
   -1.0060   10.3300  -19.1440 C   0  0  0  0  0
   -1.4270    8.9710  -19.1880 C   0  0  0  0  0
   -0.4330    7.9530  -19.1900 C   0  0  0  0  0
    1.2670    9.5950  -19.0730 C   0  0  0  0  0
   -4.5130    7.1400  -21.6300 C   0  0  0  0  0
   -4.0120    5.3650  -18.5830 C   0  0  0  0  0
   -2.8400    8.7370  -19.2630 C   0  0  0  0  0
   -3.7010    9.8120  -19.2810 C   0  0  0  0  0
   -6.9740    7.1950  -20.9110 C   0  0  0  0  0
   -3.5290    7.2890  -22.6320 C   0  0  0  0  0
    0.8930    8.2660  -19.0970 C   0  0  0  0  0
    0.3770   10.6230  -19.0860 C   0  0  0  0  0
   -2.0550    7.0980  -22.3730 C   0  0  0  0  0
   -3.9340    7.6800  -23.9060 C   0  0  0  0  0
    2.5940    9.8790  -18.9580 F   0  0  0  0  0
   -4.4750    5.4430  -19.8120 N   0  0  0  0  0
   -1.8900   11.3840  -19.1500 N   0  0  0  0  0
   -4.8050    9.3230  -26.2140 N   0  3  0  0  0
   -3.3460    6.4740  -18.1920 N   0  0  0  0  0
   -7.2715    7.8506  -23.4786 H   0  0  0  0  0
   -6.6927    8.6772  -25.5740 H   0  0  0  0  0
   -5.6075    7.3879  -26.2494 H   0  0  0  0  0
   -1.6642    6.8943  -17.0188 H   0  0  0  0  0
   -3.2037    7.5332  -16.3921 H   0  0  0  0  0
   -2.8493    5.7919  -16.2764 H   0  0  0  0  0
   -3.8879   11.9236  -19.1511 H   0  0  0  0  0
   -0.7342    6.9083  -19.2669 H   0  0  0  0  0
   -4.1516    4.4930  -17.9440 H   0  0  0  0  0
   -4.7766    9.6565  -19.3649 H   0  0  0  0  0
   -7.5070    8.1400  -20.8063 H   0  0  0  0  0
   -7.6668    6.4201  -21.2390 H   0  0  0  0  0
   -6.5394    6.9133  -19.9519 H   0  0  0  0  0
    1.6448    7.4786  -19.0425 H   0  0  0  0  0
    0.7234   11.6559  -19.0523 H   0  0  0  0  0
   -1.7255    7.8086  -21.6150 H   0  0  0  0  0
   -1.8779    6.0816  -22.0214 H   0  0  0  0  0
   -1.5004    7.2663  -23.2961 H   0  0  0  0  0
   -3.1774    7.8239  -24.6773 H   0  0  0  0  0
   -5.1291    9.5435  -27.1557 H   0  0  0  0  0
   -4.8418   10.1621  -25.6353 H   0  0  0  0  0
   -3.8458    8.9787  -26.2552 H   0  0  0  0  0
  2  1  4  0  0  0
  1  4  1  0  0  0
  1 22  4  0  0  0
  3  2  4  0  0  0
 13  3  4  0  0  0
  3 17  1  0  0  0
  4 26  1  0  0  0
  6  5  4  0  0  0
  5 13  1  0  0  0
  5 24  4  0  0  0
 15  6  1  0  0  0
  6 27  4  0  0  0
 27  7  1  0  0  0
  8 16  4  0  0  0
 25  8  4  0  0  0
 10  9  4  0  0  0
  9 20  4  0  0  0
  9 25  4  0  0  0
 10 11  4  0  0  0
 10 15  4  0  0  0
 11 19  4  0  0  0
 19 12  4  0  0  0
 12 20  4  0  0  0
 12 23  1  0  0  0
 13 18  4  0  0  0
 24 14  4  0  0  0
 14 27  4  0  0  0
 15 16  4  0  0  0
 18 21  1  0  0  0
 18 22  4  0  0  0
  2 28  1  0  0  0
  4 29  1  0  0  0
  4 30  1  0  0  0
  7 31  1  0  0  0
  7 32  1  0  0  0
  7 33  1  0  0  0
  8 34  1  0  0  0
 11 35  1  0  0  0
 14 36  1  0  0  0
 16 37  1  0  0  0
 17 38  1  0  0  0
 17 39  1  0  0  0
 17 40  1  0  0  0
 19 41  1  0  0  0
 20 42  1  0  0  0
 21 43  1  0  0  0
 21 44  1  0  0  0
 21 45  1  0  0  0
 22 46  1  0  0  0
 26 47  1  0  0  0
 26 48  1  0  0  0
 26 49  1  0  0  0
M  END
$$$$
