5uw5_ligand
  -I-interpret- 

 79 79  0  0  0  0  0  0  0  0999 V2000
   86.7770    7.5970  158.2720 N   0  3  0  0  0
   86.2050    6.3350  157.7650 C   0  0  0  0  0
   85.7450    5.3990  158.8860 C   0  0  0  0  0
   85.9680    4.1950  158.8370 O   0  0  0  0  0
   87.2170    5.6180  156.8440 C   0  0  0  0  0
   86.6220    4.4080  156.1020 C   0  0  0  0  0
   85.4350    4.3710  155.7740 O   0  0  0  0  0
   87.4740    3.4150  155.8170 N   0  0  0  0  0
   85.0420    5.9510  159.8650 N   0  0  0  0  0
   84.5340    5.1580  160.9930 C   0  0  0  0  0
   83.5590    4.1060  160.5020 C   0  0  0  0  0
   82.8650    4.3030  159.5230 O   0  0  0  0  0
   83.8550    6.0370  162.0300 C   0  0  0  0  0
   83.5670    2.9640  161.1670 N   0  0  0  0  0
   82.7980    1.7990  160.7390 C   0  0  0  0  0
   81.3030    2.0190  160.8820 C   0  0  0  0  0
   80.5070    1.4440  160.1480 O   0  0  0  0  0
   83.2150    0.6000  161.5800 C   0  0  0  0  0
   82.8470    0.8020  162.9400 O   0  0  0  0  0
   80.9250    2.8350  161.8570 N   0  0  0  0  0
   79.5160    2.9770  162.2310 C   0  0  0  0  0
   79.3120    4.1850  163.1480 C   0  0  0  0  0
   80.1210    4.4220  164.0420 O   0  0  0  0  0
   79.0400    1.7050  162.9250 C   0  0  0  0  0
   78.2320    4.9500  162.9410 N   0  0  0  0  0
   77.9450    6.0940  163.7880 C   0  0  0  0  0
   77.3460    5.6670  165.1210 C   0  0  0  0  0
   76.1630    5.8030  165.3540 O   0  0  0  0  0
   76.9160    6.8580  162.9800 C   0  0  0  0  0
   76.1490    5.7890  162.2980 C   0  0  0  0  0
   77.1730    4.7400  161.9440 C   0  0  0  0  0
   78.1900    5.1490  165.9890 N   0  0  0  0  0
   77.7920    4.7900  167.3220 C   0  0  0  0  0
   77.6340    6.0570  168.1650 C   0  0  0  0  0
   76.8240    6.0690  169.0880 O   0  0  0  0  0
   78.8500    3.8700  167.9570 C   0  0  0  0  0
   78.4240    3.4300  169.3520 C   0  0  0  0  0
   79.0730    2.6510  167.0820 C   0  0  0  0  0
   78.3200    7.0420  167.9060 O   0  0  0  0  0
   86.0977    8.0577  158.8775 H   0  0  0  0  0
   87.6251    7.3959  158.8017 H   0  0  0  0  0
   87.0022    8.2068  157.4860 H   0  0  0  0  0
   85.3166    6.5984  157.1910 H   0  0  0  0  0
   88.0283    5.2503  157.4723 H   0  0  0  0  0
   87.5412    6.3367  156.0914 H   0  0  0  0  0
   87.1469    2.5917  155.3115 H   0  0  0  0  0
   88.4501    3.4820  156.1054 H   0  0  0  0  0
   84.8487    6.9521  159.8345 H   0  0  0  0  0
   85.3885    4.6709  161.4627 H   0  0  0  0  0
   84.5711    6.7640  162.4131 H   0  0  0  0  0
   83.0166    6.5591  161.5690 H   0  0  0  0  0
   83.4920    5.4162  162.8491 H   0  0  0  0  0
   84.1328    2.8937  162.0128 H   0  0  0  0  0
   83.0052    1.6243  159.6832 H   0  0  0  0  0
   84.2964    0.4788  161.5171 H   0  0  0  0  0
   82.7139   -0.2917  161.2034 H   0  0  0  0  0
   83.1149    0.0403  163.4593 H   0  0  0  0  0
   81.6309    3.3753  162.3572 H   0  0  0  0  0
   78.9306    3.1374  161.3256 H   0  0  0  0  0
   79.1518    0.8590  162.2468 H   0  0  0  0  0
   79.6378    1.5358  163.8206 H   0  0  0  0  0
   77.9914    1.8143  163.2018 H   0  0  0  0  0
   78.8375    6.6693  164.0339 H   0  0  0  0  0
   77.3708    7.5581  162.2792 H   0  0  0  0  0
   76.2850    7.4938  163.6011 H   0  0  0  0  0
   75.6318    6.1634  161.4146 H   0  0  0  0  0
   75.3619    5.3866  162.9357 H   0  0  0  0  0
   76.7651    3.7296  161.9721 H   0  0  0  0  0
   77.5355    4.8365  160.9206 H   0  0  0  0  0
   79.1581    4.9977  165.7057 H   0  0  0  0  0
   76.8407    4.2594  167.2825 H   0  0  0  0  0
   76.3846    5.2169  169.1377 H   0  0  0  0  0
   79.7806    4.4313  168.0407 H   0  0  0  0  0
   78.2975    4.3078  169.9856 H   0  0  0  0  0
   77.4808    2.8873  169.2882 H   0  0  0  0  0
   79.1900    2.7811  169.7767 H   0  0  0  0  0
   78.1365    2.1028  166.9793 H   0  0  0  0  0
   79.4187    2.9696  166.0986 H   0  0  0  0  0
   79.8234    2.0078  167.5416 H   0  0  0  0  0
  1  2  1  0  0  0
  2  3  1  0  0  0
  2  5  1  0  0  0
  3  4  2  0  0  0
  3  9  1  0  0  0
  5  6  1  0  0  0
  6  7  2  0  0  0
  6  8  1  0  0  0
  9 10  1  0  0  0
 10 11  1  0  0  0
 10 13  1  0  0  0
 11 12  2  0  0  0
 11 14  1  0  0  0
 14 15  1  0  0  0
 15 16  1  0  0  0
 15 18  1  0  0  0
 16 17  2  0  0  0
 16 20  1  0  0  0
 18 19  1  0  0  0
 20 21  1  0  0  0
 21 22  1  0  0  0
 21 24  1  0  0  0
 22 23  2  0  0  0
 22 25  1  0  0  0
 25 26  1  0  0  0
 25 31  1  0  0  0
 26 27  1  0  0  0
 26 29  1  0  0  0
 27 28  2  0  0  0
 27 32  1  0  0  0
 29 30  1  0  0  0
 30 31  1  0  0  0
 32 33  1  0  0  0
 33 34  1  0  0  0
 33 36  1  0  0  0
 34 35  1  0  0  0
 34 39  2  0  0  0
 36 37  1  0  0  0
 36 38  1  0  0  0
  1 40  1  0  0  0
  1 41  1  0  0  0
  1 42  1  0  0  0
  2 43  1  0  0  0
  5 44  1  0  0  0
  5 45  1  0  0  0
  8 46  1  0  0  0
  8 47  1  0  0  0
  9 48  1  0  0  0
 10 49  1  0  0  0
 13 50  1  0  0  0
 13 51  1  0  0  0
 13 52  1  0  0  0
 14 53  1  0  0  0
 15 54  1  0  0  0
 18 55  1  0  0  0
 18 56  1  0  0  0
 19 57  1  0  0  0
 20 58  1  0  0  0
 21 59  1  0  0  0
 24 60  1  0  0  0
 24 61  1  0  0  0
 24 62  1  0  0  0
 26 63  1  0  0  0
 29 64  1  0  0  0
 29 65  1  0  0  0
 30 66  1  0  0  0
 30 67  1  0  0  0
 31 68  1  0  0  0
 31 69  1  0  0  0
 32 70  1  0  0  0
 33 71  1  0  0  0
 35 72  1  0  0  0
 36 73  1  0  0  0
 37 74  1  0  0  0
 37 75  1  0  0  0
 37 76  1  0  0  0
 38 77  1  0  0  0
 38 78  1  0  0  0
 38 79  1  0  0  0
M  END
$$$$
