6nm4_ligand
  -I-interpret- 

 67 71  0  0  0  0  0  0  0  0999 V2000
    0.6860  -30.2590   18.8440 C   0  0  0  0  0
    0.2100  -31.9030   22.0350 C   0  0  0  0  0
    0.4740  -31.8050   23.4010 C   0  0  0  0  0
   -1.4790  -35.8290   25.0650 N   0  0  0  0  0
    0.0130  -32.8740   24.3260 C   0  0  0  0  0
   -0.8480  -34.6670   24.9760 C   0  0  0  0  0
   -5.9800  -34.5940   22.7470 N   0  0  0  0  0
   -2.2200  -36.2880   23.8910 C   0  0  0  0  0
   -3.7630  -36.0840   24.0870 C   0  0  0  0  0
   -4.0830  -34.6070   24.3660 C   0  0  0  0  0
   -5.4900  -34.1200   24.0480 C   0  0  0  0  0
   -9.7430  -33.1030   21.5660 N   0  0  0  0  0
   -7.2380  -34.0960   22.3470 C   0  0  0  0  0
   -7.8890  -33.0950   23.0770 C   0  0  0  0  0
   -9.1300  -32.6240   22.6690 C   0  0  0  0  0
   -4.1230  -37.0650   25.1840 N   0  3  0  0  0
   -5.3730  -36.8760   25.9340 C   0  0  0  0  0
   -4.3920  -36.4860   22.7450 C   0  0  0  0  0
   -5.8420  -36.0480   22.6260 C   0  0  0  0  0
   -7.8850  -34.5790   21.2100 C   0  0  0  0  0
   -9.1170  -34.0580   20.8670 C   0  0  0  0  0
   -9.8490  -31.5590   23.4390 C   0  0  0  0  0
   -3.0080  -37.4860   26.0560 C   0  0  0  0  0
   -2.0350  -36.3340   26.3250 C   0  0  0  0  0
   -0.2800  -34.1060   26.0560 O   0  0  0  0  0
    0.2970  -32.8840   25.6000 N   0  0  0  0  0
   -0.7050  -33.9570   23.8910 N   0  0  0  0  0
    0.7180  -30.9480   21.1630 C   0  0  0  0  0
    0.3070  -31.1800   19.8700 O   0  0  0  0  0
    1.4960  -29.8970   21.6310 C   0  0  0  0  0
    1.2250  -30.7360   23.8850 C   0  0  0  0  0
    1.7260  -29.7940   22.9980 C   0  0  0  0  0
    2.3940  -28.7980   23.6600 O   0  0  0  0  0
    2.9270  -27.7120   22.9020 C   0  0  0  0  0
    0.2937  -29.2703   19.0820 H   0  0  0  0  0
    1.7733  -30.2144   18.7811 H   0  0  0  0  0
    0.2790  -30.5927   17.8895 H   0  0  0  0  0
   -0.3931  -32.7265   21.6526 H   0  0  0  0  0
   -2.0228  -37.3501   23.7455 H   0  0  0  0  0
   -1.8974  -35.7098   23.0251 H   0  0  0  0  0
   -3.4209  -34.0356   23.7155 H   0  0  0  0  0
   -3.9648  -34.4795   25.4420 H   0  0  0  0  0
   -6.1580  -34.5089   24.8165 H   0  0  0  0  0
   -5.4657  -33.0307   24.0173 H   0  0  0  0  0
   -7.4196  -32.6830   23.9703 H   0  0  0  0  0
   -4.3515  -37.8537   24.5790 H   0  0  0  0  0
   -5.3534  -35.9066   26.4319 H   0  0  0  0  0
   -6.2175  -36.9156   25.2460 H   0  0  0  0  0
   -5.4717  -37.6662   26.6783 H   0  0  0  0  0
   -4.3626  -37.5732   22.6727 H   0  0  0  0  0
   -3.8276  -35.9984   21.9502 H   0  0  0  0  0
   -6.2123  -36.3480   21.6457 H   0  0  0  0  0
   -6.4093  -36.5152   23.4310 H   0  0  0  0  0
   -7.4248  -35.3568   20.6006 H   0  0  0  0  0
   -9.6085  -34.4469   19.9752 H   0  0  0  0  0
  -10.0123  -30.6946   22.7953 H   0  0  0  0  0
  -10.8091  -31.9453   23.7813 H   0  0  0  0  0
   -9.2469  -31.2648   24.2987 H   0  0  0  0  0
   -2.4633  -38.2865   25.5555 H   0  0  0  0  0
   -3.4221  -37.8160   27.0087 H   0  0  0  0  0
   -2.5702  -35.5270   26.8254 H   0  0  0  0  0
   -1.2206  -36.6965   26.9522 H   0  0  0  0  0
    1.9179  -29.1673   20.9399 H   0  0  0  0  0
    1.4177  -30.6403   24.9535 H   0  0  0  0  0
    3.6456  -28.0946   22.1772 H   0  0  0  0  0
    2.1170  -27.2036   22.3790 H   0  0  0  0  0
    3.4239  -27.0115   23.5732 H   0  0  0  0  0
 29  1  1  0  0  0
  2  3  4  0  0  0
 28  2  4  0  0  0
  3  5  1  0  0  0
  3 31  4  0  0  0
  6  4  1  0  0  0
  4  8  1  0  0  0
  4 24  1  0  0  0
  5 26  4  0  0  0
  5 27  4  0  0  0
  6 25  4  0  0  0
 27  6  4  0  0  0
 11  7  1  0  0  0
  7 13  1  0  0  0
 19  7  1  0  0  0
  8  9  1  0  0  0
  9 10  1  0  0  0
  9 16  1  0  0  0
  9 18  1  0  0  0
 10 11  1  0  0  0
 15 12  4  0  0  0
 21 12  4  0  0  0
 13 14  4  0  0  0
 13 20  4  0  0  0
 14 15  4  0  0  0
 15 22  1  0  0  0
 16 17  1  0  0  0
 23 16  1  0  0  0
 18 19  1  0  0  0
 20 21  4  0  0  0
 24 23  1  0  0  0
 26 25  4  0  0  0
 28 29  1  0  0  0
 28 30  4  0  0  0
 30 32  4  0  0  0
 31 32  4  0  0  0
 32 33  1  0  0  0
 33 34  1  0  0  0
  1 35  1  0  0  0
  1 36  1  0  0  0
  1 37  1  0  0  0
  2 38  1  0  0  0
  8 39  1  0  0  0
  8 40  1  0  0  0
 10 41  1  0  0  0
 10 42  1  0  0  0
 11 43  1  0  0  0
 11 44  1  0  0  0
 14 45  1  0  0  0
 16 46  1  0  0  0
 17 47  1  0  0  0
 17 48  1  0  0  0
 17 49  1  0  0  0
 18 50  1  0  0  0
 18 51  1  0  0  0
 19 52  1  0  0  0
 19 53  1  0  0  0
 20 54  1  0  0  0
 21 55  1  0  0  0
 22 56  1  0  0  0
 22 57  1  0  0  0
 22 58  1  0  0  0
 23 59  1  0  0  0
 23 60  1  0  0  0
 24 61  1  0  0  0
 24 62  1  0  0  0
 30 63  1  0  0  0
 31 64  1  0  0  0
 34 65  1  0  0  0
 34 66  1  0  0  0
 34 67  1  0  0  0
M  END
$$$$
