5mnx_ligand
  -I-interpret- 

 13 13  0  0  0  0  0  0  0  0999 V2000
   -2.3420  -14.1550  -17.7720 N   0  0  0  0  0
   -1.8700  -15.3900  -17.5070 C   0  0  0  0  0
   -1.3250  -15.6290  -16.2320 C   0  0  0  0  0
   -1.2890  -14.5990  -15.3120 C   0  0  0  0  0
   -1.7850  -13.3530  -15.6270 C   0  0  0  0  0
   -2.3150  -13.1570  -16.8700 C   0  0  0  0  0
   -1.9360  -16.3130  -18.4580 N   0  0  0  0  0
   -0.9363  -16.6140  -15.9735 H   0  0  0  0  0
   -0.8627  -14.7745  -14.3243 H   0  0  0  0  0
   -1.7550  -12.5414  -14.9000 H   0  0  0  0  0
   -2.7210  -12.1806  -17.1346 H   0  0  0  0  0
   -2.3375  -16.0813  -19.3666 H   0  0  0  0  0
   -1.5852  -17.2542  -18.2805 H   0  0  0  0  0
  1  2  4  0  0  0
  1  6  4  0  0  0
  2  3  4  0  0  0
  2  7  1  0  0  0
  3  4  4  0  0  0
  4  5  4  0  0  0
  5  6  4  0  0  0
  3  8  1  0  0  0
  4  9  1  0  0  0
  5 10  1  0  0  0
  6 11  1  0  0  0
  7 12  1  0  0  0
  7 13  1  0  0  0
M  END
$$$$
