2g79_ligand
  -I-interpret- 

 49 49  0  0  0  0  0  0  0  0999 V2000
   21.7940    6.4900  -21.2990 C   0  0  0  0  0
   21.0390    7.2510  -22.3780 C   0  0  0  0  0
   20.3520    6.2920  -23.3370 C   0  0  0  0  0
   19.2600    5.6010  -22.5430 C   0  0  0  0  0
   19.8760    4.8340  -21.4040 C   0  0  0  0  0
   21.0430    5.2370  -20.8310 C   0  0  0  0  0
   21.6810    4.5570  -19.6790 C   0  0  0  0  0
   21.0940    3.6690  -18.8940 C   0  0  0  0  0
   21.7880    3.0910  -17.7450 C   0  0  0  0  0
   21.0710    2.2090  -17.0310 C   0  0  0  0  0
   21.5700    1.5290  -15.8630 C   0  0  0  0  0
   20.7260    0.6830  -15.2670 C   0  0  0  0  0
   21.1190   -0.0760  -14.0590 C   0  0  0  0  0
   20.1720   -0.8200  -13.4680 C   0  0  0  0  0
   20.3660   -1.6310  -12.2650 C   0  0  0  0  0
   21.4350   -1.7540  -11.6910 O   0  0  0  0  0
   22.0030    7.4310  -20.1130 C   0  0  0  0  0
   23.1720    6.1210  -21.8420 C   0  0  0  0  0
   19.0820    3.6230  -20.9990 C   0  0  0  0  0
   23.2240    3.4340  -17.4100 C   0  0  0  0  0
   22.5260   -0.0350  -13.5200 C   0  0  0  0  0
   21.7478    7.8603  -22.9388 H   0  0  0  0  0
   20.2817    7.8746  -21.9029 H   0  0  0  0  0
   21.0601    5.5680  -23.7402 H   0  0  0  0  0
   19.9361    6.8250  -24.1920 H   0  0  0  0  0
   18.7182    4.9136  -23.1927 H   0  0  0  0  0
   18.5709    6.3473  -22.1476 H   0  0  0  0  0
   22.7187    4.8093  -19.4609 H   0  0  0  0  0
   20.0705    3.3616  -19.1087 H   0  0  0  0  0
   20.0521    1.9948  -17.3536 H   0  0  0  0  0
   22.5794    1.6957  -15.4870 H   0  0  0  0  0
   19.7260    0.5486  -15.6792 H   0  0  0  0  0
   19.1798   -0.8206  -13.9192 H   0  0  0  0  0
   19.5026   -2.1569  -11.8574 H   0  0  0  0  0
   22.5908    6.9240  -19.3478 H   0  0  0  0  0
   22.5321    8.3233  -20.4476 H   0  0  0  0  0
   21.0346    7.7145  -19.7007 H   0  0  0  0  0
   23.6900    7.0258  -22.1602 H   0  0  0  0  0
   23.7487    5.6265  -21.0603 H   0  0  0  0  0
   23.0580    5.4482  -22.6919 H   0  0  0  0  0
   19.6955    2.7304  -21.1210 H   0  0  0  0  0
   18.7818    3.7192  -19.9556 H   0  0  0  0  0
   18.1951    3.5446  -21.6278 H   0  0  0  0  0
   23.2719    3.8474  -16.4026 H   0  0  0  0  0
   23.8336    2.5320  -17.4634 H   0  0  0  0  0
   23.5967    4.1687  -18.1237 H   0  0  0  0  0
   22.5109    0.3404  -12.4968 H   0  0  0  0  0
   22.9483   -1.0398  -13.5335 H   0  0  0  0  0
   23.1327    0.6239  -14.1413 H   0  0  0  0  0
  1  2  1  0  0  0
  1  6  1  0  0  0
  1 17  1  0  0  0
  1 18  1  0  0  0
  2  3  1  0  0  0
  3  4  1  0  0  0
  4  5  1  0  0  0
  5  6  2  0  0  0
  5 19  1  0  0  0
  6  7  1  0  0  0
  7  8  2  0  0  0
  8  9  1  0  0  0
  9 10  2  0  0  0
  9 20  1  0  0  0
 10 11  1  0  0  0
 11 12  2  0  0  0
 12 13  1  0  0  0
 13 14  2  0  0  0
 13 21  1  0  0  0
 14 15  1  0  0  0
 15 16  2  0  0  0
  2 22  1  0  0  0
  2 23  1  0  0  0
  3 24  1  0  0  0
  3 25  1  0  0  0
  4 26  1  0  0  0
  4 27  1  0  0  0
  7 28  1  0  0  0
  8 29  1  0  0  0
 10 30  1  0  0  0
 11 31  1  0  0  0
 12 32  1  0  0  0
 14 33  1  0  0  0
 15 34  1  0  0  0
 17 35  1  0  0  0
 17 36  1  0  0  0
 17 37  1  0  0  0
 18 38  1  0  0  0
 18 39  1  0  0  0
 18 40  1  0  0  0
 19 41  1  0  0  0
 19 42  1  0  0  0
 19 43  1  0  0  0
 20 44  1  0  0  0
 20 45  1  0  0  0
 20 46  1  0  0  0
 21 47  1  0  0  0
 21 48  1  0  0  0
 21 49  1  0  0  0
M  END
$$$$
