3uf9_ligand
  -I-interpret- 

 36 36  0  0  0  0  0  0  0  0999 V2000
  -18.3200   17.9700  -20.7360 C   0  0  0  0  0
  -17.6280   16.8530  -21.7610 S   0  0  0  0  0
  -18.6440   16.5500  -23.0210 O   0  0  0  0  0
  -16.2010   17.3940  -22.2530 C   0  0  0  0  0
  -15.0300   16.8190  -21.7650 C   0  0  0  0  0
  -13.7830   17.2810  -22.1830 C   0  0  0  0  0
  -13.7000   18.3310  -23.0900 C   0  0  0  0  0
  -14.8690   18.9040  -23.5790 C   0  0  0  0  0
  -16.1150   18.4430  -23.1610 C   0  0  0  0  0
  -12.4840   18.7980  -23.5250 O   0  0  0  0  0
  -11.2830   19.2100  -22.5330 P   0  0  0  0  0
  -10.1630   20.6180  -23.2840 S   0  0  0  0  0
  -11.9660   19.6200  -21.1340 O   0  0  0  0  0
  -12.8650   20.7220  -21.0570 C   0  0  0  0  0
  -12.6250   21.6490  -22.2280 C   0  0  0  0  0
  -10.4590   17.8580  -22.2420 O   0  0  0  0  0
   -9.7980   17.6580  -20.9930 C   0  0  0  0  0
  -10.0990   16.2680  -20.4750 C   0  0  0  0  0
  -17.6705   18.1214  -19.8739 H   0  0  0  0  0
  -18.4505   18.9143  -21.2645 H   0  0  0  0  0
  -19.2901   17.6023  -20.4015 H   0  0  0  0  0
  -19.4836   16.2293  -22.6836 H   0  0  0  0  0
  -15.0893   15.9994  -21.0489 H   0  0  0  0  0
  -12.8735   16.8191  -21.7988 H   0  0  0  0  0
  -14.8095   19.7222  -24.2967 H   0  0  0  0  0
  -17.0238   18.9053  -23.5463 H   0  0  0  0  0
  -12.6993   21.2625  -20.1250 H   0  0  0  0  0
  -13.8916   20.3569  -21.0862 H   0  0  0  0  0
  -11.5981   22.0133  -22.1969 H   0  0  0  0  0
  -12.7915   21.1070  -23.1589 H   0  0  0  0  0
  -13.3130   22.4924  -22.1691 H   0  0  0  0  0
  -10.1520   18.3967  -20.2739 H   0  0  0  0  0
   -8.7224   17.7676  -21.1312 H   0  0  0  0  0
  -11.1747   16.1579  -20.3375 H   0  0  0  0  0
   -9.7458   15.5292  -21.1944 H   0  0  0  0  0
   -9.5925   16.1195  -19.5213 H   0  0  0  0  0
  1  2  1  0  0  0
  2  3  1  0  0  0
  2  4  1  0  0  0
  4  5  4  0  0  0
  4  9  4  0  0  0
  5  6  4  0  0  0
  6  7  4  0  0  0
  7  8  4  0  0  0
  7 10  1  0  0  0
  8  9  4  0  0  0
 10 11  1  0  0  0
 11 12  2  0  0  0
 11 13  1  0  0  0
 11 16  1  0  0  0
 13 14  1  0  0  0
 14 15  1  0  0  0
 16 17  1  0  0  0
 17 18  1  0  0  0
  1 19  1  0  0  0
  1 20  1  0  0  0
  1 21  1  0  0  0
  3 22  1  0  0  0
  5 23  1  0  0  0
  6 24  1  0  0  0
  8 25  1  0  0  0
  9 26  1  0  0  0
 14 27  1  0  0  0
 14 28  1  0  0  0
 15 29  1  0  0  0
 15 30  1  0  0  0
 15 31  1  0  0  0
 17 32  1  0  0  0
 17 33  1  0  0  0
 18 34  1  0  0  0
 18 35  1  0  0  0
 18 36  1  0  0  0
M  END
$$$$
