2hzl_ligand
  -I-interpret- 

 10  9  0  0  0  0  0  0  0  0999 V2000
   63.0350   76.2620   27.3310 C   0  0  0  0  0
   63.8110   75.2510   27.5920 O   0  0  0  0  0
   63.5600   77.4570   27.2800 O   0  0  0  0  0
   61.6580   76.1090   27.1100 C   0  0  0  0  0
   60.9730   77.1310   26.6870 O   0  0  0  0  0
   60.9450   74.8150   27.3390 C   0  0  0  0  0
   62.8742   78.0983   27.0799 H   0  0  0  0  0
   60.1671   74.9580   28.0890 H   0  0  0  0  0
   60.4938   74.4800   26.4050 H   0  0  0  0  0
   61.6561   74.0669   27.6893 H   0  0  0  0  0
  1  2  2  0  0  0
  1  3  1  0  0  0
  1  4  1  0  0  0
  4  5  2  0  0  0
  4  6  1  0  0  0
  3  7  1  0  0  0
  6  8  1  0  0  0
  6  9  1  0  0  0
  6 10  1  0  0  0
M  END
$$$$
