3l59_ligand
  -I-interpret- 

 31 32  0  0  0  0  0  0  0  0999 V2000
   21.8790   10.2430   24.6060 C   0  0  0  0  0
   21.8050   10.8280   25.8180 N   0  0  0  0  0
   19.4080   12.4070   23.7710 O   0  0  0  0  0
   20.2960   11.7210   24.2840 C   0  0  0  0  0
   21.0120   10.7430   23.7050 N   0  0  0  0  0
   20.7700   11.8420   25.7270 C   0  0  0  0  0
   22.7220    9.2610   24.3100 N   0  0  0  0  0
   19.5620   11.4830   26.6010 C   0  0  0  0  0
   21.3460   13.2660   25.9330 C   0  0  0  0  0
   20.8800   10.3020   22.3180 C   0  0  0  0  0
   21.8480   11.0640   21.4370 C   0  0  0  0  0
   21.5880   12.4270   21.1030 C   0  0  0  0  0
   22.4990   13.1500   20.2760 C   0  0  0  0  0
   23.6710   12.5130   19.7850 C   0  0  0  0  0
   23.9350   11.1570   20.1150 C   0  0  0  0  0
   23.0270   10.4300   20.9410 C   0  0  0  0  0
   25.3620   10.3970   19.5100 Cl  0  0  0  0  0
   22.3666   10.6023   26.6390 H   0  0  0  0  0
   22.7276    8.8588   23.3727 H   0  0  0  0  0
   19.8424   11.5519   27.6521 H   0  0  0  0  0
   18.7470   12.1768   26.3948 H   0  0  0  0  0
   19.2411   10.4661   26.3751 H   0  0  0  0  0
   20.5754   14.0040   25.7101 H   0  0  0  0  0
   21.6708   13.3790   26.9673 H   0  0  0  0  0
   22.1955   13.4129   25.2660 H   0  0  0  0  0
   19.8617   10.4899   21.9776 H   0  0  0  0  0
   21.1032    9.2368   22.2579 H   0  0  0  0  0
   20.6908   12.9173   21.4808 H   0  0  0  0  0
   22.2962   14.1902   20.0210 H   0  0  0  0  0
   24.3677   13.0656   19.1547 H   0  0  0  0  0
   23.2335    9.3900   21.1935 H   0  0  0  0  0
  1  2  1  0  0  0
  5  1  4  0  0  0
  1  7  2  0  0  0
  2  6  1  0  0  0
  4  3  2  0  0  0
  4  5  1  0  0  0
  4  6  1  0  0  0
  5 10  1  0  0  0
  6  8  1  0  0  0
  6  9  1  0  0  0
 10 11  1  0  0  0
 11 12  4  0  0  0
 11 16  4  0  0  0
 12 13  4  0  0  0
 13 14  4  0  0  0
 14 15  4  0  0  0
 15 16  4  0  0  0
 15 17  1  0  0  0
  2 18  1  0  0  0
  7 19  1  0  0  0
  8 20  1  0  0  0
  8 21  1  0  0  0
  8 22  1  0  0  0
  9 23  1  0  0  0
  9 24  1  0  0  0
  9 25  1  0  0  0
 10 26  1  0  0  0
 10 27  1  0  0  0
 12 28  1  0  0  0
 13 29  1  0  0  0
 14 30  1  0  0  0
 16 31  1  0  0  0
M  END
$$$$
