5zwf_ligand
  -I-interpret- 

 72 74  0  0  0  0  0  0  0  0999 V2000
   10.2600    2.6730   27.5920 O   0  0  0  0  0
   10.2030    1.4820   27.9480 C   0  0  0  0  0
    8.9600    0.9740   28.7240 C   0  0  0  0  0
    9.1890   -0.2830   29.6290 C   0  0  0  0  0
    7.8590   -0.9700   29.8470 C   0  0  0  0  0
   11.3670    0.5630   27.5850 C   0  0  0  0  0
   12.4980    1.2460   26.8330 C   0  0  0  0  0
   12.8510    2.4880   27.6150 C   0  0  0  0  0
   13.3410    1.9980   28.9800 C   0  0  0  0  0
   13.9220    3.3540   26.9620 C   0  0  0  0  0
   14.8290    2.6570   25.9270 C   0  0  0  0  0
   15.3660    3.7770   25.0240 C   0  0  0  0  0
   14.7670    5.0330   25.6410 C   0  0  0  0  0
   13.4530    4.6440   26.2690 C   0  0  0  0  0
   12.4020    4.3960   25.1710 C   0  0  0  0  0
   13.0560    5.7790   27.2010 C   0  0  0  0  0
   12.9670    7.0890   26.4040 C   0  0  0  0  0
   14.2710    7.4500   25.6560 C   0  0  0  0  0
   14.6130    6.2600   24.8160 C   0  0  0  0  0
   14.7790    6.2680   23.4890 C   0  0  0  0  0
   14.5630    7.4710   22.6890 C   0  0  0  0  0
   14.3120    7.4550   21.3510 C   0  0  0  0  0
   14.2720    6.1990   20.5010 C   0  0  0  0  0
   14.0590    8.7900   20.7260 C   0  0  0  0  0
   14.6760    8.8940   19.3390 C   0  0  0  0  0
   16.0960    8.9760   19.3430 O   0  0  0  0  0
   14.3340    7.6970   18.5270 C   0  0  0  0  0
   13.7650    7.8490   17.3540 C   0  0  0  0  0
   14.7200    6.3590   19.0540 C   0  0  0  0  0
   14.2120    5.3040   18.2050 O   0  0  0  0  0
    8.2257    0.6830   27.9728 H   0  0  0  0  0
    8.6612    1.7830   29.3905 H   0  0  0  0  0
    9.6107    0.0214   30.5869 H   0  0  0  0  0
    9.8850   -0.9675   29.1440 H   0  0  0  0  0
    7.1711   -0.2803   30.3362 H   0  0  0  0  0
    7.4470   -1.2749   28.8850 H   0  0  0  0  0
    8.0039   -1.8481   30.4763 H   0  0  0  0  0
   10.9696   -0.2116   26.9291 H   0  0  0  0  0
   11.7845    0.1918   28.5210 H   0  0  0  0  0
   12.1919    1.4999   25.8181 H   0  0  0  0  0
   13.3601    0.5850   26.7440 H   0  0  0  0  0
   11.9714    3.1288   27.6761 H   0  0  0  0  0
   12.5461    1.4352   29.4693 H   0  0  0  0  0
   14.2113    1.3561   28.8432 H   0  0  0  0  0
   13.6133    2.8551   29.5960 H   0  0  0  0  0
   14.4729    3.5916   27.8720 H   0  0  0  0  0
   14.2775    1.9130   25.3522 H   0  0  0  0  0
   15.6402    2.1135   26.4114 H   0  0  0  0  0
   15.0870    3.6463   23.9784 H   0  0  0  0  0
   16.4550    3.8033   24.9868 H   0  0  0  0  0
   15.5246    5.3687   26.3491 H   0  0  0  0  0
   12.8248    3.7456   24.4054 H   0  0  0  0  0
   11.5251    3.9202   25.6100 H   0  0  0  0  0
   12.1148    5.3474   24.7232 H   0  0  0  0  0
   13.8041    5.8821   27.9870 H   0  0  0  0  0
   12.0866    5.5594   27.6484 H   0  0  0  0  0
   12.7661    7.8904   27.1149 H   0  0  0  0  0
   12.1854    6.9627   25.6548 H   0  0  0  0  0
   15.0743    7.6813   26.3555 H   0  0  0  0  0
   14.1379    8.3401   25.0411 H   0  0  0  0  0
   15.0848    5.3489   22.9892 H   0  0  0  0  0
   14.6052    8.4370   23.1922 H   0  0  0  0  0
   13.2286    5.8856   20.4660 H   0  0  0  0  0
   14.9661    5.4955   20.9608 H   0  0  0  0  0
   14.5102    9.5543   21.3587 H   0  0  0  0  0
   12.9814    8.9241   20.6314 H   0  0  0  0  0
   14.2667    9.8149   18.9237 H   0  0  0  0  0
   16.4143    9.0389   18.4395 H   0  0  0  0  0
   13.5457    8.8491   16.9801 H   0  0  0  0  0
   13.5118    6.9751   16.7538 H   0  0  0  0  0
   15.8072    6.2819   19.0431 H   0  0  0  0  0
   14.5174    5.4436   17.3056 H   0  0  0  0  0
  1  2  2  0  0  0
  2  3  1  0  0  0
  2  6  1  0  0  0
  3  4  1  0  0  0
  4  5  1  0  0  0
  6  7  1  0  0  0
  7  8  1  0  0  0
  8  9  1  0  0  0
  8 10  1  0  0  0
 10 11  1  0  0  0
 10 14  1  0  0  0
 11 12  1  0  0  0
 12 13  1  0  0  0
 13 14  1  0  0  0
 13 19  1  0  0  0
 14 15  1  0  0  0
 14 16  1  0  0  0
 16 17  1  0  0  0
 17 18  1  0  0  0
 18 19  1  0  0  0
 19 20  2  0  0  0
 20 21  1  0  0  0
 21 22  2  0  0  0
 22 23  1  0  0  0
 22 24  1  0  0  0
 23 29  1  0  0  0
 24 25  1  0  0  0
 25 26  1  0  0  0
 25 27  1  0  0  0
 27 28  2  0  0  0
 27 29  1  0  0  0
 29 30  1  0  0  0
  3 31  1  0  0  0
  3 32  1  0  0  0
  4 33  1  0  0  0
  4 34  1  0  0  0
  5 35  1  0  0  0
  5 36  1  0  0  0
  5 37  1  0  0  0
  6 38  1  0  0  0
  6 39  1  0  0  0
  7 40  1  0  0  0
  7 41  1  0  0  0
  8 42  1  0  0  0
  9 43  1  0  0  0
  9 44  1  0  0  0
  9 45  1  0  0  0
 10 46  1  0  0  0
 11 47  1  0  0  0
 11 48  1  0  0  0
 12 49  1  0  0  0
 12 50  1  0  0  0
 13 51  1  0  0  0
 15 52  1  0  0  0
 15 53  1  0  0  0
 15 54  1  0  0  0
 16 55  1  0  0  0
 16 56  1  0  0  0
 17 57  1  0  0  0
 17 58  1  0  0  0
 18 59  1  0  0  0
 18 60  1  0  0  0
 20 61  1  0  0  0
 21 62  1  0  0  0
 23 63  1  0  0  0
 23 64  1  0  0  0
 24 65  1  0  0  0
 24 66  1  0  0  0
 25 67  1  0  0  0
 26 68  1  0  0  0
 28 69  1  0  0  0
 28 70  1  0  0  0
 29 71  1  0  0  0
 30 72  1  0  0  0
M  END
$$$$
