4fyo_ligand
  -I-interpret- 

 61 65  0  0  0  0  0  0  0  0999 V2000
    2.5140    1.2780   13.2690 C   0  0  0  0  0
    1.7520    0.3320   13.8200 N   0  0  0  0  0
    3.7800    1.4470   13.6160 N   0  0  0  0  0
    2.2070   -0.4830   14.7610 C   0  0  0  0  0
    4.3080    0.6840   14.5330 C   0  0  0  0  0
    3.5680   -0.3410   15.1800 C   0  0  0  0  0
    2.0050    2.0970   12.2860 N   0  0  0  0  0
    4.2650   -1.0310   16.1050 N   0  0  0  0  0
    5.9110    0.6030   15.2680 S   0  0  0  0  0
   -1.8510    4.2110   11.3750 C   0  0  0  0  0
    1.4150   -1.4710   15.3430 N   0  0  0  0  0
    5.5180   -0.7570   16.3650 C   0  0  0  0  0
   -0.5120    4.3600   11.4340 N   0  0  0  0  0
   -5.1640    8.6610   12.8400 C   0  0  0  0  0
   -0.8420   -0.8760   14.4790 C   0  0  0  0  0
   -2.2110   -1.1710   14.4240 C   0  0  0  0  0
    0.5590    2.2540   12.1730 C   0  0  0  0  0
   -2.7110    5.3450   11.7720 C   0  0  0  0  0
    0.0250   -1.6830   15.2250 C   0  0  0  0  0
   -4.3110    7.5080   12.4690 C   0  0  0  0  0
    2.6750    3.3700   11.9740 C   0  0  0  0  0
    0.4040    3.2900   11.0390 C   0  0  0  0  0
   -2.7160   -2.2700   15.1270 C   0  0  0  0  0
   -2.3540    3.1720   10.9880 O   0  0  0  0  0
   -4.9780    9.7510   12.3360 O   0  0  0  0  0
    1.8250    3.8810   10.7850 C   0  0  0  0  0
   -3.7320    5.1770   12.7150 C   0  0  0  0  0
   -2.4960    6.5980   11.1790 C   0  0  0  0  0
   -3.2890    7.6720   11.5260 C   0  0  0  0  0
   -4.5250    6.2550   13.0600 C   0  0  0  0  0
   -1.8500   -3.0770   15.8580 C   0  0  0  0  0
   -6.1550    8.5010   13.7340 O   0  0  0  0  0
   -0.4970   -2.7810   15.9060 C   0  0  0  0  0
   -3.1070   -0.4140   13.7190 O   0  0  0  0  0
   -4.0570   -2.5450   15.0520 O   0  0  0  0  0
   -2.4740    0.2920   12.6500 C   0  0  0  0  0
   -4.5980   -2.8210   16.3490 C   0  0  0  0  0
    1.9102   -2.1348   15.9385 H   0  0  0  0  0
    6.1737   -1.2457   17.0857 H   0  0  0  0  0
   -0.1265    5.2449   11.7638 H   0  0  0  0  0
   -0.4506   -0.0142   13.9384 H   0  0  0  0  0
    0.0973    2.5790   13.1054 H   0  0  0  0  0
    0.0498    1.3148   11.9569 H   0  0  0  0  0
    3.7337    3.2604   11.7390 H   0  0  0  0  0
    2.7108    4.0625   12.8150 H   0  0  0  0  0
   -0.0058    2.8227   10.1436 H   0  0  0  0  0
    2.2334    3.5652    9.8250 H   0  0  0  0  0
    1.8112    4.9695   10.7304 H   0  0  0  0  0
   -3.9003    4.2027   13.1739 H   0  0  0  0  0
   -1.7015    6.7230   10.4433 H   0  0  0  0  0
   -3.1204    8.6462   11.0671 H   0  0  0  0  0
   -5.3203    6.1304   13.7949 H   0  0  0  0  0
   -2.2365   -3.9438   16.3940 H   0  0  0  0  0
   -6.1689    7.5895   14.0349 H   0  0  0  0  0
    0.1704   -3.4180   16.4864 H   0  0  0  0  0
   -1.7087    0.9534   13.0561 H   0  0  0  0  0
   -2.0138   -0.4220   11.9670 H   0  0  0  0  0
   -3.2184    0.8812   12.1144 H   0  0  0  0  0
   -4.0874   -3.6830   16.7783 H   0  0  0  0  0
   -4.4540   -1.9537   16.9934 H   0  0  0  0  0
   -5.6629   -3.0356   16.2589 H   0  0  0  0  0
  1  2  4  0  0  0
  1  3  4  0  0  0
  7  1  1  0  0  0
  2  4  4  0  0  0
  3  5  4  0  0  0
  4  6  4  0  0  0
  4 11  1  0  0  0
  5  6  4  0  0  0
  5  9  4  0  0  0
  6  8  4  0  0  0
 17  7  1  0  0  0
 21  7  1  0  0  0
 12  8  4  0  0  0
  9 12  4  0  0  0
 10 13  1  0  0  0
 18 10  1  0  0  0
 10 24  2  0  0  0
 11 19  1  0  0  0
 13 22  1  0  0  0
 20 14  1  0  0  0
 14 25  2  0  0  0
 14 32  1  0  0  0
 15 16  4  0  0  0
 19 15  4  0  0  0
 16 23  4  0  0  0
 16 34  1  0  0  0
 22 17  1  0  0  0
 27 18  4  0  0  0
 18 28  4  0  0  0
 19 33  4  0  0  0
 20 29  4  0  0  0
 30 20  4  0  0  0
 26 21  1  0  0  0
 22 26  1  0  0  0
 23 31  4  0  0  0
 23 35  1  0  0  0
 27 30  4  0  0  0
 28 29  4  0  0  0
 31 33  4  0  0  0
 34 36  1  0  0  0
 35 37  1  0  0  0
 11 38  1  0  0  0
 12 39  1  0  0  0
 13 40  1  0  0  0
 15 41  1  0  0  0
 17 42  1  0  0  0
 17 43  1  0  0  0
 21 44  1  0  0  0
 21 45  1  0  0  0
 22 46  1  0  0  0
 26 47  1  0  0  0
 26 48  1  0  0  0
 27 49  1  0  0  0
 28 50  1  0  0  0
 29 51  1  0  0  0
 30 52  1  0  0  0
 31 53  1  0  0  0
 32 54  1  0  0  0
 33 55  1  0  0  0
 36 56  1  0  0  0
 36 57  1  0  0  0
 36 58  1  0  0  0
 37 59  1  0  0  0
 37 60  1  0  0  0
 37 61  1  0  0  0
M  END
$$$$
