4usi_ligand
  -I-interpret- 

 16 15  0  0  0  0  0  0  0  0999 V2000
    4.6670   12.4300    1.9680 C   0  0  0  0  0
    5.7690   12.6910    2.4410 O   0  0  0  0  0
    3.5340   12.6790    2.6530 O   0  0  0  0  0
    4.6280   11.8570    0.7230 C   0  0  0  0  0
    5.7300   11.5820    0.1730 O   0  0  0  0  0
    3.2610   11.5240    0.1210 C   0  0  0  0  0
    3.3120   10.5840   -1.1200 C   0  0  0  0  0
    3.2880    9.0950   -0.7040 C   0  0  0  0  0
    3.4600    8.7140    0.4310 O   0  0  0  0  0
    2.9790    8.1560   -1.4840 O   0  0  0  0  0
    2.7775   12.4107    2.1264 H   0  0  0  0  0
    2.8209   12.4647   -0.2098 H   0  0  0  0  0
    2.6918   11.0039    0.8914 H   0  0  0  0  0
    4.2383   10.7765   -1.6612 H   0  0  0  0  0
    2.4383   10.7834   -1.7404 H   0  0  0  0  0
    2.8531    8.5052   -2.3693 H   0  0  0  0  0
  1  2  2  0  0  0
  1  3  1  0  0  0
  1  4  1  0  0  0
  4  5  2  0  0  0
  4  6  1  0  0  0
  6  7  1  0  0  0
  7  8  1  0  0  0
  8  9  2  0  0  0
  8 10  1  0  0  0
  3 11  1  0  0  0
  6 12  1  0  0  0
  6 13  1  0  0  0
  7 14  1  0  0  0
  7 15  1  0  0  0
 10 16  1  0  0  0
M  END
$$$$
