3b9g_ligand
  -I-interpret- 

 33 35  0  0  0  0  0  0  0  0999 V2000
   25.4280   21.5930    6.8840 O   0  0  0  0  0
   24.4720   20.6210    7.3160 C   0  0  0  0  0
   23.3680   21.3000    8.1480 C   0  0  0  0  0
   22.7820   22.4480    7.4260 N   0  3  0  0  0
   22.1970   20.3580    8.4330 C   0  0  0  0  0
   21.6420   20.6910    9.7160 O   0  0  0  0  0
   21.1720   20.6240    7.3180 C   0  0  0  0  0
   19.8300   20.6740    7.8510 O   0  0  0  0  0
   21.5510   21.9910    6.7300 C   0  0  0  0  0
   21.8190   21.8700    5.2170 C   0  0  0  0  0
   23.0230   21.8460    4.6510 C   0  0  0  0  0
   22.8750   21.7360    3.3320 N   0  0  0  0  0
   21.5770   21.7000    3.0380 C   0  0  0  0  0
   20.8980   21.5950    1.8340 C   0  0  0  0  0
   21.5240   21.5180    0.7790 O   0  0  0  0  0
   19.4980   21.5780    1.8490 N   0  0  0  0  0
   18.8320   21.6690    3.0870 C   0  0  0  0  0
   19.5140   21.7600    4.2210 N   0  0  0  0  0
   20.8570   21.7860    4.2240 C   0  0  0  0  0
   26.1113   21.1603    6.3668 H   0  0  0  0  0
   24.9740   19.8729    7.9295 H   0  0  0  0  0
   24.0227   20.1478    6.4429 H   0  0  0  0  0
   23.8568   21.6069    9.0727 H   0  0  0  0  0
   23.4514   22.8098    6.7467 H   0  0  0  0  0
   22.5529   23.1925    8.0845 H   0  0  0  0  0
   22.4923   19.3089    8.4521 H   0  0  0  0  0
   22.2937   20.5193   10.3996 H   0  0  0  0  0
   21.1883   19.8322    6.5691 H   0  0  0  0  0
   19.6000   19.8167    8.2166 H   0  0  0  0  0
   20.7377   22.7029    6.8704 H   0  0  0  0  0
   23.9741   21.9064    5.1799 H   0  0  0  0  0
   18.9701   21.5011    0.9796 H   0  0  0  0  0
   17.7423   21.6646    3.1134 H   0  0  0  0  0
  1  2  1  0  0  0
  2  3  1  0  0  0
  3  4  1  0  0  0
  3  5  1  0  0  0
  4  9  1  0  0  0
  5  6  1  0  0  0
  5  7  1  0  0  0
  7  8  1  0  0  0
  7  9  1  0  0  0
  9 10  1  0  0  0
 10 11  4  0  0  0
 10 19  4  0  0  0
 11 12  4  0  0  0
 12 13  4  0  0  0
 13 14  1  0  0  0
 13 19  4  0  0  0
 14 15  2  0  0  0
 14 16  1  0  0  0
 16 17  1  0  0  0
 17 18  2  0  0  0
 18 19  1  0  0  0
  1 20  1  0  0  0
  2 21  1  0  0  0
  2 22  1  0  0  0
  3 23  1  0  0  0
  4 24  1  0  0  0
  4 25  1  0  0  0
  5 26  1  0  0  0
  6 27  1  0  0  0
  7 28  1  0  0  0
  8 29  1  0  0  0
  9 30  1  0  0  0
 11 31  1  0  0  0
 16 32  1  0  0  0
 17 33  1  0  0  0
M  END
$$$$
