2bu5_ligand
  -I-interpret- 

 47 48  0  0  0  0  0  0  0  0999 V2000
   57.0590   60.1930   76.8260 N   0  0  0  0  0
   57.6740   59.2960   75.9190 C   0  0  0  0  0
   56.3930   61.3420   76.1390 C   0  0  0  0  0
   56.9480   60.1200   78.3280 C   0  0  0  0  0
   58.4190   57.9970   76.4570 C   0  0  0  0  0
   57.6330   59.5100   74.7010 O   0  0  0  0  0
   56.8310   62.6470   76.8420 C   0  0  0  0  0
   54.8590   61.1180   76.1290 C   0  0  0  0  0
   57.2820   61.4430   79.0410 C   0  0  0  0  0
   57.4480   56.8390   76.9710 C   0  0  0  0  0
   59.1690   57.4210   75.2140 C   0  0  0  0  0
   59.3740   58.2940   77.3420 O   0  0  0  0  0
   56.5630   62.5260   78.3040 N   0  0  0  0  0
   58.8030   61.7500   79.1120 C   0  0  0  0  0
   56.7270   56.3510   75.9690 F   0  0  0  0  0
   58.1330   55.8150   77.4430 F   0  0  0  0  0
   56.5910   57.2290   77.9000 F   0  0  0  0  0
   55.6790   63.4330   78.8960 C   0  0  0  0  0
   55.3720   63.3970   80.3360 C   0  0  0  0  0
   55.1450   64.2860   78.1960 O   0  0  0  0  0
   56.3360   63.8990   81.2960 C   0  0  0  0  0
   54.1010   62.9060   80.7450 C   0  0  0  0  0
   55.9980   63.9090   82.6870 C   0  0  0  0  0
   53.7610   62.9150   82.1340 C   0  0  0  0  0
   54.7090   63.4140   83.0880 C   0  0  0  0  0
   54.3570   63.3930   84.4720 C   0  0  0  0  0
   54.0620   63.3670   85.5920 N   0  0  0  0  0
   56.6931   61.4210   75.0941 H   0  0  0  0  0
   57.6664   59.3755   78.6711 H   0  0  0  0  0
   55.9129   59.8750   78.5658 H   0  0  0  0  0
   56.2714   63.4890   76.4347 H   0  0  0  0  0
   57.8954   62.8137   76.6765 H   0  0  0  0  0
   54.4933   61.0710   77.1547 H   0  0  0  0  0
   54.3759   61.9441   75.6072 H   0  0  0  0  0
   54.6331   60.1820   75.6181 H   0  0  0  0  0
   56.9612   61.3710   80.0802 H   0  0  0  0  0
   59.7351   56.5378   75.5099 H   0  0  0  0  0
   58.4435   57.1491   74.4473 H   0  0  0  0  0
   59.8500   58.1755   74.8203 H   0  0  0  0  0
   59.9299   58.9925   76.9889 H   0  0  0  0  0
   59.2060   61.8192   78.1016 H   0  0  0  0  0
   58.9576   62.6956   79.6317 H   0  0  0  0  0
   59.3090   60.9500   79.6524 H   0  0  0  0  0
   57.3071   64.2646   80.9622 H   0  0  0  0  0
   53.3937   62.5269   80.0074 H   0  0  0  0  0
   56.7040   64.2845   83.4277 H   0  0  0  0  0
   52.7902   62.5460   82.4649 H   0  0  0  0  0
  1  2  1  0  0  0
  1  3  1  0  0  0
  1  4  1  0  0  0
  2  5  1  0  0  0
  2  6  2  0  0  0
  3  7  1  0  0  0
  3  8  1  0  0  0
  4  9  1  0  0  0
  5 10  1  0  0  0
  5 11  1  0  0  0
  5 12  1  0  0  0
  7 13  1  0  0  0
  9 13  1  0  0  0
  9 14  1  0  0  0
 10 15  1  0  0  0
 10 16  1  0  0  0
 10 17  1  0  0  0
 13 18  1  0  0  0
 18 19  1  0  0  0
 18 20  2  0  0  0
 19 21  4  0  0  0
 19 22  4  0  0  0
 21 23  4  0  0  0
 22 24  4  0  0  0
 23 25  4  0  0  0
 24 25  4  0  0  0
 25 26  1  0  0  0
 26 27  3  0  0  0
  3 28  1  0  0  0
  4 29  1  0  0  0
  4 30  1  0  0  0
  7 31  1  0  0  0
  7 32  1  0  0  0
  8 33  1  0  0  0
  8 34  1  0  0  0
  8 35  1  0  0  0
  9 36  1  0  0  0
 11 37  1  0  0  0
 11 38  1  0  0  0
 11 39  1  0  0  0
 12 40  1  0  0  0
 14 41  1  0  0  0
 14 42  1  0  0  0
 14 43  1  0  0  0
 21 44  1  0  0  0
 22 45  1  0  0  0
 23 46  1  0  0  0
 24 47  1  0  0  0
M  END
$$$$
