3iog_ligand
  -I-interpret- 

 21 21  0  0  0  0  0  0  0  0999 V2000
    3.5350    2.5540   68.5830 C   0  0  0  0  0
    2.6000    4.5680   70.3450 P   0  0  0  0  0
    0.9150    2.9580   68.4820 S   0  0  0  0  0
    4.9390    4.2650   66.8790 Cl  0  0  0  0  0
    4.5970    2.7150   67.6810 C   0  0  0  0  0
    6.5680   -0.8290   67.5930 Cl  0  0  0  0  0
    5.5060    1.6960   67.4000 C   0  0  0  0  0
    5.3600    0.4530   67.9860 C   0  0  0  0  0
    4.2770    0.2490   68.8470 C   0  0  0  0  0
    3.3620    1.2810   69.1210 C   0  0  0  0  0
    2.5570    3.6650   68.7730 C   0  0  0  0  0
    3.9810    5.1630   70.5320 O   0  0  0  0  0
    1.5550    5.6410   70.1640 O   0  0  0  0  0
    2.3110    3.5760   71.4580 O   0  0  0  0  0
    0.9147    2.3033   67.3243 H   0  0  0  0  0
    6.3344    1.8803   66.7160 H   0  0  0  0  0
    4.1398   -0.7265   69.3136 H   0  0  0  0  0
    2.5047    1.0818   69.7639 H   0  0  0  0  0
    2.8355    4.4448   68.0642 H   0  0  0  0  0
    4.6204    4.4558   70.6441 H   0  0  0  0  0
    3.0216    2.9321   71.5037 H   0  0  0  0  0
  5  1  4  0  0  0
  1 10  4  0  0  0
  1 11  1  0  0  0
 11  2  1  0  0  0
  2 12  1  0  0  0
  2 13  2  0  0  0
  2 14  1  0  0  0
 11  3  1  0  0  0
  5  4  1  0  0  0
  7  5  4  0  0  0
  8  6  1  0  0  0
  7  8  4  0  0  0
  8  9  4  0  0  0
  9 10  4  0  0  0
  3 15  1  0  0  0
  7 16  1  0  0  0
  9 17  1  0  0  0
 10 18  1  0  0  0
 11 19  1  0  0  0
 12 20  1  0  0  0
 14 21  1  0  0  0
M  END
$$$$
