4yxo_ligand
  -I-interpret- 

 23 23  0  0  0  0  0  0  0  0999 V2000
  -29.3120    0.1630   84.6060 O   0  0  0  0  0
  -28.4570    1.2740   84.3150 S   0  0  0  0  0
  -29.0510    2.5130   83.8960 O   0  0  0  0  0
  -27.6090    1.5740   85.6440 N   0  0  0  0  0
  -27.3430    0.7600   83.0450 C   0  0  0  0  0
  -26.8380    1.6860   82.1480 C   0  0  0  0  0
  -25.9650    1.2670   81.1610 C   0  0  0  0  0
  -26.9800   -0.5720   82.9560 C   0  0  0  0  0
  -26.1060   -0.9720   81.9630 C   0  0  0  0  0
  -25.5880   -0.0630   81.0540 C   0  0  0  0  0
  -24.6380   -0.5130   79.9640 C   0  0  0  0  0
  -24.5320    0.4480   78.8090 C   0  0  0  0  0
  -27.7484    1.0031   86.4777 H   0  0  0  0  0
  -26.9306    2.3356   85.6550 H   0  0  0  0  0
  -27.1258    2.7349   82.2192 H   0  0  0  0  0
  -25.5662    1.9951   80.4546 H   0  0  0  0  0
  -27.3797   -1.2993   83.6626 H   0  0  0  0  0
  -25.8189   -2.0212   81.8935 H   0  0  0  0  0
  -25.0219   -1.4533   79.5682 H   0  0  0  0  0
  -23.6470   -0.5921   80.4110 H   0  0  0  0  0
  -25.5130    0.5727   78.3505 H   0  0  0  0  0
  -24.1738    1.4116   79.1714 H   0  0  0  0  0
  -23.8328    0.0528   78.0722 H   0  0  0  0  0
  1  2  2  0  0  0
  2  3  2  0  0  0
  2  4  1  0  0  0
  2  5  1  0  0  0
  5  6  4  0  0  0
  5  8  4  0  0  0
  6  7  4  0  0  0
  7 10  4  0  0  0
  8  9  4  0  0  0
  9 10  4  0  0  0
 10 11  1  0  0  0
 11 12  1  0  0  0
  4 13  1  0  0  0
  4 14  1  0  0  0
  6 15  1  0  0  0
  7 16  1  0  0  0
  8 17  1  0  0  0
  9 18  1  0  0  0
 11 19  1  0  0  0
 11 20  1  0  0  0
 12 21  1  0  0  0
 12 22  1  0  0  0
 12 23  1  0  0  0
M  END
$$$$
