6udv_ligand
  -I-interpret- 

 80 85  0  0  0  0  0  0  0  0999 V2000
    9.2110    1.3970   96.9310 C   0  0  0  0  0
   10.6660    1.3910   97.4080 C   0  0  0  0  0
   11.5310    2.1640   96.4230 C   0  0  0  0  0
   10.9380    3.5330   96.1430 C   0  0  0  0  0
   11.7780    4.5120   95.6370 C   0  0  0  0  0
   11.3160    5.7870   95.3660 C   0  0  0  0  0
   12.4150    6.9410   94.7290 Cl  0  0  0  0  0
    9.9860    6.0990   95.5900 C   0  0  0  0  0
    9.1450    5.1300   96.0890 C   0  0  0  0  0
    9.5870    3.8530   96.3690 C   0  0  0  0  0
    8.5920    2.8200   96.9270 C   0  0  0  0  0
    8.1560    3.2080   98.3570 C   0  0  0  0  0
    7.3240    2.7660   96.0630 C   0  0  0  0  0
    6.3770    3.7870   96.4500 O   0  0  0  0  0
    5.4740    3.3970   97.4090 C   0  0  0  0  0
    4.1540    3.7780   97.1460 C   0  0  0  0  0
    3.1360    3.4220   98.0160 C   0  0  0  0  0
    3.4080    2.6680   99.1450 C   0  0  0  0  0
    4.7370    2.2950   99.4010 C   0  0  0  0  0
    5.7930    2.6630   98.5570 C   0  0  0  0  0
    7.0920    2.2980   98.8160 N   0  0  0  0  0
    7.4180    1.5390  100.0770 C   0  0  0  0  0
    7.3090    2.3560  101.3900 C   0  0  0  0  0
    8.5070    3.2500  101.7390 C   0  0  0  0  0
    8.3900    2.7400  103.1930 C   0  0  0  0  0
    7.6970    1.4990  102.6140 C   0  0  0  0  0
    6.4990    0.9400  103.4200 C   0  0  0  0  0
    7.0050    0.3570  104.6340 O   0  0  0  0  0
    5.3890    1.9710  103.7000 C   0  0  0  0  0
    5.1340    2.5520  104.9320 C   0  0  0  0  0
    4.0070    3.5870  105.1310 C   0  0  0  0  0
    2.9320    3.5720  104.0320 C   0  0  0  0  0
    2.0260    4.8200  104.1210 C   0  0  0  0  0
    2.1270    2.2670  104.0590 C   0  0  0  0  0
    1.1170    2.2330  105.1910 C   0  0  0  0  0
    1.3340    1.9750  102.4380 S   0  0  0  0  0
    0.7900    0.5910  102.3640 O   0  0  0  0  0
    0.2810    2.9840  102.0420 O   0  0  0  0  0
    2.5160    2.2360  101.3490 N   0  0  0  0  0
    2.2380    2.3070  100.0580 C   0  0  0  0  0
    1.1300    2.0420   99.5640 O   0  0  0  0  0
    8.6301    0.7798   97.6164 H   0  0  0  0  0
    9.1909    1.0189   95.9089 H   0  0  0  0  0
   11.0214    0.3625   97.4717 H   0  0  0  0  0
   10.7268    1.8615   98.3893 H   0  0  0  0  0
   11.5832    1.6059   95.4882 H   0  0  0  0  0
   12.5241    2.2927   96.8534 H   0  0  0  0  0
   12.8245    4.2722   95.4487 H   0  0  0  0  0
    9.6096    7.0989   95.3741 H   0  0  0  0  0
    8.0990    5.3788   96.2682 H   0  0  0  0  0
    7.7803    4.2312   98.3550 H   0  0  0  0  0
    9.0111    3.1318   99.0286 H   0  0  0  0  0
    6.8554    1.7911   96.1972 H   0  0  0  0  0
    7.6065    2.9326   95.0235 H   0  0  0  0  0
    3.9250    4.3580   96.2520 H   0  0  0  0  0
    2.1133    3.7379   97.8100 H   0  0  0  0  0
    4.9548    1.6985  100.2869 H   0  0  0  0  0
    8.4579    1.2240   99.9912 H   0  0  0  0  0
    6.6904    0.7308  100.1514 H   0  0  0  0  0
    6.3263    2.8016  101.2355 H   0  0  0  0  0
    8.5021    4.3160  101.5117 H   0  0  0  0  0
    9.4451    3.1785  101.1886 H   0  0  0  0  0
    7.9301    3.3412  103.9773 H   0  0  0  0  0
    9.2595    2.6604  103.8455 H   0  0  0  0  0
    8.2360    0.5567  102.5154 H   0  0  0  0  0
    6.0085    0.1829  102.8082 H   0  0  0  0  0
    6.2742    0.0046  105.1473 H   0  0  0  0  0
    4.7549    2.2664  102.8641 H   0  0  0  0  0
    5.7484    2.2692  105.7867 H   0  0  0  0  0
    4.4707    4.5733  105.1123 H   0  0  0  0  0
    3.5094    3.3425  106.0694 H   0  0  0  0  0
    3.4358    3.6127  103.0663 H   0  0  0  0  0
    1.5315    4.8399  105.0922 H   0  0  0  0  0
    2.6332    5.7174  104.0026 H   0  0  0  0  0
    1.2762    4.7802  103.3308 H   0  0  0  0  0
    2.8260    1.4532  104.2517 H   0  0  0  0  0
    1.6378    2.3275  106.1439 H   0  0  0  0  0
    0.4156    3.0593  105.0754 H   0  0  0  0  0
    0.5747    1.2879  105.1641 H   0  0  0  0  0
    3.4795    2.3457  101.6653 H   0  0  0  0  0
  1  2  1  0  0  0
  1 11  1  0  0  0
  2  3  1  0  0  0
  3  4  1  0  0  0
  4  5  4  0  0  0
  4 10  4  0  0  0
  5  6  4  0  0  0
  6  7  1  0  0  0
  6  8  4  0  0  0
  8  9  4  0  0  0
  9 10  4  0  0  0
 10 11  1  0  0  0
 11 12  1  0  0  0
 11 13  1  0  0  0
 12 21  1  0  0  0
 13 14  1  0  0  0
 14 15  1  0  0  0
 15 16  4  0  0  0
 15 20  4  0  0  0
 16 17  4  0  0  0
 17 18  4  0  0  0
 18 19  4  0  0  0
 18 40  1  0  0  0
 19 20  4  0  0  0
 20 21  1  0  0  0
 21 22  1  0  0  0
 22 23  1  0  0  0
 23 24  1  0  0  0
 23 26  1  0  0  0
 24 25  1  0  0  0
 25 26  1  0  0  0
 26 27  1  0  0  0
 27 28  1  0  0  0
 27 29  1  0  0  0
 29 30  2  0  0  0
 30 31  1  0  0  0
 31 32  1  0  0  0
 32 33  1  0  0  0
 32 34  1  0  0  0
 34 35  1  0  0  0
 34 36  1  0  0  0
 36 37  2  0  0  0
 36 38  2  0  0  0
 36 39  1  0  0  0
 39 40  1  0  0  0
 40 41  2  0  0  0
  1 42  1  0  0  0
  1 43  1  0  0  0
  2 44  1  0  0  0
  2 45  1  0  0  0
  3 46  1  0  0  0
  3 47  1  0  0  0
  5 48  1  0  0  0
  8 49  1  0  0  0
  9 50  1  0  0  0
 12 51  1  0  0  0
 12 52  1  0  0  0
 13 53  1  0  0  0
 13 54  1  0  0  0
 16 55  1  0  0  0
 17 56  1  0  0  0
 19 57  1  0  0  0
 22 58  1  0  0  0
 22 59  1  0  0  0
 23 60  1  0  0  0
 24 61  1  0  0  0
 24 62  1  0  0  0
 25 63  1  0  0  0
 25 64  1  0  0  0
 26 65  1  0  0  0
 27 66  1  0  0  0
 28 67  1  0  0  0
 29 68  1  0  0  0
 30 69  1  0  0  0
 31 70  1  0  0  0
 31 71  1  0  0  0
 32 72  1  0  0  0
 33 73  1  0  0  0
 33 74  1  0  0  0
 33 75  1  0  0  0
 34 76  1  0  0  0
 35 77  1  0  0  0
 35 78  1  0  0  0
 35 79  1  0  0  0
 39 80  1  0  0  0
M  END
$$$$
