3uli_ligand
  -I-interpret- 

 53 56  0  0  0  0  0  0  0  0999 V2000
    6.9650   23.3700    8.1180 C   0  0  0  0  0
    7.2100   24.4700    7.2180 O   0  0  0  0  0
    6.1640   25.4070    7.2250 C   0  0  0  0  0
    5.1780   25.3830    8.1940 C   0  0  0  0  0
    4.1820   26.3340    8.1570 C   0  0  0  0  0
    4.1530   27.2980    7.1590 C   0  0  0  0  0
    5.1350   27.3240    6.1870 C   0  0  0  0  0
    6.1320   26.3690    6.2250 C   0  0  0  0  0
    3.0720   28.3190    7.2490 C   0  0  0  0  0
    3.2070   29.6280    6.7870 N   0  0  0  0  0
    2.0920   30.2330    7.1780 C   0  0  0  0  0
    1.2730   29.1820    7.8690 C   0  0  0  0  0
    1.9460   28.0750    7.8650 N   0  0  0  0  0
    0.0400   29.5240    8.4050 C   0  0  0  0  0
   -0.3170   30.8580    8.2090 C   0  0  0  0  0
    0.4780   31.7790    7.5620 C   0  0  0  0  0
    1.6600   31.4580    7.0610 N   0  0  0  0  0
   -1.9660   31.5260    8.8450 Br  0  0  0  0  0
   -0.8850   28.7000    9.0950 N   0  0  0  0  0
   -0.4680   27.3420    9.4370 C   0  0  0  0  0
    0.3930   27.3810   10.6910 C   0  0  0  0  0
   -0.2860   28.0970   11.8380 C   0  0  0  0  0
   -1.4080   27.3320   12.3190 N   0  0  0  0  0
   -2.7010   27.6520   11.9640 C   0  0  0  0  0
   -3.0000   28.6480   11.3080 O   0  0  0  0  0
   -3.7700   26.7090   12.4100 C   0  0  0  0  0
   -4.8350   26.3890   11.3950 C   0  0  0  0  0
   -5.1620   27.2760   12.5370 C   0  0  0  0  0
   -3.5020   25.6130   13.4010 C   0  0  0  0  0
   -3.2490   26.0590   14.7910 N   0  3  0  0  0
    6.8582   23.7503    9.1339 H   0  0  0  0  0
    6.0496   22.8574    7.8225 H   0  0  0  0  0
    7.8027   22.6739    8.0754 H   0  0  0  0  0
    5.1886   24.6231    8.9754 H   0  0  0  0  0
    3.4058   26.3293    8.9223 H   0  0  0  0  0
    5.1229   28.0836    5.4054 H   0  0  0  0  0
    6.9060   26.3708    5.4575 H   0  0  0  0  0
    0.1221   32.8042    7.4597 H   0  0  0  0  0
   -1.8121   29.0443    9.3447 H   0  0  0  0  0
    0.1063   26.9183    8.6131 H   0  0  0  0  0
   -1.3480   26.7247    9.6177 H   0  0  0  0  0
    1.3095   27.9208   10.4530 H   0  0  0  0  0
    0.5824   26.3533   11.0010 H   0  0  0  0  0
   -0.6425   29.0659   11.4885 H   0  0  0  0  0
    0.4303   28.2227   12.6499 H   0  0  0  0  0
   -1.2421   26.5365   12.9355 H   0  0  0  0  0
   -5.1423   25.8771   10.4831 H   0  0  0  0  0
   -5.8832   27.8904   13.0760 H   0  0  0  0  0
   -2.5960   25.1071   13.0673 H   0  0  0  0  0
   -4.3996   24.9953   13.4314 H   0  0  0  0  0
   -3.0792   25.2454   15.3823 H   0  0  0  0  0
   -2.4319   26.6693   14.8076 H   0  0  0  0  0
   -4.0623   26.5683   15.1368 H   0  0  0  0  0
  1  2  1  0  0  0
  2  3  1  0  0  0
  3  4  4  0  0  0
  3  8  4  0  0  0
  4  5  4  0  0  0
  5  6  4  0  0  0
  6  7  4  0  0  0
  6  9  1  0  0  0
  7  8  4  0  0  0
  9 10  4  0  0  0
  9 13  4  0  0  0
 10 11  4  0  0  0
 11 12  4  0  0  0
 11 17  4  0  0  0
 12 13  4  0  0  0
 12 14  4  0  0  0
 14 15  4  0  0  0
 14 19  1  0  0  0
 15 16  4  0  0  0
 15 18  1  0  0  0
 16 17  4  0  0  0
 19 20  1  0  0  0
 20 21  1  0  0  0
 21 22  1  0  0  0
 22 23  1  0  0  0
 23 24  1  0  0  0
 24 25  2  0  0  0
 24 26  1  0  0  0
 26 27  1  0  0  0
 26 28  1  0  0  0
 26 29  1  0  0  0
 27 28  2  0  0  0
 29 30  1  0  0  0
  1 31  1  0  0  0
  1 32  1  0  0  0
  1 33  1  0  0  0
  4 34  1  0  0  0
  5 35  1  0  0  0
  7 36  1  0  0  0
  8 37  1  0  0  0
 16 38  1  0  0  0
 19 39  1  0  0  0
 20 40  1  0  0  0
 20 41  1  0  0  0
 21 42  1  0  0  0
 21 43  1  0  0  0
 22 44  1  0  0  0
 22 45  1  0  0  0
 23 46  1  0  0  0
 27 47  1  0  0  0
 28 48  1  0  0  0
 29 49  1  0  0  0
 29 50  1  0  0  0
 30 51  1  0  0  0
 30 52  1  0  0  0
 30 53  1  0  0  0
M  END
$$$$
