4myh_ligand
  -I-interpret- 

 38 37  0  0  0  0  0  0  0  0999 V2000
   49.2940  -60.7770  -92.4120 N   0  3  0  0  0
   48.2180  -59.9210  -91.9700 C   0  0  0  0  0
   46.9120  -60.4880  -92.4440 C   0  0  0  0  0
   46.0750  -60.9780  -91.6090 O   0  0  0  0  0
   46.6260  -60.4550  -93.6950 O   0  0  0  0  0
   48.4300  -58.4990  -92.4360 C   0  0  0  0  0
   48.6640  -57.5370  -91.2930 C   0  0  0  0  0
   48.2690  -56.1430  -91.7890 C   0  0  0  0  0
   49.1190  -55.2200  -91.7290 O   0  0  0  0  0
   46.9190  -55.9620  -92.3020 N   0  0  0  0  0
   46.3830  -54.7170  -92.8240 C   0  0  0  0  0
   45.7070  -53.7730  -91.8220 C   0  0  0  0  0
   44.8760  -52.9380  -92.1900 O   0  0  0  0  0
   45.6420  -54.9130  -94.1330 C   0  0  0  0  0
   46.5580  -54.1030  -95.3970 S   0  0  0  0  0
   46.0900  -53.8470  -90.4230 N   0  0  0  0  0
   45.5140  -52.9750  -89.4140 C   0  0  0  0  0
   46.2500  -51.6570  -89.4160 C   0  0  0  0  0
   45.6490  -50.5860  -89.0790 O   0  0  0  0  0
   47.4650  -51.6180  -89.7490 O   0  0  0  0  0
   49.1263  -61.7284  -92.0847 H   0  0  0  0  0
   49.3363  -60.7692  -93.4311 H   0  0  0  0  0
   50.1766  -60.4358  -92.0313 H   0  0  0  0  0
   48.2005  -59.8863  -90.8807 H   0  0  0  0  0
   47.3552  -60.0599  -94.1785 H   0  0  0  0  0
   47.5288  -58.1816  -92.9605 H   0  0  0  0  0
   49.3155  -58.4843  -93.0715 H   0  0  0  0  0
   49.7093  -57.5535  -90.9843 H   0  0  0  0  0
   48.0686  -57.8193  -90.4247 H   0  0  0  0  0
   46.3007  -56.7732  -92.2943 H   0  0  0  0  0
   47.2702  -54.1298  -93.0612 H   0  0  0  0  0
   44.6382  -54.4936  -94.0657 H   0  0  0  0  0
   45.5456  -55.9753  -94.3575 H   0  0  0  0  0
   45.9341  -54.2557  -96.5616 H   0  0  0  0  0
   46.7875  -54.5350  -90.1392 H   0  0  0  0  0
   45.6039  -53.4420  -88.4332 H   0  0  0  0  0
   44.4605  -52.8053  -89.6362 H   0  0  0  0  0
   44.7373  -50.7884  -88.8565 H   0  0  0  0  0
  1  2  1  0  0  0
  2  3  1  0  0  0
  2  6  1  0  0  0
  3  4  2  0  0  0
  3  5  1  0  0  0
  6  7  1  0  0  0
  7  8  1  0  0  0
  8  9  2  0  0  0
  8 10  1  0  0  0
 10 11  1  0  0  0
 11 12  1  0  0  0
 11 14  1  0  0  0
 12 13  2  0  0  0
 12 16  1  0  0  0
 14 15  1  0  0  0
 16 17  1  0  0  0
 17 18  1  0  0  0
 18 19  1  0  0  0
 18 20  2  0  0  0
  1 21  1  0  0  0
  1 22  1  0  0  0
  1 23  1  0  0  0
  2 24  1  0  0  0
  5 25  1  0  0  0
  6 26  1  0  0  0
  6 27  1  0  0  0
  7 28  1  0  0  0
  7 29  1  0  0  0
 10 30  1  0  0  0
 11 31  1  0  0  0
 14 32  1  0  0  0
 14 33  1  0  0  0
 15 34  1  0  0  0
 16 35  1  0  0  0
 17 36  1  0  0  0
 17 37  1  0  0  0
 19 38  1  0  0  0
M  END
$$$$
