5g2b_ligand
  -I-interpret- 

 75 79  0  0  0  0  0  0  0  0999 V2000
   28.8480   13.3050    1.0390 C   0  0  0  0  0
   30.5210   18.3410   -5.5970 N   0  0  0  0  0
   28.4000   13.7500   -0.2450 O   0  0  0  0  0
   27.9640   12.8030   -1.1330 C   0  0  0  0  0
   33.1220   20.8360   -5.3380 N   0  0  0  0  0
   28.6760   19.2510   -4.6890 O   0  0  0  0  0
   27.5980   11.4990   -0.7720 C   0  0  0  0  0
   26.1380   10.6370   -5.1930 N   0  0  0  0  0
   31.6630   20.2870   -3.7160 O   0  0  0  0  0
   27.2060   10.5950   -1.7520 C   0  0  0  0  0
   25.5340    9.8420   -6.1500 N   0  0  0  0  0
   25.2130    7.7760   -7.1290 O   0  0  0  0  0
   27.1500   10.9840   -3.1000 C   0  0  0  0  0
   27.5270   12.2820   -3.4450 C   0  0  0  0  0
   27.9360   13.2040   -2.4770 C   0  0  0  0  0
   28.4070   14.5380   -2.9470 C   0  0  0  0  0
   29.4940   14.6330   -3.8120 C   0  0  0  0  0
   29.8610   15.8390   -4.3780 C   0  0  0  0  0
   29.1510   17.0050   -4.0950 C   0  0  0  0  0
   28.0830   16.9260   -3.1970 C   0  0  0  0  0
   27.7190   15.7110   -2.6350 C   0  0  0  0  0
   29.4450   18.2970   -4.8000 C   0  0  0  0  0
   31.1580   19.5890   -5.9640 C   0  0  0  0  0
   32.0100   20.2680   -4.9050 C   0  0  0  0  0
   26.6190   10.0690   -4.1430 C   0  0  0  0  0
   24.6200   10.6940   -6.9340 C   0  0  0  0  0
   23.4710   11.2630   -5.9790 C   0  0  0  0  0
   22.5490   12.3750   -6.4680 C   0  0  0  0  0
   23.2510   13.6350   -6.9560 C   0  0  0  0  0
   23.7100   13.6220   -8.4210 C   0  0  0  0  0
   24.7110   12.5360   -8.8940 C   0  0  0  0  0
   25.4590   11.7630   -7.8020 C   0  0  0  0  0
   25.7680    8.4920   -6.3150 C   0  0  0  0  0
   26.7710    7.8950   -5.3450 C   0  0  0  0  0
   26.7930    6.3700   -5.2040 C   0  0  0  0  0
   25.6680    5.8700   -4.3410 C   0  0  0  0  0
   25.0060    6.6420   -3.4700 C   0  0  0  0  0
   25.2200    8.1310   -3.3580 C   0  0  0  0  0
   26.5660    8.5630   -3.9610 C   0  0  0  0  0
   28.0336   12.7894    1.5479 H   0  0  0  0  0
   29.6888   12.6230    0.9127 H   0  0  0  0  0
   29.1616   14.1648    1.6310 H   0  0  0  0  0
   30.9042   17.4670   -5.9571 H   0  0  0  0  0
   33.7376   21.3172   -4.6824 H   0  0  0  0  0
   33.3646   20.7932   -6.3278 H   0  0  0  0  0
   27.6208   11.1948    0.2745 H   0  0  0  0  0
   26.9399    9.5758   -1.4720 H   0  0  0  0  0
   27.5021   12.5839   -4.4921 H   0  0  0  0  0
   30.0678   13.7367   -4.0478 H   0  0  0  0  0
   30.7155   15.8792   -5.0535 H   0  0  0  0  0
   27.5303   17.8284   -2.9355 H   0  0  0  0  0
   26.8817   15.6721   -1.9382 H   0  0  0  0  0
   30.3468   20.2834   -6.1827 H   0  0  0  0  0
   31.8373   19.3466   -6.7812 H   0  0  0  0  0
   24.0792   10.1275   -7.6921 H   0  0  0  0  0
   24.0094   11.7060   -5.1412 H   0  0  0  0  0
   22.8082   10.4131   -5.8162 H   0  0  0  0  0
   21.9360   12.6693   -5.6161 H   0  0  0  0  0
   22.0005   11.9735   -7.3201 H   0  0  0  0  0
   24.1529   13.7372   -6.3526 H   0  0  0  0  0
   22.5257   14.4440   -6.8687 H   0  0  0  0  0
   24.2395   14.5653   -8.5548 H   0  0  0  0  0
   22.8028   13.4328   -8.9949 H   0  0  0  0  0
   25.4757   13.0623   -9.4654 H   0  0  0  0  0
   24.1180   11.7961   -9.4316 H   0  0  0  0  0
   26.2199   11.1827   -8.3239 H   0  0  0  0  0
   25.7971   12.5162   -7.0903 H   0  0  0  0  0
   27.7477    8.1100   -5.7785 H   0  0  0  0  0
   27.7352    6.0837   -4.7367 H   0  0  0  0  0
   26.6821    5.9335   -6.1966 H   0  0  0  0  0
   25.3758    4.8236   -4.4290 H   0  0  0  0  0
   24.2771    6.1717   -2.8099 H   0  0  0  0  0
   25.2172    8.3983   -2.3013 H   0  0  0  0  0
   24.4228    8.6332   -3.9061 H   0  0  0  0  0
   27.3522    8.2521   -3.2730 H   0  0  0  0  0
  3  1  1  0  0  0
  2 22  1  0  0  0
 23  2  1  0  0  0
  4  3  1  0  0  0
  4  7  4  0  0  0
 15  4  4  0  0  0
 24  5  1  0  0  0
 22  6  2  0  0  0
  7 10  4  0  0  0
  8 11  1  0  0  0
 25  8  2  0  0  0
 24  9  2  0  0  0
 13 10  4  0  0  0
 11 26  1  0  0  0
 11 33  1  0  0  0
 33 12  2  0  0  0
 14 13  4  0  0  0
 13 25  1  0  0  0
 15 14  4  0  0  0
 16 15  1  0  0  0
 17 16  4  0  0  0
 21 16  4  0  0  0
 18 17  4  0  0  0
 19 18  4  0  0  0
 19 20  4  0  0  0
 22 19  1  0  0  0
 20 21  4  0  0  0
 23 24  1  0  0  0
 25 39  1  0  0  0
 26 27  1  0  0  0
 26 32  1  0  0  0
 27 28  1  0  0  0
 28 29  1  0  0  0
 29 30  1  0  0  0
 30 31  1  0  0  0
 31 32  1  0  0  0
 33 34  1  0  0  0
 34 35  1  0  0  0
 34 39  1  0  0  0
 35 36  1  0  0  0
 36 37  2  0  0  0
 37 38  1  0  0  0
 38 39  1  0  0  0
  1 40  1  0  0  0
  1 41  1  0  0  0
  1 42  1  0  0  0
  2 43  1  0  0  0
  5 44  1  0  0  0
  5 45  1  0  0  0
  7 46  1  0  0  0
 10 47  1  0  0  0
 14 48  1  0  0  0
 17 49  1  0  0  0
 18 50  1  0  0  0
 20 51  1  0  0  0
 21 52  1  0  0  0
 23 53  1  0  0  0
 23 54  1  0  0  0
 26 55  1  0  0  0
 27 56  1  0  0  0
 27 57  1  0  0  0
 28 58  1  0  0  0
 28 59  1  0  0  0
 29 60  1  0  0  0
 29 61  1  0  0  0
 30 62  1  0  0  0
 30 63  1  0  0  0
 31 64  1  0  0  0
 31 65  1  0  0  0
 32 66  1  0  0  0
 32 67  1  0  0  0
 34 68  1  0  0  0
 35 69  1  0  0  0
 35 70  1  0  0  0
 36 71  1  0  0  0
 37 72  1  0  0  0
 38 73  1  0  0  0
 38 74  1  0  0  0
 39 75  1  0  0  0
M  END
$$$$
