2x2r_ligand
  -I-interpret- 

 50 51  0  0  0  0  0  0  0  0999 V2000
   54.4910   10.9610   -1.2200 C   0  0  0  0  0
   54.5020    9.9070   -2.1230 C   0  0  0  0  0
   54.4670    8.6000   -1.6390 C   0  0  0  0  0
   54.4340    8.3490   -0.2670 C   0  0  0  0  0
   54.4200    9.4060    0.6360 C   0  0  0  0  0
   54.4680   10.7150    0.1500 C   0  0  0  0  0
   54.4250   11.8880    1.1300 C   0  0  0  0  0
   52.6770   11.9680    1.6670 S   0  0  0  0  0
   51.8290   12.3840    0.0980 C   0  0  0  0  0
   50.3180   12.5750    0.3160 C   0  0  0  0  0
   49.6570   13.0000   -1.0020 C   0  0  0  0  0
   50.1160   14.0210   -1.5510 O   0  0  0  0  0
   48.7190   12.2940   -1.4340 O   0  0  0  0  0
   49.7170   11.3290    0.8390 N   0  3  0  0  0
   54.8450   13.2180    0.4540 C   0  0  0  0  0
   56.2850   13.2070   -0.0870 C   0  0  0  0  0
   54.7270   14.4000    1.3940 C   0  0  0  0  0
   55.1510   15.6670    0.6510 C   0  0  0  0  0
   55.2980   11.6430    2.3760 C   0  0  0  0  0
   54.8180   12.0150    3.6340 C   0  0  0  0  0
   55.5880   11.8190    4.7750 C   0  0  0  0  0
   56.8510   11.2430    4.6670 C   0  0  0  0  0
   57.3350   10.8720    3.4140 C   0  0  0  0  0
   56.5640   11.0680    2.2700 C   0  0  0  0  0
   54.5004   11.9877   -1.5858 H   0  0  0  0  0
   54.5375   10.0984   -3.1955 H   0  0  0  0  0
   54.4654    7.7653   -2.3400 H   0  0  0  0  0
   54.4192    7.3219    0.0977 H   0  0  0  0  0
   54.3722    9.2161    1.7083 H   0  0  0  0  0
   51.9782   11.5652   -0.6059 H   0  0  0  0  0
   52.2455   13.3150   -0.2864 H   0  0  0  0  0
   50.1528   13.3608    1.0531 H   0  0  0  0  0
   48.5596   11.5685   -0.8258 H   0  0  0  0  0
   48.7163   11.4683    0.9791 H   0  0  0  0  0
   49.8659   10.5740    0.1695 H   0  0  0  0  0
   50.1557   11.0883    1.7278 H   0  0  0  0  0
   54.1504   13.3185   -0.3800 H   0  0  0  0  0
   56.9788   13.0255    0.7339 H   0  0  0  0  0
   56.3861   12.4171   -0.8313 H   0  0  0  0  0
   56.5069   14.1706   -0.5456 H   0  0  0  0  0
   55.3707   14.2478    2.2604 H   0  0  0  0  0
   53.6961   14.4994    1.7338 H   0  0  0  0  0
   56.1833   15.5625    0.3169 H   0  0  0  0  0
   54.5017   15.8151   -0.2119 H   0  0  0  0  0
   55.0693   16.5236    1.3201 H   0  0  0  0  0
   53.8287   12.4640    3.7221 H   0  0  0  0  0
   55.2040   12.1154    5.7511 H   0  0  0  0  0
   57.4581   11.0831    5.5580 H   0  0  0  0  0
   58.3252   10.4246    3.3281 H   0  0  0  0  0
   56.9496   10.7725    1.2943 H   0  0  0  0  0
  1  2  4  0  0  0
  1  6  4  0  0  0
  2  3  4  0  0  0
  3  4  4  0  0  0
  4  5  4  0  0  0
  5  6  4  0  0  0
  6  7  1  0  0  0
  7  8  1  0  0  0
  7 15  1  0  0  0
  7 19  1  0  0  0
  8  9  1  0  0  0
  9 10  1  0  0  0
 10 11  1  0  0  0
 10 14  1  0  0  0
 11 12  2  0  0  0
 11 13  1  0  0  0
 15 16  1  0  0  0
 15 17  1  0  0  0
 17 18  1  0  0  0
 19 20  4  0  0  0
 19 24  4  0  0  0
 20 21  4  0  0  0
 21 22  4  0  0  0
 22 23  4  0  0  0
 23 24  4  0  0  0
  1 25  1  0  0  0
  2 26  1  0  0  0
  3 27  1  0  0  0
  4 28  1  0  0  0
  5 29  1  0  0  0
  9 30  1  0  0  0
  9 31  1  0  0  0
 10 32  1  0  0  0
 13 33  1  0  0  0
 14 34  1  0  0  0
 14 35  1  0  0  0
 14 36  1  0  0  0
 15 37  1  0  0  0
 16 38  1  0  0  0
 16 39  1  0  0  0
 16 40  1  0  0  0
 17 41  1  0  0  0
 17 42  1  0  0  0
 18 43  1  0  0  0
 18 44  1  0  0  0
 18 45  1  0  0  0
 20 46  1  0  0  0
 21 47  1  0  0  0
 22 48  1  0  0  0
 23 49  1  0  0  0
 24 50  1  0  0  0
M  END
$$$$
