3ptg_ligand
  -I-interpret- 

 42 45  0  0  0  0  0  0  0  0999 V2000
    2.3070    1.1730   33.0450 C   0  0  0  0  0
    2.8700    0.2650   32.1030 N   0  0  0  0  0
    3.4810    0.7850   30.9930 C   0  0  0  0  0
    3.5110    2.2740   30.7700 C   0  0  0  0  0
    3.8000    3.0090   32.0710 C   0  0  0  0  0
    2.7580    2.5720   33.0720 C   0  0  0  0  0
    1.3490    0.8050   33.9890 C   0  0  0  0  0
    0.8370    1.7420   34.8920 C   0  0  0  0  0
    1.2360    3.0720   34.8960 C   0  0  0  0  0
    2.1940    3.4870   33.9750 C   0  0  0  0  0
    2.8040   -1.1910   32.4160 C   0  0  0  0  0
    1.5220   -1.8600   31.9750 C   0  0  0  0  0
    1.1220   -2.9430   32.4060 O   0  0  0  0  0
    0.8330   -1.2180   31.0560 N   0  0  0  0  0
   -0.2430   -1.7560   30.4080 C   0  0  0  0  0
   -1.1640   -3.1460   30.8090 S   0  0  0  0  0
   -2.3320   -3.0520   29.4800 C   0  0  0  0  0
   -2.0110   -1.9420   28.6650 C   0  0  0  0  0
   -0.8220   -1.1820   29.1790 C   0  0  0  0  0
   -0.1960    0.0220   28.5500 C   0  0  0  0  0
   -0.5110    0.4850   27.3710 N   0  0  0  0  0
    0.3510    1.5690   27.1580 N   0  0  0  0  0
    1.1330    1.6580   28.2410 C   0  0  0  0  0
    0.8020    0.6840   29.1250 N   0  0  0  0  0
   -2.8910   -1.6990   27.4470 C   0  0  0  0  0
    4.0290    0.0970   30.1240 O   0  0  0  0  0
    2.5388    2.5930   30.3943 H   0  0  0  0  0
    4.2980    2.5064   30.0525 H   0  0  0  0  0
    3.7582    4.0876   31.9198 H   0  0  0  0  0
    4.8012    2.7723   32.4312 H   0  0  0  0  0
    0.9950   -0.2253   34.0235 H   0  0  0  0  0
    0.0956    1.4155   35.6213 H   0  0  0  0  0
    0.8071    3.7781   35.6071 H   0  0  0  0  0
    2.5086    4.5304   33.9549 H   0  0  0  0  0
    2.8634   -1.2908   33.4998 H   0  0  0  0  0
    3.6207   -1.6735   31.8790 H   0  0  0  0  0
    1.1171   -0.2686   30.8146 H   0  0  0  0  0
   -3.1630   -3.7383   29.3171 H   0  0  0  0  0
    1.9169    2.4006   28.3898 H   0  0  0  0  0
   -2.8472   -2.5674   26.7896 H   0  0  0  0  0
   -3.9195   -1.5376   27.7698 H   0  0  0  0  0
   -2.5342   -0.8186   26.9124 H   0  0  0  0  0
  1  2  1  0  0  0
  1  6  4  0  0  0
  1  7  4  0  0  0
  2  3  1  0  0  0
  2 11  1  0  0  0
  3  4  1  0  0  0
  3 26  2  0  0  0
  4  5  1  0  0  0
  5  6  1  0  0  0
  6 10  4  0  0  0
  7  8  4  0  0  0
  8  9  4  0  0  0
  9 10  4  0  0  0
 11 12  1  0  0  0
 12 13  2  0  0  0
 12 14  1  0  0  0
 14 15  1  0  0  0
 15 16  4  0  0  0
 15 19  4  0  0  0
 16 17  4  0  0  0
 17 18  4  0  0  0
 18 19  4  0  0  0
 18 25  1  0  0  0
 19 20  1  0  0  0
 20 21  4  0  0  0
 20 24  4  0  0  0
 21 22  4  0  0  0
 22 23  4  0  0  0
 23 24  4  0  0  0
  4 27  1  0  0  0
  4 28  1  0  0  0
  5 29  1  0  0  0
  5 30  1  0  0  0
  7 31  1  0  0  0
  8 32  1  0  0  0
  9 33  1  0  0  0
 10 34  1  0  0  0
 11 35  1  0  0  0
 11 36  1  0  0  0
 14 37  1  0  0  0
 17 38  1  0  0  0
 23 39  1  0  0  0
 25 40  1  0  0  0
 25 41  1  0  0  0
 25 42  1  0  0  0
M  END
$$$$
