6dq5_ligand
  -I-interpret- 

 53 55  0  0  0  0  0  0  0  0999 V2000
  -28.4280   23.7260    5.9020 C   0  0  0  0  0
  -29.1550   22.3540    3.9270 C   0  0  0  0  0
  -28.8810   20.8740    1.9840 C   0  0  0  0  0
  -26.2990   24.7180    4.2180 C   0  0  0  0  0
  -24.8970   21.5400    2.0340 C   0  0  0  0  0
  -25.6310   22.7340   -0.0630 C   0  0  0  0  0
  -25.0370   21.8900   -2.1970 C   0  0  0  0  0
  -22.5520   19.0670    7.9130 C   0  0  0  0  0
  -22.5710   18.8890    6.3970 C   0  0  0  0  0
  -23.9970   18.8090    5.8610 C   0  0  0  0  0
  -24.4430   20.2560    3.8640 C   0  0  0  0  0
  -24.7950   21.3130    4.6960 C   0  0  0  0  0
  -25.2160   22.4960    4.0980 C   0  0  0  0  0
  -25.9230   23.3550    6.3020 C   0  0  0  0  0
  -27.3530   22.9020    6.5990 C   0  0  0  0  0
  -29.1440   22.0850    2.4260 C   0  0  0  0  0
  -27.6610   24.3600    3.6190 C   0  0  0  0  0
  -24.9530   21.6730    0.5150 C   0  0  0  0  0
  -25.6830   22.8590   -1.4440 C   0  0  0  0  0
  -24.3760   20.8520   -1.5620 C   0  0  0  0  0
  -23.9950   18.9960    4.4250 N   0  0  0  0  0
  -25.5950   23.6450    4.9110 N   0  0  0  0  0
  -28.4230   23.4780    4.4760 N   0  0  0  0  0
  -25.2420   22.5710    2.7780 N   0  0  0  0  0
  -24.3540   20.7770   -0.2460 N   0  0  0  0  0
  -24.4980   20.3980    2.5540 N   0  0  0  0  0
  -23.4450   19.7550    8.4740 O   0  0  0  0  0
  -21.6450   18.5270    8.5960 O   0  0  0  0  0
  -29.7670   21.6430    4.6500 O   0  0  0  0  0
  -28.2275   24.7833    6.0753 H   0  0  0  0  0
  -29.4015   23.4451    6.3039 H   0  0  0  0  0
  -28.6725   20.0697    2.6895 H   0  0  0  0  0
  -28.8716   20.6751    0.9123 H   0  0  0  0  0
  -26.4894   25.4881    4.9655 H   0  0  0  0  0
  -25.6647   25.0047    3.3792 H   0  0  0  0  0
  -26.1248   23.4724    0.5687 H   0  0  0  0  0
  -25.0495   21.9453   -3.2855 H   0  0  0  0  0
  -22.0576   17.9592    6.1522 H   0  0  0  0  0
  -22.0791   19.7489    5.9423 H   0  0  0  0  0
  -24.5996   19.5902    6.3244 H   0  0  0  0  0
  -24.4148   17.8299    6.0955 H   0  0  0  0  0
  -24.7427   21.2176    5.7806 H   0  0  0  0  0
  -25.2813   22.5228    6.5915 H   0  0  0  0  0
  -25.7905   24.2934    6.8405 H   0  0  0  0  0
  -27.4474   21.8784    6.2363 H   0  0  0  0  0
  -27.5087   23.0130    7.6721 H   0  0  0  0  0
  -29.3529   22.8915    1.7232 H   0  0  0  0  0
  -27.4899   23.8472    2.6725 H   0  0  0  0  0
  -28.2281   25.2823    3.4932 H   0  0  0  0  0
  -26.2109   23.6863   -1.9183 H   0  0  0  0  0
  -23.8696   20.0906   -2.1552 H   0  0  0  0  0
  -23.6799   18.2449    3.8110 H   0  0  0  0  0
  -24.0526   20.0907    7.8109 H   0  0  0  0  0
 15  1  1  0  0  0
  1 23  1  0  0  0
  2 16  1  0  0  0
 23  2  1  0  0  0
  2 29  2  0  0  0
 16  3  2  0  0  0
  4 17  1  0  0  0
 22  4  1  0  0  0
  5 18  1  0  0  0
 24  5  4  0  0  0
  5 26  4  0  0  0
 18  6  4  0  0  0
  6 19  4  0  0  0
 19  7  4  0  0  0
  7 20  4  0  0  0
  9  8  1  0  0  0
  8 27  1  0  0  0
  8 28  2  0  0  0
 10  9  1  0  0  0
 21 10  1  0  0  0
 12 11  4  0  0  0
 11 21  1  0  0  0
 11 26  4  0  0  0
 13 12  4  0  0  0
 22 13  1  0  0  0
 13 24  4  0  0  0
 14 15  1  0  0  0
 14 22  1  0  0  0
 17 23  1  0  0  0
 18 25  4  0  0  0
 20 25  4  0  0  0
  1 30  1  0  0  0
  1 31  1  0  0  0
  3 32  1  0  0  0
  3 33  1  0  0  0
  4 34  1  0  0  0
  4 35  1  0  0  0
  6 36  1  0  0  0
  7 37  1  0  0  0
  9 38  1  0  0  0
  9 39  1  0  0  0
 10 40  1  0  0  0
 10 41  1  0  0  0
 12 42  1  0  0  0
 14 43  1  0  0  0
 14 44  1  0  0  0
 15 45  1  0  0  0
 15 46  1  0  0  0
 16 47  1  0  0  0
 17 48  1  0  0  0
 17 49  1  0  0  0
 19 50  1  0  0  0
 20 51  1  0  0  0
 21 52  1  0  0  0
 27 53  1  0  0  0
M  END
$$$$
