2q6b_ligand
  -I-interpret- 

 73 76  0  0  0  0  0  0  0  0999 V2000
   32.5800   -7.5890   -2.8380 N   0  0  0  0  0
   34.2530   -8.9710   -3.4720 C   0  0  0  0  0
   34.7390   -7.8300   -2.8750 C   0  0  0  0  0
   34.9740  -10.1610   -4.0570 C   0  0  0  0  0
   38.8840   -6.9570   -2.2590 C   0  0  0  0  0
   37.0010   -7.2270   -3.7460 C   0  0  0  0  0
   31.2110   -7.0300   -2.6180 C   0  0  0  0  0
   31.9970   -9.8290   -3.9990 C   0  0  0  0  0
   38.3490   -6.9410   -3.5420 C   0  0  0  0  0
   31.7070  -11.5610   -5.5210 C   0  0  0  0  0
   33.4080   -5.7760   -0.3590 C   0  0  0  0  0
   33.5340   -4.4570    0.3940 C   0  0  0  0  0
   33.5860   -4.7220    1.8950 C   0  0  0  0  0
   34.9420   -5.5240    3.8210 C   0  0  0  0  0
   30.3850  -11.5130   -5.9670 C   0  0  0  0  0
   40.1880   -6.6770   -2.0840 F   0  0  0  0  0
   36.1840   -7.5320   -2.6630 C   0  0  0  0  0
   36.7160   -7.5440   -1.3730 C   0  0  0  0  0
   38.0680   -7.2590   -1.1700 C   0  0  0  0  0
   33.7280   -6.9740   -2.4850 C   0  0  0  0  0
   33.8780   -5.6350   -1.7980 C   0  0  0  0  0
   32.4080   -3.6450    0.1130 O   0  0  0  0  0
   34.9240   -5.3130    2.3140 C   0  0  0  0  0
   35.9690   -4.4380    1.9380 O   0  0  0  0  0
   36.1180   -6.4010    4.1710 C   0  0  0  0  0
   36.1270   -7.6820    3.8050 O   0  0  0  0  0
   37.0650   -5.9340    4.7780 O   0  0  0  0  0
   30.4680   -6.9740   -3.9470 C   0  0  0  0  0
   30.4610   -7.8300   -1.5540 C   0  0  0  0  0
   34.7620  -10.2030   -5.5750 C   0  0  0  0  0
   33.3480   -9.8740   -6.0740 C   0  0  0  0  0
   32.3570  -10.4190   -5.1470 N   0  0  0  0  0
   31.1440  -10.3010   -3.2640 O   0  0  0  0  0
   32.8810   -8.7700   -3.4280 C   0  0  0  0  0
   29.7200  -12.6790   -6.3440 C   0  0  0  0  0
   30.3790  -13.9030   -6.2840 C   0  0  0  0  0
   31.7010  -13.9550   -5.8460 C   0  0  0  0  0
   32.3680  -12.7890   -5.4680 C   0  0  0  0  0
   34.5797  -11.0750   -3.6129 H   0  0  0  0  0
   36.0397  -10.0765   -3.8444 H   0  0  0  0  0
   36.5869   -7.2117   -4.7541 H   0  0  0  0  0
   31.2853   -6.0119   -2.2359 H   0  0  0  0  0
   38.9876   -6.7034   -4.3928 H   0  0  0  0  0
   32.3599   -6.0754   -0.3632 H   0  0  0  0  0
   34.0290   -6.5211    0.1383 H   0  0  0  0  0
   34.4472   -3.9526    0.0782 H   0  0  0  0  0
   32.8010   -5.4353    2.1460 H   0  0  0  0  0
   33.4497   -3.7747    2.4167 H   0  0  0  0  0
   34.0155   -6.0016    4.1396 H   0  0  0  0  0
   35.0315   -4.5637    4.3288 H   0  0  0  0  0
   29.8679  -10.5550   -6.0210 H   0  0  0  0  0
   36.0752   -7.7762   -0.5224 H   0  0  0  0  0
   38.4841   -7.2727   -0.1626 H   0  0  0  0  0
   34.9214   -5.3205   -1.8196 H   0  0  0  0  0
   33.2797   -4.8834   -2.3130 H   0  0  0  0  0
   32.4876   -2.8142    0.5874 H   0  0  0  0  0
   35.0660   -6.2731    1.8178 H   0  0  0  0  0
   36.8112   -4.8143    2.2040 H   0  0  0  0  0
   35.3124   -7.8865    3.3399 H   0  0  0  0  0
   30.3288   -7.9861   -4.3269 H   0  0  0  0  0
   29.4961   -6.5033   -3.7989 H   0  0  0  0  0
   31.0494   -6.3927   -4.6626 H   0  0  0  0  0
   29.4890   -7.3707   -1.3739 H   0  0  0  0  0
   30.3217   -8.8536   -1.9019 H   0  0  0  0  0
   31.0391   -7.8344   -0.6299 H   0  0  0  0  0
   34.9603  -11.2303   -5.8807 H   0  0  0  0  0
   35.4170   -9.4392   -5.9941 H   0  0  0  0  0
   33.2014  -10.3160   -7.0595 H   0  0  0  0  0
   33.2293   -8.7921   -6.1338 H   0  0  0  0  0
   28.6858  -12.6318   -6.6851 H   0  0  0  0  0
   29.8635  -14.8172   -6.5783 H   0  0  0  0  0
   32.2178  -14.9135   -5.7983 H   0  0  0  0  0
   33.4037  -12.8373   -5.1318 H   0  0  0  0  0
  1  7  1  0  0  0
 20  1  4  0  0  0
  1 34  4  0  0  0
  3  2  4  0  0  0
  2  4  1  0  0  0
  2 34  4  0  0  0
  3 17  1  0  0  0
 20  3  4  0  0  0
  4 30  1  0  0  0
  9  5  4  0  0  0
  5 16  1  0  0  0
 19  5  4  0  0  0
  6  9  4  0  0  0
 17  6  4  0  0  0
  7 28  1  0  0  0
  7 29  1  0  0  0
  8 32  1  0  0  0
  8 33  2  0  0  0
 34  8  1  0  0  0
 10 15  4  0  0  0
 32 10  1  0  0  0
 10 38  4  0  0  0
 11 12  1  0  0  0
 21 11  1  0  0  0
 12 13  1  0  0  0
 12 22  1  0  0  0
 13 23  1  0  0  0
 23 14  1  0  0  0
 14 25  1  0  0  0
 15 35  4  0  0  0
 17 18  4  0  0  0
 18 19  4  0  0  0
 20 21  1  0  0  0
 23 24  1  0  0  0
 25 26  1  0  0  0
 25 27  2  0  0  0
 30 31  1  0  0  0
 31 32  1  0  0  0
 35 36  4  0  0  0
 36 37  4  0  0  0
 37 38  4  0  0  0
  4 39  1  0  0  0
  4 40  1  0  0  0
  6 41  1  0  0  0
  7 42  1  0  0  0
  9 43  1  0  0  0
 11 44  1  0  0  0
 11 45  1  0  0  0
 12 46  1  0  0  0
 13 47  1  0  0  0
 13 48  1  0  0  0
 14 49  1  0  0  0
 14 50  1  0  0  0
 15 51  1  0  0  0
 18 52  1  0  0  0
 19 53  1  0  0  0
 21 54  1  0  0  0
 21 55  1  0  0  0
 22 56  1  0  0  0
 23 57  1  0  0  0
 24 58  1  0  0  0
 26 59  1  0  0  0
 28 60  1  0  0  0
 28 61  1  0  0  0
 28 62  1  0  0  0
 29 63  1  0  0  0
 29 64  1  0  0  0
 29 65  1  0  0  0
 30 66  1  0  0  0
 30 67  1  0  0  0
 31 68  1  0  0  0
 31 69  1  0  0  0
 35 70  1  0  0  0
 36 71  1  0  0  0
 37 72  1  0  0  0
 38 73  1  0  0  0
M  END
$$$$
