4zvi_ligand
  -I-interpret- 

 33 34  0  0  0  0  0  0  0  0999 V2000
  -13.3290   17.8000   21.6540 C   0  0  0  0  0
  -12.4110   20.0350   22.2190 C   0  0  0  0  0
  -12.7270   20.1500   23.5820 C   0  0  0  0  0
  -12.1320   21.1290   24.3600 C   0  0  0  0  0
  -11.2210   22.0350   23.7890 C   0  0  0  0  0
  -10.9190   21.9320   22.4230 C   0  0  0  0  0
  -13.9540   16.9740   20.6100 C   0  0  0  0  0
  -13.8510   17.1250   19.2450 C   0  0  0  0  0
  -14.6200   16.1280   18.6440 C   0  0  0  0  0
  -15.1940   15.3890   19.6370 C   0  0  0  0  0
  -13.1540   17.2970   22.7490 O   0  0  0  0  0
  -12.9940   19.0890   21.3630 N   0  0  0  0  0
  -11.5150   20.9510   21.6530 C   0  0  0  0  0
  -10.5900   23.0820   24.6190 C   0  0  0  0  0
  -10.1510   22.7860   25.7110 O   0  0  0  0  0
  -10.5040   24.3570   24.1750 N   0  0  0  0  0
   -9.8860   25.4120   24.9980 C   0  0  0  0  0
   -9.5830   26.6400   24.1730 C   0  0  0  0  0
   -8.9150   27.5270   24.6500 O   0  0  0  0  0
  -10.0470   26.7590   22.9170 O   0  0  0  0  0
  -14.7760   15.9330   16.7680 Br  0  0  0  0  0
  -16.3600   13.8970   19.4830 Br  0  0  0  0  0
  -14.7890   15.9020   20.8260 N   0  0  0  0  0
  -13.4455   19.4641   24.0309 H   0  0  0  0  0
  -12.3713   21.1976   25.4212 H   0  0  0  0  0
  -10.2131   22.6268   21.9680 H   0  0  0  0  0
  -13.2713   17.8883   18.7260 H   0  0  0  0  0
  -13.1901   19.4019   20.4122 H   0  0  0  0  0
  -11.2844   20.8892   20.5895 H   0  0  0  0  0
  -10.8736   24.5925   23.2539 H   0  0  0  0  0
   -8.9519   25.0300   25.4098 H   0  0  0  0  0
  -10.5818   25.6879   25.7904 H   0  0  0  0  0
  -10.5551   25.9769   22.6893 H   0  0  0  0  0
  1  7  1  0  0  0
  1 11  2  0  0  0
 12  1  1  0  0  0
  2  3  4  0  0  0
  2 12  1  0  0  0
  2 13  4  0  0  0
  3  4  4  0  0  0
  4  5  4  0  0  0
  5  6  4  0  0  0
  5 14  1  0  0  0
  6 13  4  0  0  0
  7  8  4  0  0  0
  7 23  4  0  0  0
  8  9  4  0  0  0
  9 10  4  0  0  0
  9 21  1  0  0  0
 10 22  1  0  0  0
 10 23  4  0  0  0
 14 15  2  0  0  0
 14 16  1  0  0  0
 16 17  1  0  0  0
 17 18  1  0  0  0
 18 19  2  0  0  0
 18 20  1  0  0  0
  3 24  1  0  0  0
  4 25  1  0  0  0
  6 26  1  0  0  0
  8 27  1  0  0  0
 12 28  1  0  0  0
 13 29  1  0  0  0
 16 30  1  0  0  0
 17 31  1  0  0  0
 17 32  1  0  0  0
 20 33  1  0  0  0
M  END
$$$$
