1t4v_ligand
  -I-interpret- 

 54 55  0  0  0  0  0  0  0  0999 V2000
   10.2210  -12.9420   24.4940 N   0  0  0  0  0
   11.0380  -11.9630   24.1390 C   0  0  0  0  0
   10.8990  -10.7420   24.6420 N   0  0  0  0  0
   11.9500  -12.1800   23.2230 N   0  0  0  0  0
   12.9320  -11.3150   22.9410 O   0  0  0  0  0
   12.8750  -10.7330   21.6190 C   0  0  0  0  0
   13.4390  -11.7160   20.5680 C   0  0  0  0  0
   14.9370  -11.9080   20.6760 C   0  0  0  0  0
   15.1530  -12.9450   21.6270 O   0  0  0  0  0
   16.4310  -13.4820   21.6420 C   0  0  0  0  0
   17.4660  -12.9730   20.8410 C   0  0  0  0  0
   18.7500  -13.5690   20.9110 C   0  0  0  0  0
   18.9680  -14.6250   21.7400 C   0  0  0  0  0
   17.9680  -15.1090   22.5250 C   0  0  0  0  0
   16.7010  -14.5660   22.4860 C   0  0  0  0  0
   20.0380  -12.9820   19.9780 Cl  0  0  0  0  0
   18.2570  -16.2700   23.3980 C   0  0  0  0  0
   17.4590  -17.2030   23.2970 O   0  0  0  0  0
   19.2560  -16.3480   24.3080 N   0  0  0  0  0
   19.2990  -17.5030   25.2690 C   0  0  0  0  0
   18.0340  -17.8510   26.0680 C   0  0  0  0  0
   18.0230  -18.3200   27.3020 C   0  0  0  0  0
   19.7830  -15.0070   24.6680 C   0  0  0  0  0
   21.3050  -15.1490   24.5490 C   0  0  0  0  0
   21.9790  -14.5420   25.7180 C   0  0  0  0  0
   20.9150  -14.4310   26.7970 C   0  0  0  0  0
   19.6230  -14.9140   26.1870 C   0  0  0  0  0
   10.3032  -13.8592   24.0553 H   0  0  0  0  0
   10.1546  -10.5481   25.3118 H   0  0  0  0  0
   11.5366   -9.9980   24.3586 H   0  0  0  0  0
   11.9094  -13.0534   22.6977 H   0  0  0  0  0
   13.4733   -9.8219   21.6078 H   0  0  0  0  0
   11.8360  -10.5120   21.3746 H   0  0  0  0  0
   13.2289  -11.3021   19.5818 H   0  0  0  0  0
   12.9685  -12.6849   20.7353 H   0  0  0  0  0
   15.4235  -10.9854   20.9925 H   0  0  0  0  0
   15.3635  -12.1748   19.7091 H   0  0  0  0  0
   17.2842  -12.1303   20.1739 H   0  0  0  0  0
   19.9540  -15.0882   21.7757 H   0  0  0  0  0
   15.9105  -14.9803   23.1117 H   0  0  0  0  0
   20.0366  -17.2180   26.0192 H   0  0  0  0  0
   19.4902  -18.3786   24.6487 H   0  0  0  0  0
   17.0719  -17.6991   25.5787 H   0  0  0  0  0
   18.9619  -18.4874   27.8298 H   0  0  0  0  0
   17.0750  -18.5399   27.7930 H   0  0  0  0  0
   19.3250  -14.2041   24.0903 H   0  0  0  0  0
   21.6373  -14.6378   23.6455 H   0  0  0  0  0
   21.5581  -16.2084   24.5067 H   0  0  0  0  0
   22.3979  -13.5662   25.4720 H   0  0  0  0  0
   22.8199  -15.1502   26.0511 H   0  0  0  0  0
   20.8193  -13.4015   27.1422 H   0  0  0  0  0
   21.1811  -15.0318   27.6667 H   0  0  0  0  0
   19.3756  -15.8968   26.5882 H   0  0  0  0  0
   18.8227  -14.2140   26.4269 H   0  0  0  0  0
  1  2  2  0  0  0
  2  3  1  0  0  0
  2  4  1  0  0  0
  4  5  1  0  0  0
  5  6  1  0  0  0
  6  7  1  0  0  0
  7  8  1  0  0  0
  8  9  1  0  0  0
  9 10  1  0  0  0
 10 11  4  0  0  0
 10 15  4  0  0  0
 11 12  4  0  0  0
 12 13  4  0  0  0
 12 16  1  0  0  0
 13 14  4  0  0  0
 14 15  4  0  0  0
 14 17  1  0  0  0
 17 18  2  0  0  0
 17 19  1  0  0  0
 19 20  1  0  0  0
 19 23  1  0  0  0
 20 21  1  0  0  0
 21 22  2  0  0  0
 23 24  1  0  0  0
 23 27  1  0  0  0
 24 25  1  0  0  0
 25 26  1  0  0  0
 26 27  1  0  0  0
  1 28  1  0  0  0
  3 29  1  0  0  0
  3 30  1  0  0  0
  4 31  1  0  0  0
  6 32  1  0  0  0
  6 33  1  0  0  0
  7 34  1  0  0  0
  7 35  1  0  0  0
  8 36  1  0  0  0
  8 37  1  0  0  0
 11 38  1  0  0  0
 13 39  1  0  0  0
 15 40  1  0  0  0
 20 41  1  0  0  0
 20 42  1  0  0  0
 21 43  1  0  0  0
 22 44  1  0  0  0
 22 45  1  0  0  0
 23 46  1  0  0  0
 24 47  1  0  0  0
 24 48  1  0  0  0
 25 49  1  0  0  0
 25 50  1  0  0  0
 26 51  1  0  0  0
 26 52  1  0  0  0
 27 53  1  0  0  0
 27 54  1  0  0  0
M  END
$$$$
