4dst_ligand
  -I-interpret- 

 27 28  0  0  0  0  0  0  0  0999 V2000
   24.2620   14.2370   15.3680 C   0  0  0  0  0
   26.6120   12.6620   10.1390 Cl  0  0  0  0  0
   24.3200   14.3760   13.8710 C   0  0  0  0  0
   23.1610   16.2420    8.0770 Cl  0  0  0  0  0
   25.1460   13.7020   13.0460 C   0  0  0  0  0
   24.8570   14.1540   11.6710 C   0  0  0  0  0
   23.8280   15.1150   11.8120 C   0  0  0  0  0
   23.5300   15.2240   13.1510 N   0  0  0  0  0
   23.3190   15.7460   10.6890 C   0  0  0  0  0
   23.8190   15.4300    9.4500 C   0  0  0  0  0
   24.8250   14.4890    9.2870 C   0  0  0  0  0
   25.3550   13.8450   10.3870 C   0  0  0  0  0
   26.1720   12.6870   13.4790 C   0  0  0  0  0
   27.4340   13.3990   13.9800 C   0  0  0  0  0
   28.4340   12.4020   14.3870 N   0  3  0  0  0
   24.0136   13.2077   15.6267 H   0  0  0  0  0
   25.2315   14.4961   15.7935 H   0  0  0  0  0
   23.4990   14.9069   15.7645 H   0  0  0  0  0
   22.5270   16.4883   10.7882 H   0  0  0  0  0
   25.1975   14.2578    8.2891 H   0  0  0  0  0
   26.4303   12.0534   12.6305 H   0  0  0  0  0
   25.7586   12.0801   14.2846 H   0  0  0  0  0
   27.1805   14.0271   14.8340 H   0  0  0  0  0
   27.8430   14.0165   13.1803 H   0  0  0  0  0
   29.2720   12.8789   14.7197 H   0  0  0  0  0
   28.0510   11.8237   15.1348 H   0  0  0  0  0
   28.6706   11.8138   13.5880 H   0  0  0  0  0
  3  1  1  0  0  0
 12  2  1  0  0  0
  3  5  4  0  0  0
  8  3  4  0  0  0
 10  4  1  0  0  0
  6  5  4  0  0  0
  5 13  1  0  0  0
  7  6  4  0  0  0
  6 12  4  0  0  0
  7  8  4  0  0  0
  9  7  4  0  0  0
  9 10  4  0  0  0
 10 11  4  0  0  0
 11 12  4  0  0  0
 13 14  1  0  0  0
 14 15  1  0  0  0
  1 16  1  0  0  0
  1 17  1  0  0  0
  1 18  1  0  0  0
  9 19  1  0  0  0
 11 20  1  0  0  0
 13 21  1  0  0  0
 13 22  1  0  0  0
 14 23  1  0  0  0
 14 24  1  0  0  0
 15 25  1  0  0  0
 15 26  1  0  0  0
 15 27  1  0  0  0
M  END
$$$$
