4eh3_ligand
  -I-interpret- 

 32 34  0  0  0  0  0  0  0  0999 V2000
   -1.4160   -0.8740  -23.9600 C   0  0  0  0  0
   -0.5410   -0.3050  -24.8910 C   0  0  0  0  0
   -0.3640    1.0710  -24.9420 C   0  0  0  0  0
   -1.0660    1.8870  -24.0640 C   0  0  0  0  0
   -1.9490    1.3290  -23.1390 C   0  0  0  0  0
   -2.1220   -0.0570  -23.0780 C   0  0  0  0  0
   -2.6500    2.1050  -22.2170 C   0  0  0  0  0
   -3.0240    1.5270  -20.8530 C   0  0  0  0  0
   -2.6680    0.0070  -20.8360 C   0  0  0  0  0
   -2.9790   -0.5870  -22.1450 O   0  0  0  0  0
   -2.9350    3.2740  -22.4660 O   0  0  0  0  0
   -3.3160   -0.6500  -19.6110 C   0  0  0  0  0
   -4.6820   -0.4950  -19.3770 C   0  0  0  0  0
   -5.2710   -1.0750  -18.2600 C   0  0  0  0  0
   -4.4850   -1.8090  -17.3790 C   0  0  0  0  0
   -3.1150   -1.9670  -17.6030 C   0  0  0  0  0
   -2.5290   -1.3850  -18.7250 C   0  0  0  0  0
   -5.0680   -2.3730  -16.2930 O   0  0  0  0  0
    0.1530   -1.0840  -25.7620 O   0  0  0  0  0
   -0.8830    3.2260  -24.1220 O   0  0  0  0  0
   -1.5459   -1.9556  -23.9240 H   0  0  0  0  0
    0.3221    1.5087  -25.6671 H   0  0  0  0  0
   -4.0915    1.6584  -20.6763 H   0  0  0  0  0
   -2.4718    2.0445  -20.0685 H   0  0  0  0  0
   -1.5996   -0.1682  -20.7093 H   0  0  0  0  0
   -5.2899    0.0832  -20.0728 H   0  0  0  0  0
   -6.3388   -0.9556  -18.0764 H   0  0  0  0  0
   -2.5081   -2.5423  -16.9039 H   0  0  0  0  0
   -1.4612   -1.5035  -18.9093 H   0  0  0  0  0
   -4.4045   -2.8436  -15.7832 H   0  0  0  0  0
    0.6995   -0.5276  -26.3218 H   0  0  0  0  0
   -1.4316    3.6518  -23.4592 H   0  0  0  0  0
  1  2  4  0  0  0
  1  6  4  0  0  0
  2  3  4  0  0  0
  2 19  1  0  0  0
  3  4  4  0  0  0
  4  5  4  0  0  0
  4 20  1  0  0  0
  5  6  4  0  0  0
  5  7  1  0  0  0
  6 10  1  0  0  0
  7  8  1  0  0  0
  7 11  2  0  0  0
  8  9  1  0  0  0
  9 10  1  0  0  0
  9 12  1  0  0  0
 12 13  4  0  0  0
 12 17  4  0  0  0
 13 14  4  0  0  0
 14 15  4  0  0  0
 15 16  4  0  0  0
 15 18  1  0  0  0
 16 17  4  0  0  0
  1 21  1  0  0  0
  3 22  1  0  0  0
  8 23  1  0  0  0
  8 24  1  0  0  0
  9 25  1  0  0  0
 13 26  1  0  0  0
 14 27  1  0  0  0
 16 28  1  0  0  0
 17 29  1  0  0  0
 18 30  1  0  0  0
 19 31  1  0  0  0
 20 32  1  0  0  0
M  END
$$$$
