3l3l_ligand
  -I-interpret- 

 37 39  0  0  0  0  0  0  0  0999 V2000
  -28.7080   65.1120   24.2910 C   0  0  0  0  0
  -27.8410   65.9550   23.6210 C   0  0  0  0  0
  -28.2640   64.3350   25.3420 C   0  0  0  0  0
  -26.0720   65.2250   25.0190 C   0  0  0  0  0
  -26.5120   66.0220   23.9800 C   0  0  0  0  0
  -26.9340   64.4000   25.6880 C   0  0  0  0  0
  -24.7410   65.0730   25.6170 C   0  0  0  0  0
  -25.6700   66.9500   23.2160 C   0  0  0  0  0
  -26.2550   63.6590   26.7810 C   0  0  0  0  0
  -23.3550   62.4670   27.2140 C   0  0  0  0  0
  -24.2770   63.8380   29.0150 C   0  0  0  0  0
  -22.1830   62.1540   28.1100 C   0  0  0  0  0
  -23.0850   63.4460   29.8530 C   0  0  0  0  0
  -23.8640   63.8410   27.5660 C   0  0  0  0  0
  -22.6640   62.1060   29.4770 N   0  3  0  0  0
  -24.9400   64.2500   26.7020 N   0  0  0  0  0
  -24.3290   66.8950   23.4850 N   0  0  0  0  0
  -23.6920   65.5380   25.1910 O   0  0  0  0  0
  -26.2050   67.7030   22.4160 O   0  0  0  0  0
  -29.7532   65.0603   23.9861 H   0  0  0  0  0
  -28.2115   66.5717   22.8021 H   0  0  0  0  0
  -28.9507   63.6855   25.8848 H   0  0  0  0  0
  -26.2701   62.5749   26.6685 H   0  0  0  0  0
  -26.7342   63.7530   27.7555 H   0  0  0  0  0
  -24.1433   61.7278   27.3566 H   0  0  0  0  0
  -23.0457   62.4386   26.1692 H   0  0  0  0  0
  -24.6248   64.8297   29.3044 H   0  0  0  0  0
  -25.0891   63.1273   29.1685 H   0  0  0  0  0
  -21.4155   62.9211   28.0077 H   0  0  0  0  0
  -21.7419   61.1967   27.8323 H   0  0  0  0  0
  -23.3552   63.4643   30.9088 H   0  0  0  0  0
  -22.2693   64.1490   29.6844 H   0  0  0  0  0
  -23.0695   64.5724   27.4175 H   0  0  0  0  0
  -21.9240   61.7816   30.0996 H   0  0  0  0  0
  -23.4470   61.4567   29.5523 H   0  0  0  0  0
  -23.6852   67.5187   22.9982 H   0  0  0  0  0
  -23.9735   66.2304   24.1722 H   0  0  0  0  0
  1  2  4  0  0  0
  3  1  4  0  0  0
  5  2  4  0  0  0
  6  3  4  0  0  0
  4  5  4  0  0  0
  6  4  4  0  0  0
  7  4  1  0  0  0
  5  8  1  0  0  0
  9  6  1  0  0  0
 16  7  1  0  0  0
  7 18  2  0  0  0
  8 17  1  0  0  0
  8 19  2  0  0  0
 16  9  1  0  0  0
 10 12  1  0  0  0
 14 10  1  0  0  0
 11 13  1  0  0  0
 14 11  1  0  0  0
 12 15  1  0  0  0
 13 15  1  0  0  0
 14 16  1  0  0  0
  1 20  1  0  0  0
  2 21  1  0  0  0
  3 22  1  0  0  0
  9 23  1  0  0  0
  9 24  1  0  0  0
 10 25  1  0  0  0
 10 26  1  0  0  0
 11 27  1  0  0  0
 11 28  1  0  0  0
 12 29  1  0  0  0
 12 30  1  0  0  0
 13 31  1  0  0  0
 13 32  1  0  0  0
 14 33  1  0  0  0
 15 34  1  0  0  0
 15 35  1  0  0  0
 17 36  1  0  0  0
 17 37  1  0  0  0
M  END
$$$$
