4rvl_ligand
  -I-interpret- 

 31 34  0  0  0  0  0  0  0  0999 V2000
    9.2500    5.9600   15.1670 N   0  0  0  0  0
    8.6280    6.6340   15.8910 C   0  0  0  0  0
    8.0480    7.4680   16.6950 C   0  0  0  0  0
    8.7920    8.5070   17.1360 N   0  0  0  0  0
    8.3000    9.4330   17.9700 C   0  0  0  0  0
    6.9810    9.3620   18.3880 C   0  0  0  0  0
    6.2190   10.1520   19.1920 N   0  0  0  0  0
    4.9630    9.6280   19.2500 C   0  0  0  0  0
    3.9080   10.1030   19.9310 N   0  0  0  0  0
    2.7440    9.4420   19.8650 C   0  0  0  0  0
    6.6950    7.3510   17.0750 C   0  0  0  0  0
    6.1710    8.3240   17.9360 C   0  0  0  0  0
    4.9060    8.4870   18.4840 C   0  0  0  0  0
    3.7030    7.7690   18.3950 C   0  0  0  0  0
    2.5900    8.2640   19.1250 C   0  0  0  0  0
    1.2170    7.6620   19.1120 C   0  0  0  0  0
    0.3250    7.8690   20.1820 C   0  0  0  0  0
   -0.9630    7.3400   20.1510 C   0  0  0  0  0
   -1.3950    6.6130   19.0480 C   0  0  0  0  0
   -0.5330    6.4170   17.9700 C   0  0  0  0  0
    0.7570    6.9530   17.9960 C   0  0  0  0  0
    1.5600    6.7210   16.9190 O   0  0  0  0  0
    8.9387   10.2438   18.3203 H   0  0  0  0  0
    1.8851    9.8366   20.4079 H   0  0  0  0  0
    6.0771    6.5303   16.7107 H   0  0  0  0  0
    3.6262    6.8663   17.7889 H   0  0  0  0  0
    0.6469    8.4508   21.0457 H   0  0  0  0  0
   -1.6348    7.4967   20.9950 H   0  0  0  0  0
   -2.4027    6.1982   19.0259 H   0  0  0  0  0
   -0.8663    5.8441   17.1046 H   0  0  0  0  0
    1.0721    6.2233   16.2588 H   0  0  0  0  0
  1  2  3  0  0  0
  2  3  1  0  0  0
  3  4  4  0  0  0
  3 11  4  0  0  0
  4  5  4  0  0  0
  5  6  4  0  0  0
  6  7  4  0  0  0
  6 12  4  0  0  0
  7  8  4  0  0  0
  8  9  4  0  0  0
  8 13  4  0  0  0
  9 10  4  0  0  0
 10 15  4  0  0  0
 11 12  4  0  0  0
 12 13  4  0  0  0
 13 14  4  0  0  0
 14 15  4  0  0  0
 15 16  1  0  0  0
 16 17  4  0  0  0
 16 21  4  0  0  0
 17 18  4  0  0  0
 18 19  4  0  0  0
 19 20  4  0  0  0
 20 21  4  0  0  0
 21 22  1  0  0  0
  5 23  1  0  0  0
 10 24  1  0  0  0
 11 25  1  0  0  0
 14 26  1  0  0  0
 17 27  1  0  0  0
 18 28  1  0  0  0
 19 29  1  0  0  0
 20 30  1  0  0  0
 22 31  1  0  0  0
M  END
$$$$
