### 
### Created by X-TOOL on Wed Jan  1 15:39:35 2020
### 

@<TRIPOS>MOLECULE
6hgz_ligand
   57    60     1     0     0
SMALL
GAST_HUCK


@<TRIPOS>ATOM
      1 N1        -11.8870   -8.2290   -1.6240 N.ar      1 AR6        -0.2698
      2 C2        -10.5460   -8.4400   -1.6640 C.ar      1 AR6         0.0533
      3 N3         -9.7320   -7.6720   -2.4060 N.ar      1 AR6        -0.2714
      4 C4        -10.2170   -6.6350   -3.1320 C.ar      1 AR6         0.1613
      5 C5        -11.6330   -6.3450   -3.1070 C.ar      1 AR6         0.1045
      6 C6        -12.4820   -7.2310   -2.3100 C.ar      1 AR6         0.1298
      7 N6        -13.8090   -7.0070   -2.2810 N.pl3     1 AR6        -0.3152
      8 N7        -11.8430   -5.2820   -3.8690 N.2       1 AR6        -0.2958
      9 C8        -10.6380   -4.9230   -4.3700 C.2       1 AR6         0.1123
     10 N9         -9.6850   -5.7390   -3.9180 N.pl3     1 AR6        -0.1919
     11 PA         -9.6440   -3.8330   -8.8310 P.3       1 AR6         0.2972
     12 PB         -9.3100   -1.0050   -9.6320 P.3       1 AR6         0.2972
     13 C1'        -8.2490   -5.6440   -4.1810 C.3       1 AR6         0.2010
     14 O1A        -8.9570   -4.9140   -9.6150 O.co2     1 AR6        -0.6127
     15 O1B       -10.1050   -0.6110   -8.4320 O.co2     1 AR6        -0.6127
     16 C1D        -4.3670    0.2480  -10.4700 C.3       1 AR6         0.1854
     17 O1D        -3.0980    0.7440  -10.0240 O.3       1 AR6        -0.3649
     18 C2'        -7.8260   -6.8000   -5.0410 C.3       1 AR6         0.1385
     19 O2'        -6.5460   -7.1450   -4.4990 O.3       1 AR6        -0.3836
     20 O2A       -11.1460   -3.6590   -8.8390 O.co2     1 AR6        -0.6127
     21 O2B        -9.7670   -0.6760  -11.0490 O.co2     1 AR6        -0.6127
     22 C2D        -5.1780    1.4320  -10.9570 C.3       1 AR6         0.1339
     23 O2D        -4.3690    2.5160  -11.4620 O.3       1 AR6        -0.3841
     24 C3'        -7.6880   -6.2350   -6.4480 C.3       1 AR6         0.1149
     25 O3'        -6.7540   -6.9420   -7.3340 O.3       1 AR6        -0.3864
     26 O3A        -8.8370   -2.5190   -9.3900 O.3       1 AR6        -0.1319
     27 C3D        -5.9050    1.8660   -9.6840 C.3       1 AR6         0.1144
     28 O3D        -5.0310    2.8300   -9.1640 O.3       1 AR6        -0.3864
     29 C4'        -7.2780   -4.8310   -6.1150 C.3       1 AR6         0.1189
     30 O4'        -7.8930   -4.4570   -4.8920 O.3       1 AR6        -0.3364
     31 C4D        -5.9020    0.7180   -8.7010 C.3       1 AR6         0.1184
     32 O4D        -5.0020   -0.2680   -9.2910 O.3       1 AR6        -0.3403
     33 C5'        -7.6890   -3.8990   -7.1810 C.3       1 AR6         0.1128
     34 O5'        -9.0940   -3.8210   -7.3330 O.3       1 AR6        -0.2476
     35 C5D        -7.2450    0.0800   -8.3880 C.3       1 AR6         0.1128
     36 O5D        -7.9190   -0.1680   -9.6120 O.3       1 AR6        -0.2476
     37 H1        -10.1216   -9.2498   -1.0816 H         1 AR6         0.0996
     38 H2        -14.2122   -6.2302   -2.8241 H         1 AR6         0.1820
     39 H3        -14.4212   -7.6124   -1.7157 H         1 AR6         0.1820
     40 H4        -10.4704   -4.0862   -5.0465 H         1 AR6         0.1349
     41 H5         -7.7103   -5.6697   -3.2223 H         1 AR6         0.0996
     42 H6         -4.2611   -0.5186  -11.2518 H         1 AR6         0.0935
     43 H7         -3.2354    1.4233   -9.3742 H         1 AR6         0.2126
     44 H8         -8.5302   -7.6445   -5.0114 H         1 AR6         0.0676
     45 H9         -6.1862   -7.8794   -4.9823 H         1 AR6         0.2101
     46 H10        -5.8883    1.1205  -11.7370 H         1 AR6         0.0671
     47 H11        -3.7943    2.8284  -10.7730 H         1 AR6         0.2101
     48 H12        -8.6680   -6.2352   -6.9475 H         1 AR6         0.0648
     49 H13        -7.0370   -7.8431   -7.4365 H         1 AR6         0.2100
     50 H14        -6.9190    2.2471   -9.8752 H         1 AR6         0.0648
     51 H15        -4.9279    3.5344   -9.7929 H         1 AR6         0.2100
     52 H16        -6.1845   -4.7893   -6.0036 H         1 AR6         0.0651
     53 H17        -5.4834    1.0790   -7.7500 H         1 AR6         0.0651
     54 H18        -7.2515   -4.2380   -8.1316 H         1 AR6         0.0648
     55 H19        -7.3062   -2.8968   -6.9379 H         1 AR6         0.0648
     56 H20        -7.8439    0.7611   -7.7655 H         1 AR6         0.0648
     57 H21        -7.0902   -0.8672   -7.8506 H         1 AR6         0.0648
@<TRIPOS>BOND
     1    2    1 ar 
     2    6    1 ar 
     3    3    2 ar 
     4    4    3 ar 
     5    4    5 ar 
     6   10    4 1  
     7    5    6 ar 
     8    8    5 1  
     9    6    7 1  
    10    9    8 2  
    11   10    9 1  
    12   13   10 1  
    13   11   14 ar 
    14   11   20 ar 
    15   26   11 1  
    16   11   34 1  
    17   12   15 ar 
    18   12   21 ar 
    19   12   26 1  
    20   36   12 1  
    21   13   18 1  
    22   30   13 1  
    23   16   17 1  
    24   16   22 1  
    25   32   16 1  
    26   18   19 1  
    27   24   18 1  
    28   22   23 1  
    29   27   22 1  
    30   24   25 1  
    31   29   24 1  
    32   27   28 1  
    33   31   27 1  
    34   29   30 1  
    35   33   29 1  
    36   31   32 1  
    37   35   31 1  
    38   34   33 1  
    39   35   36 1  
    40    2   37 1  
    41    7   38 1  
    42    7   39 1  
    43    9   40 1  
    44   13   41 1  
    45   16   42 1  
    46   17   43 1  
    47   18   44 1  
    48   19   45 1  
    49   22   46 1  
    50   23   47 1  
    51   24   48 1  
    52   25   49 1  
    53   27   50 1  
    54   28   51 1  
    55   29   52 1  
    56   31   53 1  
    57   33   54 1  
    58   33   55 1  
    59   35   56 1  
    60   35   57 1  
@<TRIPOS>SUBSTRUCTURE
     1 AR6         1

