6hgz_ligand
  -I-interpret- 

 59 62  0  0  0  0  0  0  0  0999 V2000
  -11.8870   -8.2290   -1.6240 N   0  0  0  0  0
  -10.5460   -8.4400   -1.6640 C   0  0  0  0  0
   -9.7320   -7.6720   -2.4060 N   0  0  0  0  0
  -10.2170   -6.6350   -3.1320 C   0  0  0  0  0
  -11.6330   -6.3450   -3.1070 C   0  0  0  0  0
  -12.4820   -7.2310   -2.3100 C   0  0  0  0  0
  -13.8090   -7.0070   -2.2810 N   0  0  0  0  0
  -11.8430   -5.2820   -3.8690 N   0  0  0  0  0
  -10.6380   -4.9230   -4.3700 C   0  0  0  0  0
   -9.6850   -5.7390   -3.9180 N   0  0  0  0  0
   -9.6440   -3.8330   -8.8310 P   0  0  0  0  0
   -9.3100   -1.0050   -9.6320 P   0  0  0  0  0
   -8.2490   -5.6440   -4.1810 C   0  0  0  0  0
   -8.9570   -4.9140   -9.6150 O   0  0  0  0  0
  -10.1050   -0.6110   -8.4320 O   0  0  0  0  0
   -4.3670    0.2480  -10.4700 C   0  0  0  0  0
   -3.0980    0.7440  -10.0240 O   0  0  0  0  0
   -7.8260   -6.8000   -5.0410 C   0  0  0  0  0
   -6.5460   -7.1450   -4.4990 O   0  0  0  0  0
  -11.1460   -3.6590   -8.8390 O   0  0  0  0  0
   -9.7670   -0.6760  -11.0490 O   0  0  0  0  0
   -5.1780    1.4320  -10.9570 C   0  0  0  0  0
   -4.3690    2.5160  -11.4620 O   0  0  0  0  0
   -7.6880   -6.2350   -6.4480 C   0  0  0  0  0
   -6.7540   -6.9420   -7.3340 O   0  0  0  0  0
   -8.8370   -2.5190   -9.3900 O   0  0  0  0  0
   -5.9050    1.8660   -9.6840 C   0  0  0  0  0
   -5.0310    2.8300   -9.1640 O   0  0  0  0  0
   -7.2780   -4.8310   -6.1150 C   0  0  0  0  0
   -7.8930   -4.4570   -4.8920 O   0  0  0  0  0
   -5.9020    0.7180   -8.7010 C   0  0  0  0  0
   -5.0020   -0.2680   -9.2910 O   0  0  0  0  0
   -7.6890   -3.8990   -7.1810 C   0  0  0  0  0
   -9.0940   -3.8210   -7.3330 O   0  0  0  0  0
   -7.2450    0.0800   -8.3880 C   0  0  0  0  0
   -7.9190   -0.1680   -9.6120 O   0  0  0  0  0
  -10.1192   -9.2542   -1.0783 H   0  0  0  0  0
  -14.4153   -7.6065   -1.7212 H   0  0  0  0  0
  -14.2082   -6.2378   -2.8189 H   0  0  0  0  0
  -10.4703   -4.0854   -5.0471 H   0  0  0  0  0
   -7.7568   -5.6397   -3.2085 H   0  0  0  0  0
   -4.2771   -0.4986  -11.2590 H   0  0  0  0  0
   -2.5624    0.0122   -9.7091 H   0  0  0  0  0
   -8.4966   -7.6589   -5.0668 H   0  0  0  0  0
   -6.1824   -7.8872   -4.9875 H   0  0  0  0  0
  -11.3840   -2.9170   -8.2783 H   0  0  0  0  0
   -9.1236   -1.0115  -11.6775 H   0  0  0  0  0
   -5.8237    1.1681  -11.7946 H   0  0  0  0  0
   -4.9397    3.2310  -11.7530 H   0  0  0  0  0
   -8.5931   -6.3273   -7.0483 H   0  0  0  0  0
   -6.7394   -6.5105   -8.1915 H   0  0  0  0  0
   -6.9287    2.1965   -9.8596 H   0  0  0  0  0
   -5.3922    3.1799   -8.3462 H   0  0  0  0  0
   -6.1928   -4.7866   -6.0234 H   0  0  0  0  0
   -5.5936    1.1027   -7.7289 H   0  0  0  0  0
   -7.2723   -4.2628   -8.1202 H   0  0  0  0  0
   -7.3276   -2.9063   -6.9128 H   0  0  0  0  0
   -7.8388    0.7477   -7.7638 H   0  0  0  0  0
   -7.0970   -0.8549   -7.8476 H   0  0  0  0  0
  2  1  4  0  0  0
  6  1  4  0  0  0
  3  2  4  0  0  0
  4  3  4  0  0  0
  4  5  4  0  0  0
 10  4  4  0  0  0
  5  6  4  0  0  0
  8  5  4  0  0  0
  6  7  1  0  0  0
  9  8  4  0  0  0
 10  9  4  0  0  0
 13 10  1  0  0  0
 11 14  2  0  0  0
 11 20  1  0  0  0
 26 11  1  0  0  0
 11 34  1  0  0  0
 12 15  2  0  0  0
 12 21  1  0  0  0
 12 26  1  0  0  0
 36 12  1  0  0  0
 13 18  1  0  0  0
 30 13  1  0  0  0
 16 17  1  0  0  0
 16 22  1  0  0  0
 32 16  1  0  0  0
 18 19  1  0  0  0
 24 18  1  0  0  0
 22 23  1  0  0  0
 27 22  1  0  0  0
 24 25  1  0  0  0
 29 24  1  0  0  0
 27 28  1  0  0  0
 31 27  1  0  0  0
 29 30  1  0  0  0
 33 29  1  0  0  0
 31 32  1  0  0  0
 35 31  1  0  0  0
 34 33  1  0  0  0
 35 36  1  0  0  0
  2 37  1  0  0  0
  7 38  1  0  0  0
  7 39  1  0  0  0
  9 40  1  0  0  0
 13 41  1  0  0  0
 16 42  1  0  0  0
 17 43  1  0  0  0
 18 44  1  0  0  0
 19 45  1  0  0  0
 20 46  1  0  0  0
 21 47  1  0  0  0
 22 48  1  0  0  0
 23 49  1  0  0  0
 24 50  1  0  0  0
 25 51  1  0  0  0
 27 52  1  0  0  0
 28 53  1  0  0  0
 29 54  1  0  0  0
 31 55  1  0  0  0
 33 56  1  0  0  0
 33 57  1  0  0  0
 35 58  1  0  0  0
 35 59  1  0  0  0
M  END
$$$$
