5jcb_ligand
  -I-interpret- 

 57 62  0  0  0  0  0  0  0  0999 V2000
  -18.7300   65.1020  -45.3170 C   0  0  0  0  0
  -19.9620   67.0120  -44.1850 C   0  0  0  0  0
  -19.8380   66.1750  -42.9000 C   0  0  0  0  0
  -18.6610   65.1850  -42.7040 C   0  0  0  0  0
  -20.2710   66.9750  -40.6720 O   0  0  0  0  0
  -20.0830   67.2140  -41.8540 C   0  0  0  0  0
  -17.4090   65.5730  -41.9670 C   0  0  0  0  0
  -16.2110   65.8700  -42.6220 C   0  0  0  0  0
  -15.0290   66.1680  -41.9140 C   0  0  0  0  0
  -13.8770   66.4810  -42.6060 O   0  0  0  0  0
  -13.8390   66.3900  -44.0340 C   0  0  0  0  0
  -15.0160   66.2800  -40.4310 C   0  0  0  0  0
  -13.8530   65.8510  -39.7100 O   0  0  0  0  0
  -13.2490   64.6720  -40.2280 C   0  0  0  0  0
  -16.2910   65.8720  -39.8020 C   0  0  0  0  0
  -16.3170   65.9020  -38.4350 O   0  0  0  0  0
  -17.4380   65.3950  -37.7230 C   0  0  0  0  0
  -17.4270   65.5720  -40.5680 C   0  0  0  0  0
  -20.1530   68.5440  -42.4420 O   0  0  0  0  0
  -19.7720   68.4850  -43.8170 C   0  0  0  0  0
  -19.3010   66.4760  -45.4690 C   0  0  0  0  0
  -18.1500   67.6150  -46.2050 S   0  0  0  0  0
  -19.0160   68.9280  -46.9880 C   0  0  0  0  0
  -20.3490   68.9290  -47.1910 N   0  0  0  0  0
  -20.6110   70.1000  -47.8160 C   0  0  0  0  0
  -19.4470   70.7790  -47.9790 N   0  0  0  0  0
  -18.3910   70.0230  -47.4390 N   0  0  0  0  0
  -18.4910   64.3900  -46.5010 C   0  0  0  0  0
  -17.9800   63.1070  -46.3910 C   0  0  0  0  0
  -17.6850   62.2010  -47.3560 O   0  0  0  0  0
  -17.2450   60.9750  -46.7320 C   0  0  0  0  0
  -17.1970   61.2550  -45.3270 O   0  0  0  0  0
  -17.6850   62.5010  -45.1020 C   0  0  0  0  0
  -17.8980   63.1770  -43.9160 C   0  0  0  0  0
  -18.4180   64.4750  -43.9850 C   0  0  0  0  0
  -20.9747   66.8990  -44.5719 H   0  0  0  0  0
  -20.5471   65.3473  -42.8877 H   0  0  0  0  0
  -19.0339   64.5271  -41.9190 H   0  0  0  0  0
  -16.1898   65.8713  -43.7118 H   0  0  0  0  0
  -14.0527   65.3651  -44.3373 H   0  0  0  0  0
  -14.5865   67.0596  -44.4595 H   0  0  0  0  0
  -12.8489   66.6763  -44.3888 H   0  0  0  0  0
  -13.9673   63.8528  -40.1951 H   0  0  0  0  0
  -12.9413   64.8459  -41.2591 H   0  0  0  0  0
  -12.3772   64.4170  -39.6254 H   0  0  0  0  0
  -18.3310   65.9496  -38.0112 H   0  0  0  0  0
  -17.5713   64.3398  -37.9615 H   0  0  0  0  0
  -17.2682   65.5082  -36.6523 H   0  0  0  0  0
  -18.3575   65.3293  -40.0548 H   0  0  0  0  0
  -20.3687   69.1494  -44.4420 H   0  0  0  0  0
  -18.7492   68.8249  -43.9793 H   0  0  0  0  0
  -20.1205   66.3808  -46.1814 H   0  0  0  0  0
  -21.5952   70.4420  -48.1361 H   0  0  0  0  0
  -18.7003   64.8312  -47.4755 H   0  0  0  0  0
  -16.2718   60.6619  -47.1099 H   0  0  0  0  0
  -17.9227   60.1500  -46.9515 H   0  0  0  0  0
  -17.6683   62.7140  -42.9563 H   0  0  0  0  0
 21  1  1  0  0  0
  1 28  4  0  0  0
  1 35  4  0  0  0
  2  3  1  0  0  0
  2 20  1  0  0  0
  2 21  1  0  0  0
  3  4  1  0  0  0
  3  6  1  0  0  0
  4  7  1  0  0  0
  4 35  1  0  0  0
  6  5  2  0  0  0
  6 19  1  0  0  0
  7  8  4  0  0  0
  7 18  4  0  0  0
  8  9  4  0  0  0
  9 10  1  0  0  0
  9 12  4  0  0  0
 10 11  1  0  0  0
 12 13  1  0  0  0
 12 15  4  0  0  0
 13 14  1  0  0  0
 15 16  1  0  0  0
 15 18  4  0  0  0
 16 17  1  0  0  0
 19 20  1  0  0  0
 21 22  1  0  0  0
 22 23  1  0  0  0
 23 24  4  0  0  0
 23 27  4  0  0  0
 24 25  4  0  0  0
 25 26  4  0  0  0
 26 27  4  0  0  0
 28 29  4  0  0  0
 29 30  1  0  0  0
 29 33  4  0  0  0
 30 31  1  0  0  0
 31 32  1  0  0  0
 32 33  1  0  0  0
 33 34  4  0  0  0
 34 35  4  0  0  0
  2 36  1  0  0  0
  3 37  1  0  0  0
  4 38  1  0  0  0
  8 39  1  0  0  0
 11 40  1  0  0  0
 11 41  1  0  0  0
 11 42  1  0  0  0
 14 43  1  0  0  0
 14 44  1  0  0  0
 14 45  1  0  0  0
 17 46  1  0  0  0
 17 47  1  0  0  0
 17 48  1  0  0  0
 18 49  1  0  0  0
 20 50  1  0  0  0
 20 51  1  0  0  0
 21 52  1  0  0  0
 25 53  1  0  0  0
 28 54  1  0  0  0
 31 55  1  0  0  0
 31 56  1  0  0  0
 34 57  1  0  0  0
M  END
$$$$
