4ht6_ligand
  -I-interpret- 

180180  0  0  0  0  0  0  0  0999 V2000
   32.3160  114.1730   72.0480 N   0  3  0  0  0
   31.6840  113.3410   71.0300 C   0  0  0  0  0
   31.0260  114.2400   69.9960 C   0  0  0  0  0
   30.2580  115.1310   70.3540 O   0  0  0  0  0
   30.6230  112.4240   71.6490 C   0  0  0  0  0
   31.2470  111.5830   72.7720 C   0  0  0  0  0
   29.9820  111.5500   70.5800 C   0  0  0  0  0
   30.2310  110.8410   73.6130 C   0  0  0  0  0
   31.3320  114.0170   68.7180 N   0  0  0  0  0
   30.8030  114.8750   67.6560 C   0  0  0  0  0
   29.9070  114.1480   66.6560 C   0  0  0  0  0
   29.8690  112.9170   66.6070 O   0  0  0  0  0
   31.9340  115.5360   66.8460 C   0  0  0  0  0
   32.7550  114.5220   66.2520 O   0  0  0  0  0
   32.7870  116.4430   67.7310 C   0  0  0  0  0
   29.1840  114.9290   65.8640 N   0  0  0  0  0
   28.4800  114.4190   64.6890 C   0  0  0  0  0
   28.7210  115.4170   63.5880 C   0  0  0  0  0
   28.9910  116.5810   63.8590 O   0  0  0  0  0
   26.9720  114.3380   64.9090 C   0  0  0  0  0
   26.5320  113.4170   66.0190 C   0  0  0  0  0
   26.3340  112.0660   65.7880 C   0  0  0  0  0
   26.2900  113.9060   67.2940 C   0  0  0  0  0
   25.9150  111.2180   66.8120 C   0  0  0  0  0
   25.8720  113.0740   68.3150 C   0  0  0  0  0
   25.6870  111.7330   68.0720 C   0  0  0  0  0
   25.2710  110.9140   69.1000 O   0  0  0  0  0
   28.6060  114.9690   62.3450 N   0  0  0  0  0
   28.6890  115.8810   61.2070 C   0  0  0  0  0
   27.2920  116.1030   60.6880 C   0  0  0  0  0
   26.4520  115.2010   60.7700 O   0  0  0  0  0
   29.5450  115.2880   60.0920 C   0  0  0  0  0
   30.9780  115.0590   60.5180 C   0  0  0  0  0
   31.4660  115.7770   61.4150 O   0  0  0  0  0
   31.6210  114.1600   59.9430 O   0  0  0  0  0
   27.0470  117.2870   60.1310 N   0  0  0  0  0
   25.7280  117.6230   59.6100 C   0  0  0  0  0
   25.8120  118.5970   58.4330 C   0  0  0  0  0
   26.5480  119.5890   58.4810 O   0  0  0  0  0
   24.8720  118.2380   60.7190 C   0  0  0  0  0
   23.4620  118.5550   60.2780 C   0  0  0  0  0
   22.6920  117.2970   59.8820 C   0  0  0  0  0
   21.2580  117.6360   59.4440 C   0  0  0  0  0
   20.4010  116.4180   59.3460 N   0  3  0  0  0
   25.0550  118.3120   57.3800 N   0  0  0  0  0
   24.9690  119.2140   56.2430 C   0  0  0  0  0
   23.5710  119.8130   56.2000 C   0  0  0  0  0
   22.5950  119.1090   56.4510 O   0  0  0  0  0
   23.4600  121.1060   55.9170 N   0  0  0  0  0
   22.1310  121.7080   55.7630 C   0  0  0  0  0
   22.0910  122.5700   54.5190 C   0  0  0  0  0
   23.1320  123.0130   54.0270 O   0  0  0  0  0
   21.6730  122.5330   56.9980 C   0  0  0  0  0
   22.5990  123.7300   57.2390 C   0  0  0  0  0
   21.5250  121.6400   58.2470 C   0  0  0  0  0
   22.1390  125.0160   56.5500 C   0  0  0  0  0
   20.8810  122.8150   54.0270 N   0  0  0  0  0
   20.6800  123.6130   52.8270 C   0  0  0  0  0
   19.4210  124.4670   52.9700 C   0  0  0  0  0
   18.3380  123.9330   53.2020 O   0  0  0  0  0
   20.5110  122.6780   51.6180 C   0  0  0  0  0
   20.1840  123.4180   50.3300 C   0  0  0  0  0
   21.3060  124.3470   49.9080 C   0  0  0  0  0
   22.4360  123.9090   49.6930 O   0  0  0  0  0
   21.0020  125.6360   49.7870 N   0  0  0  0  0
   19.5540  125.7840   52.8340 N   0  0  0  0  0
   18.3850  126.6750   52.8860 C   0  0  0  0  0
   17.3980  126.3580   51.7490 C   0  0  0  0  0
   17.8000  125.8390   50.7000 O   0  0  0  0  0
   18.8020  128.1590   52.7770 C   0  0  0  0  0
   19.5430  128.3610   51.5700 O   0  0  0  0  0
   19.6470  128.5720   53.9960 C   0  0  0  0  0
   16.1150  126.6710   51.9350 N   0  0  0  0  0
   15.1520  126.3620   50.8710 C   0  0  0  0  0
   15.1160  127.4010   49.7540 C   0  0  0  0  0
   14.6860  127.0950   48.6520 O   0  0  0  0  0
   13.7370  126.0360   51.3950 C   0  0  0  0  0
   13.1620  127.1160   52.2910 C   0  0  0  0  0
   12.8390  128.2080   51.7800 O   0  0  0  0  0
   12.9820  126.8550   53.5040 O   0  0  0  0  0
   15.5730  128.6160   50.0430 N   0  0  0  0  0
   15.6790  129.6590   49.0310 C   0  0  0  0  0
   17.1610  129.9200   48.7450 C   0  0  0  0  0
   18.0330  129.3020   49.3630 O   0  0  0  0  0
   15.0020  130.9660   49.4940 C   0  0  0  0  0
   13.5510  130.8030   49.9410 C   0  0  0  0  0
   12.6720  130.2350   48.8430 C   0  0  0  0  0
   12.6980  130.7050   47.6990 O   0  0  0  0  0
   11.9020  129.2080   49.1770 N   0  0  0  0  0
   17.5250  130.7560   47.9150 O   0  0  0  0  0
   33.0159  114.7717   71.6097 H   0  0  0  0  0
   31.6079  114.7509   72.5008 H   0  0  0  0  0
   32.7646  113.5761   72.7429 H   0  0  0  0  0
   32.4481  112.7185   70.5645 H   0  0  0  0  0
   29.8329  113.0347   72.0860 H   0  0  0  0  0
   31.7803  112.2663   73.4329 H   0  0  0  0  0
   31.8884  110.8372   72.3025 H   0  0  0  0  0
   30.7392  110.8998   70.1419 H   0  0  0  0  0
   29.1971  110.9431   71.0313 H   0  0  0  0  0
   29.5523  112.1836   69.8041 H   0  0  0  0  0
   29.5554  111.5574   74.0804 H   0  0  0  0  0
   29.6609  110.1632   72.9777 H   0  0  0  0  0
   30.7474  110.2699   74.3845 H   0  0  0  0  0
   31.9436  113.2373   68.4763 H   0  0  0  0  0
   30.2074  115.6159   68.1892 H   0  0  0  0  0
   31.4854  116.1497   66.0648 H   0  0  0  0  0
   33.4590  114.9365   65.7478 H   0  0  0  0  0
   32.1600  117.2257   68.1581 H   0  0  0  0  0
   33.2307  115.8530   68.5330 H   0  0  0  0  0
   33.5768  116.8953   67.1312 H   0  0  0  0  0
   29.1169  115.9229   66.0833 H   0  0  0  0  0
   28.8423  113.4163   64.4624 H   0  0  0  0  0
   26.5426  113.9443   63.9877 H   0  0  0  0  0
   26.6424  115.3396   65.1850 H   0  0  0  0  0
   26.5082  111.6600   64.7915 H   0  0  0  0  0
   26.4324  114.9679   67.4947 H   0  0  0  0  0
   25.7684  110.1553   66.6189 H   0  0  0  0  0
   25.6894  113.4794   69.3102 H   0  0  0  0  0
   25.1625  111.4351   69.8989 H   0  0  0  0  0
   28.4575  113.9732   62.1813 H   0  0  0  0  0
   29.1463  116.8171   61.5273 H   0  0  0  0  0
   29.5507  115.9943   59.2618 H   0  0  0  0  0
   29.1181  114.3231   59.8186 H   0  0  0  0  0
   30.8033  116.4012   61.7197 H   0  0  0  0  0
   27.7985  117.9738   60.0675 H   0  0  0  0  0
   25.2708  116.7004   59.2525 H   0  0  0  0  0
   25.3426  119.1747   61.0178 H   0  0  0  0  0
   24.8087  117.5108   61.5285 H   0  0  0  0  0
   23.5153  119.2106   59.4088 H   0  0  0  0  0
   22.9412  119.0260   61.1117 H   0  0  0  0  0
   22.6438  116.6331   60.7451 H   0  0  0  0  0
   23.2074  116.8227   59.0468 H   0  0  0  0  0
   21.3032  118.1012   58.4593 H   0  0  0  0  0
   20.8219  118.3007   60.1897 H   0  0  0  0  0
   19.4616  116.6873   59.0536 H   0  0  0  0  0
   20.8008  115.7766   58.6610 H   0  0  0  0  0
   20.3569  115.9606   60.2566 H   0  0  0  0  0
   24.5227  117.4420   57.3686 H   0  0  0  0  0
   25.1660  118.6672   55.3209 H   0  0  0  0  0
   25.7090  120.0080   56.3435 H   0  0  0  0  0
   24.2967  121.6790   55.8070 H   0  0  0  0  0
   21.4288  120.8796   55.6694 H   0  0  0  0  0
   20.6835  122.9379   56.7856 H   0  0  0  0  0
   23.5755  123.4730   56.8285 H   0  0  0  0  0
   22.6089  123.9221   58.3119 H   0  0  0  0  0
   20.7829  120.8657   58.0526 H   0  0  0  0  0
   22.4844  121.1762   58.4762 H   0  0  0  0  0
   21.2035  122.2493   59.0917 H   0  0  0  0  0
   22.0934  124.8534   55.4732 H   0  0  0  0  0
   21.1511  125.2912   56.9194 H   0  0  0  0  0
   22.8459  125.8165   56.7683 H   0  0  0  0  0
   20.0666  122.4311   54.5063 H   0  0  0  0  0
   21.5440  124.2619   52.6836 H   0  0  0  0  0
   19.6800  122.0063   51.8333 H   0  0  0  0  0
   21.4565  122.1566   51.4687 H   0  0  0  0  0
   19.2900  124.0182   50.4993 H   0  0  0  0  0
   20.0372  122.6804   49.5410 H   0  0  0  0  0
   21.7190  126.3049   49.5060 H   0  0  0  0  0
   20.0519  125.9558   49.9752 H   0  0  0  0  0
   20.4821  126.1822   52.6913 H   0  0  0  0  0
   17.9027  126.5058   53.8488 H   0  0  0  0  0
   17.9055  128.7787   52.7561 H   0  0  0  0  0
   19.8008  129.2834   51.5047 H   0  0  0  0  0
   19.0624  128.4335   54.9055 H   0  0  0  0  0
   20.5436  127.9538   54.0412 H   0  0  0  0  0
   19.9311  129.6200   53.9013 H   0  0  0  0  0
   15.8088  127.1165   52.7999 H   0  0  0  0  0
   15.5351  125.4451   50.4231 H   0  0  0  0  0
   13.8081  125.1228   51.9858 H   0  0  0  0  0
   13.0801  125.9428   50.5302 H   0  0  0  0  0
   13.2985  125.9679   53.6897 H   0  0  0  0  0
   15.8574  128.8237   51.0003 H   0  0  0  0  0
   15.1694  129.3220   48.1283 H   0  0  0  0  0
   17.6172  128.6877   49.9724 H   0  0  0  0  0
   14.9988  131.6436   48.6402 H   0  0  0  0  0
   15.5627  131.3280   50.3558 H   0  0  0  0  0
   13.1662  131.7874   50.2076 H   0  0  0  0  0
   13.5317  130.1104   50.7825 H   0  0  0  0  0
   11.2996  128.7736   48.4778 H   0  0  0  0  0
   11.9123  128.8526   50.1330 H   0  0  0  0  0
  1  2  1  0  0  0
  2  3  1  0  0  0
  2  5  1  0  0  0
  3  4  2  0  0  0
  3  9  1  0  0  0
  5  6  1  0  0  0
  5  7  1  0  0  0
  6  8  1  0  0  0
  9 10  1  0  0  0
 10 11  1  0  0  0
 10 13  1  0  0  0
 11 12  2  0  0  0
 11 16  1  0  0  0
 13 14  1  0  0  0
 13 15  1  0  0  0
 16 17  1  0  0  0
 17 18  1  0  0  0
 17 20  1  0  0  0
 18 19  2  0  0  0
 18 28  1  0  0  0
 20 21  1  0  0  0
 21 22  4  0  0  0
 21 23  4  0  0  0
 22 24  4  0  0  0
 23 25  4  0  0  0
 24 26  4  0  0  0
 25 26  4  0  0  0
 26 27  1  0  0  0
 28 29  1  0  0  0
 29 30  1  0  0  0
 29 32  1  0  0  0
 30 31  2  0  0  0
 30 36  1  0  0  0
 32 33  1  0  0  0
 33 34  1  0  0  0
 33 35  2  0  0  0
 36 37  1  0  0  0
 37 38  1  0  0  0
 37 40  1  0  0  0
 38 39  2  0  0  0
 38 45  1  0  0  0
 40 41  1  0  0  0
 41 42  1  0  0  0
 42 43  1  0  0  0
 43 44  1  0  0  0
 45 46  1  0  0  0
 46 47  1  0  0  0
 47 48  2  0  0  0
 47 49  1  0  0  0
 49 50  1  0  0  0
 50 51  1  0  0  0
 50 53  1  0  0  0
 51 52  2  0  0  0
 51 57  1  0  0  0
 53 54  1  0  0  0
 53 55  1  0  0  0
 54 56  1  0  0  0
 57 58  1  0  0  0
 58 59  1  0  0  0
 58 61  1  0  0  0
 59 60  2  0  0  0
 59 66  1  0  0  0
 61 62  1  0  0  0
 62 63  1  0  0  0
 63 64  2  0  0  0
 63 65  1  0  0  0
 66 67  1  0  0  0
 67 68  1  0  0  0
 67 70  1  0  0  0
 68 69  2  0  0  0
 68 73  1  0  0  0
 70 71  1  0  0  0
 70 72  1  0  0  0
 73 74  1  0  0  0
 74 75  1  0  0  0
 74 77  1  0  0  0
 75 76  2  0  0  0
 75 81  1  0  0  0
 77 78  1  0  0  0
 78 79  2  0  0  0
 78 80  1  0  0  0
 81 82  1  0  0  0
 82 83  1  0  0  0
 82 85  1  0  0  0
 83 84  1  0  0  0
 83 90  2  0  0  0
 85 86  1  0  0  0
 86 87  1  0  0  0
 87 88  2  0  0  0
 87 89  1  0  0  0
  1 91  1  0  0  0
  1 92  1  0  0  0
  1 93  1  0  0  0
  2 94  1  0  0  0
  5 95  1  0  0  0
  6 96  1  0  0  0
  6 97  1  0  0  0
  7 98  1  0  0  0
  7 99  1  0  0  0
  7100  1  0  0  0
  8101  1  0  0  0
  8102  1  0  0  0
  8103  1  0  0  0
  9104  1  0  0  0
 10105  1  0  0  0
 13106  1  0  0  0
 14107  1  0  0  0
 15108  1  0  0  0
 15109  1  0  0  0
 15110  1  0  0  0
 16111  1  0  0  0
 17112  1  0  0  0
 20113  1  0  0  0
 20114  1  0  0  0
 22115  1  0  0  0
 23116  1  0  0  0
 24117  1  0  0  0
 25118  1  0  0  0
 27119  1  0  0  0
 28120  1  0  0  0
 29121  1  0  0  0
 32122  1  0  0  0
 32123  1  0  0  0
 34124  1  0  0  0
 36125  1  0  0  0
 37126  1  0  0  0
 40127  1  0  0  0
 40128  1  0  0  0
 41129  1  0  0  0
 41130  1  0  0  0
 42131  1  0  0  0
 42132  1  0  0  0
 43133  1  0  0  0
 43134  1  0  0  0
 44135  1  0  0  0
 44136  1  0  0  0
 44137  1  0  0  0
 45138  1  0  0  0
 46139  1  0  0  0
 46140  1  0  0  0
 49141  1  0  0  0
 50142  1  0  0  0
 53143  1  0  0  0
 54144  1  0  0  0
 54145  1  0  0  0
 55146  1  0  0  0
 55147  1  0  0  0
 55148  1  0  0  0
 56149  1  0  0  0
 56150  1  0  0  0
 56151  1  0  0  0
 57152  1  0  0  0
 58153  1  0  0  0
 61154  1  0  0  0
 61155  1  0  0  0
 62156  1  0  0  0
 62157  1  0  0  0
 65158  1  0  0  0
 65159  1  0  0  0
 66160  1  0  0  0
 67161  1  0  0  0
 70162  1  0  0  0
 71163  1  0  0  0
 72164  1  0  0  0
 72165  1  0  0  0
 72166  1  0  0  0
 73167  1  0  0  0
 74168  1  0  0  0
 77169  1  0  0  0
 77170  1  0  0  0
 80171  1  0  0  0
 81172  1  0  0  0
 82173  1  0  0  0
 84174  1  0  0  0
 85175  1  0  0  0
 85176  1  0  0  0
 86177  1  0  0  0
 86178  1  0  0  0
 89179  1  0  0  0
 89180  1  0  0  0
M  END
$$$$
