### 
### Created by X-TOOL on Mon Sep 10 21:13:13 2018
### 

@<TRIPOS>MOLECULE
4ht6_ligand
  177   177     1     0     0
SMALL
GAST_HUCK


@<TRIPOS>ATOM
      1 N          32.3160  114.1730   72.0480 N.4       1 ILE         0.2381
      2 CA         31.6840  113.3410   71.0300 C.3       1 ILE         0.0676
      3 C          31.0260  114.2400   69.9960 C.2       1 ILE         0.2270
      4 O          30.2580  115.1310   70.3540 O.2       1 ILE        -0.3907
      5 CB         30.6230  112.4240   71.6490 C.3       1 ILE         0.0164
      6 CG1        31.2470  111.5830   72.7720 C.3       1 ILE        -0.0460
      7 CG2        29.9820  111.5500   70.5800 C.3       1 ILE        -0.0551
      8 CD1        30.2310  110.8410   73.6130 C.3       1 ILE        -0.0647
      9 N          31.3320  114.0170   68.7180 N.am      1 THR        -0.2586
     10 CA         30.8030  114.8750   67.6560 C.3       1 THR         0.1566
     11 C          29.9070  114.1480   66.6560 C.2       1 THR         0.2066
     12 O          29.8690  112.9170   66.6070 O.2       1 THR        -0.3943
     13 CB         31.9340  115.5360   66.8460 C.3       1 THR         0.0924
     14 OG1        32.7550  114.5220   66.2520 O.3       1 THR        -0.3874
     15 CG2        32.7870  116.4430   67.7310 C.3       1 THR        -0.0346
     16 N          29.1840  114.9290   65.8640 N.am      1 TYR        -0.2621
     17 CA         28.4800  114.4190   64.6890 C.3       1 TYR         0.1390
     18 C          28.7210  115.4170   63.5880 C.2       1 TYR         0.2058
     19 O          28.9910  116.5810   63.8590 O.2       1 TYR        -0.3942
     20 CB         26.9720  114.3380   64.9090 C.3       1 TYR         0.0163
     21 CG         26.5320  113.4170   66.0190 C.ar      1 TYR        -0.0493
     22 CD1        26.3340  112.0660   65.7880 C.ar      1 TYR        -0.0685
     23 CD2        26.2900  113.9060   67.2940 C.ar      1 TYR        -0.0685
     24 CE1        25.9150  111.2180   66.8120 C.ar      1 TYR        -0.0398
     25 CE2        25.8720  113.0740   68.3150 C.ar      1 TYR        -0.0398
     26 CZ         25.6870  111.7330   68.0720 C.ar      1 TYR         0.0805
     27 OH         25.2710  110.9140   69.1000 O.3       1 TYR        -0.3376
     28 N          28.6060  114.9690   62.3450 N.am      1 ASP        -0.2620
     29 CA         28.6890  115.8810   61.2070 C.3       1 ASP         0.1423
     30 C          27.2920  116.1030   60.6880 C.2       1 ASP         0.2056
     31 O          26.4520  115.2010   60.7700 O.2       1 ASP        -0.3943
     32 CB         29.5450  115.2880   60.0920 C.3       1 ASP         0.0406
     33 CG         30.9780  115.0590   60.5180 C.2       1 ASP         0.0393
     34 OD1        31.4660  115.7770   61.4150 O.co2     1 ASP        -0.5688
     35 OD2        31.6210  114.1600   59.9430 O.co2     1 ASP        -0.5688
     36 N          27.0470  117.2870   60.1310 N.am      1 LYS        -0.2636
     37 CA         25.7280  117.6230   59.6100 C.3       1 LYS         0.1310
     38 C          25.8120  118.5970   58.4330 C.2       1 LYS         0.2037
     39 O          26.5480  119.5890   58.4810 O.2       1 LYS        -0.3944
     40 CB         24.8720  118.2380   60.7190 C.3       1 LYS        -0.0122
     41 CG         23.4620  118.5550   60.2780 C.3       1 LYS        -0.0440
     42 CD         22.6920  117.2970   59.8820 C.3       1 LYS        -0.0124
     43 CE         21.2580  117.6360   59.4440 C.3       1 LYS        -0.0354
     44 NZ         20.4010  116.4180   59.3460 N.4       1 LYS         0.2185
     45 N          25.0550  118.3120   57.3800 N.am      1 GLY        -0.2664
     46 CA         24.9690  119.2140   56.2430 C.3       1 GLY         0.1201
     47 C          23.5710  119.8130   56.2000 C.2       1 GLY         0.2008
     48 O          22.5950  119.1090   56.4510 O.2       1 GLY        -0.3947
     49 N          23.4600  121.1060   55.9170 N.am      1 ILE        -0.2637
     50 CA         22.1310  121.7080   55.7630 C.3       1 ILE         0.1335
     51 C          22.0910  122.5700   54.5190 C.2       1 ILE         0.2042
     52 O          23.1320  123.0130   54.0270 O.2       1 ILE        -0.3944
     53 CB         21.6730  122.5330   56.9980 C.3       1 ILE        -0.0037
     54 CG1        22.5990  123.7300   57.2390 C.3       1 ILE        -0.0491
     55 CG2        21.5250  121.6400   58.2470 C.3       1 ILE        -0.0582
     56 CD1        22.1390  125.0160   56.5500 C.3       1 ILE        -0.0648
     57 N          20.8810  122.8150   54.0270 N.am      1 GLN        -0.2636
     58 CA         20.6800  123.6130   52.8270 C.3       1 GLN         0.1330
     59 C          19.4210  124.4670   52.9700 C.2       1 GLN         0.2041
     60 O          18.3380  123.9330   53.2020 O.2       1 GLN        -0.3944
     61 CB         20.5110  122.6780   51.6180 C.3       1 GLN         0.0045
     62 CG         20.1840  123.4180   50.3300 C.3       1 GLN         0.0412
     63 CD         21.3060  124.3470   49.9080 C.2       1 GLN         0.1737
     64 OE1        22.4360  123.9090   49.6930 O.2       1 GLN        -0.3973
     65 NE2        21.0020  125.6360   49.7870 N.am      1 GLN        -0.3009
     66 N          19.5540  125.7840   52.8340 N.am      1 THR        -0.2613
     67 CA         18.3850  126.6750   52.8860 C.3       1 THR         0.1565
     68 C          17.3980  126.3580   51.7490 C.2       1 THR         0.2066
     69 O          17.8000  125.8390   50.7000 O.2       1 THR        -0.3943
     70 CB         18.8020  128.1590   52.7770 C.3       1 THR         0.0924
     71 OG1        19.5430  128.3610   51.5700 O.3       1 THR        -0.3874
     72 CG2        19.6470  128.5720   53.9960 C.3       1 THR        -0.0346
     73 N          16.1150  126.6710   51.9350 N.am      1 ASP        -0.2621
     74 CA         15.1520  126.3620   50.8710 C.3       1 ASP         0.1423
     75 C          15.1160  127.4010   49.7540 C.2       1 ASP         0.2051
     76 O          14.6860  127.0950   48.6520 O.2       1 ASP        -0.3943
     77 CB         13.7370  126.0360   51.3950 C.3       1 ASP         0.0406
     78 CG         13.1620  127.1160   52.2910 C.2       1 ASP         0.0393
     79 OD1        12.8390  128.2080   51.7800 O.co2     1 ASP        -0.5688
     80 OD2        12.9820  126.8550   53.5040 O.co2     1 ASP        -0.5688
     81 N          15.5730  128.6160   50.0430 N.am      1 GLN        -0.2692
     82 CA         15.6790  129.6590   49.0310 C.3       1 GLN         0.0964
     83 C          17.1610  129.9200   48.7450 C.2       1 GLN         0.0602
     84 O          18.0330  129.3020   49.3630 O.co2     1 GLN        -0.5666
     85 CB         15.0020  130.9660   49.4940 C.3       1 GLN        -0.0010
     86 CG         13.5510  130.8030   49.9410 C.3       1 GLN         0.0407
     87 CD         12.6720  130.2350   48.8430 C.2       1 GLN         0.1737
     88 OE1        12.6980  130.7050   47.6990 O.2       1 GLN        -0.3973
     89 NE2        11.9020  129.2080   49.1770 N.am      1 GLN        -0.3009
     90 OXT        17.5250  130.7560   47.9150 O.co2     1 GLN        -0.5666
     91 H1         33.0079  114.7651   71.6159 H         1 ILE         0.2015
     92 H2         32.7597  113.5841   72.7353 H         1 ILE         0.2015
     93 H3         31.6172  114.7447   72.4961 H         1 ILE         0.2015
     94 H4         32.4523  112.7229   70.5425 H         1 ILE         0.1101
     95 H5         29.8361  113.0535   72.0901 H         1 ILE         0.0378
     96 H6         31.8197  112.2529   73.4302 H         1 ILE         0.0269
     97 H7         31.9261  110.8464   72.3178 H         1 ILE         0.0269
     98 H8         29.5480  112.1883   69.7963 H         1 ILE         0.0236
     99 H9         29.1896  110.9370   71.0342 H         1 ILE         0.0236
    100 H10        30.7452  110.8933   70.1371 H         1 ILE         0.0236
    101 H11        30.7510  110.2642   74.3920 H         1 ILE         0.0230
    102 H12        29.6550  110.1565   72.9730 H         1 ILE         0.0230
    103 H13        29.5486  111.5629   74.0854 H         1 ILE         0.0230
    104 H14        31.9316  113.2526   68.4811 H         1 THR         0.1885
    105 H15        30.2082  115.6640   68.1393 H         1 THR         0.0826
    106 H16        31.4858  116.1454   66.0474 H         1 THR         0.0639
    107 H17        33.4517  114.9322   65.7531 H         1 THR         0.2101
    108 H18        33.5845  116.9001   67.1268 H         1 THR         0.0257
    109 H19        33.2354  115.8487   68.5408 H         1 THR         0.0257
    110 H20        32.1554  117.2334   68.1627 H         1 THR         0.0257
    111 H21        29.1182  115.9034   66.0790 H         1 TYR         0.1885
    112 H22        28.8708  113.4277   64.4160 H         1 TYR         0.0821
    113 H23        26.5103  113.9882   63.9739 H         1 TYR         0.0453
    114 H24        26.6076  115.3494   65.1419 H         1 TYR         0.0453
    115 H25        26.5073  111.6623   64.7970 H         1 TYR         0.0530
    116 H26        26.4316  114.9620   67.4936 H         1 TYR         0.0530
    117 H27        25.7692  110.1612   66.6199 H         1 TYR         0.0525
    118 H28        25.6904  113.4771   69.3047 H         1 TYR         0.0525
    119 H29        25.1889  110.0232   68.7803 H         1 TYR         0.2458
    120 H30        28.4604  113.9928   62.1845 H         1 ASP         0.1884
    121 H31        29.1253  116.8370   61.5321 H         1 ASP         0.0819
    122 H32        29.5380  115.9797   59.2367 H         1 ASP         0.0478
    123 H33        29.1096  114.3246   59.7881 H         1 ASP         0.0478
    124 H34        27.7838  117.9603   60.0687 H         1 LYS         0.1883
    125 H35        25.2468  116.6971   59.2620 H         1 LYS         0.0800
    126 H36        25.3510  119.1698   61.0540 H         1 LYS         0.0312
    127 H37        24.8243  117.5281   61.5579 H         1 LYS         0.0312
    128 H38        23.5041  119.2331   59.4129 H         1 LYS         0.0269
    129 H39        22.9332  119.0495   61.1061 H         1 LYS         0.0269
    130 H40        22.6518  116.6150   60.7441 H         1 LYS         0.0317
    131 H41        23.2143  116.8043   59.0487 H         1 LYS         0.0317
    132 H42        21.2936  118.1254   58.4595 H         1 LYS         0.0813
    133 H43        20.8151  118.3236   60.1795 H         1 LYS         0.0813
    134 H44        19.4723  116.6830   59.0571 H         1 LYS         0.1994
    135 H45        20.3566  115.9651   60.2454 H         1 LYS         0.1994
    136 H46        20.7951  115.7834   58.6693 H         1 LYS         0.1994
    137 H47        24.5331  117.4591   57.3688 H         1 GLY         0.1881
    138 H48        25.1620  118.6578   55.3138 H         1 GLY         0.0763
    139 H49        25.7127  120.0173   56.3507 H         1 GLY         0.0763
    140 H50        24.2803  121.6677   55.8092 H         1 ILE         0.1883
    141 H51        21.4116  120.8862   55.6321 H         1 ILE         0.0803
    142 H52        20.6755  122.9368   56.7703 H         1 ILE         0.0345
    143 H53        23.6007  123.4746   56.8631 H         1 ILE         0.0267
    144 H54        22.6502  123.9162   58.3219 H         1 ILE         0.0267
    145 H55        20.8527  120.7997   58.0193 H         1 ILE         0.0235
    146 H56        21.1049  122.2321   59.0734 H         1 ILE         0.0235
    147 H57        22.5118  121.2514   58.5389 H         1 ILE         0.0235
    148 H58        22.8516  125.8247   56.7695 H         1 ILE         0.0230
    149 H59        21.1421  125.2949   56.9219 H         1 ILE         0.0230
    150 H60        22.0926  124.8533   55.4631 H         1 ILE         0.0230
    151 H61        20.0825  122.4386   54.4969 H         1 GLN         0.1883
    152 H62        21.5514  124.2660   52.6714 H         1 GLN         0.0801
    153 H63        19.6948  121.9726   51.8328 H         1 GLN         0.0337
    154 H64        21.4484  122.1210   51.4729 H         1 GLN         0.0337
    155 H65        19.2705  124.0113   50.4834 H         1 GLN         0.0504
    156 H66        20.0132  122.6816   49.5309 H         1 GLN         0.0504
    157 H67        21.7049  126.2917   49.5114 H         1 GLN         0.1814
    158 H68        20.0705  125.9495   49.9716 H         1 GLN         0.1814
    159 H69        20.4639  126.1744   52.6941 H         1 THR         0.1884
    160 H70        17.8771  126.5209   53.8495 H         1 THR         0.0826
    161 H71        17.8959  128.7820   52.7478 H         1 THR         0.0639
    162 H72        19.0016  128.1288   50.8247 H         1 THR         0.2101
    163 H73        19.9344  129.6296   53.9015 H         1 THR         0.0257
    164 H74        20.5522  127.9489   54.0428 H         1 THR         0.0257
    165 H75        19.0581  128.4327   54.9146 H         1 THR         0.0257
    166 H76        15.8148  127.1078   52.7830 H         1 ASP         0.1884
    167 H77        15.5191  125.4356   50.4051 H         1 ASP         0.0819
    168 H78        13.7847  125.0976   51.9669 H         1 ASP         0.0478
    169 H79        13.0672  125.9059   50.5322 H         1 ASP         0.0478
    170 H80        15.8518  128.8196   50.9815 H         1 GLN         0.1875
    171 H81        15.1869  129.3133   48.1100 H         1 GLN         0.0727
    172 H82        15.0258  131.6803   48.6578 H         1 GLN         0.0330
    173 H83        15.5784  131.3710   50.3388 H         1 GLN         0.0330
    174 H84        13.1584  131.7876   50.2349 H         1 GLN         0.0504
    175 H85        13.5211  130.1234   50.8054 H         1 GLN         0.0504
    176 H86        11.3008  128.7913   48.4952 H         1 GLN         0.1814
    177 H87        11.9226  128.8504   50.1107 H         1 GLN         0.1814
@<TRIPOS>BOND
     1    1    2 1  
     2    2    3 1  
     3    2    5 1  
     4    3    4 2  
     5    3    9 am 
     6    5    6 1  
     7    5    7 1  
     8    6    8 1  
     9    9   10 1  
    10   10   11 1  
    11   10   13 1  
    12   11   12 2  
    13   11   16 am 
    14   13   14 1  
    15   13   15 1  
    16   16   17 1  
    17   17   18 1  
    18   17   20 1  
    19   18   19 2  
    20   18   28 am 
    21   20   21 1  
    22   21   22 ar 
    23   21   23 ar 
    24   22   24 ar 
    25   23   25 ar 
    26   24   26 ar 
    27   25   26 ar 
    28   26   27 1  
    29   28   29 1  
    30   29   30 1  
    31   29   32 1  
    32   30   31 2  
    33   30   36 am 
    34   32   33 1  
    35   33   34 ar 
    36   33   35 ar 
    37   36   37 1  
    38   37   38 1  
    39   37   40 1  
    40   38   39 2  
    41   38   45 am 
    42   40   41 1  
    43   41   42 1  
    44   42   43 1  
    45   43   44 1  
    46   45   46 1  
    47   46   47 1  
    48   47   48 2  
    49   47   49 am 
    50   49   50 1  
    51   50   51 1  
    52   50   53 1  
    53   51   52 2  
    54   51   57 am 
    55   53   54 1  
    56   53   55 1  
    57   54   56 1  
    58   57   58 1  
    59   58   59 1  
    60   58   61 1  
    61   59   60 2  
    62   59   66 am 
    63   61   62 1  
    64   62   63 1  
    65   63   64 2  
    66   63   65 am 
    67   66   67 1  
    68   67   68 1  
    69   67   70 1  
    70   68   69 2  
    71   68   73 am 
    72   70   71 1  
    73   70   72 1  
    74   73   74 1  
    75   74   75 1  
    76   74   77 1  
    77   75   76 2  
    78   75   81 am 
    79   77   78 1  
    80   78   79 ar 
    81   78   80 ar 
    82   81   82 1  
    83   82   83 1  
    84   82   85 1  
    85   83   84 ar 
    86   83   90 ar 
    87   85   86 1  
    88   86   87 1  
    89   87   88 2  
    90   87   89 am 
    91    1   91 1  
    92    1   92 1  
    93    1   93 1  
    94    2   94 1  
    95    5   95 1  
    96    6   96 1  
    97    6   97 1  
    98    7   98 1  
    99    7   99 1  
   100    7  100 1  
   101    8  101 1  
   102    8  102 1  
   103    8  103 1  
   104    9  104 1  
   105   10  105 1  
   106   13  106 1  
   107   14  107 1  
   108   15  108 1  
   109   15  109 1  
   110   15  110 1  
   111   16  111 1  
   112   17  112 1  
   113   20  113 1  
   114   20  114 1  
   115   22  115 1  
   116   23  116 1  
   117   24  117 1  
   118   25  118 1  
   119   27  119 1  
   120   28  120 1  
   121   29  121 1  
   122   32  122 1  
   123   32  123 1  
   124   36  124 1  
   125   37  125 1  
   126   40  126 1  
   127   40  127 1  
   128   41  128 1  
   129   41  129 1  
   130   42  130 1  
   131   42  131 1  
   132   43  132 1  
   133   43  133 1  
   134   44  134 1  
   135   44  135 1  
   136   44  136 1  
   137   45  137 1  
   138   46  138 1  
   139   46  139 1  
   140   49  140 1  
   141   50  141 1  
   142   53  142 1  
   143   54  143 1  
   144   54  144 1  
   145   55  145 1  
   146   55  146 1  
   147   55  147 1  
   148   56  148 1  
   149   56  149 1  
   150   56  150 1  
   151   57  151 1  
   152   58  152 1  
   153   61  153 1  
   154   61  154 1  
   155   62  155 1  
   156   62  156 1  
   157   65  157 1  
   158   65  158 1  
   159   66  159 1  
   160   67  160 1  
   161   70  161 1  
   162   71  162 1  
   163   72  163 1  
   164   72  164 1  
   165   72  165 1  
   166   73  166 1  
   167   74  167 1  
   168   77  168 1  
   169   77  169 1  
   170   81  170 1  
   171   82  171 1  
   172   85  172 1  
   173   85  173 1  
   174   86  174 1  
   175   86  175 1  
   176   89  176 1  
   177   89  177 1  
@<TRIPOS>SUBSTRUCTURE
     1 ILE         1

