3sdi_ligand
  -I-interpret- 

 83 85  0  0  0  0  0  0  0  0999 V2000
   12.3360 -137.0340   23.5980 C   0  0  0  0  0
   12.6090 -136.2450   24.6440 C   0  0  0  0  0
   13.2450 -136.7120   25.9530 C   0  0  0  0  0
   12.2240 -134.9520   24.3750 O   0  0  0  0  0
   11.6810 -134.9870   23.0520 N   0  0  0  0  0
   11.7770 -136.2570   22.6550 C   0  0  0  0  0
   11.3340 -136.7860   21.2920 C   0  0  0  0  0
   11.7750 -137.8600   20.8980 O   0  0  0  0  0
   10.0200 -136.4070   19.2650 C   0  0  0  0  0
   11.0530 -136.2400   18.1660 C   0  0  0  0  0
   10.5190 -136.0100   20.5870 N   0  0  0  0  0
    8.8840 -135.5040   18.8300 C   0  0  0  0  0
    7.6010 -135.7020   19.6010 C   0  0  0  0  0
    7.3810 -136.7530   20.2130 O   0  0  0  0  0
    6.7860 -134.6440   19.5070 N   0  0  0  0  0
    5.4570 -134.5430   20.1410 C   0  0  0  0  0
    4.3610 -134.3240   19.0760 C   0  0  0  0  0
    4.2890 -135.5300   18.1420 C   0  0  0  0  0
    3.0060 -134.1330   19.7530 C   0  0  0  0  0
    4.6540 -133.0800   18.2440 C   0  0  0  0  0
   11.7240 -135.2190   18.0440 O   0  0  0  0  0
   11.0660 -137.2370   17.2980 N   0  0  0  0  0
   11.9100 -137.2240   16.1080 C   0  0  0  0  0
   10.9790 -136.9410   14.9310 C   0  0  0  0  0
    9.8290 -137.3720   14.9010 O   0  0  0  0  0
   12.5730 -138.5820   15.9330 C   0  0  0  0  0
   13.3890 -138.9120   17.1650 C   0  0  0  0  0
   14.5740 -137.9600   17.3120 C   0  0  0  0  0
   15.5050 -137.8290   16.2720 C   0  0  0  0  0
   14.7310 -137.2340   18.4930 C   0  0  0  0  0
   16.6030 -136.9720   16.4020 C   0  0  0  0  0
   15.8270 -136.3730   18.6210 C   0  0  0  0  0
   16.7590 -136.2480   17.5800 C   0  0  0  0  0
   10.6780 -135.8640   12.8060 C   0  0  0  0  0
    9.9550 -134.5400   12.9930 C   0  0  0  0  0
   10.4650 -133.4020   12.3920 C   0  0  0  0  0
    8.6430 -132.1180   13.2900 C   0  0  0  0  0
    8.7860 -134.4760   13.7330 C   0  0  0  0  0
   11.4810 -136.1840   13.9760 N   0  0  0  0  0
    9.8080 -132.1870   12.5480 C   0  0  0  0  0
    7.9230 -130.7770   13.4410 C   0  0  0  0  0
    8.1320 -133.2620   13.8800 C   0  0  0  0  0
   12.5303 -138.1041   23.5249 H   0  0  0  0  0
   12.6088 -137.4666   26.4156 H   0  0  0  0  0
   14.2263 -137.1392   25.7465 H   0  0  0  0  0
   13.3518 -135.8621   26.6271 H   0  0  0  0  0
    9.7304 -137.4511   19.3833 H   0  0  0  0  0
   10.2314 -135.1118   20.9755 H   0  0  0  0  0
    8.6703 -135.7380   17.7871 H   0  0  0  0  0
    9.2066 -134.4774   19.0033 H   0  0  0  0  0
    7.1076 -133.8482   18.9560 H   0  0  0  0  0
    5.4568 -133.6959   20.8269 H   0  0  0  0  0
    5.2496 -135.4702   20.6753 H   0  0  0  0  0
    5.2504 -135.6612   17.6453 H   0  0  0  0  0
    4.0529 -136.4228   18.7210 H   0  0  0  0  0
    3.5125 -135.3638   17.3953 H   0  0  0  0  0
    2.7656 -135.0203   20.3387 H   0  0  0  0  0
    3.0484 -133.2635   20.4090 H   0  0  0  0  0
    2.2400 -133.9793   18.9929 H   0  0  0  0  0
    4.6893 -132.2078   18.8968 H   0  0  0  0  0
    5.6140 -133.1983   17.7415 H   0  0  0  0  0
    3.8674 -132.9478   17.5011 H   0  0  0  0  0
   10.4649 -138.0437   17.4661 H   0  0  0  0  0
   12.6976 -136.4741   16.1814 H   0  0  0  0  0
   13.2274 -138.5557   15.0617 H   0  0  0  0  0
   11.8062 -139.3437   15.7920 H   0  0  0  0  0
   13.7690 -139.9291   17.0691 H   0  0  0  0  0
   12.7507 -138.8119   18.0428 H   0  0  0  0  0
   15.3720 -138.4004   15.3533 H   0  0  0  0  0
   14.0104 -137.3359   19.3044 H   0  0  0  0  0
   17.3259 -136.8728   15.5922 H   0  0  0  0  0
   15.9573 -135.7954   19.5362 H   0  0  0  0  0
   17.6117 -135.5788   17.6948 H   0  0  0  0  0
   11.3348 -135.7864   11.9395 H   0  0  0  0  0
    9.9380 -136.6512   12.6617 H   0  0  0  0  0
   11.3778 -133.4585   11.7990 H   0  0  0  0  0
    8.3820 -135.3755   14.1976 H   0  0  0  0  0
   12.4315 -135.8229   14.0572 H   0  0  0  0  0
   10.2118 -131.2869   12.0846 H   0  0  0  0  0
    8.5896 -130.0601   13.9204 H   0  0  0  0  0
    7.6367 -130.4069   12.4565 H   0  0  0  0  0
    7.0314 -130.9117   14.0533 H   0  0  0  0  0
    7.2121 -133.2080   14.4622 H   0  0  0  0  0
  1  2  4  0  0  0
  6  1  4  0  0  0
  2  3  1  0  0  0
  4  2  4  0  0  0
  5  4  4  0  0  0
  6  5  4  0  0  0
  7  6  1  0  0  0
  7  8  2  0  0  0
 11  7  1  0  0  0
 10  9  1  0  0  0
  9 11  1  0  0  0
  9 12  1  0  0  0
 10 21  2  0  0  0
 22 10  1  0  0  0
 12 13  1  0  0  0
 13 14  2  0  0  0
 13 15  1  0  0  0
 15 16  1  0  0  0
 16 17  1  0  0  0
 17 18  1  0  0  0
 17 19  1  0  0  0
 17 20  1  0  0  0
 23 22  1  0  0  0
 24 23  1  0  0  0
 23 26  1  0  0  0
 24 25  2  0  0  0
 39 24  1  0  0  0
 26 27  1  0  0  0
 27 28  1  0  0  0
 28 29  4  0  0  0
 28 30  4  0  0  0
 29 31  4  0  0  0
 30 32  4  0  0  0
 31 33  4  0  0  0
 32 33  4  0  0  0
 34 35  1  0  0  0
 34 39  1  0  0  0
 35 36  4  0  0  0
 35 38  4  0  0  0
 36 40  4  0  0  0
 40 37  4  0  0  0
 37 41  1  0  0  0
 37 42  4  0  0  0
 38 42  4  0  0  0
  1 43  1  0  0  0
  3 44  1  0  0  0
  3 45  1  0  0  0
  3 46  1  0  0  0
  9 47  1  0  0  0
 11 48  1  0  0  0
 12 49  1  0  0  0
 12 50  1  0  0  0
 15 51  1  0  0  0
 16 52  1  0  0  0
 16 53  1  0  0  0
 18 54  1  0  0  0
 18 55  1  0  0  0
 18 56  1  0  0  0
 19 57  1  0  0  0
 19 58  1  0  0  0
 19 59  1  0  0  0
 20 60  1  0  0  0
 20 61  1  0  0  0
 20 62  1  0  0  0
 22 63  1  0  0  0
 23 64  1  0  0  0
 26 65  1  0  0  0
 26 66  1  0  0  0
 27 67  1  0  0  0
 27 68  1  0  0  0
 29 69  1  0  0  0
 30 70  1  0  0  0
 31 71  1  0  0  0
 32 72  1  0  0  0
 33 73  1  0  0  0
 34 74  1  0  0  0
 34 75  1  0  0  0
 36 76  1  0  0  0
 38 77  1  0  0  0
 39 78  1  0  0  0
 40 79  1  0  0  0
 41 80  1  0  0  0
 41 81  1  0  0  0
 41 82  1  0  0  0
 42 83  1  0  0  0
M  END
$$$$
