6gmx_ligand
  -I-interpret- 

 19 20  0  0  0  0  0  0  0  0999 V2000
   -4.2950   -8.3570   24.5980 C   0  0  0  0  0
   -3.0450   -8.4150   25.4670 C   0  0  0  0  0
   -2.1510   -9.6170   25.3190 C   0  0  0  0  0
   -3.5950  -10.0850   22.8830 C   0  0  0  0  0
   -4.5610   -9.2560   23.4200 C   0  0  0  0  0
   -5.8100   -9.2350   22.8230 C   0  0  0  0  0
   -6.0710  -10.0330   21.7230 C   0  0  0  0  0
   -5.0990  -10.8680   21.1860 C   0  0  0  0  0
   -3.8420  -10.8960   21.7760 C   0  0  0  0  0
   -5.1430   -7.5160   24.8540 O   0  0  0  0  0
   -2.0320  -10.1020   23.6310 S   0  0  0  0  0
   -7.6410   -9.9960   21.0060 Cl  0  0  0  0  0
   -3.4039   -8.4411   26.4959 H   0  0  0  0  0
   -2.4391   -7.5600   25.1670 H   0  0  0  0  0
   -2.5727  -10.4420   25.8932 H   0  0  0  0  0
   -1.1556   -9.3621   25.6828 H   0  0  0  0  0
   -6.5910   -8.5872   23.2211 H   0  0  0  0  0
   -5.3188  -11.4895   20.3179 H   0  0  0  0  0
   -3.0596  -11.5429   21.3792 H   0  0  0  0  0
  1  2  1  0  0  0
  1  5  1  0  0  0
  1 10  2  0  0  0
  2  3  1  0  0  0
  3 11  1  0  0  0
  5  4  4  0  0  0
  4  9  4  0  0  0
  4 11  1  0  0  0
  5  6  4  0  0  0
  6  7  4  0  0  0
  7  8  4  0  0  0
  7 12  1  0  0  0
  8  9  4  0  0  0
  2 13  1  0  0  0
  2 14  1  0  0  0
  3 15  1  0  0  0
  3 16  1  0  0  0
  6 17  1  0  0  0
  8 18  1  0  0  0
  9 19  1  0  0  0
M  END
$$$$
