3qo9_ligand
  -I-interpret- 

 81 83  0  0  0  0  0  0  0  0999 V2000
   46.8950  -30.8140   41.9960 C   0  0  0  0  0
   47.9920  -31.6330   41.8070 N   0  0  0  0  0
   45.9050  -31.2230   42.8290 O   0  0  0  0  0
   53.2030  -29.2090   36.3860 S   0  0  0  0  0
   46.8030  -29.5720   41.3130 C   0  0  0  0  0
   49.0060  -30.0530   40.3050 N   0  0  0  0  0
   50.0890  -32.1120   40.8640 O   0  0  0  0  0
   47.9010  -29.2210   40.4780 C   0  0  0  0  0
   50.7710  -28.4880   40.0020 O   0  0  0  0  0
   49.0400  -31.2710   40.9920 C   0  0  0  0  0
   52.3280  -29.3920   37.7470 O   0  0  0  0  0
   45.7150  -28.7370   41.4820 C   0  0  0  0  0
   50.0250  -30.5430   37.1850 O   0  0  0  0  0
   50.1800  -29.6530   39.4480 C   0  0  0  0  0
   49.5040  -26.3140   40.1590 O   0  0  0  0  0
   51.1470  -27.6230   38.9500 C   0  0  0  0  0
   54.5810  -28.6830   36.6830 O   0  0  0  0  0
   51.1750  -28.5040   37.6950 C   0  0  0  0  0
   53.3370  -30.4900   35.5890 O   0  0  0  0  0
   49.9190  -29.3490   37.9390 C   0  0  0  0  0
   50.1360  -26.4360   38.9180 C   0  0  0  0  0
   51.1970  -27.7110   36.3750 C   0  0  0  0  0
   52.3410  -28.0660   35.5660 C   0  0  0  0  0
   48.8750  -32.7670   35.8170 C   0  0  0  0  0
   47.0820  -30.5930   37.1000 C   0  0  0  0  0
   48.7420  -29.9140   34.6440 C   0  0  0  0  0
   47.6430  -33.2420   35.0420 C   0  0  0  0  0
   50.1370  -32.9840   34.9570 C   0  0  0  0  0
   49.0070  -33.5810   37.1240 C   0  0  0  0  0
   48.3750  -23.5990   39.8710 C   0  0  0  0  0
   46.8200  -26.0880   38.8940 C   0  0  0  0  0
   47.3410  -25.7180   41.8360 C   0  0  0  0  0
   47.0980  -22.8350   40.2580 C   0  0  0  0  0
   49.5310  -23.1170   40.7820 C   0  0  0  0  0
   48.7200  -23.3110   38.4010 C   0  0  0  0  0
   48.7160  -30.9080   36.2280 Si  0  0  0  0  0
   48.0820  -25.4650   40.1410 Si  0  0  0  0  0
   50.2520  -26.7490   35.9600 N   0  0  0  0  0
   48.0259  -32.5329   42.2860 H   0  0  0  0  0
   47.8769  -28.2655   39.9540 H   0  0  0  0  0
   46.0484  -27.7886   41.9033 H   0  0  0  0  0
   45.2407  -28.5605   40.5166 H   0  0  0  0  0
   45.0007  -29.2056   42.1590 H   0  0  0  0  0
   50.8083  -30.5436   39.4570 H   0  0  0  0  0
   52.1272  -27.1575   39.0531 H   0  0  0  0  0
   48.9546  -28.9066   37.6891 H   0  0  0  0  0
   50.6724  -25.5134   38.6961 H   0  0  0  0  0
   49.3857  -26.6240   38.1500 H   0  0  0  0  0
   52.5898  -27.6524   34.5887 H   0  0  0  0  0
   47.0260  -31.2089   37.9975 H   0  0  0  0  0
   47.0156  -29.5405   37.3754 H   0  0  0  0  0
   46.2598  -30.8475   36.4312 H   0  0  0  0  0
   48.7142  -28.8509   34.8832 H   0  0  0  0  0
   49.6533  -30.1394   34.0901 H   0  0  0  0  0
   47.8736  -30.1744   34.0388 H   0  0  0  0  0
   47.5557  -32.6727   34.1166 H   0  0  0  0  0
   47.7478  -34.3018   34.8096 H   0  0  0  0  0
   46.7514  -33.0885   35.6500 H   0  0  0  0  0
   50.2390  -34.0441   34.7247 H   0  0  0  0  0
   50.0468  -32.4150   34.0317 H   0  0  0  0  0
   51.0139  -32.6457   35.5090 H   0  0  0  0  0
   48.1151  -33.4347   37.7333 H   0  0  0  0  0
   49.1143  -34.6385   36.8826 H   0  0  0  0  0
   49.8844  -33.2419   37.6747 H   0  0  0  0  0
   47.2410  -26.0251   37.8906 H   0  0  0  0  0
   46.5691  -27.1244   39.1198 H   0  0  0  0  0
   45.9210  -25.4744   38.9513 H   0  0  0  0  0
   47.1714  -26.7819   42.0019 H   0  0  0  0  0
   48.0272  -25.3360   42.5918 H   0  0  0  0  0
   46.3933  -25.1833   41.9003 H   0  0  0  0  0
   46.8582  -23.0360   41.3021 H   0  0  0  0  0
   47.2600  -21.7659   40.1204 H   0  0  0  0  0
   46.2737  -23.1634   39.6249 H   0  0  0  0  0
   49.6803  -22.0464   40.6417 H   0  0  0  0  0
   49.2785  -23.3165   41.8234 H   0  0  0  0  0
   50.4449  -23.6500   40.5198 H   0  0  0  0  0
   47.8958  -23.6349   37.7655 H   0  0  0  0  0
   48.8826  -22.2412   38.2702 H   0  0  0  0  0
   49.6254  -23.8534   38.1286 H   0  0  0  0  0
   50.3640  -26.2783   35.0620 H   0  0  0  0  0
   49.4568  -26.5242   36.5579 H   0  0  0  0  0
  2  1  1  0  0  0
  1  3  2  0  0  0
  5  1  1  0  0  0
 10  2  1  0  0  0
 11  4  1  0  0  0
  4 17  2  0  0  0
  4 19  2  0  0  0
 23  4  1  0  0  0
  8  5  2  0  0  0
  5 12  1  0  0  0
  6  8  1  0  0  0
  6 10  1  0  0  0
 14  6  1  0  0  0
 10  7  2  0  0  0
  9 14  1  0  0  0
 16  9  1  0  0  0
 18 11  1  0  0  0
 20 13  1  0  0  0
 13 36  1  0  0  0
 20 14  1  0  0  0
 15 21  1  0  0  0
 37 15  1  0  0  0
 16 18  1  0  0  0
 21 16  1  0  0  0
 18 20  1  0  0  0
 18 22  1  0  0  0
 22 23  2  0  0  0
 22 38  1  0  0  0
 24 27  1  0  0  0
 24 28  1  0  0  0
 24 29  1  0  0  0
 36 24  1  0  0  0
 36 25  1  0  0  0
 36 26  1  0  0  0
 30 33  1  0  0  0
 30 34  1  0  0  0
 30 35  1  0  0  0
 30 37  1  0  0  0
 37 31  1  0  0  0
 37 32  1  0  0  0
  2 39  1  0  0  0
  8 40  1  0  0  0
 12 41  1  0  0  0
 12 42  1  0  0  0
 12 43  1  0  0  0
 14 44  1  0  0  0
 16 45  1  0  0  0
 20 46  1  0  0  0
 21 47  1  0  0  0
 21 48  1  0  0  0
 23 49  1  0  0  0
 25 50  1  0  0  0
 25 51  1  0  0  0
 25 52  1  0  0  0
 26 53  1  0  0  0
 26 54  1  0  0  0
 26 55  1  0  0  0
 27 56  1  0  0  0
 27 57  1  0  0  0
 27 58  1  0  0  0
 28 59  1  0  0  0
 28 60  1  0  0  0
 28 61  1  0  0  0
 29 62  1  0  0  0
 29 63  1  0  0  0
 29 64  1  0  0  0
 31 65  1  0  0  0
 31 66  1  0  0  0
 31 67  1  0  0  0
 32 68  1  0  0  0
 32 69  1  0  0  0
 32 70  1  0  0  0
 33 71  1  0  0  0
 33 72  1  0  0  0
 33 73  1  0  0  0
 34 74  1  0  0  0
 34 75  1  0  0  0
 34 76  1  0  0  0
 35 77  1  0  0  0
 35 78  1  0  0  0
 35 79  1  0  0  0
 38 80  1  0  0  0
 38 81  1  0  0  0
M  END
$$$$
