### 
### Created by X-TOOL on Mon Sep 10 21:13:08 2018
### 

@<TRIPOS>MOLECULE
3qo9_ligand
   81    83     1     0     0
SMALL
GAST_HUCK


@<TRIPOS>ATOM
      1 C1         46.8950  -30.8140   41.9960 C.2       1 QO9         0.2022
      2 N1         47.9920  -31.6330   41.8070 N.am      1 QO9        -0.1849
      3 O1         45.9050  -31.2230   42.8290 O.2       1 QO9        -0.4005
      4 S1         53.2030  -29.2090   36.3860 S.o2      1 QO9         0.1280
      5 C2         46.8030  -29.5720   41.3130 C.2       1 QO9         0.0294
      6 N2         49.0060  -30.0530   40.3050 N.pl3     1 QO9        -0.1799
      7 O2         50.0890  -32.1120   40.8640 O.2       1 QO9        -0.3787
      8 C3         47.9010  -29.2210   40.4780 C.2       1 QO9         0.0474
      9 O3         50.7710  -28.4880   40.0020 O.3       1 QO9        -0.3523
     10 C4         49.0400  -31.2710   40.9920 C.2       1 QO9         0.3194
     11 O4         52.3280  -29.3920   37.7470 O.3       1 QO9        -0.2652
     12 C5         45.7150  -28.7370   41.4820 C.3       1 QO9        -0.0390
     13 O5         50.0250  -30.5430   37.1850 O.3       1 QO9        -0.2361
     14 C6         50.1800  -29.6530   39.4480 C.3       1 QO9         0.1848
     15 O6         49.5040  -26.3140   40.1590 O.3       1 QO9        -0.2332
     16 C7         51.1470  -27.6230   38.9500 C.3       1 QO9         0.0917
     17 O7         54.5810  -28.6830   36.6830 O.2       1 QO9        -0.1340
     18 C8         51.1750  -28.5040   37.6950 C.3       1 QO9         0.1571
     19 O8         53.3370  -30.4900   35.5890 O.2       1 QO9        -0.1340
     20 C9         49.9190  -29.3490   37.9390 C.3       1 QO9         0.1485
     21 C10        50.1360  -26.4360   38.9180 C.3       1 QO9         0.1015
     22 C11        51.1970  -27.7110   36.3750 C.2       1 QO9         0.0776
     23 C12        52.3410  -28.0660   35.5660 C.2       1 QO9         0.1512
     24 C13        48.8750  -32.7670   35.8170 C.3       1 QO9        -0.0328
     25 C14        47.0820  -30.5930   37.1000 C.3       1 QO9        -0.0681
     26 C15        48.7420  -29.9140   34.6440 C.3       1 QO9        -0.0681
     27 C16        47.6430  -33.2420   35.0420 C.3       1 QO9        -0.0596
     28 C17        50.1370  -32.9840   34.9570 C.3       1 QO9        -0.0596
     29 C18        49.0070  -33.5810   37.1240 C.3       1 QO9        -0.0596
     30 C19        48.3750  -23.5990   39.8710 C.3       1 QO9        -0.0328
     31 C20        46.8200  -26.0880   38.8940 C.3       1 QO9        -0.0681
     32 C21        47.3410  -25.7180   41.8360 C.3       1 QO9        -0.0681
     33 C22        47.0980  -22.8350   40.2580 C.3       1 QO9        -0.0596
     34 C23        49.5310  -23.1170   40.7820 C.3       1 QO9        -0.0596
     35 C24        48.7200  -23.3110   38.4010 C.3       1 QO9        -0.0596
     36 SI1        48.7160  -30.9080   36.2280 Si        1 QO9         0.0000
     37 SI2        48.0820  -25.4650   40.1410 Si        1 QO9         0.0000
     38 N3         50.2520  -26.7490   35.9600 N.pl3     1 QO9        -0.3363
     39 H1         48.0252  -32.5152   42.2766 H         1 QO9         0.2264
     40 H2         47.8769  -28.2664   39.9545 H         1 QO9         0.0993
     41 H3         44.9933  -29.2088   42.1650 H         1 QO9         0.0315
     42 H4         45.2354  -28.5581   40.5084 H         1 QO9         0.0315
     43 H5         46.0502  -27.7795   41.9072 H         1 QO9         0.0315
     44 H6         50.9036  -30.4803   39.4928 H         1 QO9         0.0938
     45 H7         52.1544  -27.2175   39.1249 H         1 QO9         0.0516
     46 H8         48.9727  -28.8235   37.7431 H         1 QO9         0.0574
     47 H9         50.6748  -25.5044   38.6902 H         1 QO9         0.0607
     48 H10        49.3802  -26.6219   38.1407 H         1 QO9         0.0607
     49 H11        52.5895  -27.6528   34.5896 H         1 QO9         0.1473
     50 H12        46.2513  -30.8495   36.4260 H         1 QO9         0.0227
     51 H13        47.0137  -29.5310   37.3784 H         1 QO9         0.0227
     52 H14        47.0242  -31.2141   38.0060 H         1 QO9         0.0227
     53 H15        47.8661  -30.1759   34.0324 H         1 QO9         0.0227
     54 H16        49.6612  -30.1406   34.0839 H         1 QO9         0.0227
     55 H17        48.7139  -28.8409   34.8840 H         1 QO9         0.0227
     56 H18        47.7454  -34.3126   34.8110 H         1 QO9         0.0235
     57 H19        47.5565  -32.6715   34.1055 H         1 QO9         0.0235
     58 H20        46.7420  -33.0833   35.6527 H         1 QO9         0.0235
     59 H21        50.2367  -34.0525   34.7153 H         1 QO9         0.0235
     60 H22        51.0236  -32.6503   35.5161 H         1 QO9         0.0235
     61 H23        50.0507  -32.4041   34.0263 H         1 QO9         0.0235
     62 H24        49.0982  -34.6502   36.8824 H         1 QO9         0.0235
     63 H25        48.1150  -33.4208   37.7474 H         1 QO9         0.0235
     64 H26        49.9017  -33.2514   37.6725 H         1 QO9         0.0235
     65 H27        45.9121  -25.4695   38.9509 H         1 QO9         0.0227
     66 H28        46.5659  -27.1339   39.1208 H         1 QO9         0.0227
     67 H29        47.2436  -26.0250   37.8808 H         1 QO9         0.0227
     68 H30        46.3845  -25.1789   41.9022 H         1 QO9         0.0227
     69 H31        48.0326  -25.3328   42.5998 H         1 QO9         0.0227
     70 H32        47.1693  -26.7913   42.0047 H         1 QO9         0.0227
     71 H33        47.2555  -21.7570   40.1062 H         1 QO9         0.0235
     72 H34        46.8628  -23.0258   41.3155 H         1 QO9         0.0235
     73 H35        46.2622  -23.1755   39.6292 H         1 QO9         0.0235
     74 H36        49.6978  -22.0412   40.6244 H         1 QO9         0.0235
     75 H37        50.4486  -23.6705   40.5339 H         1 QO9         0.0235
     76 H38        49.2676  -23.2968   41.8347 H         1 QO9         0.0235
     77 H39        48.8847  -22.2316   38.2677 H         1 QO9         0.0235
     78 H40        47.8888  -23.6371   37.7586 H         1 QO9         0.0235
     79 H41        49.6334  -23.8581   38.1247 H         1 QO9         0.0235
     80 H42        50.3636  -26.2757   35.0520 H         1 QO9         0.1719
     81 H43        49.4505  -26.5200   36.5650 H         1 QO9         0.1719
@<TRIPOS>BOND
     1    2    1 am 
     2    1    3 2  
     3    5    1 1  
     4   10    2 am 
     5   11    4 1  
     6    4   17 2  
     7    4   19 2  
     8   23    4 1  
     9    8    5 2  
    10    5   12 1  
    11    6    8 1  
    12    6   10 1  
    13   14    6 1  
    14   10    7 2  
    15    9   14 1  
    16   16    9 1  
    17   18   11 1  
    18   20   13 1  
    19   13   36 1  
    20   20   14 1  
    21   15   21 1  
    22   37   15 1  
    23   16   18 1  
    24   21   16 1  
    25   18   20 1  
    26   18   22 1  
    27   22   23 2  
    28   22   38 1  
    29   24   27 1  
    30   24   28 1  
    31   24   29 1  
    32   36   24 1  
    33   36   25 1  
    34   36   26 1  
    35   30   33 1  
    36   30   34 1  
    37   30   35 1  
    38   30   37 1  
    39   37   31 1  
    40   37   32 1  
    41    2   39 1  
    42    8   40 1  
    43   12   41 1  
    44   12   42 1  
    45   12   43 1  
    46   14   44 1  
    47   16   45 1  
    48   20   46 1  
    49   21   47 1  
    50   21   48 1  
    51   23   49 1  
    52   25   50 1  
    53   25   51 1  
    54   25   52 1  
    55   26   53 1  
    56   26   54 1  
    57   26   55 1  
    58   27   56 1  
    59   27   57 1  
    60   27   58 1  
    61   28   59 1  
    62   28   60 1  
    63   28   61 1  
    64   29   62 1  
    65   29   63 1  
    66   29   64 1  
    67   31   65 1  
    68   31   66 1  
    69   31   67 1  
    70   32   68 1  
    71   32   69 1  
    72   32   70 1  
    73   33   71 1  
    74   33   72 1  
    75   33   73 1  
    76   34   74 1  
    77   34   75 1  
    78   34   76 1  
    79   35   77 1  
    80   35   78 1  
    81   35   79 1  
    82   38   80 1  
    83   38   81 1  
@<TRIPOS>SUBSTRUCTURE
     1 QO9         1

