6e7j_ligand
  -I-interpret- 

 87 91  0  0  0  0  0  0  0  0999 V2000
   14.7310   21.5690   16.8720 C   0  0  0  0  0
   16.1940   22.4780   15.0250 C   0  0  0  0  0
   15.4330   22.9730   18.8550 C   0  0  0  0  0
   16.2810   24.1710   18.3810 C   0  0  0  0  0
   17.8260   23.9980   18.7030 C   0  0  0  0  0
   19.3650   24.7160   17.0400 C   0  0  0  0  0
   19.4840   23.6830   16.3710 O   0  0  0  0  0
   20.9190   25.4990   15.3710 C   0  0  0  0  0
   22.3030   27.4620   15.4330 C   0  0  0  0  0
   22.2170   27.8720   17.6910 C   0  0  0  0  0
   23.0950   26.3950   16.1330 C   0  0  0  0  0
   21.8170   28.4520   18.6780 O   0  0  0  0  0
   21.7270   28.2890   16.4920 O   0  0  0  0  0
   23.0930   26.9000   17.5110 N   0  0  0  0  0
   23.9540   26.4430   18.5470 C   0  0  0  0  0
   24.5650   25.2170   18.3730 C   0  0  0  0  0
   25.4260   24.7100   19.3670 C   0  0  0  0  0
   25.6240   25.4400   20.5140 C   0  0  0  0  0
   25.0280   26.6660   20.6940 C   0  0  0  0  0
   24.1530   27.1600   19.7070 C   0  0  0  0  0
   21.1550   26.8760   14.6650 C   0  0  0  0  0
   22.2620   25.1090   15.9200 C   0  0  0  0  0
   20.0850   25.7690   16.4650 O   0  0  0  0  0
   18.6480   24.9590   18.0510 N   0  0  0  0  0
   18.2210   23.9650   20.1580 C   0  0  0  0  0
   19.6670   23.6600   20.3190 C   0  0  0  0  0
   20.0810   22.3350   20.1080 C   0  0  0  0  0
   21.4260   21.9740   20.2370 C   0  0  0  0  0
   22.3860   22.9520   20.5540 C   0  0  0  0  0
   21.9610   24.2490   20.7670 C   0  0  0  0  0
   20.5990   24.5900   20.6860 C   0  0  0  0  0
   15.9180   25.3570   19.1450 O   0  0  0  0  0
   15.7050   21.8270   17.9440 N   0  0  0  0  0
   14.8150   22.5950   15.7070 C   0  0  0  0  0
   13.7480   22.1660   14.7370 C   0  0  0  0  0
   16.3550   20.4710   18.6780 S   0  0  0  0  0
   17.1170   20.9340   19.8070 O   0  0  0  0  0
   16.9950   19.7760   17.6000 O   0  0  0  0  0
   15.1370   19.4650   19.2910 C   0  0  0  0  0
   14.6370   19.6150   20.6140 C   0  0  0  0  0
   13.5550   18.8670   21.0090 C   0  0  0  0  0
   14.5490   18.5500   18.4880 C   0  0  0  0  0
   13.4480   17.7730   18.9120 C   0  0  0  0  0
   12.9670   17.9780   20.1870 C   0  0  0  0  0
   11.8140   17.3800   20.6630 O   0  0  0  0  0
   11.1610   16.4560   19.7920 C   0  0  0  0  0
   13.7343   21.6442   17.3067 H   0  0  0  0  0
   14.9472   20.5833   16.4599 H   0  0  0  0  0
   16.3636   21.4435   14.7263 H   0  0  0  0  0
   16.2182   23.1203   14.1447 H   0  0  0  0  0
   16.9710   22.7878   15.7239 H   0  0  0  0  0
   14.3737   23.2290   18.8319 H   0  0  0  0  0
   15.6939   22.7092   19.8799 H   0  0  0  0  0
   16.1005   24.2451   17.3086 H   0  0  0  0  0
   18.0009   22.9985   18.3048 H   0  0  0  0  0
   20.4964   24.7353   14.7181 H   0  0  0  0  0
   22.9463   28.0070   14.7421 H   0  0  0  0  0
   24.1148   26.1817   15.8127 H   0  0  0  0  0
   24.3813   24.6408   17.4661 H   0  0  0  0  0
   25.9277   23.7524   19.2278 H   0  0  0  0  0
   26.2669   25.0389   21.2975 H   0  0  0  0  0
   25.2307   27.2499   21.5918 H   0  0  0  0  0
   23.6348   28.1066   19.8602 H   0  0  0  0  0
   20.2706   27.5130   14.6790 H   0  0  0  0  0
   21.3697   26.7721   13.6014 H   0  0  0  0  0
   22.7721   24.4458   15.2214 H   0  0  0  0  0
   22.1393   24.5831   16.8668 H   0  0  0  0  0
   18.6590   25.9078   18.4251 H   0  0  0  0  0
   17.6446   23.1854   20.6562 H   0  0  0  0  0
   18.0226   24.9444   20.5935 H   0  0  0  0  0
   19.3443   21.5777   19.8401 H   0  0  0  0  0
   21.7296   20.9372   20.0922 H   0  0  0  0  0
   23.4419   22.6922   20.6299 H   0  0  0  0  0
   22.6936   25.0212   21.0018 H   0  0  0  0  0
   20.2832   25.6070   20.9184 H   0  0  0  0  0
   14.9863   25.5478   19.0142 H   0  0  0  0  0
   14.6836   23.6224   16.0466 H   0  0  0  0  0
   13.7785   22.8091   13.8575 H   0  0  0  0  0
   13.9239   21.1323   14.4391 H   0  0  0  0  0
   12.7713   22.2468   15.2141 H   0  0  0  0  0
   15.1065   20.3146   21.3055 H   0  0  0  0  0
   13.1612   18.9970   22.0170 H   0  0  0  0  0
   14.9375   18.4070   17.4797 H   0  0  0  0  0
   12.9933   17.0347   18.2515 H   0  0  0  0  0
   10.8715   16.9668   18.8736 H   0  0  0  0  0
   11.8419   15.6384   19.5554 H   0  0  0  0  0
   10.2729   16.0599   20.2844 H   0  0  0  0  0
 33  1  1  0  0  0
  1 34  1  0  0  0
 34  2  1  0  0  0
  4  3  1  0  0  0
  3 33  1  0  0  0
  5  4  1  0  0  0
  4 32  1  0  0  0
 24  5  1  0  0  0
  5 25  1  0  0  0
  6  7  2  0  0  0
 23  6  1  0  0  0
  6 24  1  0  0  0
 21  8  1  0  0  0
  8 22  1  0  0  0
  8 23  1  0  0  0
  9 11  1  0  0  0
 13  9  1  0  0  0
  9 21  1  0  0  0
 10 12  2  0  0  0
 10 13  1  0  0  0
 10 14  1  0  0  0
 11 14  1  0  0  0
 11 22  1  0  0  0
 14 15  1  0  0  0
 15 16  4  0  0  0
 15 20  4  0  0  0
 16 17  4  0  0  0
 17 18  4  0  0  0
 18 19  4  0  0  0
 19 20  4  0  0  0
 25 26  1  0  0  0
 26 27  4  0  0  0
 26 31  4  0  0  0
 27 28  4  0  0  0
 28 29  4  0  0  0
 29 30  4  0  0  0
 30 31  4  0  0  0
 33 36  1  0  0  0
 34 35  1  0  0  0
 36 37  2  0  0  0
 36 38  2  0  0  0
 36 39  1  0  0  0
 39 40  4  0  0  0
 39 42  4  0  0  0
 40 41  4  0  0  0
 41 44  4  0  0  0
 42 43  4  0  0  0
 43 44  4  0  0  0
 44 45  1  0  0  0
 45 46  1  0  0  0
  1 47  1  0  0  0
  1 48  1  0  0  0
  2 49  1  0  0  0
  2 50  1  0  0  0
  2 51  1  0  0  0
  3 52  1  0  0  0
  3 53  1  0  0  0
  4 54  1  0  0  0
  5 55  1  0  0  0
  8 56  1  0  0  0
  9 57  1  0  0  0
 11 58  1  0  0  0
 16 59  1  0  0  0
 17 60  1  0  0  0
 18 61  1  0  0  0
 19 62  1  0  0  0
 20 63  1  0  0  0
 21 64  1  0  0  0
 21 65  1  0  0  0
 22 66  1  0  0  0
 22 67  1  0  0  0
 24 68  1  0  0  0
 25 69  1  0  0  0
 25 70  1  0  0  0
 27 71  1  0  0  0
 28 72  1  0  0  0
 29 73  1  0  0  0
 30 74  1  0  0  0
 31 75  1  0  0  0
 32 76  1  0  0  0
 34 77  1  0  0  0
 35 78  1  0  0  0
 35 79  1  0  0  0
 35 80  1  0  0  0
 40 81  1  0  0  0
 41 82  1  0  0  0
 42 83  1  0  0  0
 43 84  1  0  0  0
 46 85  1  0  0  0
 46 86  1  0  0  0
 46 87  1  0  0  0
M  END
$$$$
