3kfc_ligand
  -I-interpret- 

 47 50  0  0  0  0  0  0  0  0999 V2000
    9.6880   53.0900   26.6470 C   0  0  0  0  0
   21.5380   55.7430   32.9380 F   0  0  0  0  0
   20.2940   53.6580   31.1030 N   0  0  0  0  0
    8.5040   51.5720   28.3740 O   0  0  0  0  0
    9.1410   51.4690   27.0770 S   0  0  0  0  0
   10.6160   50.5420   27.3990 C   0  0  0  0  0
   22.5060   55.2920   31.0580 F   0  0  0  0  0
    8.4520   50.8740   25.9550 O   0  0  0  0  0
   10.7880   49.2290   26.9480 C   0  0  0  0  0
   22.1750   57.2980   31.6490 F   0  0  0  0  0
   13.7070   51.1700   29.2170 O   0  0  0  0  0
   11.9830   48.5490   27.2480 C   0  0  0  0  0
   12.9980   49.1640   28.0060 C   0  0  0  0  0
   12.7940   50.4780   28.4560 C   0  0  0  0  0
   11.6140   51.1610   28.1620 C   0  0  0  0  0
   14.5770   52.0710   28.6390 C   0  0  0  0  0
   14.3530   52.7280   27.4160 C   0  0  0  0  0
   15.3100   53.6090   26.9150 C   0  0  0  0  0
   16.4810   53.8430   27.6420 C   0  0  0  0  0
   16.6980   53.2030   28.8840 C   0  0  0  0  0
   15.7440   52.2990   29.3670 C   0  0  0  0  0
   17.9350   53.4330   29.6480 C   0  0  0  0  0
   18.5710   52.2880   30.1570 C   0  0  0  0  0
   19.7350   52.4510   30.8710 C   0  0  0  0  0
   19.7150   54.7850   30.6210 C   0  0  0  0  0
   18.5130   54.7300   29.8660 C   0  0  0  0  0
   17.9620   55.9540   29.4010 C   0  0  0  0  0
   18.5610   57.1890   29.6540 C   0  0  0  0  0
   19.7400   57.2370   30.3860 C   0  0  0  0  0
   20.3060   56.0430   30.8720 C   0  0  0  0  0
   21.5920   56.0930   31.6390 C   0  0  0  0  0
    8.8309   53.7622   26.6053 H   0  0  0  0  0
   10.3937   53.4451   27.3980 H   0  0  0  0  0
   10.1762   53.0609   25.6729 H   0  0  0  0  0
   10.0048   48.7379   26.3704 H   0  0  0  0  0
   12.1252   47.5301   26.8879 H   0  0  0  0  0
   13.9207   48.6321   28.2380 H   0  0  0  0  0
   11.4684   52.1779   28.5266 H   0  0  0  0  0
   13.4324   52.5486   26.8606 H   0  0  0  0  0
   15.1463   54.1124   25.9622 H   0  0  0  0  0
   17.2339   54.5254   27.2476 H   0  0  0  0  0
   15.9130   51.7758   30.3081 H   0  0  0  0  0
   18.1523   51.2956   29.9901 H   0  0  0  0  0
   20.2294   51.5645   31.2682 H   0  0  0  0  0
   17.0369   55.9277   28.8251 H   0  0  0  0  0
   18.1076   58.1072   29.2805 H   0  0  0  0  0
   20.2244   58.1933   30.5832 H   0  0  0  0  0
  5  1  1  0  0  0
 31  2  1  0  0  0
  3 24  4  0  0  0
 25  3  4  0  0  0
  5  4  2  0  0  0
  6  5  1  0  0  0
  5  8  2  0  0  0
  6  9  4  0  0  0
 15  6  4  0  0  0
 31  7  1  0  0  0
 12  9  4  0  0  0
 31 10  1  0  0  0
 11 14  1  0  0  0
 16 11  1  0  0  0
 13 12  4  0  0  0
 14 13  4  0  0  0
 14 15  4  0  0  0
 16 17  4  0  0  0
 21 16  4  0  0  0
 18 17  4  0  0  0
 19 18  4  0  0  0
 20 19  4  0  0  0
 20 21  4  0  0  0
 22 20  1  0  0  0
 22 23  4  0  0  0
 26 22  4  0  0  0
 24 23  4  0  0  0
 25 26  4  0  0  0
 30 25  4  0  0  0
 26 27  4  0  0  0
 28 27  4  0  0  0
 29 28  4  0  0  0
 30 29  4  0  0  0
 30 31  1  0  0  0
  1 32  1  0  0  0
  1 33  1  0  0  0
  1 34  1  0  0  0
  9 35  1  0  0  0
 12 36  1  0  0  0
 13 37  1  0  0  0
 15 38  1  0  0  0
 17 39  1  0  0  0
 18 40  1  0  0  0
 19 41  1  0  0  0
 21 42  1  0  0  0
 23 43  1  0  0  0
 24 44  1  0  0  0
 27 45  1  0  0  0
 28 46  1  0  0  0
 29 47  1  0  0  0
M  END
$$$$
