6hp0_ligand
  -I-interpret- 

 52 53  0  0  0  0  0  0  0  0999 V2000
   43.2420    0.5880   22.6740 N   0  0  0  0  0
   45.1650    3.8930   20.5430 N   0  0  0  0  0
   44.3040   -3.3560   24.0370 C   0  0  0  0  0
   45.1190   -2.2410   24.7240 C   0  0  0  0  0
   43.0980   -1.3760   21.2110 C   0  0  0  0  0
   43.1380   -1.8180   19.7800 C   0  0  0  0  0
   43.1470   -0.9890   18.7210 C   0  0  0  0  0
   43.1100    1.0000   20.2250 C   0  0  0  0  0
   43.6260    1.4970   24.9040 C   0  0  0  0  0
   44.1010    4.3130   21.2680 C   0  0  0  0  0
   42.8970   -1.5780   17.3730 C   0  0  0  0  0
   42.3110   -5.0510   22.0810 C   0  0  0  0  0
   41.9880   -3.7650   22.8910 C   0  0  0  0  0
   43.1690   -2.8210   23.1620 C   0  0  0  0  0
   43.8540   -2.3240   21.9800 O   0  0  0  0  0
   43.5330    0.4500   18.8900 C   0  0  0  0  0
   43.6110    0.0590   21.3750 C   0  0  0  0  0
   44.1260    1.1220   23.5480 C   0  0  0  0  0
   45.2930    1.2770   23.2550 O   0  0  0  0  0
   43.6010    2.3670   20.4310 N   0  0  0  0  0
   43.0980    3.3750   21.1580 C   0  0  0  0  0
   44.0790    5.6610   21.9010 C   0  0  0  0  0
   42.7200    6.0700   21.9770 O   0  0  0  0  0
   44.8790    2.6840   20.0940 N   0  0  0  0  0
   42.7980   -0.8230   16.3420 O   0  0  0  0  0
   42.7370   -2.8250   17.2740 O   0  0  0  0  0
   42.2590    0.5556   22.9444 H   0  0  0  0  0
   43.8569   -3.9685   24.8199 H   0  0  0  0  0
   44.9840   -3.9126   23.3921 H   0  0  0  0  0
   45.5632   -1.5971   23.9649 H   0  0  0  0  0
   44.4603   -1.6518   25.3620 H   0  0  0  0  0
   45.9074   -2.6890   25.3288 H   0  0  0  0  0
   42.0700   -1.3540   21.5728 H   0  0  0  0  0
   43.1615   -2.8898   19.5828 H   0  0  0  0  0
   42.0208    1.0394   20.2408 H   0  0  0  0  0
   44.1603    0.9205   25.6591 H   0  0  0  0  0
   43.7947    2.5609   25.0706 H   0  0  0  0  0
   42.5593    1.2824   24.9687 H   0  0  0  0  0
   42.7061   -4.7737   21.1037 H   0  0  0  0  0
   43.0520   -5.6416   22.6197 H   0  0  0  0  0
   41.4006   -5.6367   21.9534 H   0  0  0  0  0
   41.6354   -4.0998   23.8665 H   0  0  0  0  0
   41.2760   -3.1979   22.2914 H   0  0  0  0  0
   42.6132   -2.0423   23.6843 H   0  0  0  0  0
   43.0343    1.0281   18.1121 H   0  0  0  0  0
   44.6188    0.5195   18.8236 H   0  0  0  0  0
   44.6984    0.0248   21.3088 H   0  0  0  0  0
   42.0945    3.4395   21.5786 H   0  0  0  0  0
   44.6600    6.3704   21.3117 H   0  0  0  0  0
   44.5241    5.6245   22.8953 H   0  0  0  0  0
   42.6707    6.9390   22.3820 H   0  0  0  0  0
   42.9483    0.0896   16.5994 H   0  0  0  0  0
 17  1  1  0  0  0
  1 18  1  0  0  0
 10  2  4  0  0  0
  2 24  4  0  0  0
  3  4  1  0  0  0
 14  3  1  0  0  0
  5  6  1  0  0  0
  5 15  1  0  0  0
 17  5  1  0  0  0
  7  6  2  0  0  0
  7 11  1  0  0  0
 16  7  1  0  0  0
  8 16  1  0  0  0
  8 17  1  0  0  0
 20  8  1  0  0  0
 18  9  1  0  0  0
 21 10  4  0  0  0
 10 22  1  0  0  0
 11 25  1  0  0  0
 11 26  2  0  0  0
 13 12  1  0  0  0
 14 13  1  0  0  0
 15 14  1  0  0  0
 18 19  2  0  0  0
 20 21  4  0  0  0
 20 24  4  0  0  0
 22 23  1  0  0  0
  1 27  1  0  0  0
  3 28  1  0  0  0
  3 29  1  0  0  0
  4 30  1  0  0  0
  4 31  1  0  0  0
  4 32  1  0  0  0
  5 33  1  0  0  0
  6 34  1  0  0  0
  8 35  1  0  0  0
  9 36  1  0  0  0
  9 37  1  0  0  0
  9 38  1  0  0  0
 12 39  1  0  0  0
 12 40  1  0  0  0
 12 41  1  0  0  0
 13 42  1  0  0  0
 13 43  1  0  0  0
 14 44  1  0  0  0
 16 45  1  0  0  0
 16 46  1  0  0  0
 17 47  1  0  0  0
 21 48  1  0  0  0
 22 49  1  0  0  0
 22 50  1  0  0  0
 23 51  1  0  0  0
 25 52  1  0  0  0
M  END
$$$$
