### 
### Created by X-TOOL on Mon Sep 10 21:12:53 2018
### 

@<TRIPOS>MOLECULE
2c2l_ligand
  139   138     1     0     0
SMALL
GAST_HUCK


@<TRIPOS>ATOM
      1 N           8.5730  -31.0520   29.8490 N.4       1 ASP         0.2391
      2 CA          8.1030  -32.4450   30.1340 C.3       1 ASP         0.0764
      3 C           9.2080  -33.2500   30.8250 C.2       1 ASP         0.2285
      4 O           9.3360  -34.4590   30.6060 O.2       1 ASP        -0.3906
      5 CB          7.6970  -33.1520   28.8330 C.3       1 ASP         0.0607
      6 CG          6.7190  -32.3380   28.0030 C.2       1 ASP         0.0425
      7 OD1         5.6410  -31.9720   28.5230 O.co2     1 ASP        -0.5686
      8 OD2         7.0280  -32.0710   26.8230 O.co2     1 ASP        -0.5686
      9 N          10.0000  -32.5740   31.6580 N.am      1 THR        -0.2585
     10 CA         11.1120  -33.2020   32.3770 C.3       1 THR         0.1566
     11 C          10.6440  -34.1700   33.4640 C.2       1 THR         0.2065
     12 O          10.2150  -35.2860   33.1700 O.2       1 THR        -0.3943
     13 CB         12.0170  -32.1310   33.0220 C.3       1 THR         0.0924
     14 OG1        12.4200  -31.1800   32.0280 O.3       1 THR        -0.3874
     15 CG2        13.2500  -32.7700   33.6200 C.3       1 THR        -0.0346
     16 N          10.7350  -33.7320   34.7190 N.am      1 SER        -0.2615
     17 CA         10.3310  -34.5210   35.8880 C.3       1 SER         0.1539
     18 C          10.9290  -33.8650   37.1250 C.2       1 SER         0.2062
     19 O          12.1090  -33.5170   37.1410 O.2       1 SER        -0.3943
     20 CB         10.8250  -35.9690   35.7730 C.3       1 SER         0.0843
     21 OG         12.1970  -36.0210   35.4360 O.3       1 SER        -0.3903
     22 N          10.1210  -33.6830   38.1600 N.am      1 ARG        -0.2637
     23 CA         10.6290  -33.0410   39.3620 C.3       1 ARG         0.1311
     24 C          11.1770  -33.9960   40.4170 C.2       1 ARG         0.2039
     25 O          11.2250  -35.2010   40.2180 O.2       1 ARG        -0.3944
     26 CB          9.5520  -32.1560   39.9770 C.3       1 ARG        -0.0092
     27 CG          9.2700  -30.8830   39.1960 C.3       1 ARG        -0.0156
     28 CD          8.4110  -29.9510   40.0350 C.3       1 ARG         0.0627
     29 NE          8.2170  -28.6450   39.4200 N.pl3     1 ARG        -0.2723
     30 CZ          7.5310  -27.6510   39.9800 C.cat     1 ARG         0.2882
     31 NH1         6.9770  -27.8270   41.1720 N.pl3     1 ARG        -0.2849
     32 NH2         7.3960  -26.4810   39.3510 N.pl3     1 ARG        -0.2849
     33 N          11.6080  -33.4480   41.5410 N.am      1 MET        -0.2637
     34 CA         12.1510  -34.2860   42.5770 C.3       1 MET         0.1317
     35 C          11.2180  -34.3970   43.7380 C.2       1 MET         0.2039
     36 O          11.2460  -35.3860   44.4570 O.2       1 MET        -0.3944
     37 CB         13.4650  -33.7350   43.0800 C.3       1 MET        -0.0034
     38 CG         14.5690  -33.8600   42.1060 C.3       1 MET        -0.0024
     39 SD         15.9950  -34.3900   42.9910 S.3       1 MET        -0.1639
     40 CE         15.8890  -36.1110   42.6940 C.3       1 MET        -0.0181
     41 N          10.4030  -33.3730   43.9450 N.am      1 GLU        -0.2636
     42 CA          9.4650  -33.3840   45.0570 C.3       1 GLU         0.1325
     43 C           8.3410  -34.3690   44.7420 C.2       1 GLU         0.2040
     44 O           7.2180  -34.2050   45.2070 O.2       1 GLU        -0.3944
     45 CB          8.8910  -31.9760   45.2830 C.3       1 GLU        -0.0008
     46 CG          9.9130  -30.8940   45.6850 C.3       1 GLU         0.0044
     47 CD         10.1420  -30.7870   47.1930 C.2       1 GLU         0.0350
     48 OE1         9.1690  -30.5270   47.9360 O.co2     1 GLU        -0.5690
     49 OE2        11.2980  -30.9490   47.6390 O.co2     1 GLU        -0.5690
     50 N           8.6500  -35.3860   43.9430 N.am      1 GLU        -0.2636
     51 CA          7.6710  -36.4010   43.5740 C.3       1 GLU         0.1325
     52 C           8.1700  -37.8020   43.9010 C.2       1 GLU         0.2040
     53 O           9.3330  -38.1200   43.6550 O.2       1 GLU        -0.3944
     54 CB          7.3790  -36.3370   42.0840 C.3       1 GLU        -0.0008
     55 CG          8.6270  -36.5090   41.2500 C.3       1 GLU         0.0044
     56 CD          8.3230  -36.9580   39.8360 C.2       1 GLU         0.0350
     57 OE1         7.4270  -36.3520   39.2090 O.co2     1 GLU        -0.5690
     58 OE2         8.9830  -37.9070   39.3530 O.co2     1 GLU        -0.5690
     59 N           7.2850  -38.6320   44.4520 N.am      1 VAL        -0.2635
     60 CA          7.6160  -40.0110   44.7960 C.3       1 VAL         0.1332
     61 C           7.5000  -40.8270   43.5270 C.2       1 VAL         0.2037
     62 O           6.6560  -41.7090   43.4350 O.2       1 VAL        -0.3944
     63 CB          6.6360  -40.5940   45.8130 C.3       1 VAL        -0.0063
     64 CG1         6.9430  -42.0480   46.0380 C.3       1 VAL        -0.0584
     65 CG2         6.7250  -39.8430   47.1090 C.3       1 VAL        -0.0584
     66 N           8.3420  -40.5150   42.5460 N.am      1 ASP        -0.2679
     67 CA          8.3350  -41.2020   41.2500 C.3       1 ASP         0.1057
     68 C           6.9570  -41.0490   40.5780 C.2       1 ASP         0.0618
     69 O           6.4110  -42.0540   40.0590 O.co2     1 ASP        -0.5665
     70 CB          8.6730  -42.6860   41.4410 C.3       1 ASP         0.0351
     71 CG          9.6380  -42.9140   42.5780 C.2       1 ASP         0.0387
     72 OD1        10.7940  -42.4570   42.4940 O.co2     1 ASP        -0.5688
     73 OD2         9.2200  -43.5490   43.5620 O.co2     1 ASP        -0.5688
     74 OXT         6.4450  -39.9040   40.5820 O.co2     1 ASP        -0.5665
     75 H1          7.8363  -30.5352   29.3949 H         1 ASP         0.2016
     76 H2          9.3801  -31.0864   29.2461 H         1 ASP         0.2016
     77 H3          8.8189  -30.5967   30.7141 H         1 ASP         0.2016
     78 H4          7.2289  -32.3934   30.7998 H         1 ASP         0.1117
     79 H5          7.2273  -34.1137   29.0870 H         1 ASP         0.0512
     80 H6          8.6016  -33.3326   28.2337 H         1 ASP         0.0512
     81 H7          9.8282  -31.5988   31.7978 H         1 THR         0.1885
     82 H8         11.7068  -33.7694   31.6461 H         1 THR         0.0826
     83 H9         11.4556  -31.6152   33.8149 H         1 THR         0.0639
     84 H10        12.9767  -30.5223   32.4279 H         1 THR         0.2101
     85 H11        13.8820  -31.9928   34.0744 H         1 THR         0.0257
     86 H12        13.8150  -33.2866   32.8302 H         1 THR         0.0257
     87 H13        12.9500  -33.4954   34.3906 H         1 THR         0.0257
     88 H14        11.0993  -32.8135   34.8728 H         1 SER         0.1884
     89 H15         9.2337  -34.5228   35.9654 H         1 SER         0.0823
     90 H16        10.2452  -36.4840   34.9929 H         1 SER         0.0606
     91 H17        10.6740  -36.4763   36.7373 H         1 SER         0.0606
     92 H18        12.7040  -35.5815   36.1085 H         1 SER         0.2097
     93 H19         9.1688  -33.9850   38.1146 H         1 ARG         0.1883
     94 H20        11.4623  -32.3937   39.0512 H         1 ARG         0.0800
     95 H21         9.8740  -31.8746   40.9904 H         1 ARG         0.0313
     96 H22         8.6202  -32.7376   40.0366 H         1 ARG         0.0313
     97 H23         8.7380  -31.1338   38.2665 H         1 ARG         0.0301
     98 H24        10.2199  -30.3850   38.9519 H         1 ARG         0.0301
     99 H25         8.8982  -29.8095   41.0110 H         1 ARG         0.0689
    100 H26         7.4263  -30.4190   40.1811 H         1 ARG         0.0689
    101 H27         8.6368  -28.4802   38.4940 H         1 ARG         0.2642
    102 H28         6.4450  -27.0619   41.6107 H         1 ARG         0.2615
    103 H29         7.0788  -28.7288   41.6591 H         1 ARG         0.2615
    104 H30         7.8252  -26.3415   38.4251 H         1 ARG         0.2615
    105 H31         6.8627  -25.7179   39.7916 H         1 ARG         0.2615
    106 H32        11.5568  -32.4577   41.6700 H         1 MET         0.1883
    107 H33        12.3195  -35.2892   42.1585 H         1 MET         0.0800
    108 H34        13.7439  -34.2800   43.9939 H         1 MET         0.0320
    109 H35        13.3281  -32.6694   43.3159 H         1 MET         0.0320
    110 H36        14.7621  -32.8874   41.6298 H         1 MET         0.0378
    111 H37        14.3083  -34.6003   41.3353 H         1 MET         0.0378
    112 H38        16.7286  -36.6209   43.1891 H         1 MET         0.0340
    113 H39        15.9326  -36.2996   41.6112 H         1 MET         0.0340
    114 H40        14.9392  -36.4945   43.0951 H         1 MET         0.0340
    115 H41        10.4330  -32.5846   43.3306 H         1 GLU         0.1883
    116 H42         9.9870  -33.7082   45.9693 H         1 GLU         0.0801
    117 H43         8.1374  -32.0424   46.0816 H         1 GLU         0.0330
    118 H44         8.4079  -31.6540   44.3487 H         1 GLU         0.0330
    119 H45         9.5497  -29.9219   45.3202 H         1 GLU         0.0433
    120 H46        10.8741  -31.1300   45.2048 H         1 GLU         0.0433
    121 H47         9.5810  -35.4566   43.5849 H         1 GLU         0.1883
    122 H48         6.7428  -36.2120   44.1332 H         1 GLU         0.0801
    123 H49         6.9302  -35.3597   41.8526 H         1 GLU         0.0330
    124 H50         6.6686  -37.1367   41.8275 H         1 GLU         0.0330
    125 H51         9.2700  -37.2623   41.7286 H         1 GLU         0.0433
    126 H52         9.1584  -35.5468   41.2078 H         1 GLU         0.0433
    127 H53         6.3607  -38.2978   44.6364 H         1 VAL         0.1883
    128 H54         8.6392  -40.0599   45.1968 H         1 VAL         0.0802
    129 H55         5.6138  -40.5013   45.4175 H         1 VAL         0.0343
    130 H56         6.2352  -42.4631   46.7706 H         1 VAL         0.0234
    131 H57         7.9692  -42.1512   46.4205 H         1 VAL         0.0234
    132 H58         6.8493  -42.5939   45.0876 H         1 VAL         0.0234
    133 H59         6.4988  -38.7809   46.9336 H         1 VAL         0.0234
    134 H60         7.7412  -39.9385   47.5191 H         1 VAL         0.0234
    135 H61         6.0002  -40.2589   47.8243 H         1 VAL         0.0234
    136 H62         9.0062  -39.7830   42.6979 H         1 ASP         0.1876
    137 H63         9.0976  -40.7456   40.6018 H         1 ASP         0.0745
    138 H64         9.1237  -43.0680   40.5131 H         1 ASP         0.0471
    139 H65         7.7437  -43.2359   41.6507 H         1 ASP         0.0471
@<TRIPOS>BOND
     1    1    2 1  
     2    2    3 1  
     3    2    5 1  
     4    3    4 2  
     5    3    9 am 
     6    5    6 1  
     7    6    7 ar 
     8    6    8 ar 
     9    9   10 1  
    10   10   11 1  
    11   10   13 1  
    12   11   12 2  
    13   11   16 am 
    14   13   14 1  
    15   13   15 1  
    16   16   17 1  
    17   17   18 1  
    18   17   20 1  
    19   18   19 2  
    20   18   22 am 
    21   20   21 1  
    22   22   23 1  
    23   23   24 1  
    24   23   26 1  
    25   24   25 2  
    26   24   33 am 
    27   26   27 1  
    28   27   28 1  
    29   28   29 1  
    30   29   30 ar 
    31   30   31 ar 
    32   30   32 ar 
    33   33   34 1  
    34   34   35 1  
    35   34   37 1  
    36   35   36 2  
    37   35   41 am 
    38   37   38 1  
    39   38   39 1  
    40   39   40 1  
    41   41   42 1  
    42   42   43 1  
    43   42   45 1  
    44   43   44 2  
    45   43   50 am 
    46   45   46 1  
    47   46   47 1  
    48   47   48 ar 
    49   47   49 ar 
    50   50   51 1  
    51   51   52 1  
    52   51   54 1  
    53   52   53 2  
    54   52   59 am 
    55   54   55 1  
    56   55   56 1  
    57   56   57 ar 
    58   56   58 ar 
    59   59   60 1  
    60   60   61 1  
    61   60   63 1  
    62   61   62 2  
    63   61   66 am 
    64   63   64 1  
    65   63   65 1  
    66   66   67 1  
    67   67   68 1  
    68   67   70 1  
    69   68   69 ar 
    70   68   74 ar 
    71   70   71 1  
    72   71   72 ar 
    73   71   73 ar 
    74    1   75 1  
    75    1   76 1  
    76    1   77 1  
    77    2   78 1  
    78    5   79 1  
    79    5   80 1  
    80    9   81 1  
    81   10   82 1  
    82   13   83 1  
    83   14   84 1  
    84   15   85 1  
    85   15   86 1  
    86   15   87 1  
    87   16   88 1  
    88   17   89 1  
    89   20   90 1  
    90   20   91 1  
    91   21   92 1  
    92   22   93 1  
    93   23   94 1  
    94   26   95 1  
    95   26   96 1  
    96   27   97 1  
    97   27   98 1  
    98   28   99 1  
    99   28  100 1  
   100   29  101 1  
   101   31  102 1  
   102   31  103 1  
   103   32  104 1  
   104   32  105 1  
   105   33  106 1  
   106   34  107 1  
   107   37  108 1  
   108   37  109 1  
   109   38  110 1  
   110   38  111 1  
   111   40  112 1  
   112   40  113 1  
   113   40  114 1  
   114   41  115 1  
   115   42  116 1  
   116   45  117 1  
   117   45  118 1  
   118   46  119 1  
   119   46  120 1  
   120   50  121 1  
   121   51  122 1  
   122   54  123 1  
   123   54  124 1  
   124   55  125 1  
   125   55  126 1  
   126   59  127 1  
   127   60  128 1  
   128   63  129 1  
   129   64  130 1  
   130   64  131 1  
   131   64  132 1  
   132   65  133 1  
   133   65  134 1  
   134   65  135 1  
   135   66  136 1  
   136   67  137 1  
   137   70  138 1  
   138   70  139 1  
@<TRIPOS>SUBSTRUCTURE
     1 ASP         1

