2c2l_ligand
  -I-interpret- 

143142  0  0  0  0  0  0  0  0999 V2000
    8.5730  -31.0520   29.8490 N   0  3  0  0  0
    8.1030  -32.4450   30.1340 C   0  0  0  0  0
    9.2080  -33.2500   30.8250 C   0  0  0  0  0
    9.3360  -34.4590   30.6060 O   0  0  0  0  0
    7.6970  -33.1520   28.8330 C   0  0  0  0  0
    6.7190  -32.3380   28.0030 C   0  0  0  0  0
    5.6410  -31.9720   28.5230 O   0  0  0  0  0
    7.0280  -32.0710   26.8230 O   0  0  0  0  0
   10.0000  -32.5740   31.6580 N   0  0  0  0  0
   11.1120  -33.2020   32.3770 C   0  0  0  0  0
   10.6440  -34.1700   33.4640 C   0  0  0  0  0
   10.2150  -35.2860   33.1700 O   0  0  0  0  0
   12.0170  -32.1310   33.0220 C   0  0  0  0  0
   12.4200  -31.1800   32.0280 O   0  0  0  0  0
   13.2500  -32.7700   33.6200 C   0  0  0  0  0
   10.7350  -33.7320   34.7190 N   0  0  0  0  0
   10.3310  -34.5210   35.8880 C   0  0  0  0  0
   10.9290  -33.8650   37.1250 C   0  0  0  0  0
   12.1090  -33.5170   37.1410 O   0  0  0  0  0
   10.8250  -35.9690   35.7730 C   0  0  0  0  0
   12.1970  -36.0210   35.4360 O   0  0  0  0  0
   10.1210  -33.6830   38.1600 N   0  0  0  0  0
   10.6290  -33.0410   39.3620 C   0  0  0  0  0
   11.1770  -33.9960   40.4170 C   0  0  0  0  0
   11.2250  -35.2010   40.2180 O   0  0  0  0  0
    9.5520  -32.1560   39.9770 C   0  0  0  0  0
    9.2700  -30.8830   39.1960 C   0  0  0  0  0
    8.4110  -29.9510   40.0350 C   0  0  0  0  0
    8.2170  -28.6450   39.4200 N   0  0  0  0  0
    7.5310  -27.6510   39.9800 C   0  0  0  0  0
    6.9770  -27.8270   41.1720 N   0  0  0  0  0
    7.3960  -26.4810   39.3510 N   0  0  0  0  0
   11.6080  -33.4480   41.5410 N   0  0  0  0  0
   12.1510  -34.2860   42.5770 C   0  0  0  0  0
   11.2180  -34.3970   43.7380 C   0  0  0  0  0
   11.2460  -35.3860   44.4570 O   0  0  0  0  0
   13.4650  -33.7350   43.0800 C   0  0  0  0  0
   14.5690  -33.8600   42.1060 C   0  0  0  0  0
   15.9950  -34.3900   42.9910 S   0  0  0  0  0
   15.8890  -36.1110   42.6940 C   0  0  0  0  0
   10.4030  -33.3730   43.9450 N   0  0  0  0  0
    9.4650  -33.3840   45.0570 C   0  0  0  0  0
    8.3410  -34.3690   44.7420 C   0  0  0  0  0
    7.2180  -34.2050   45.2070 O   0  0  0  0  0
    8.8910  -31.9760   45.2830 C   0  0  0  0  0
    9.9130  -30.8940   45.6850 C   0  0  0  0  0
   10.1420  -30.7870   47.1930 C   0  0  0  0  0
    9.1690  -30.5270   47.9360 O   0  0  0  0  0
   11.2980  -30.9490   47.6390 O   0  0  0  0  0
    8.6500  -35.3860   43.9430 N   0  0  0  0  0
    7.6710  -36.4010   43.5740 C   0  0  0  0  0
    8.1700  -37.8020   43.9010 C   0  0  0  0  0
    9.3330  -38.1200   43.6550 O   0  0  0  0  0
    7.3790  -36.3370   42.0840 C   0  0  0  0  0
    8.6270  -36.5090   41.2500 C   0  0  0  0  0
    8.3230  -36.9580   39.8360 C   0  0  0  0  0
    7.4270  -36.3520   39.2090 O   0  0  0  0  0
    8.9830  -37.9070   39.3530 O   0  0  0  0  0
    7.2850  -38.6320   44.4520 N   0  0  0  0  0
    7.6160  -40.0110   44.7960 C   0  0  0  0  0
    7.5000  -40.8270   43.5270 C   0  0  0  0  0
    6.6560  -41.7090   43.4350 O   0  0  0  0  0
    6.6360  -40.5940   45.8130 C   0  0  0  0  0
    6.9430  -42.0480   46.0380 C   0  0  0  0  0
    6.7250  -39.8430   47.1090 C   0  0  0  0  0
    8.3420  -40.5150   42.5460 N   0  0  0  0  0
    8.3350  -41.2020   41.2500 C   0  0  0  0  0
    6.9570  -41.0490   40.5780 C   0  0  0  0  0
    6.4110  -42.0540   40.0590 O   0  0  0  0  0
    8.6730  -42.6860   41.4410 C   0  0  0  0  0
    9.6380  -42.9140   42.5780 C   0  0  0  0  0
   10.7940  -42.4570   42.4940 O   0  0  0  0  0
    9.2200  -43.5490   43.5620 O   0  0  0  0  0
    6.4450  -39.9040   40.5820 O   0  0  0  0  0
    8.8381  -30.5983   30.7233 H   0  0  0  0  0
    9.3790  -31.0874   29.2249 H   0  0  0  0  0
    7.8209  -30.5248   29.4054 H   0  0  0  0  0
    7.2371  -32.3823   30.7930 H   0  0  0  0  0
    7.2094  -34.0896   29.1000 H   0  0  0  0  0
    8.5980  -33.3004   28.2378 H   0  0  0  0  0
    5.6041  -32.2807   29.4313 H   0  0  0  0  0
    9.8248  -31.5793   31.8006 H   0  0  0  0  0
   11.6693  -33.7719   31.6336 H   0  0  0  0  0
   11.4546  -31.6316   33.8110 H   0  0  0  0  0
   12.9826  -30.5154   32.4321 H   0  0  0  0  0
   12.9514  -33.4886   34.3833 H   0  0  0  0  0
   13.8089  -33.2816   32.8364 H   0  0  0  0  0
   13.8754  -31.9989   34.0699 H   0  0  0  0  0
   11.1066  -32.7951   34.8759 H   0  0  0  0  0
    9.2433  -34.5483   35.9532 H   0  0  0  0  0
   10.2566  -36.4672   34.9876 H   0  0  0  0  0
   10.6865  -36.4594   36.7365 H   0  0  0  0  0
   12.4750  -36.9376   35.3717 H   0  0  0  0  0
    9.1497  -33.9911   38.1137 H   0  0  0  0  0
   11.4809  -32.4458   39.0332 H   0  0  0  0  0
    9.9068  -31.8562   40.9631 H   0  0  0  0  0
    8.6290  -32.7356   39.9910 H   0  0  0  0  0
    8.7422  -31.1319   38.2753 H   0  0  0  0  0
   10.2115  -30.3895   38.9549 H   0  0  0  0  0
    8.9207  -29.7970   40.9861 H   0  0  0  0  0
    7.4305  -30.4140   40.1458 H   0  0  0  0  0
    8.6327  -28.4818   38.5030 H   0  0  0  0  0
    7.0778  -28.7201   41.6544 H   0  0  0  0  0
    6.8678  -25.7253   39.7874 H   0  0  0  0  0
    7.8210  -26.3429   38.4341 H   0  0  0  0  0
   11.5558  -32.4379   41.6725 H   0  0  0  0  0
   12.3006  -35.2716   42.1363 H   0  0  0  0  0
   13.7428  -34.3077   43.9649 H   0  0  0  0  0
   13.3206  -32.6726   43.2765 H   0  0  0  0  0
   14.7566  -32.9042   41.6168 H   0  0  0  0  0
   14.3127  -34.5798   41.3286 H   0  0  0  0  0
   14.9475  -36.4897   43.0918 H   0  0  0  0  0
   15.9323  -36.2965   41.6208 H   0  0  0  0  0
   16.7214  -36.6151   43.1850 H   0  0  0  0  0
   10.4336  -32.5688   43.3183 H   0  0  0  0  0
    9.9787  -33.6921   45.9677 H   0  0  0  0  0
    8.1873  -32.0588   46.1113 H   0  0  0  0  0
    8.4651  -31.6598   44.3308 H   0  0  0  0  0
    9.5190  -29.9351   45.3483 H   0  0  0  0  0
   10.8664  -31.1642   45.2309 H   0  0  0  0  0
    8.3751  -30.4408   47.4032 H   0  0  0  0  0
    9.5996  -35.4580   43.5777 H   0  0  0  0  0
    6.7670  -36.1976   44.1481 H   0  0  0  0  0
    6.9559  -35.3571   41.8631 H   0  0  0  0  0
    6.6923  -37.1469   41.8379 H   0  0  0  0  0
    9.2429  -37.2752   41.7208 H   0  0  0  0  0
    9.1303  -35.5437   41.1952 H   0  0  0  0  0
    9.6136  -38.2213   40.0051 H   0  0  0  0  0
    6.3422  -38.2911   44.6401 H   0  0  0  0  0
    8.6161  -40.0366   45.2287 H   0  0  0  0  0
    5.6225  -40.4984   45.4235 H   0  0  0  0  0
    6.8498  -42.5878   45.0956 H   0  0  0  0  0
    7.9600  -42.1489   46.4170 H   0  0  0  0  0
    6.2410  -42.4581   46.7640 H   0  0  0  0  0
    7.7380  -39.9211   47.5039 H   0  0  0  0  0
    6.4803  -38.7948   46.9376 H   0  0  0  0  0
    6.0212  -40.2696   47.8237 H   0  0  0  0  0
    9.0195  -39.7684   42.7009 H   0  0  0  0  0
    9.0895  -40.7513   40.6053 H   0  0  0  0  0
    6.9786  -42.8198   40.1730 H   0  0  0  0  0
    9.1403  -43.0462   40.5245 H   0  0  0  0  0
    7.7486  -43.2156   41.6717 H   0  0  0  0  0
   10.8981  -42.0054   41.6532 H   0  0  0  0  0
  1  2  1  0  0  0
  2  3  1  0  0  0
  2  5  1  0  0  0
  3  4  2  0  0  0
  3  9  1  0  0  0
  5  6  1  0  0  0
  6  7  1  0  0  0
  6  8  2  0  0  0
  9 10  1  0  0  0
 10 11  1  0  0  0
 10 13  1  0  0  0
 11 12  2  0  0  0
 11 16  1  0  0  0
 13 14  1  0  0  0
 13 15  1  0  0  0
 16 17  1  0  0  0
 17 18  1  0  0  0
 17 20  1  0  0  0
 18 19  2  0  0  0
 18 22  1  0  0  0
 20 21  1  0  0  0
 22 23  1  0  0  0
 23 24  1  0  0  0
 23 26  1  0  0  0
 24 25  2  0  0  0
 24 33  1  0  0  0
 26 27  1  0  0  0
 27 28  1  0  0  0
 28 29  1  0  0  0
 29 30  1  0  0  0
 30 31  2  0  0  0
 30 32  1  0  0  0
 33 34  1  0  0  0
 34 35  1  0  0  0
 34 37  1  0  0  0
 35 36  2  0  0  0
 35 41  1  0  0  0
 37 38  1  0  0  0
 38 39  1  0  0  0
 39 40  1  0  0  0
 41 42  1  0  0  0
 42 43  1  0  0  0
 42 45  1  0  0  0
 43 44  2  0  0  0
 43 50  1  0  0  0
 45 46  1  0  0  0
 46 47  1  0  0  0
 47 48  1  0  0  0
 47 49  2  0  0  0
 50 51  1  0  0  0
 51 52  1  0  0  0
 51 54  1  0  0  0
 52 53  2  0  0  0
 52 59  1  0  0  0
 54 55  1  0  0  0
 55 56  1  0  0  0
 56 57  2  0  0  0
 56 58  1  0  0  0
 59 60  1  0  0  0
 60 61  1  0  0  0
 60 63  1  0  0  0
 61 62  2  0  0  0
 61 66  1  0  0  0
 63 64  1  0  0  0
 63 65  1  0  0  0
 66 67  1  0  0  0
 67 68  1  0  0  0
 67 70  1  0  0  0
 68 69  1  0  0  0
 68 74  2  0  0  0
 70 71  1  0  0  0
 71 72  1  0  0  0
 71 73  2  0  0  0
  1 75  1  0  0  0
  1 76  1  0  0  0
  1 77  1  0  0  0
  2 78  1  0  0  0
  5 79  1  0  0  0
  5 80  1  0  0  0
  7 81  1  0  0  0
  9 82  1  0  0  0
 10 83  1  0  0  0
 13 84  1  0  0  0
 14 85  1  0  0  0
 15 86  1  0  0  0
 15 87  1  0  0  0
 15 88  1  0  0  0
 16 89  1  0  0  0
 17 90  1  0  0  0
 20 91  1  0  0  0
 20 92  1  0  0  0
 21 93  1  0  0  0
 22 94  1  0  0  0
 23 95  1  0  0  0
 26 96  1  0  0  0
 26 97  1  0  0  0
 27 98  1  0  0  0
 27 99  1  0  0  0
 28100  1  0  0  0
 28101  1  0  0  0
 29102  1  0  0  0
 31103  1  0  0  0
 32104  1  0  0  0
 32105  1  0  0  0
 33106  1  0  0  0
 34107  1  0  0  0
 37108  1  0  0  0
 37109  1  0  0  0
 38110  1  0  0  0
 38111  1  0  0  0
 40112  1  0  0  0
 40113  1  0  0  0
 40114  1  0  0  0
 41115  1  0  0  0
 42116  1  0  0  0
 45117  1  0  0  0
 45118  1  0  0  0
 46119  1  0  0  0
 46120  1  0  0  0
 48121  1  0  0  0
 50122  1  0  0  0
 51123  1  0  0  0
 54124  1  0  0  0
 54125  1  0  0  0
 55126  1  0  0  0
 55127  1  0  0  0
 58128  1  0  0  0
 59129  1  0  0  0
 60130  1  0  0  0
 63131  1  0  0  0
 64132  1  0  0  0
 64133  1  0  0  0
 64134  1  0  0  0
 65135  1  0  0  0
 65136  1  0  0  0
 65137  1  0  0  0
 66138  1  0  0  0
 67139  1  0  0  0
 69140  1  0  0  0
 70141  1  0  0  0
 70142  1  0  0  0
 72143  1  0  0  0
M  END
$$$$
