5xkm_ligand
  -I-interpret- 

 44 46  0  0  0  0  0  0  0  0999 V2000
    5.5100   -1.3270    6.7230 C   0  0  0  0  0
    7.2000   -0.5920    8.2340 C   0  0  0  0  0
    6.4690   -1.9230    5.9350 C   0  0  0  0  0
    8.1700   -1.1820    7.4560 C   0  0  0  0  0
    5.2040    4.7850    9.9390 C   0  0  0  0  0
    5.4270    3.3890   10.0320 C   0  0  0  0  0
    5.8700   -0.6590    7.8750 C   0  0  0  0  0
    7.7950   -1.8400    6.3060 C   0  0  0  0  0
    6.1220    3.2210   11.2100 C   0  0  0  0  0
    6.8850    4.8210   12.8940 C   0  0  0  0  0
    7.1970    2.3680   12.9920 C   0  0  0  0  0
    7.3480    3.5820   13.5340 C   0  0  0  0  0
    5.0150    2.3800    9.0910 C   0  0  0  0  0
    8.0290    3.7230   14.8420 C   0  0  0  0  0
    3.2140   -0.5250   10.5930 C   0  0  0  0  0
    4.2800   -1.0780    9.6770 C   0  0  0  0  0
    4.8190   -0.0230    8.7280 C   0  0  0  0  0
    9.3280   -1.4950    4.6250 C   0  0  0  0  0
    5.7130    5.4510   10.9770 N   0  0  0  0  0
    6.6160    2.1410   11.8540 N   0  0  0  0  0
    6.2610    4.4800   11.7220 N   0  0  0  0  0
    5.3380    1.1030    9.4650 N   0  0  0  0  0
    4.4300    2.6750    8.0590 O   0  0  0  0  0
    8.7590   -2.4460    5.5210 O   0  0  0  0  0
    9.9450   -0.4600    5.2550 F   0  0  0  0  0
    8.4030   -0.9850    3.7770 F   0  0  0  0  0
   10.2550   -2.1640    3.8970 F   0  0  0  0  0
    4.4603   -1.3833    6.4349 H   0  0  0  0  0
    7.4862   -0.0656    9.1445 H   0  0  0  0  0
    6.1834   -2.4549    5.0275 H   0  0  0  0  0
    9.2194   -1.1292    7.7459 H   0  0  0  0  0
    4.6762    5.2612    9.1127 H   0  0  0  0  0
    7.0146    5.8313   13.2820 H   0  0  0  0  0
    7.5881    1.5127   13.5430 H   0  0  0  0  0
    8.9162    4.3449   14.7231 H   0  0  0  0  0
    7.3497    4.1895   15.5554 H   0  0  0  0  0
    8.3204    2.7380   15.2065 H   0  0  0  0  0
    3.6333    0.2862   11.1882 H   0  0  0  0  0
    2.3837   -0.1478    9.9960 H   0  0  0  0  0
    2.8584   -1.3158   11.2536 H   0  0  0  0  0
    3.8369   -1.8766    9.0821 H   0  0  0  0  0
    5.1054   -1.4360   10.2923 H   0  0  0  0  0
    4.0219    0.3596    8.0905 H   0  0  0  0  0
    5.9478    0.9475   10.2677 H   0  0  0  0  0
  1  3  4  0  0  0
  7  1  4  0  0  0
  2  4  4  0  0  0
  7  2  4  0  0  0
  3  8  4  0  0  0
  4  8  4  0  0  0
  6  5  4  0  0  0
  5 19  4  0  0  0
  6  9  4  0  0  0
 13  6  1  0  0  0
 17  7  1  0  0  0
  8 24  1  0  0  0
  9 20  4  0  0  0
  9 21  4  0  0  0
 10 12  4  0  0  0
 21 10  4  0  0  0
 11 12  4  0  0  0
 20 11  4  0  0  0
 12 14  1  0  0  0
 22 13  1  0  0  0
 13 23  2  0  0  0
 16 15  1  0  0  0
 17 16  1  0  0  0
 17 22  1  0  0  0
 24 18  1  0  0  0
 18 25  1  0  0  0
 18 26  1  0  0  0
 18 27  1  0  0  0
 19 21  4  0  0  0
  1 28  1  0  0  0
  2 29  1  0  0  0
  3 30  1  0  0  0
  4 31  1  0  0  0
  5 32  1  0  0  0
 10 33  1  0  0  0
 11 34  1  0  0  0
 14 35  1  0  0  0
 14 36  1  0  0  0
 14 37  1  0  0  0
 15 38  1  0  0  0
 15 39  1  0  0  0
 15 40  1  0  0  0
 16 41  1  0  0  0
 16 42  1  0  0  0
 17 43  1  0  0  0
 22 44  1  0  0  0
M  END
$$$$
