4l7f_ligand
  -I-interpret- 

 60 65  0  0  0  0  0  0  0  0999 V2000
   -3.2780   57.4580   -3.2320 F   0  0  0  0  0
   -3.0290   56.2600   -2.6300 C   0  0  0  0  0
   -3.0220   56.2110   -1.2510 C   0  0  0  0  0
   -2.7900   55.0140   -0.5890 C   0  0  0  0  0
   -2.7920   55.1020   -3.3650 C   0  0  0  0  0
   -2.5500   53.8850   -2.7220 C   0  0  0  0  0
   -2.5370   53.8430   -1.3130 C   0  0  0  0  0
   -2.3240   52.5930   -0.5160 C   0  0  0  0  0
   -1.2020   51.6410   -0.8920 C   0  0  0  0  0
   -2.6480   51.2640   -1.2040 C   0  0  0  0  0
   -2.7460   52.6830    0.8710 N   0  0  0  0  0
   -4.0330   52.7190    1.2420 C   0  0  0  0  0
   -4.9390   52.5880    0.4160 O   0  0  0  0  0
   -4.3190   52.8220    2.7200 C   0  0  0  0  0
   -3.4240   53.4700    3.5750 C   0  0  0  0  0
   -3.6870   53.5360    4.9330 C   0  0  0  0  0
   -5.4690   52.2410    3.2620 C   0  0  0  0  0
   -5.7330   52.3190    4.6360 C   0  0  0  0  0
   -6.8500   51.7290    5.2370 N   0  0  0  0  0
   -7.0880   51.8120    6.5560 C   0  0  0  0  0
   -8.2490   51.1750    6.8080 N   0  0  0  0  0
   -8.7250   50.7080    5.6390 C   0  0  0  0  0
   -7.8550   51.0730    4.6750 C   0  0  0  0  0
   -6.1590   52.4640    7.3630 C   0  0  0  0  0
   -5.0500   53.0100    6.8090 N   0  0  0  0  0
   -4.8240   52.9450    5.4730 C   0  0  0  0  0
   -6.4090   52.5390    8.6890 N   0  0  0  0  0
   -5.5440   53.2360    9.6020 C   0  0  0  0  0
   -4.5960   52.2350   10.2740 C   0  0  0  0  0
   -3.6390   53.0190   11.1460 C   0  0  0  0  0
   -6.3670   53.9820   10.6460 C   0  0  0  0  0
   -5.4440   54.7180   11.6090 C   0  0  0  0  0
   -4.4310   53.7590   12.2300 C   0  0  0  0  0
   -3.4980   54.4440   13.0520 O   0  0  0  0  0
   -3.2002   57.1203   -0.6770 H   0  0  0  0  0
   -2.8048   54.9853    0.5005 H   0  0  0  0  0
   -2.7952   55.1448   -4.4542 H   0  0  0  0  0
   -2.3735   52.9796   -3.3027 H   0  0  0  0  0
   -0.3254   51.1909   -0.4261 H   0  0  0  0  0
   -0.2409   51.6770   -1.4049 H   0  0  0  0  0
   -3.2378   50.8965   -2.0437 H   0  0  0  0  0
   -3.3213   50.4163   -1.0768 H   0  0  0  0  0
   -2.0295   52.7205    1.5960 H   0  0  0  0  0
   -2.5182   53.9239    3.1729 H   0  0  0  0  0
   -2.9917   54.0596    5.5891 H   0  0  0  0  0
   -6.1689   51.7210    2.6080 H   0  0  0  0  0
   -9.6442   50.1396    5.4973 H   0  0  0  0  0
   -7.9610   50.8632    3.6106 H   0  0  0  0  0
   -7.2442   52.0832    9.0566 H   0  0  0  0  0
   -4.9531   53.9676    9.0509 H   0  0  0  0  0
   -4.0462   51.6701    9.5212 H   0  0  0  0  0
   -5.1613   51.5239   10.8764 H   0  0  0  0  0
   -3.0959   53.7399   10.5349 H   0  0  0  0  0
   -2.9298   52.3365   11.6143 H   0  0  0  0  0
   -6.9710   53.2668   11.2044 H   0  0  0  0  0
   -7.0119   54.7040   10.1451 H   0  0  0  0  0
   -6.0452   55.1575   12.4049 H   0  0  0  0  0
   -4.9056   55.4896   11.0588 H   0  0  0  0  0
   -5.0046   53.0534   12.8310 H   0  0  0  0  0
   -3.9684   54.9177   13.7419 H   0  0  0  0  0
  1  2  1  0  0  0
  2  3  4  0  0  0
  2  5  4  0  0  0
  3  4  4  0  0  0
  4  7  4  0  0  0
  5  6  4  0  0  0
  6  7  4  0  0  0
  7  8  1  0  0  0
  8  9  1  0  0  0
  8 10  1  0  0  0
  8 11  1  0  0  0
  9 10  1  0  0  0
 11 12  1  0  0  0
 12 13  2  0  0  0
 12 14  1  0  0  0
 14 15  4  0  0  0
 14 17  4  0  0  0
 15 16  4  0  0  0
 16 26  4  0  0  0
 17 18  4  0  0  0
 18 19  4  0  0  0
 18 26  4  0  0  0
 19 20  4  0  0  0
 19 23  4  0  0  0
 20 21  4  0  0  0
 20 24  4  0  0  0
 21 22  4  0  0  0
 22 23  4  0  0  0
 24 25  4  0  0  0
 24 27  1  0  0  0
 25 26  4  0  0  0
 27 28  1  0  0  0
 28 29  1  0  0  0
 28 31  1  0  0  0
 29 30  1  0  0  0
 30 33  1  0  0  0
 31 32  1  0  0  0
 32 33  1  0  0  0
 33 34  1  0  0  0
  3 35  1  0  0  0
  4 36  1  0  0  0
  5 37  1  0  0  0
  6 38  1  0  0  0
  9 39  1  0  0  0
  9 40  1  0  0  0
 10 41  1  0  0  0
 10 42  1  0  0  0
 11 43  1  0  0  0
 15 44  1  0  0  0
 16 45  1  0  0  0
 17 46  1  0  0  0
 22 47  1  0  0  0
 23 48  1  0  0  0
 27 49  1  0  0  0
 28 50  1  0  0  0
 29 51  1  0  0  0
 29 52  1  0  0  0
 30 53  1  0  0  0
 30 54  1  0  0  0
 31 55  1  0  0  0
 31 56  1  0  0  0
 32 57  1  0  0  0
 32 58  1  0  0  0
 33 59  1  0  0  0
 34 60  1  0  0  0
M  END
$$$$
