2pqc_ligand
  -I-interpret- 

 41 41  0  0  0  0  0  0  0  0999 V2000
 -127.4420   32.1270  127.3300 C   0  0  0  0  0
 -127.1060   32.5990  125.9920 C   0  0  0  0  0
 -128.1620   32.5360  124.8600 C   0  0  0  0  0
 -129.5960   32.5890  125.4260 C   0  0  0  0  0
 -129.7950   31.4570  126.4680 C   0  0  0  0  0
 -128.7560   31.5780  127.6310 C   0  0  0  0  0
 -126.3830   32.2050  128.4020 C   0  0  0  0  0
 -127.9790   31.3100  124.0410 O   0  0  0  0  0
 -130.5180   32.4700  124.3250 O   0  0  0  0  0
 -131.1530   31.4620  127.0060 O   0  0  0  0  0
 -125.2190   32.1160  128.0350 O   0  0  0  0  0
 -126.7150   32.2950  129.5800 O   0  0  0  0  0
 -127.1220   31.2190  122.7270 P   0  0  0  0  0
 -125.6880   31.1760  123.1160 O   0  0  0  0  0
 -127.4050   32.4290  121.9230 O   0  0  0  0  0
 -127.4670   29.9840  121.9820 O   0  0  0  0  0
 -131.7990   30.1520  126.6990 C   0  0  0  0  0
 -132.0900   29.8260  125.2230 C   0  0  0  0  0
 -130.9950   28.9580  127.3080 C   0  0  0  0  0
 -130.6980   27.9760  126.5770 O   0  0  0  0  0
 -130.6680   29.0240  128.4990 O   0  0  0  0  0
 -133.3300   30.3460  127.6500 P   0  0  0  0  0
 -134.4510   30.8250  126.7170 O   0  0  0  0  0
 -133.1450   31.3290  128.7990 O   0  0  0  0  0
 -133.6140   28.9120  128.1030 O   0  0  0  0  0
 -126.1117   32.9963  125.7881 H   0  0  0  0  0
 -128.0166   33.4093  124.2241 H   0  0  0  0  0
 -129.7763   33.5339  125.9386 H   0  0  0  0  0
 -129.6346   30.5096  125.9534 H   0  0  0  0  0
 -129.2013   32.2748  128.3411 H   0  0  0  0  0
 -128.5706   30.5544  127.9567 H   0  0  0  0  0
 -130.3656   33.1850  123.7028 H   0  0  0  0  0
 -127.6715   32.3535  129.6382 H   0  0  0  0  0
 -125.5222   30.3862  123.6360 H   0  0  0  0  0
 -127.2732   29.2180  122.5273 H   0  0  0  0  0
 -132.6551   28.8959  125.1622 H   0  0  0  0  0
 -132.6713   30.6353  124.7813 H   0  0  0  0  0
 -131.1489   29.7167  124.6840 H   0  0  0  0  0
 -131.0431   28.1207  125.6929 H   0  0  0  0  0
 -134.5574   30.1977  125.9981 H   0  0  0  0  0
 -133.7192   28.3491  127.3325 H   0  0  0  0  0
  1  2  2  0  0  0
  1  6  1  0  0  0
  1  7  1  0  0  0
  2  3  1  0  0  0
  3  4  1  0  0  0
  3  8  1  0  0  0
  4  5  1  0  0  0
  4  9  1  0  0  0
  5  6  1  0  0  0
  5 10  1  0  0  0
  7 11  2  0  0  0
  7 12  1  0  0  0
  8 13  1  0  0  0
 10 17  1  0  0  0
 13 14  1  0  0  0
 13 15  2  0  0  0
 13 16  1  0  0  0
 17 18  1  0  0  0
 17 19  1  0  0  0
 17 22  1  0  0  0
 19 20  1  0  0  0
 19 21  2  0  0  0
 22 23  1  0  0  0
 22 24  2  0  0  0
 22 25  1  0  0  0
  2 26  1  0  0  0
  3 27  1  0  0  0
  4 28  1  0  0  0
  5 29  1  0  0  0
  6 30  1  0  0  0
  6 31  1  0  0  0
  9 32  1  0  0  0
 12 33  1  0  0  0
 14 34  1  0  0  0
 16 35  1  0  0  0
 18 36  1  0  0  0
 18 37  1  0  0  0
 18 38  1  0  0  0
 20 39  1  0  0  0
 23 40  1  0  0  0
 25 41  1  0  0  0
M  END
$$$$
