6i8b_ligand
  -I-interpret- 

114121  0  0  0  0  0  0  0  0999 V2000
   22.2730   21.6800   30.5540 N   0  0  0  0  0
   12.3990   14.8020   39.8360 N   0  0  0  0  0
   20.9850   21.3580   30.9780 C   0  0  0  0  0
   19.9430   22.2440   31.2150 C   0  0  0  0  0
   18.7330   21.7360   31.6510 C   0  0  0  0  0
   17.8750   23.9010   32.1920 C   0  0  0  0  0
   16.6290   24.4670   32.8140 C   0  0  0  0  0
   14.7450   22.2510   32.9580 C   0  0  0  0  0
   11.9590   19.6980   33.6760 C   0  0  0  0  0
   11.9990   17.8320   36.8060 C   0  0  0  0  0
   11.3710   15.9880   38.3720 C   0  0  0  0  0
   13.2370   14.3950   42.1140 C   0  0  0  0  0
   14.0180   14.0100   44.4050 C   0  0  0  0  0
   15.3490   14.5090   44.9340 C   0  0  0  0  0
   17.8300   14.0400   45.1210 C   0  0  0  0  0
   18.6200   12.2170   47.3470 C   0  0  0  0  0
   19.0040   12.9290   49.4440 C   0  0  0  0  0
   24.1820   20.4670   30.0240 N   0  0  0  0  0
   22.0090   18.2950   29.7420 C   0  0  0  0  0
   17.6390   22.5160   31.8980 O   0  0  0  0  0
   22.1470   19.3200   30.8820 C   0  0  0  0  0
   13.8380   21.1970   33.5220 C   0  0  0  0  0
   12.6820   20.6500   32.9800 C   0  0  0  0  0
   12.3960   19.2860   34.9270 C   0  0  0  0  0
   10.9460   16.8280   37.2140 C   0  0  0  0  0
   12.5980   15.4970   38.7080 C   0  0  0  0  0
   13.3640   14.0590   40.6300 C   0  0  0  0  0
   22.6990   18.6560   32.1570 C   0  0  0  0  0
   16.4780   13.5420   44.6070 C   0  0  0  0  0
   17.8630   14.3790   46.6050 C   0  0  0  0  0
   18.9270   11.7280   48.7350 C   0  0  0  0  0
   17.7800   13.6810   48.9610 C   0  0  0  0  0
   22.9360   20.5470   30.4750 C   0  0  0  0  0
   16.5000   13.2920   43.1040 C   0  0  0  0  0
   15.1420   12.8290   42.5860 C   0  0  0  0  0
   13.5460   19.8290   35.4810 C   0  0  0  0  0
   14.2690   20.7830   34.7760 C   0  0  0  0  0
   15.5390   21.4820   35.1620 C   0  0  0  0  0
   18.5660   20.3470   31.8560 C   0  0  0  0  0
   17.0820   18.6300   32.7590 C   0  0  0  0  0
   16.3710   17.9620   31.6070 C   0  0  0  0  0
   15.1380   17.1750   31.9020 C   0  0  0  0  0
   15.0350   18.4760   31.1800 C   0  0  0  0  0
   19.6090   19.4730   31.5930 C   0  0  0  0  0
   20.8210   19.9890   31.1630 C   0  0  0  0  0
   16.2710   23.7830   34.1230 C   0  0  0  0  0
   15.8250   22.3930   33.9750 N   0  3  0  0  0
   14.0810   13.7720   42.9610 N   0  0  0  0  0
   17.6330   13.2840   47.5500 N   0  3  0  0  0
   11.1090   14.8500   40.2080 N   0  0  0  0  0
   10.4830   15.5750   39.3120 N   0  0  0  0  0
   11.6200   18.3190   35.5140 O   0  0  0  0  0
   12.4090   15.2050   42.5000 O   0  0  0  0  0
   17.3510   19.9910   32.3900 O   0  0  0  0  0
   22.6313   22.6120   30.3457 H   0  0  0  0  0
   20.0754   23.3149   31.0611 H   0  0  0  0  0
   18.7156   24.0007   32.8787 H   0  0  0  0  0
   18.1171   24.4426   31.2776 H   0  0  0  0  0
   15.8050   24.3130   32.1173 H   0  0  0  0  0
   16.8063   25.5220   33.0229 H   0  0  0  0  0
   14.2214   23.1908   32.7826 H   0  0  0  0  0
   15.1375   21.9730   31.9799 H   0  0  0  0  0
   11.0521   19.2743   33.2447 H   0  0  0  0  0
   12.9859   17.3703   36.7742 H   0  0  0  0  0
   12.0602   18.6471   37.5270 H   0  0  0  0  0
   13.2585   14.7668   44.6012 H   0  0  0  0  0
   13.7741   13.0717   44.9031 H   0  0  0  0  0
   15.2768   14.6013   46.0177 H   0  0  0  0  0
   15.5692   15.4678   44.4647 H   0  0  0  0  0
   18.0546   14.9598   44.5811 H   0  0  0  0  0
   18.5451   13.2323   44.9648 H   0  0  0  0  0
   18.2394   11.4218   46.7060 H   0  0  0  0  0
   19.5110   12.5743   46.8308 H   0  0  0  0  0
   19.9332   13.4697   49.2643 H   0  0  0  0  0
   19.0152   12.7847   50.5243 H   0  0  0  0  0
   24.6376   19.5580   29.9427 H   0  0  0  0  0
   22.9866   17.8675   29.5191 H   0  0  0  0  0
   21.3259   17.5027   30.0482 H   0  0  0  0  0
   21.6172   18.7914   28.8542 H   0  0  0  0  0
   12.3412   20.9741   31.9967 H   0  0  0  0  0
   10.7684   16.1656   36.3668 H   0  0  0  0  0
   10.0537   17.3797   37.5098 H   0  0  0  0  0
   13.5376   15.6392   38.1742 H   0  0  0  0  0
   14.3669   14.3275   40.2979 H   0  0  0  0  0
   13.1753   12.9936   40.4980 H   0  0  0  0  0
   22.0197   17.8658   32.4768 H   0  0  0  0  0
   23.6805   18.2306   31.9478 H   0  0  0  0  0
   22.7861   19.4033   32.9457 H   0  0  0  0  0
   16.2929   12.5994   45.1222 H   0  0  0  0  0
   17.0462   15.0829   46.7649 H   0  0  0  0  0
   18.8746   14.7328   46.8042 H   0  0  0  0  0
   19.8348   11.1276   48.7948 H   0  0  0  0  0
   18.1817   11.0366   49.1283 H   0  0  0  0  0
   17.8943   14.7594   49.0712 H   0  0  0  0  0
   16.8941   13.4372   49.5474 H   0  0  0  0  0
   17.2300   12.5093   42.8978 H   0  0  0  0  0
   16.7561   14.2267   42.6052 H   0  0  0  0  0
   14.9150   11.8574   43.0249 H   0  0  0  0  0
   15.1863   12.7696   41.4985 H   0  0  0  0  0
   13.8815   19.5079   36.4671 H   0  0  0  0  0
   16.3542   20.7853   35.3573 H   0  0  0  0  0
   15.4419   22.0347   36.0964 H   0  0  0  0  0
   18.0143   18.1092   32.9772 H   0  0  0  0  0
   16.4588   18.5998   33.6528 H   0  0  0  0  0
   17.3145   17.7663   31.0974 H   0  0  0  0  0
   14.6731   16.6726   32.7503 H   0  0  0  0  0
   14.7775   16.1517   31.7969 H   0  0  0  0  0
   14.5620   18.8789   30.2844 H   0  0  0  0  0
   14.4578   19.3989   31.2363 H   0  0  0  0  0
   19.4782   18.3986   31.7221 H   0  0  0  0  0
   15.4431   24.3408   34.5607 H   0  0  0  0  0
   17.1734   23.7672   34.7341 H   0  0  0  0  0
   16.7266   22.0166   33.6822 H   0  0  0  0  0
   16.6746   12.9848   47.3703 H   0  0  0  0  0
  3  1  1  0  0  0
  1 33  1  0  0  0
 26  2  4  0  0  0
  2 27  1  0  0  0
  2 50  4  0  0  0
  4  3  4  0  0  0
  3 45  4  0  0  0
  5  4  4  0  0  0
 20  5  1  0  0  0
  5 39  4  0  0  0
  7  6  1  0  0  0
  6 20  1  0  0  0
 46  7  1  0  0  0
  8 22  1  0  0  0
 47  8  1  0  0  0
 23  9  4  0  0  0
 24  9  4  0  0  0
 10 25  1  0  0  0
 52 10  1  0  0  0
 25 11  1  0  0  0
 11 26  4  0  0  0
 11 51  4  0  0  0
 27 12  1  0  0  0
 12 48  1  0  0  0
 12 53  2  0  0  0
 13 14  1  0  0  0
 48 13  1  0  0  0
 14 29  1  0  0  0
 29 15  1  0  0  0
 15 30  1  0  0  0
 16 31  1  0  0  0
 49 16  1  0  0  0
 17 31  1  0  0  0
 32 17  1  0  0  0
 33 18  2  0  0  0
 21 19  1  0  0  0
 21 28  1  0  0  0
 21 33  1  0  0  0
 45 21  1  0  0  0
 22 23  4  0  0  0
 37 22  4  0  0  0
 36 24  4  0  0  0
 24 52  1  0  0  0
 34 29  1  0  0  0
 30 49  1  0  0  0
 49 32  1  0  0  0
 35 34  1  0  0  0
 48 35  1  0  0  0
 37 36  4  0  0  0
 38 37  1  0  0  0
 47 38  1  0  0  0
 39 44  4  0  0  0
 39 54  1  0  0  0
 40 41  1  0  0  0
 54 40  1  0  0  0
 41 42  1  0  0  0
 41 43  1  0  0  0
 43 42  1  0  0  0
 44 45  4  0  0  0
 46 47  1  0  0  0
 50 51  4  0  0  0
  1 55  1  0  0  0
  4 56  1  0  0  0
  6 57  1  0  0  0
  6 58  1  0  0  0
  7 59  1  0  0  0
  7 60  1  0  0  0
  8 61  1  0  0  0
  8 62  1  0  0  0
  9 63  1  0  0  0
 10 64  1  0  0  0
 10 65  1  0  0  0
 13 66  1  0  0  0
 13 67  1  0  0  0
 14 68  1  0  0  0
 14 69  1  0  0  0
 15 70  1  0  0  0
 15 71  1  0  0  0
 16 72  1  0  0  0
 16 73  1  0  0  0
 17 74  1  0  0  0
 17 75  1  0  0  0
 18 76  1  0  0  0
 19 77  1  0  0  0
 19 78  1  0  0  0
 19 79  1  0  0  0
 23 80  1  0  0  0
 25 81  1  0  0  0
 25 82  1  0  0  0
 26 83  1  0  0  0
 27 84  1  0  0  0
 27 85  1  0  0  0
 28 86  1  0  0  0
 28 87  1  0  0  0
 28 88  1  0  0  0
 29 89  1  0  0  0
 30 90  1  0  0  0
 30 91  1  0  0  0
 31 92  1  0  0  0
 31 93  1  0  0  0
 32 94  1  0  0  0
 32 95  1  0  0  0
 34 96  1  0  0  0
 34 97  1  0  0  0
 35 98  1  0  0  0
 35 99  1  0  0  0
 36100  1  0  0  0
 38101  1  0  0  0
 38102  1  0  0  0
 40103  1  0  0  0
 40104  1  0  0  0
 41105  1  0  0  0
 42106  1  0  0  0
 42107  1  0  0  0
 43108  1  0  0  0
 43109  1  0  0  0
 44110  1  0  0  0
 46111  1  0  0  0
 46112  1  0  0  0
 47113  1  0  0  0
 49114  1  0  0  0
M  END
$$$$
