6ft7_ligand
  -I-interpret- 

 30 33  0  0  0  0  0  0  0  0999 V2000
   62.8540   64.0220   52.4000 C   0  0  0  0  0
   63.9270   64.8440   50.4290 C   0  0  0  0  0
   62.9340   64.1040   51.0210 C   0  0  0  0  0
   64.3960   64.5290   56.8350 N   0  0  0  0  0
   63.7220   64.5810   54.6800 C   0  0  0  0  0
   62.5390   64.4870   55.5420 C   0  0  0  0  0
   61.0850   64.3060   59.9320 N   0  0  0  0  0
   64.8100   64.5930   55.5230 C   0  0  0  0  0
   63.0240   64.4730   56.8650 C   0  0  0  0  0
   61.1630   64.4180   55.3040 C   0  0  0  0  0
   60.2810   64.3520   56.3690 C   0  0  0  0  0
   62.1160   64.4060   57.9420 C   0  0  0  0  0
   60.7490   64.3510   57.6770 C   0  0  0  0  0
   62.3290   64.3590   59.3920 C   0  0  0  0  0
   64.7520   65.4600   52.5850 C   0  0  0  0  0
   64.8340   65.5180   51.2090 C   0  0  0  0  0
   63.7680   64.7000   53.1990 C   0  0  0  0  0
   60.0070   64.2960   58.9600 C   0  0  0  0  0
   63.3880   64.3650   60.0170 O   0  0  0  0  0
   62.0700   63.4225   52.8626 H   0  0  0  0  0
   63.9954   64.8965   49.3424 H   0  0  0  0  0
   62.2059   63.5791   50.4026 H   0  0  0  0  0
   60.9210   64.2757   60.9383 H   0  0  0  0  0
   65.8494   64.6456   55.1989 H   0  0  0  0  0
   60.7853   64.4162   54.2815 H   0  0  0  0  0
   59.2089   64.3003   56.1794 H   0  0  0  0  0
   65.4656   66.0154   53.1936 H   0  0  0  0  0
   65.6241   66.1028   50.7379 H   0  0  0  0  0
   59.3029   65.1183   59.0874 H   0  0  0  0  0
   59.3562   63.4258   59.0456 H   0  0  0  0  0
  1  3  4  0  0  0
 17  1  4  0  0  0
  3  2  4  0  0  0
  2 16  4  0  0  0
  4  8  4  0  0  0
  9  4  4  0  0  0
  6  5  4  0  0  0
  5  8  4  0  0  0
  5 17  1  0  0  0
  9  6  4  0  0  0
  6 10  4  0  0  0
 14  7  1  0  0  0
  7 18  1  0  0  0
 12  9  4  0  0  0
 11 10  4  0  0  0
 13 11  4  0  0  0
 12 13  4  0  0  0
 12 14  1  0  0  0
 13 18  1  0  0  0
 14 19  2  0  0  0
 16 15  4  0  0  0
 15 17  4  0  0  0
  1 20  1  0  0  0
  2 21  1  0  0  0
  3 22  1  0  0  0
  7 23  1  0  0  0
  8 24  1  0  0  0
 10 25  1  0  0  0
 11 26  1  0  0  0
 15 27  1  0  0  0
 16 28  1  0  0  0
 18 29  1  0  0  0
 18 30  1  0  0  0
M  END
$$$$
