3lfn_ligand
  -I-interpret- 

 48 51  0  0  0  0  0  0  0  0999 V2000
   38.4760   -6.9670   27.6650 C   0  0  0  0  0
   38.7670   -7.8590   26.6150 C   0  0  0  0  0
   39.0740   -7.3820   25.3280 C   0  0  0  0  0
   39.1280   -5.9940   25.1150 C   0  0  0  0  0
   38.8470   -5.1040   26.1550 C   0  0  0  0  0
   38.5160   -5.5890   27.4290 C   0  0  0  0  0
   39.3850   -8.2550   24.2700 C   0  0  0  0  0
   38.6430   -8.3330   23.0630 C   0  0  0  0  0
   39.0840   -9.1830   22.0430 C   0  0  0  0  0
   40.2340   -9.9550   22.1960 C   0  0  0  0  0
   40.9740   -9.8770   23.3690 C   0  0  0  0  0
   40.5430   -9.0360   24.4000 C   0  0  0  0  0
   37.4790   -7.6120   22.8050 C   0  0  0  0  0
   37.3270   -7.0710   21.5260 C   0  0  0  0  0
   36.2100   -6.3090   21.2130 C   0  0  0  0  0
   35.2150   -6.1260   22.1670 C   0  0  0  0  0
   35.3470   -6.6840   23.4390 C   0  0  0  0  0
   36.4610   -7.4660   23.7540 C   0  0  0  0  0
   34.1130   -5.4060   21.8380 O   0  0  0  0  0
   40.8560  -10.8010   21.3770 N   0  0  0  0  0
   41.8720  -11.2570   21.9120 N   0  0  0  0  0
   42.0350  -10.7480   23.1300 C   0  0  0  0  0
   43.1070  -11.0760   23.8700 N   0  0  0  0  0
   43.5290  -10.6280   25.0590 C   0  0  0  0  0
   44.8490  -11.2560   25.5110 C   0  0  0  0  0
   44.6370  -12.7000   25.9650 C   0  0  0  0  0
   45.8120  -13.1940   26.8070 C   0  0  0  0  0
   42.9620   -9.8040   25.7770 O   0  0  0  0  0
   38.2215   -7.3476   28.6542 H   0  0  0  0  0
   38.7542   -8.9328   26.8020 H   0  0  0  0  0
   39.3913   -5.6083   24.1301 H   0  0  0  0  0
   38.8851   -4.0295   25.9758 H   0  0  0  0  0
   38.2898   -4.8915   28.2355 H   0  0  0  0  0
   38.5186   -9.2424   21.1130 H   0  0  0  0  0
   41.1190   -8.9864   25.3240 H   0  0  0  0  0
   38.0907   -7.2485   20.7688 H   0  0  0  0  0
   36.1133   -5.8570   20.2259 H   0  0  0  0  0
   34.5772   -6.5089   24.1906 H   0  0  0  0  0
   36.5361   -7.9554   24.7251 H   0  0  0  0  0
   33.5208   -5.3668   22.5925 H   0  0  0  0  0
   43.7035  -11.7910   23.4535 H   0  0  0  0  0
   45.2438  -10.6794   26.3475 H   0  0  0  0  0
   45.5457  -11.2502   24.6727 H   0  0  0  0  0
   44.5522  -13.3330   25.0817 H   0  0  0  0  0
   43.7323  -12.7443   26.5713 H   0  0  0  0  0
   46.7265  -13.1460   26.2159 H   0  0  0  0  0
   45.9151  -12.5633   27.6900 H   0  0  0  0  0
   45.6298  -14.2240   27.1138 H   0  0  0  0  0
  1  2  4  0  0  0
  1  6  4  0  0  0
  2  3  4  0  0  0
  3  4  4  0  0  0
  3  7  1  0  0  0
  4  5  4  0  0  0
  5  6  4  0  0  0
  7  8  4  0  0  0
  7 12  4  0  0  0
  8  9  4  0  0  0
  8 13  1  0  0  0
  9 10  4  0  0  0
 10 11  4  0  0  0
 10 20  4  0  0  0
 11 12  4  0  0  0
 11 22  4  0  0  0
 13 14  4  0  0  0
 13 18  4  0  0  0
 14 15  4  0  0  0
 15 16  4  0  0  0
 16 17  4  0  0  0
 16 19  1  0  0  0
 17 18  4  0  0  0
 20 21  4  0  0  0
 21 22  4  0  0  0
 22 23  1  0  0  0
 23 24  1  0  0  0
 24 25  1  0  0  0
 24 28  2  0  0  0
 25 26  1  0  0  0
 26 27  1  0  0  0
  1 29  1  0  0  0
  2 30  1  0  0  0
  4 31  1  0  0  0
  5 32  1  0  0  0
  6 33  1  0  0  0
  9 34  1  0  0  0
 12 35  1  0  0  0
 14 36  1  0  0  0
 15 37  1  0  0  0
 17 38  1  0  0  0
 18 39  1  0  0  0
 19 40  1  0  0  0
 23 41  1  0  0  0
 25 42  1  0  0  0
 25 43  1  0  0  0
 26 44  1  0  0  0
 26 45  1  0  0  0
 27 46  1  0  0  0
 27 47  1  0  0  0
 27 48  1  0  0  0
M  END
$$$$
