2j7x_ligand
  -I-interpret- 

 44 47  0  0  0  0  0  0  0  0999 V2000
   50.3610   31.3800   79.3660 C   0  0  0  0  0
   51.0470   32.3200   80.1530 C   0  0  0  0  0
   51.6670   33.4430   79.5740 C   0  0  0  0  0
   52.3070   34.3290   80.3980 O   0  0  0  0  0
   51.6170   33.6210   78.1890 C   0  0  0  0  0
   50.9550   32.6910   77.3540 C   0  0  0  0  0
   50.9070   32.8990   75.8520 C   0  0  0  0  0
   50.5480   31.6030   75.1140 C   0  0  0  0  0
   49.2480   31.0270   75.6980 C   0  0  0  0  0
   49.5470   30.4930   77.1110 C   0  0  0  0  0
   50.2650   31.5150   77.9730 C   0  0  0  0  0
   48.2330   29.9840   77.7130 C   0  0  0  0  0
   47.6230   28.8520   76.8540 C   0  0  0  0  0
   47.3450   29.3400   75.4350 C   0  0  0  0  0
   48.6650   29.8620   74.8790 C   0  0  0  0  0
   48.3690   30.0280   73.3980 C   0  0  0  0  0
   47.4060   28.8730   73.0710 C   0  0  0  0  0
   46.9670   28.2630   74.4140 C   0  0  0  0  0
   45.5580   27.9440   74.4380 O   0  0  0  0  0
   46.2600   30.4400   75.4350 C   0  0  0  0  0
   49.8913   30.5238   79.8502 H   0  0  0  0  0
   51.1001   32.1769   81.2323 H   0  0  0  0  0
   52.6809   35.0402   79.8726 H   0  0  0  0  0
   52.0970   34.4926   77.7439 H   0  0  0  0  0
   51.8921   33.2243   75.5176 H   0  0  0  0  0
   50.1425   33.6440   75.6316 H   0  0  0  0  0
   51.3540   30.8793   75.2357 H   0  0  0  0  0
   50.4088   31.8142   74.0538 H   0  0  0  0  0
   48.5159   31.8345   75.6919 H   0  0  0  0  0
   50.2477   29.6597   77.0586 H   0  0  0  0  0
   47.5247   30.8116   77.7501 H   0  0  0  0  0
   48.4366   29.5922   78.7096 H   0  0  0  0  0
   46.6841   28.5335   77.3069 H   0  0  0  0  0
   48.3305   28.0240   76.8091 H   0  0  0  0  0
   49.5258   29.2006   74.9772 H   0  0  0  0  0
   49.2743   29.9916   72.7920 H   0  0  0  0  0
   47.9335   31.0016   73.1732 H   0  0  0  0  0
   47.8968   28.1248   72.4485 H   0  0  0  0  0
   46.5440   29.2351   72.5107 H   0  0  0  0  0
   47.4489   27.3072   74.6199 H   0  0  0  0  0
   45.3731   27.2670   73.7829 H   0  0  0  0  0
   45.3380   30.0391   75.8560 H   0  0  0  0  0
   46.5992   31.2831   76.0368 H   0  0  0  0  0
   46.0800   30.7710   74.4122 H   0  0  0  0  0
  1  2  4  0  0  0
  1 11  4  0  0  0
  2  3  4  0  0  0
  3  4  1  0  0  0
  3  5  4  0  0  0
  5  6  4  0  0  0
  6  7  1  0  0  0
  6 11  4  0  0  0
  7  8  1  0  0  0
  8  9  1  0  0  0
  9 10  1  0  0  0
  9 15  1  0  0  0
 10 11  1  0  0  0
 10 12  1  0  0  0
 12 13  1  0  0  0
 13 14  1  0  0  0
 14 15  1  0  0  0
 14 18  1  0  0  0
 14 20  1  0  0  0
 15 16  1  0  0  0
 16 17  1  0  0  0
 17 18  1  0  0  0
 18 19  1  0  0  0
  1 21  1  0  0  0
  2 22  1  0  0  0
  4 23  1  0  0  0
  5 24  1  0  0  0
  7 25  1  0  0  0
  7 26  1  0  0  0
  8 27  1  0  0  0
  8 28  1  0  0  0
  9 29  1  0  0  0
 10 30  1  0  0  0
 12 31  1  0  0  0
 12 32  1  0  0  0
 13 33  1  0  0  0
 13 34  1  0  0  0
 15 35  1  0  0  0
 16 36  1  0  0  0
 16 37  1  0  0  0
 17 38  1  0  0  0
 17 39  1  0  0  0
 18 40  1  0  0  0
 19 41  1  0  0  0
 20 42  1  0  0  0
 20 43  1  0  0  0
 20 44  1  0  0  0
M  END
$$$$
