5n7g_ligand
  -I-interpret- 

 91 91  0  0  0  0  0  0  0  0999 V2000
  348.9060  -49.7230  434.3170 N   0  3  0  0  0
  348.3850  -49.3720  432.9910 C   0  0  0  0  0
  347.5850  -50.4830  432.3070 C   0  0  0  0  0
  347.9030  -50.8490  431.1730 O   0  0  0  0  0
  349.5410  -48.9540  432.0790 C   0  0  0  0  0
  346.5460  -51.0220  432.9710 N   0  0  0  0  0
  345.7130  -51.9800  432.2530 C   0  0  0  0  0
  344.6410  -51.2140  431.5130 C   0  0  0  0  0
  344.1460  -50.2020  432.0120 O   0  0  0  0  0
  345.1160  -52.8260  433.3730 C   0  0  0  0  0
  344.8860  -51.8070  434.4640 C   0  0  0  0  0
  345.9900  -50.7430  434.3050 C   0  0  0  0  0
  344.2840  -51.6530  430.3210 N   0  0  0  0  0
  343.4010  -50.8320  429.5410 C   0  0  0  0  0
  344.1310  -49.5650  429.1010 C   0  0  0  0  0
  343.6460  -49.0700  427.8730 O   0  0  0  0  0
  342.8960  -51.6320  428.3700 C   0  0  0  0  0
  343.6760  -52.1660  427.5870 O   0  0  0  0  0
  344.9640  -48.7470  427.0120 P   0  0  0  0  0
  345.3350  -50.0150  426.0860 O   0  0  0  0  0
  346.1870  -48.4690  428.0240 O   0  0  0  0  0
  344.7220  -47.4320  426.1180 O   0  0  0  0  0
  341.5760  -51.7360  428.2790 N   0  0  0  0  0
  340.9450  -52.6100  427.3090 C   0  0  0  0  0
  339.7010  -51.9910  426.7050 C   0  0  0  0  0
  338.8610  -51.4450  427.4150 O   0  0  0  0  0
  340.5570  -53.9470  427.9450 C   0  0  0  0  0
  340.0420  -53.7120  429.2640 O   0  0  0  0  0
  341.7620  -54.8740  427.9990 C   0  0  0  0  0
  339.5820  -52.1050  425.3880 N   0  0  0  0  0
  338.4190  -51.5700  424.6950 C   0  0  0  0  0
  337.1920  -52.4520  424.9210 C   0  0  0  0  0
  337.2810  -53.6840  424.9180 O   0  0  0  0  0
  338.7130  -51.4500  423.1980 C   0  0  0  0  0
  339.8790  -50.6410  423.0040 O   0  0  0  0  0
  337.5410  -50.8180  422.4740 C   0  0  0  0  0
  336.0390  -51.8110  425.1140 N   0  0  0  0  0
  334.7590  -52.5120  425.2360 C   0  0  0  0  0
  333.7210  -51.9990  424.2240 C   0  0  0  0  0
  334.0630  -51.6480  423.0920 O   0  0  0  0  0
  334.2170  -52.3830  426.6610 C   0  0  0  0  0
  335.0660  -53.0140  427.7680 C   0  0  0  0  0
  334.3760  -52.8480  429.1060 C   0  0  0  0  0
  335.3470  -54.4850  427.4840 C   0  0  0  0  0
  332.5180  -51.9370  424.4920 O   0  0  0  0  0
  348.1332  -50.0010  434.9220 H   0  0  0  0  0
  349.5651  -50.4964  434.2282 H   0  0  0  0  0
  349.3806  -48.9148  434.7194 H   0  0  0  0  0
  347.6877  -48.5507  433.1560 H   0  0  0  0  0
  350.1868  -49.8129  431.8963 H   0  0  0  0  0
  349.1419  -48.5900  431.1323 H   0  0  0  0  0
  350.1146  -48.1625  432.5612 H   0  0  0  0  0
  346.2412  -52.5875  431.5181 H   0  0  0  0  0
  345.7655  -53.6447  433.6829 H   0  0  0  0  0
  344.2059  -53.3472  433.0762 H   0  0  0  0  0
  344.9295  -52.2718  435.4490 H   0  0  0  0  0
  343.8959  -51.3592  434.3787 H   0  0  0  0  0
  345.6066  -49.7265  434.3937 H   0  0  0  0  0
  346.7423  -50.8005  435.0917 H   0  0  0  0  0
  344.6241  -52.5464  429.9652 H   0  0  0  0  0
  342.5411  -50.5216  430.1345 H   0  0  0  0  0
  345.1862  -49.8078  428.9758 H   0  0  0  0  0
  343.9718  -48.8005  429.8614 H   0  0  0  0  0
  345.4744  -50.7855  426.6414 H   0  0  0  0  0
  346.3390  -49.2492  428.5624 H   0  0  0  0  0
  340.9900  -51.1868  428.9078 H   0  0  0  0  0
  341.6805  -52.7684  426.5203 H   0  0  0  0  0
  339.7870  -54.4267  427.3408 H   0  0  0  0  0
  339.7979  -54.5494  429.6649 H   0  0  0  0  0
  342.1271  -55.0525  426.9876 H   0  0  0  0  0
  342.5489  -54.4107  428.5942 H   0  0  0  0  0
  341.4704  -55.8207  428.4538 H   0  0  0  0  0
  340.3146  -52.5733  424.8548 H   0  0  0  0  0
  338.2044  -50.5808  425.0995 H   0  0  0  0  0
  338.8803  -52.4486  422.7944 H   0  0  0  0  0
  340.0626  -50.5663  422.0647 H   0  0  0  0  0
  336.6540  -51.4363  422.6122 H   0  0  0  0  0
  337.3586  -49.8229  422.8799 H   0  0  0  0  0
  337.7704  -50.7418  421.4111 H   0  0  0  0  0
  336.0488  -50.7931  425.1792 H   0  0  0  0  0
  334.9410  -53.5634  425.0133 H   0  0  0  0  0
  333.2628  -52.9097  426.6721 H   0  0  0  0  0
  334.1807  -51.3152  426.8770 H   0  0  0  0  0
  336.0260  -52.4986  427.7981 H   0  0  0  0  0
  334.2428  -51.7866  429.3155 H   0  0  0  0  0
  333.4031  -53.3384  429.0749 H   0  0  0  0  0
  334.9873  -53.2999  429.8871 H   0  0  0  0  0
  334.4040  -55.0277  427.4189 H   0  0  0  0  0
  335.8855  -54.5752  426.5406 H   0  0  0  0  0
  335.9518  -54.9003  428.2902 H   0  0  0  0  0
  332.3766  -52.2336  425.3940 H   0  0  0  0  0
  1  2  1  0  0  0
  2  3  1  0  0  0
  2  5  1  0  0  0
  3  4  2  0  0  0
  3  6  1  0  0  0
  6  7  1  0  0  0
  6 12  1  0  0  0
  7  8  1  0  0  0
  7 10  1  0  0  0
  8  9  2  0  0  0
  8 13  1  0  0  0
 10 11  1  0  0  0
 11 12  1  0  0  0
 13 14  1  0  0  0
 14 15  1  0  0  0
 14 17  1  0  0  0
 15 16  1  0  0  0
 16 19  1  0  0  0
 17 18  2  0  0  0
 17 23  1  0  0  0
 19 20  1  0  0  0
 19 21  1  0  0  0
 19 22  2  0  0  0
 23 24  1  0  0  0
 24 25  1  0  0  0
 24 27  1  0  0  0
 25 26  2  0  0  0
 25 30  1  0  0  0
 27 28  1  0  0  0
 27 29  1  0  0  0
 30 31  1  0  0  0
 31 32  1  0  0  0
 31 34  1  0  0  0
 32 33  2  0  0  0
 32 37  1  0  0  0
 34 35  1  0  0  0
 34 36  1  0  0  0
 37 38  1  0  0  0
 38 39  1  0  0  0
 38 41  1  0  0  0
 39 40  2  0  0  0
 39 45  1  0  0  0
 41 42  1  0  0  0
 42 43  1  0  0  0
 42 44  1  0  0  0
  1 46  1  0  0  0
  1 47  1  0  0  0
  1 48  1  0  0  0
  2 49  1  0  0  0
  5 50  1  0  0  0
  5 51  1  0  0  0
  5 52  1  0  0  0
  7 53  1  0  0  0
 10 54  1  0  0  0
 10 55  1  0  0  0
 11 56  1  0  0  0
 11 57  1  0  0  0
 12 58  1  0  0  0
 12 59  1  0  0  0
 13 60  1  0  0  0
 14 61  1  0  0  0
 15 62  1  0  0  0
 15 63  1  0  0  0
 20 64  1  0  0  0
 21 65  1  0  0  0
 23 66  1  0  0  0
 24 67  1  0  0  0
 27 68  1  0  0  0
 28 69  1  0  0  0
 29 70  1  0  0  0
 29 71  1  0  0  0
 29 72  1  0  0  0
 30 73  1  0  0  0
 31 74  1  0  0  0
 34 75  1  0  0  0
 35 76  1  0  0  0
 36 77  1  0  0  0
 36 78  1  0  0  0
 36 79  1  0  0  0
 37 80  1  0  0  0
 38 81  1  0  0  0
 41 82  1  0  0  0
 41 83  1  0  0  0
 42 84  1  0  0  0
 43 85  1  0  0  0
 43 86  1  0  0  0
 43 87  1  0  0  0
 44 88  1  0  0  0
 44 89  1  0  0  0
 44 90  1  0  0  0
 45 91  1  0  0  0
M  END
$$$$
