### 
### Created by X-TOOL on Mon Sep 10 21:13:33 2018
### 

@<TRIPOS>MOLECULE
5n7g_ligand
   88    88     1     0     0
SMALL
GAST_HUCK


@<TRIPOS>ATOM
      1 N         348.9060  -49.7230  434.3170 N.4       1 LEU         0.2377
      2 CA        348.3850  -49.3720  432.9910 C.3       1 LEU         0.0623
      3 C         347.5850  -50.4830  432.3070 C.2       1 LEU         0.2289
      4 O         347.9030  -50.8490  431.1730 O.2       1 LEU        -0.3905
      5 CB        349.5410  -48.9540  432.0790 C.3       1 LEU        -0.0040
      6 N         346.5460  -51.0220  432.9710 N.am      1 PRO        -0.2471
      7 CA        345.7130  -51.9800  432.2530 C.3       1 PRO         0.1339
      8 C         344.6410  -51.2140  431.5130 C.2       1 PRO         0.2042
      9 O         344.1460  -50.2020  432.0120 O.2       1 PRO        -0.3944
     10 CB        345.1160  -52.8260  433.3730 C.3       1 PRO        -0.0104
     11 CG        344.8860  -51.8070  434.4640 C.3       1 PRO        -0.0281
     12 CD        345.9900  -50.7430  434.3050 C.3       1 PRO         0.0371
     13 N         344.2840  -51.6530  430.3210 N.am      1 SEP        -0.2613
     14 CA        343.4010  -50.8320  429.5410 C.3       1 SEP         0.1586
     15 CB        344.1310  -49.5650  429.1010 C.3       1 SEP         0.1184
     16 OG        343.6460  -49.0700  427.8730 O.3       1 SEP        -0.2714
     17 C         342.8960  -51.6320  428.3700 C.2       1 SEP         0.2066
     18 O         343.6760  -52.1660  427.5870 O.2       1 SEP        -0.3943
     19 P         344.9640  -48.7470  427.0120 P.3       1 SEP         0.2010
     20 O1P       345.3350  -50.0150  426.0860 O.co2     1 SEP        -0.5537
     21 O2P       346.1870  -48.4690  428.0240 O.co2     1 SEP        -0.5537
     22 O3P       344.7220  -47.4320  426.1180 O.co2     1 SEP        -0.5537
     23 N         341.5760  -51.7360  428.2790 N.am      1 THR        -0.2613
     24 CA        340.9450  -52.6100  427.3090 C.3       1 THR         0.1565
     25 C         339.7010  -51.9910  426.7050 C.2       1 THR         0.2065
     26 O         338.8610  -51.4450  427.4150 O.2       1 THR        -0.3943
     27 CB        340.5570  -53.9470  427.9450 C.3       1 THR         0.0924
     28 OG1       340.0420  -53.7120  429.2640 O.3       1 THR        -0.3874
     29 CG2       341.7620  -54.8740  427.9990 C.3       1 THR        -0.0346
     30 N         339.5820  -52.1050  425.3880 N.am      1 THR        -0.2613
     31 CA        338.4190  -51.5700  424.6950 C.3       1 THR         0.1564
     32 C         337.1920  -52.4520  424.9210 C.2       1 THR         0.2059
     33 O         337.2810  -53.6840  424.9180 O.2       1 THR        -0.3943
     34 CB        338.7130  -51.4500  423.1980 C.3       1 THR         0.0924
     35 OG1       339.8790  -50.6410  423.0040 O.3       1 THR        -0.3874
     36 CG2       337.5410  -50.8180  422.4740 C.3       1 THR        -0.0346
     37 N         336.0390  -51.8110  425.1140 N.am      1 LEU        -0.2694
     38 CA        334.7590  -52.5120  425.2360 C.3       1 LEU         0.0946
     39 C         333.7210  -51.9990  424.2240 C.2       1 LEU         0.0601
     40 O         334.0630  -51.6480  423.0920 O.co2     1 LEU        -0.5666
     41 CB        334.2170  -52.3830  426.6610 C.3       1 LEU        -0.0156
     42 CG        335.0660  -53.0140  427.7680 C.3       1 LEU        -0.0431
     43 CD1       334.3760  -52.8480  429.1060 C.3       1 LEU        -0.0625
     44 CD2       335.3470  -54.4850  427.4840 C.3       1 LEU        -0.0625
     45 OXT       332.5180  -51.9370  424.4920 O.co2     1 LEU        -0.5666
     46 H1        349.4172  -48.9408  434.6949 H         1 LEU         0.2015
     47 H2        349.5198  -50.5185  434.2371 H         1 LEU         0.2015
     48 H3        348.1389  -49.9507  434.9300 H         1 LEU         0.2015
     49 H4        347.7126  -48.5109  433.1191 H         1 LEU         0.1095
     50 H5        349.1479  -48.6914  431.0858 H         1 LEU         0.0310
     51 H6        350.2523  -49.7876  431.9831 H         1 LEU         0.0310
     52 H7        350.0535  -48.0826  432.5126 H         1 LEU         0.0310
     53 H8        346.2985  -52.5944  431.5532 H         1 PRO         0.0802
     54 H9        345.8189  -53.6065  433.6997 H         1 PRO         0.0313
     55 H10       344.1706  -53.2922  433.0586 H         1 PRO         0.0313
     56 H11       344.9576  -52.2848  435.4522 H         1 PRO         0.0287
     57 H12       343.8939  -51.3457  434.3508 H         1 PRO         0.0287
     58 H13       345.5677  -49.7283  434.3507 H         1 PRO         0.0524
     59 H14       346.7594  -50.8554  435.0831 H         1 PRO         0.0524
     60 H15       344.6175  -52.5289  429.9722 H         1 SEP         0.1884
     61 H16       342.5412  -50.5395  430.1616 H         1 SEP         0.0827
     62 H17       345.2018  -49.7925  428.9931 H         1 SEP         0.0662
     63 H18       343.9961  -48.7925  429.8724 H         1 SEP         0.0662
     64 H19       341.0015  -51.1976  428.8955 H         1 THR         0.1884
     65 H20       341.6679  -52.7993  426.5018 H         1 THR         0.0826
     66 H21       339.7738  -54.4204  427.3347 H         1 THR         0.0639
     67 H22       340.7087  -53.2891  429.7924 H         1 THR         0.2101
     68 H23       341.4690  -55.8298  428.4578 H         1 THR         0.0257
     69 H24       342.5569  -54.4075  428.5995 H         1 THR         0.0257
     70 H25       342.1314  -55.0550  426.9788 H         1 THR         0.0257
     71 H26       340.3003  -52.5642  424.8653 H         1 THR         0.1884
     72 H27       338.2056  -50.5673  425.0937 H         1 THR         0.0826
     73 H28       338.8929  -52.4536  422.7852 H         1 THR         0.0639
     74 H29       340.0607  -50.5671  422.0745 H         1 THR         0.2101
     75 H30       337.7713  -50.7406  421.4012 H         1 THR         0.0257
     76 H31       337.3559  -49.8136  422.8827 H         1 THR         0.0257
     77 H32       336.6452  -51.4411  422.6126 H         1 THR         0.0257
     78 H33       336.0486  -50.8131  425.1779 H         1 LEU         0.1875
     79 H34       334.9357  -53.5778  425.0292 H         1 LEU         0.0726
     80 H35       333.2253  -52.8581  426.6869 H         1 LEU         0.0308
     81 H36       334.1160  -51.3110  426.8857 H         1 LEU         0.0308
     82 H37       336.0292  -52.4843  427.8069 H         1 LEU         0.0297
     83 H38       334.9920  -53.3037  429.8952 H         1 LEU         0.0232
     84 H39       333.3939  -53.3426  429.0760 H         1 LEU         0.0232
     85 H40       334.2410  -51.7772  429.3186 H         1 LEU         0.0232
     86 H41       335.8474  -54.5811  426.5091 H         1 LEU         0.0232
     87 H42       334.3990  -55.0426  427.4660 H         1 LEU         0.0232
     88 H43       335.9974  -54.8928  428.2718 H         1 LEU         0.0232
@<TRIPOS>BOND
     1    1    2 1  
     2    2    3 1  
     3    2    5 1  
     4    3    4 2  
     5    3    6 am 
     6    6    7 1  
     7    6   12 1  
     8    7    8 1  
     9    7   10 1  
    10    8    9 2  
    11    8   13 am 
    12   10   11 1  
    13   11   12 1  
    14   13   14 1  
    15   14   15 1  
    16   14   17 1  
    17   15   16 1  
    18   16   19 1  
    19   17   18 2  
    20   17   23 am 
    21   19   20 ar 
    22   19   21 ar 
    23   19   22 ar 
    24   23   24 1  
    25   24   25 1  
    26   24   27 1  
    27   25   26 2  
    28   25   30 am 
    29   27   28 1  
    30   27   29 1  
    31   30   31 1  
    32   31   32 1  
    33   31   34 1  
    34   32   33 2  
    35   32   37 am 
    36   34   35 1  
    37   34   36 1  
    38   37   38 1  
    39   38   39 1  
    40   38   41 1  
    41   39   40 ar 
    42   39   45 ar 
    43   41   42 1  
    44   42   43 1  
    45   42   44 1  
    46    1   46 1  
    47    1   47 1  
    48    1   48 1  
    49    2   49 1  
    50    5   50 1  
    51    5   51 1  
    52    5   52 1  
    53    7   53 1  
    54   10   54 1  
    55   10   55 1  
    56   11   56 1  
    57   11   57 1  
    58   12   58 1  
    59   12   59 1  
    60   13   60 1  
    61   14   61 1  
    62   15   62 1  
    63   15   63 1  
    64   23   64 1  
    65   24   65 1  
    66   27   66 1  
    67   28   67 1  
    68   29   68 1  
    69   29   69 1  
    70   29   70 1  
    71   30   71 1  
    72   31   72 1  
    73   34   73 1  
    74   35   74 1  
    75   36   75 1  
    76   36   76 1  
    77   36   77 1  
    78   37   78 1  
    79   38   79 1  
    80   41   80 1  
    81   41   81 1  
    82   42   82 1  
    83   43   83 1  
    84   43   84 1  
    85   43   85 1  
    86   44   86 1  
    87   44   87 1  
    88   44   88 1  
@<TRIPOS>SUBSTRUCTURE
     1 LEU         1

