5jf1_ligand
  -I-interpret- 

 62 62  0  0  0  0  0  0  0  0999 V2000
   -6.3120   -1.8850   12.3780 C   0  0  0  0  0
   -5.1180   -2.7830   12.2530 C   0  0  0  0  0
   -4.0370   -2.4180   12.6640 O   0  0  0  0  0
   -5.2700   -3.9790   11.6750 N   0  0  0  0  0
   -4.2200   -4.8770   11.6040 O   0  0  0  0  0
   -6.5170   -1.1380   11.0690 C   0  0  0  0  0
   -7.5400   -0.0620   11.2980 C   0  0  0  0  0
   -8.6670   -0.4020   11.5340 O   0  0  0  0  0
   -6.9790   -1.9610    9.8800 C   0  0  0  0  0
   -7.1180   -1.0030    8.6930 C   0  0  0  0  0
   -7.2810   -1.7130    7.4110 C   0  0  0  0  0
   -6.9080   -0.7960    6.2490 C   0  0  0  0  0
   -7.9960    0.1840    6.0970 C   0  0  0  0  0
   -7.1740    1.1700   11.0810 N   0  0  0  0  0
   -8.0680    2.3240   10.9420 C   0  0  0  0  0
   -7.7400    3.3740   11.9730 C   0  0  0  0  0
   -7.1160    2.7470   13.2350 C   0  0  0  0  0
   -6.8560    4.4500   11.3950 C   0  0  0  0  0
   -8.0020    2.8200    9.4930 C   0  0  0  0  0
   -6.9040    2.9010    8.8470 O   0  0  0  0  0
   -9.1660    3.1010    8.8870 N   0  0  0  0  0
   -9.1860    3.5420    7.4610 C   0  0  0  0  0
  -10.5140    2.9460    9.4370 C   0  0  0  0  0
  -11.4430    3.6180    8.4530 C   0  0  0  0  0
  -10.6790    3.6100    7.1240 C   0  0  0  0  0
   -8.4260    4.8860    7.2600 C   0  0  0  0  0
   -8.7240    5.5020    5.9920 O   0  0  0  0  0
   -6.1487   -1.1704   13.1847 H   0  0  0  0  0
   -7.1964   -2.4821   12.6002 H   0  0  0  0  0
   -6.1752   -4.2336   11.2798 H   0  0  0  0  0
   -4.5128   -5.6754   11.1585 H   0  0  0  0  0
   -5.5269   -0.7690   10.8015 H   0  0  0  0  0
   -7.9311   -2.4460   10.0955 H   0  0  0  0  0
   -6.2597   -2.7486    9.6555 H   0  0  0  0  0
   -6.2077   -0.4063    8.6338 H   0  0  0  0  0
   -8.0067   -0.3931    8.8552 H   0  0  0  0  0
   -8.3212   -2.0202    7.3032 H   0  0  0  0  0
   -6.6276   -2.5854    7.4008 H   0  0  0  0  0
   -6.7811   -1.3721    5.3324 H   0  0  0  0  0
   -5.9630   -0.2907    6.4484 H   0  0  0  0  0
   -8.9285   -0.3399    5.8872 H   0  0  0  0  0
   -8.0989    0.7566    7.0188 H   0  0  0  0  0
   -7.7633    0.8584    5.2729 H   0  0  0  0  0
   -6.1729    1.3479   11.0004 H   0  0  0  0  0
   -9.1034    2.0468   11.1402 H   0  0  0  0  0
   -8.6758    3.8453   12.2734 H   0  0  0  0  0
   -7.8194    2.0389   13.6731 H   0  0  0  0  0
   -6.1966    2.2277   12.9645 H   0  0  0  0  0
   -6.8922    3.5325   13.9568 H   0  0  0  0  0
   -5.9253    4.0042   11.0442 H   0  0  0  0  0
   -7.3678    4.9296   10.5606 H   0  0  0  0  0
   -6.6381    5.1913   12.1638 H   0  0  0  0  0
   -8.6614    2.8631    6.7887 H   0  0  0  0  0
  -10.5919    3.3974   10.4261 H   0  0  0  0  0
  -10.7695    1.8944    9.5673 H   0  0  0  0  0
  -11.7022    4.6295    8.7657 H   0  0  0  0  0
  -12.3973    3.0970    8.3754 H   0  0  0  0  0
  -10.9749    2.7551    6.5160 H   0  0  0  0  0
  -10.9021    4.5076    6.5473 H   0  0  0  0  0
   -7.3568    4.6762    7.2897 H   0  0  0  0  0
   -8.7377    5.5706    8.0488 H   0  0  0  0  0
   -8.2344    6.3241    5.9140 H   0  0  0  0  0
  1  2  1  0  0  0
  1  6  1  0  0  0
  2  3  2  0  0  0
  2  4  1  0  0  0
  4  5  1  0  0  0
  6  7  1  0  0  0
  6  9  1  0  0  0
  7  8  2  0  0  0
  7 14  1  0  0  0
  9 10  1  0  0  0
 10 11  1  0  0  0
 11 12  1  0  0  0
 12 13  1  0  0  0
 14 15  1  0  0  0
 15 16  1  0  0  0
 15 19  1  0  0  0
 16 17  1  0  0  0
 16 18  1  0  0  0
 19 20  2  0  0  0
 19 21  1  0  0  0
 21 22  1  0  0  0
 21 23  1  0  0  0
 22 25  1  0  0  0
 22 26  1  0  0  0
 23 24  1  0  0  0
 24 25  1  0  0  0
 26 27  1  0  0  0
  1 28  1  0  0  0
  1 29  1  0  0  0
  4 30  1  0  0  0
  5 31  1  0  0  0
  6 32  1  0  0  0
  9 33  1  0  0  0
  9 34  1  0  0  0
 10 35  1  0  0  0
 10 36  1  0  0  0
 11 37  1  0  0  0
 11 38  1  0  0  0
 12 39  1  0  0  0
 12 40  1  0  0  0
 13 41  1  0  0  0
 13 42  1  0  0  0
 13 43  1  0  0  0
 14 44  1  0  0  0
 15 45  1  0  0  0
 16 46  1  0  0  0
 17 47  1  0  0  0
 17 48  1  0  0  0
 17 49  1  0  0  0
 18 50  1  0  0  0
 18 51  1  0  0  0
 18 52  1  0  0  0
 22 53  1  0  0  0
 23 54  1  0  0  0
 23 55  1  0  0  0
 24 56  1  0  0  0
 24 57  1  0  0  0
 25 58  1  0  0  0
 25 59  1  0  0  0
 26 60  1  0  0  0
 26 61  1  0  0  0
 27 62  1  0  0  0
M  END
$$$$
