6h9b_ligand
  -I-interpret- 

 47 51  0  0  0  0  0  0  0  0999 V2000
    5.2660   54.1390   87.5320 C   0  0  0  0  0
    4.2570   55.3850   89.8240 C   0  0  0  0  0
    5.2420   55.5320   87.6070 C   0  0  0  0  0
    4.3330   54.0060   89.7530 C   0  0  0  0  0
    5.9320   56.3530   86.5750 C   0  0  0  0  0
    4.8850   51.9470   88.9210 C   0  0  0  0  0
    5.4050   49.6040   88.9210 C   0  0  0  0  0
    4.4000   51.8110   90.2340 C   0  0  0  0  0
    8.0010   60.8620   87.1460 C   0  0  0  0  0
    4.0580   53.0610   90.7240 N   0  0  0  0  0
    6.9900   58.6630   86.7770 C   0  0  0  0  0
    6.4430   60.5460   85.3480 C   0  0  0  0  0
    8.7160   59.0030   88.4920 N   0  0  0  0  0
    7.8900   59.4910   87.5030 C   0  0  0  0  0
    7.3080   61.3560   86.0700 C   0  0  0  0  0
    4.6940   56.1370   88.7450 C   0  0  0  0  0
    4.8360   53.3670   88.6090 C   0  0  0  0  0
    9.7110   57.2080   89.7480 C   0  0  0  0  0
    5.4110   50.8360   88.2800 C   0  0  0  0  0
    4.4390   50.5890   90.8940 C   0  0  0  0  0
    4.9280   49.4830   90.2160 C   0  0  0  0  0
    5.7080   56.1460   85.2760 C   0  0  0  0  0
    3.5090   53.3350   92.0410 C   0  0  0  0  0
    6.2600   59.2380   85.7000 C   0  0  0  0  0
    8.7110   57.7000   88.7520 C   0  0  0  0  0
    7.8440   56.8160   88.1070 C   0  0  0  0  0
    6.9550   57.2760   87.1420 C   0  0  0  0  0
    5.6235   53.6516   86.6249 H   0  0  0  0  0
    3.8598   55.8726   90.7143 H   0  0  0  0  0
    5.7795   48.7230   88.3997 H   0  0  0  0  0
    8.6399   61.5244   87.7300 H   0  0  0  0  0
    5.9051   60.9561   84.4933 H   0  0  0  0  0
    7.4385   62.3981   85.7785 H   0  0  0  0  0
    4.6093   57.2230   88.7829 H   0  0  0  0  0
   10.7166   57.4350   89.3939 H   0  0  0  0  0
    9.5415   57.7012   90.7051 H   0  0  0  0  0
    9.6016   56.1302   89.8688 H   0  0  0  0  0
    5.8276   50.9290   87.2770 H   0  0  0  0  0
    4.0923   50.5017   91.9237 H   0  0  0  0  0
    4.9372   48.5095   90.7062 H   0  0  0  0  0
    6.3000   56.6757   84.5297 H   0  0  0  0  0
    4.9330   55.4472   84.9612 H   0  0  0  0  0
    4.1827   53.9985   92.5832 H   0  0  0  0  0
    2.5347   53.8120   91.9350 H   0  0  0  0  0
    3.3992   52.3994   92.5893 H   0  0  0  0  0
    5.5453   58.6275   85.1482 H   0  0  0  0  0
    7.8642   55.7565   88.3621 H   0  0  0  0  0
  3  1  4  0  0  0
  1 17  4  0  0  0
  2  4  4  0  0  0
 16  2  4  0  0  0
  5  3  1  0  0  0
  3 16  4  0  0  0
  4 10  4  0  0  0
 17  4  4  0  0  0
  5 22  2  0  0  0
 27  5  1  0  0  0
  6  8  4  0  0  0
 17  6  4  0  0  0
  6 19  4  0  0  0
 19  7  4  0  0  0
  7 21  4  0  0  0
 10  8  4  0  0  0
  8 20  4  0  0  0
 14  9  4  0  0  0
  9 15  4  0  0  0
 10 23  1  0  0  0
 11 14  4  0  0  0
 11 24  4  0  0  0
 11 27  4  0  0  0
 15 12  4  0  0  0
 12 24  4  0  0  0
 14 13  4  0  0  0
 13 25  4  0  0  0
 25 18  1  0  0  0
 20 21  4  0  0  0
 25 26  4  0  0  0
 26 27  4  0  0  0
  1 28  1  0  0  0
  2 29  1  0  0  0
  7 30  1  0  0  0
  9 31  1  0  0  0
 12 32  1  0  0  0
 15 33  1  0  0  0
 16 34  1  0  0  0
 18 35  1  0  0  0
 18 36  1  0  0  0
 18 37  1  0  0  0
 19 38  1  0  0  0
 20 39  1  0  0  0
 21 40  1  0  0  0
 22 41  1  0  0  0
 22 42  1  0  0  0
 23 43  1  0  0  0
 23 44  1  0  0  0
 23 45  1  0  0  0
 24 46  1  0  0  0
 26 47  1  0  0  0
M  END
$$$$
