### 
### Created by X-TOOL on Mon Sep 10 21:13:09 2018
### 

@<TRIPOS>MOLECULE
4aom_ligand
  325   326     1     0     0
SMALL
GAST_HUCK


@<TRIPOS>ATOM
      1 N         -13.8810  -11.2850   27.2110 N.4       1 LYS         0.2379
      2 CA        -13.1640  -10.1350   27.7780 C.3       1 LYS         0.0650
      3 C         -12.4940   -9.2820   26.6820 C.2       1 LYS         0.2268
      4 O         -12.2530   -9.7830   25.5770 O.2       1 LYS        -0.3907
      5 CB        -12.1310  -10.6260   28.7950 C.3       1 LYS         0.0080
      6 CG        -11.6550   -9.5550   29.7440 C.3       1 LYS        -0.0410
      7 CD        -10.6570  -10.0890   30.7580 C.3       1 LYS        -0.0123
      8 CE         -9.9410   -8.9140   31.4020 C.3       1 LYS        -0.0354
      9 NZ         -9.5810   -9.1830   32.8090 N.4       1 LYS         0.2185
     10 N         -12.2030   -8.0090   26.9850 N.am      1 ASN        -0.2589
     11 CA        -11.5700   -7.0900   26.0250 C.3       1 ASN         0.1477
     12 C         -12.3270   -7.0300   24.7010 C.2       1 ASN         0.2063
     13 O         -11.7140   -6.9810   23.6230 O.2       1 ASN        -0.3942
     14 CB        -10.1110   -7.4730   25.7560 C.3       1 ASN         0.0773
     15 CG         -9.2570   -7.4400   27.0090 C.2       1 ASN         0.1780
     16 OD1        -9.4550   -6.6000   27.8910 O.2       1 ASN        -0.3970
     17 ND2        -8.3070   -8.3610   27.0990 N.am      1 ASN        -0.3007
     18 N         -13.6530   -7.0460   24.7900 N.am      1 ILE        -0.2633
     19 CA        -14.5070   -7.1270   23.6050 C.3       1 ILE         0.1337
     20 C         -14.3780   -5.9330   22.6430 C.2       1 ILE         0.2067
     21 O         -14.3060   -6.1440   21.4270 O.2       1 ILE        -0.3942
     22 CB        -15.9820   -7.4080   23.9850 C.3       1 ILE        -0.0037
     23 CG1       -16.0870   -8.7550   24.7050 C.3       1 ILE        -0.0491
     24 CG2       -16.8940   -7.3760   22.7460 C.3       1 ILE        -0.0582
     25 CD1       -15.6750   -9.9660   23.8390 C.3       1 ILE        -0.0648
     26 N         -14.3420   -4.6850   23.1660 N.am      1 PRO        -0.2498
     27 CA        -14.2400   -3.5910   22.1900 C.3       1 PRO         0.1338
     28 C         -12.9720   -3.6610   21.3360 C.2       1 PRO         0.2042
     29 O         -13.0680   -3.4220   20.1340 O.2       1 PRO        -0.3944
     30 CB        -14.2510   -2.3370   23.0640 C.3       1 PRO        -0.0104
     31 CG        -15.0660   -2.7410   24.2680 C.3       1 PRO        -0.0281
     32 CD        -14.6520   -4.1770   24.5200 C.3       1 PRO         0.0369
     33 N         -11.8250   -4.0110   21.9230 N.am      1 SER        -0.2616
     34 CA        -10.5990   -4.1440   21.1440 C.3       1 SER         0.1539
     35 C         -10.6610   -5.3520   20.1950 C.2       1 SER         0.2062
     36 O         -10.0930   -5.3220   19.0910 O.2       1 SER        -0.3943
     37 CB         -9.3780   -4.2170   22.0600 C.3       1 SER         0.0843
     38 OG         -9.3780   -5.4180   22.8240 O.3       1 SER        -0.3903
     39 N         -11.3550   -6.4120   20.6060 N.am      1 LEU        -0.2636
     40 CA        -11.5780   -7.5390   19.7010 C.3       1 LEU         0.1312
     41 C         -12.3490   -7.0790   18.4720 C.2       1 LEU         0.2039
     42 O         -12.0180   -7.4760   17.3500 O.2       1 LEU        -0.3944
     43 CB        -12.3440   -8.6710   20.3910 C.3       1 LEU        -0.0101
     44 CG        -12.7040   -9.8530   19.4810 C.3       1 LEU        -0.0425
     45 CD1       -11.4580  -10.4680   18.8140 C.3       1 LEU        -0.0625
     46 CD2       -13.4680  -10.9250   20.2560 C.3       1 LEU        -0.0625
     47 N         -13.3760   -6.2480   18.6790 N.am      1 LEU        -0.2637
     48 CA        -14.1610   -5.7470   17.5560 C.3       1 LEU         0.1312
     49 C         -13.2770   -4.9920   16.5650 C.2       1 LEU         0.2039
     50 O         -13.4690   -5.1160   15.3590 O.2       1 LEU        -0.3944
     51 CB        -15.3180   -4.8630   18.0320 C.3       1 LEU        -0.0101
     52 CG        -16.6760   -5.5510   18.2050 C.3       1 LEU        -0.0425
     53 CD1       -16.5490   -6.9240   18.8260 C.3       1 LEU        -0.0625
     54 CD2       -17.6200   -4.6870   19.0350 C.3       1 LEU        -0.0625
     55 N         -12.3020   -4.2360   17.0720 N.am      1 ARG        -0.2637
     56 CA        -11.4120   -3.4690   16.1980 C.3       1 ARG         0.1311
     57 C         -10.5000   -4.3810   15.3710 C.2       1 ARG         0.2039
     58 O         -10.2820   -4.1350   14.1800 O.2       1 ARG        -0.3944
     59 CB        -10.5820   -2.4490   16.9980 C.3       1 ARG        -0.0092
     60 CG        -11.4090   -1.4260   17.8240 C.3       1 ARG        -0.0156
     61 CD        -12.5200   -0.7630   17.0110 C.3       1 ARG         0.0627
     62 NE        -12.0110   -0.2140   15.7540 N.pl3     1 ARG        -0.2723
     63 CZ        -12.6830   -0.2240   14.6060 C.cat     1 ARG         0.2882
     64 NH1       -13.9190   -0.7320   14.5500 N.pl3     1 ARG        -0.2849
     65 NH2       -12.1240    0.2770   13.5080 N.pl3     1 ARG        -0.2849
     66 N          -9.9770   -5.4290   16.0020 N.am      1 VAL        -0.2635
     67 CA         -9.1590   -6.4170   15.3030 C.3       1 VAL         0.1332
     68 C          -9.9490   -7.0390   14.1570 C.2       1 VAL         0.2042
     69 O          -9.4870   -7.0790   13.0090 O.2       1 VAL        -0.3944
     70 CB         -8.6930   -7.5300   16.2640 C.3       1 VAL        -0.0063
     71 CG1        -8.1360   -8.7260   15.4970 C.3       1 VAL        -0.0584
     72 CG2        -7.6470   -6.9850   17.2520 C.3       1 VAL        -0.0584
     73 N         -11.1420   -7.5250   14.4720 N.am      1 GLN        -0.2636
     74 CA        -11.9840   -8.1650   13.4700 C.3       1 GLN         0.1330
     75 C         -12.3790   -7.1630   12.3910 C.2       1 GLN         0.2040
     76 O         -12.4890   -7.5130   11.2210 O.2       1 GLN        -0.3944
     77 CB        -13.2250   -8.7600   14.1390 C.3       1 GLN         0.0045
     78 CG        -12.9140   -9.8900   15.1460 C.3       1 GLN         0.0412
     79 CD        -14.0920  -10.1760   16.0670 C.2       1 GLN         0.1737
     80 OE1       -14.8010   -9.2550   16.4740 O.2       1 GLN        -0.3973
     81 NE2       -14.2920  -11.4590   16.4200 N.am      1 GLN        -0.3009
     82 N         -12.5850   -5.9140   12.8010 N.am      1 ALA        -0.2640
     83 CA        -12.9510   -4.8580   11.8690 C.3       1 ALA         0.1282
     84 C         -11.8230   -4.6480   10.8720 C.2       1 ALA         0.2037
     85 O         -12.0540   -4.5950    9.6680 O.2       1 ALA        -0.3944
     86 CB        -13.2610   -3.5670   12.6240 C.3       1 ALA        -0.0244
     87 N         -10.5950   -4.5490   11.3620 N.am      1 HIS        -0.2625
     88 CA         -9.4660   -4.3050   10.4670 C.3       1 HIS         0.1369
     89 C          -9.1300   -5.5150    9.5950 C.2       1 HIS         0.2054
     90 O          -8.6530   -5.3530    8.4680 O.2       1 HIS        -0.3942
     91 CB         -8.2430   -3.8230   11.2460 C.3       1 HIS         0.0145
     92 CG         -8.3280   -2.3820   11.6400 C.2       1 HIS        -0.0027
     93 ND1        -8.0690   -1.3570   10.7590 N.2       1 HIS        -0.3252
     94 CD2        -8.6750   -1.7920   12.8110 C.2       1 HIS         0.0291
     95 CE1        -8.2400   -0.1960   11.3680 C.2       1 HIS         0.0907
     96 NE2        -8.6140   -0.4340   12.6110 N.pl3     1 HIS        -0.2752
     97 N          -9.3890   -6.7190   10.1100 N.am      1 ILE        -0.2634
     98 CA         -9.2370   -7.9440    9.3090 C.3       1 ILE         0.1335
     99 C         -10.2070   -7.9440    8.1200 C.2       1 ILE         0.2042
    100 O          -9.8040   -8.2110    6.9820 O.2       1 ILE        -0.3944
    101 CB         -9.4150   -9.2150   10.1600 C.3       1 ILE        -0.0037
    102 CG1        -8.1980   -9.4090   11.0680 C.3       1 ILE        -0.0491
    103 CG2        -9.5960  -10.4450    9.2630 C.3       1 ILE        -0.0582
    104 CD1        -8.3130  -10.5720   12.0370 C.3       1 ILE        -0.0648
    105 N         -11.4720   -7.6230    8.3720 N.am      1 ARG        -0.2637
    106 CA        -12.4600   -7.5060    7.2980 C.3       1 ARG         0.1311
    107 C         -12.1060   -6.3970    6.3110 C.2       1 ARG         0.2039
    108 O         -12.3310   -6.5460    5.1060 O.2       1 ARG        -0.3944
    109 CB        -13.8720   -7.3170    7.8730 C.3       1 ARG        -0.0092
    110 CG        -14.5060   -8.6250    8.3710 C.3       1 ARG        -0.0156
    111 CD        -15.9780   -8.4330    8.7490 C.3       1 ARG         0.0627
    112 NE        -16.5670   -9.6540    9.2920 N.pl3     1 ARG        -0.2723
    113 CZ        -16.6280   -9.9490   10.5900 C.cat     1 ARG         0.2882
    114 NH1       -16.1400   -9.1020   11.4990 N.pl3     1 ARG        -0.2849
    115 NH2       -17.1800  -11.0990   10.9780 N.pl3     1 ARG        -0.2849
    116 N         -11.5490   -5.2960    6.8180 N.am      1 LYS        -0.2637
    117 CA        -11.0800   -4.2060    5.9630 C.3       1 LYS         0.1310
    118 C          -9.9700   -4.7240    5.0540 C.2       1 LYS         0.2039
    119 O         -10.0300   -4.5530    3.8370 O.2       1 LYS        -0.3944
    120 CB        -10.5580   -3.0370    6.8130 C.3       1 LYS        -0.0122
    121 CG         -9.8890   -1.9090    6.0090 C.3       1 LYS        -0.0440
    122 CD         -8.9320   -1.0880    6.8930 C.3       1 LYS        -0.0124
    123 CE         -7.6400   -1.8630    7.1740 C.3       1 LYS        -0.0354
    124 NZ         -6.7550   -1.1950    8.1900 N.4       1 LYS         0.2185
    125 N          -8.9640   -5.3620    5.6500 N.am      1 LYS        -0.2637
    126 CA         -7.8340   -5.9130    4.8960 C.3       1 LYS         0.1310
    127 C          -8.2580   -6.9120    3.8150 C.2       1 LYS         0.2039
    128 O          -7.6860   -6.9210    2.7250 O.2       1 LYS        -0.3944
    129 CB         -6.8210   -6.5870    5.8360 C.3       1 LYS        -0.0122
    130 CG         -5.7660   -5.6460    6.4280 C.3       1 LYS        -0.0440
    131 CD         -5.1830   -4.7380    5.3420 C.3       1 LYS        -0.0124
    132 CE         -3.7890   -4.2250    5.6760 C.3       1 LYS        -0.0354
    133 NZ         -2.7570   -5.2570    5.4020 N.4       1 LYS         0.2185
    134 N          -9.2540   -7.7470    4.1120 N.am      1 MET        -0.2637
    135 CA         -9.6250   -8.8280    3.2030 C.3       1 MET         0.1317
    136 C         -10.7070   -8.4220    2.2030 C.2       1 MET         0.2034
    137 O         -11.2250   -9.2720    1.4750 O.2       1 MET        -0.3944
    138 CB        -10.1060  -10.0640    3.9790 C.3       1 MET        -0.0034
    139 CG         -9.2090  -10.5070    5.1290 C.3       1 MET        -0.0024
    140 SD         -7.4740  -10.0930    4.9270 S.3       1 MET        -0.1639
    141 CE         -6.9350  -11.3820    3.8230 C.3       1 MET        -0.0181
    142 N         -11.0330   -7.1330    2.1480 N.am      1 VAL        -0.2692
    143 CA        -12.2040   -6.6840    1.3910 C.3       1 VAL         0.0967
    144 C         -12.1250   -6.9780   -0.1140 C.2       1 VAL         0.0603
    145 O         -11.0160   -7.0657   -0.7057 O.co2     1 VAL        -0.5666
    146 CB        -12.4930   -5.1900    1.6180 C.3       1 VAL        -0.0118
    147 CG1       -11.4790   -4.3350    0.8920 C.3       1 VAL        -0.0590
    148 CG2       -13.8770   -4.8500    1.1350 C.3       1 VAL        -0.0590
    149 O         -13.1894   -7.1345   -0.7698 O.co2     1 VAL        -0.5666
    150 H1        -14.3044  -11.8171   27.9551 H         1 LYS         0.2015
    151 H2        -13.2330  -11.8696   26.7066 H         1 LYS         0.2015
    152 H3        -14.5976  -10.9575   26.5823 H         1 LYS         0.2015
    153 H4        -13.8930   -9.5003   28.3031 H         1 LYS         0.1098
    154 H5        -11.2607  -11.0143   28.2456 H         1 LYS         0.0346
    155 H6        -12.5834  -11.4364   29.3854 H         1 LYS         0.0346
    156 H7        -12.5233   -9.1473   30.2824 H         1 LYS         0.0270
    157 H8        -11.1750   -8.7541   29.1624 H         1 LYS         0.0270
    158 H9         -9.9254  -10.7360   30.2520 H         1 LYS         0.0317
    159 H10       -11.1865  -10.6676   31.5293 H         1 LYS         0.0317
    160 H11       -10.6010   -8.0347   31.3672 H         1 LYS         0.0813
    161 H12        -9.0218   -8.7053   30.8349 H         1 LYS         0.0813
    162 H13        -9.1099   -8.3797   33.1947 H         1 LYS         0.1994
    163 H14        -8.9702   -9.9836   32.8524 H         1 LYS         0.1994
    164 H15       -10.4172   -9.3692   33.3401 H         1 LYS         0.1994
    165 H16       -12.4247   -7.6703   27.8994 H         1 ASN         0.1886
    166 H17       -11.5832   -6.0843   26.4703 H         1 ASN         0.0826
    167 H18        -9.6907   -6.7667   25.0249 H         1 ASN         0.0551
    168 H19       -10.0853   -8.4907   25.3393 H         1 ASN         0.0551
    169 H20        -7.7122   -8.3889   27.9024 H         1 ASN         0.1814
    170 H21        -8.1855   -9.0275   26.3635 H         1 ASN         0.1814
    171 H22       -14.0794   -7.0014   25.6934 H         1 ILE         0.1883
    172 H23       -14.1586   -8.0052   23.0417 H         1 ILE         0.0803
    173 H24       -16.3164   -6.6195   24.6752 H         1 ILE         0.0345
    174 H25       -17.1305   -8.8966   25.0229 H         1 ILE         0.0267
    175 H26       -15.4348   -8.7254   25.5903 H         1 ILE         0.0267
    176 H27       -16.8008   -6.4000   22.2472 H         1 ILE         0.0235
    177 H28       -17.9381   -7.5315   23.0551 H         1 ILE         0.0235
    178 H29       -16.5950   -8.1735   22.0499 H         1 ILE         0.0235
    179 H30       -15.7787  -10.8897   24.4273 H         1 ILE         0.0230
    180 H31       -14.6286   -9.8498   23.5203 H         1 ILE         0.0230
    181 H32       -16.3243  -10.0210   22.9528 H         1 ILE         0.0230
    182 H33       -15.1127   -3.6005   21.5205 H         1 PRO         0.0802
    183 H34       -14.7237   -1.4959   22.5358 H         1 PRO         0.0313
    184 H35       -13.2291   -2.0568   23.3593 H         1 PRO         0.0313
    185 H36       -16.1426   -2.6758   24.0522 H         1 PRO         0.0287
    186 H37       -14.8265   -2.1065   25.1341 H         1 PRO         0.0287
    187 H38       -13.7662   -4.2232   25.1705 H         1 PRO         0.0524
    188 H39       -15.4728   -4.7491   24.9771 H         1 PRO         0.0524
    189 H40       -11.8062   -4.1839   22.9078 H         1 SER         0.1884
    190 H41       -10.4981   -3.2407   20.5244 H         1 SER         0.0823
    191 H42        -9.3914   -3.3563   22.7448 H         1 SER         0.0606
    192 H43        -8.4662   -4.1827   21.4457 H         1 SER         0.0606
    193 H44        -8.6100   -5.4365   23.3828 H         1 SER         0.2097
    194 H45       -11.7242   -6.4373   21.5350 H         1 LEU         0.1883
    195 H46       -10.5991   -7.9251   19.3806 H         1 LEU         0.0800
    196 H47       -13.2779   -8.2546   20.7965 H         1 LEU         0.0315
    197 H48       -11.7233   -9.0510   21.2159 H         1 LEU         0.0315
    198 H49       -13.3611   -9.4741   18.6843 H         1 LEU         0.0298
    199 H50       -11.7624  -11.3087   18.1733 H         1 LEU         0.0232
    200 H51       -10.7675  -10.8298   19.5901 H         1 LEU         0.0232
    201 H52       -10.9549   -9.7045   18.2025 H         1 LEU         0.0232
    202 H53       -14.3543  -10.4751   20.7273 H         1 LEU         0.0232
    203 H54       -12.8159  -11.3506   21.0329 H         1 LEU         0.0232
    204 H55       -13.7841  -11.7212   19.5659 H         1 LEU         0.0232
    205 H56       -13.6077   -5.9679   19.6106 H         1 LEU         0.1883
    206 H57       -14.5919   -6.6139   17.0336 H         1 LEU         0.0800
    207 H58       -15.4443   -4.0535   17.2980 H         1 LEU         0.0315
    208 H59       -15.0337   -4.4350   19.0046 H         1 LEU         0.0315
    209 H60       -17.1168   -5.6742   17.2048 H         1 LEU         0.0298
    210 H61       -17.5476   -7.3739   18.9284 H         1 LEU         0.0232
    211 H62       -16.0831   -6.8359   19.8185 H         1 LEU         0.0232
    212 H63       -15.9241   -7.5610   18.1828 H         1 LEU         0.0232
    213 H64       -17.7054   -3.6914   18.5752 H         1 LEU         0.0232
    214 H65       -17.2229   -4.5865   20.0559 H         1 LEU         0.0232
    215 H66       -18.6124   -5.1599   19.0724 H         1 LEU         0.0232
    216 H67       -12.1770   -4.1924   18.0632 H         1 ARG         0.1883
    217 H68       -12.0444   -2.9066   15.4953 H         1 ARG         0.0800
    218 H69        -9.9570   -1.8873   16.2882 H         1 ARG         0.0313
    219 H70        -9.9370   -3.0058   17.6936 H         1 ARG         0.0313
    220 H71       -10.7303   -0.6434   18.1939 H         1 ARG         0.0301
    221 H72       -11.8639   -1.9502   18.6774 H         1 ARG         0.0301
    222 H73       -12.9596    0.0520   17.6048 H         1 ARG         0.0689
    223 H74       -13.2939   -1.5117   16.7864 H         1 ARG         0.0689
    224 H75       -11.0713    0.2076   15.7582 H         1 ARG         0.2642
    225 H76       -14.4339   -0.7367   13.6580 H         1 ARG         0.2615
    226 H77       -14.3559   -1.1185   15.3989 H         1 ARG         0.2615
    227 H78       -11.1723    0.6690   13.5475 H         1 ARG         0.2615
    228 H79       -12.6428    0.2730   12.6182 H         1 ARG         0.2615
    229 H80       -10.1484   -5.5434   16.9805 H         1 VAL         0.1883
    230 H81        -8.2731   -5.9108   14.8921 H         1 VAL         0.0802
    231 H82        -9.5656   -7.8709   16.8405 H         1 VAL         0.0343
    232 H83        -7.8133   -9.5000   16.2088 H         1 VAL         0.0234
    233 H84        -7.2766   -8.4046   14.8903 H         1 VAL         0.0234
    234 H85        -8.9166   -9.1355   14.8391 H         1 VAL         0.0234
    235 H86        -8.0675   -6.1250   17.7937 H         1 VAL         0.0234
    236 H87        -6.7508   -6.6674   16.6990 H         1 VAL         0.0234
    237 H88        -7.3750   -7.7730   17.9697 H         1 VAL         0.0234
    238 H89       -11.4695   -7.4509   15.4140 H         1 GLN         0.1883
    239 H90       -11.4145   -8.9795   12.9987 H         1 GLN         0.0801
    240 H91       -13.8800   -9.1664   13.3543 H         1 GLN         0.0337
    241 H92       -13.7496   -7.9546   14.6738 H         1 GLN         0.0337
    242 H93       -12.0496   -9.5922   15.7577 H         1 GLN         0.0504
    243 H94       -12.6699  -10.8057   14.5875 H         1 GLN         0.0504
    244 H95       -15.0525  -11.6988   17.0234 H         1 GLN         0.1814
    245 H96       -13.6801  -12.1726   16.0789 H         1 GLN         0.1814
    246 H97       -12.4860   -5.6960   13.7719 H         1 ALA         0.1883
    247 H98       -13.8530   -5.1665   11.3203 H         1 ALA         0.0797
    248 H99       -13.5355   -2.7796   11.9066 H         1 ALA         0.0277
    249 H100      -12.3732   -3.2521   13.1920 H         1 ALA         0.0277
    250 H101      -14.0976   -3.7394   13.3171 H         1 ALA         0.0277
    251 H102      -10.4412   -4.6415   12.3458 H         1 HIS         0.1885
    252 H103       -9.7628   -3.4922    9.7878 H         1 HIS         0.0817
    253 H104       -7.3508   -3.9620   10.6178 H         1 HIS         0.0420
    254 H105       -8.1474   -4.4302   12.1582 H         1 HIS         0.0420
    255 H106       -8.9499   -2.2987   13.7349 H         1 HIS         0.0729
    256 H107       -8.0970    0.7868   10.9212 H         1 HIS         0.1199
    257 H108       -8.8263    0.2838   13.3185 H         1 HIS         0.2361
    258 H109       -9.6927   -6.7900   11.0601 H         1 ILE         0.1883
    259 H110       -8.2129   -7.9535    8.9077 H         1 ILE         0.0803
    260 H111      -10.3119   -9.0986   10.7860 H         1 ILE         0.0345
    261 H112       -8.0553   -8.4881   11.6524 H         1 ILE         0.0267
    262 H113       -7.3177   -9.5789   10.4307 H         1 ILE         0.0267
    263 H114      -10.4716  -10.2993    8.6134 H         1 ILE         0.0235
    264 H115       -9.7484  -11.3364    9.8893 H         1 ILE         0.0235
    265 H116       -8.6980  -10.5818    8.6427 H         1 ILE         0.0235
    266 H117       -7.3984  -10.6345   12.6450 H         1 ILE         0.0230
    267 H118       -8.4431  -11.5075   11.4732 H         1 ILE         0.0230
    268 H119       -9.1807  -10.4167   12.6950 H         1 ILE         0.0230
    269 H120      -11.7553   -7.4577    9.3167 H         1 ARG         0.1883
    270 H121      -12.4536   -8.4541    6.7403 H         1 ARG         0.0800
    271 H122      -14.5153   -6.8944    7.0871 H         1 ARG         0.0313
    272 H123      -13.8140   -6.6138    8.7169 H         1 ARG         0.0313
    273 H124      -13.9535   -8.9748    9.2555 H         1 ARG         0.0301
    274 H125      -14.4382   -9.3801    7.5740 H         1 ARG         0.0301
    275 H126      -16.5396   -8.1368    7.8508 H         1 ARG         0.0689
    276 H127      -16.0497   -7.6374    9.5052 H         1 ARG         0.0689
    277 H128      -16.9622  -10.3334    8.6263 H         1 ARG         0.2642
    278 H129      -16.1904   -9.3364   12.5007 H         1 ARG         0.2615
    279 H130      -15.7130   -8.2141   11.1987 H         1 ARG         0.2615
    280 H131      -17.5564  -11.7522   10.2762 H         1 ARG         0.2615
    281 H132      -17.2300  -11.3342   11.9795 H         1 ARG         0.2615
    282 H133      -11.4494   -5.2137    7.8096 H         1 LYS         0.1883
    283 H134      -11.9169   -3.8501    5.3442 H         1 LYS         0.0800
    284 H135       -9.8205   -3.4339    7.5261 H         1 LYS         0.0312
    285 H136      -11.4074   -2.6078    7.3646 H         1 LYS         0.0312
    286 H137      -10.6676   -1.2432    5.6084 H         1 LYS         0.0269
    287 H138       -9.3200   -2.3498    5.1772 H         1 LYS         0.0269
    288 H139       -9.4298   -0.8612    7.8473 H         1 LYS         0.0317
    289 H140       -8.6828   -0.1490    6.3772 H         1 LYS         0.0317
    290 H141       -7.0793   -1.9602    6.2327 H         1 LYS         0.0813
    291 H142       -7.9066   -2.8629    7.5469 H         1 LYS         0.0813
    292 H143       -5.9258   -1.7507    8.3303 H         1 LYS         0.1994
    293 H144       -7.2521   -1.1070    9.0625 H         1 LYS         0.1994
    294 H145       -6.4939   -0.2797    7.8582 H         1 LYS         0.1994
    295 H146       -8.9801   -5.4686    6.6442 H         1 LYS         0.1883
    296 H147       -7.3314   -5.0719    4.3961 H         1 LYS         0.0800
    297 H148       -6.2992   -7.3724    5.2697 H         1 LYS         0.0312
    298 H149       -7.3776   -7.0431    6.6680 H         1 LYS         0.0312
    299 H150       -4.9565   -6.2441    6.8719 H         1 LYS         0.0269
    300 H151       -6.2322   -5.0246    7.2067 H         1 LYS         0.0269
    301 H152       -5.8517   -3.8744    5.2118 H         1 LYS         0.0317
    302 H153       -5.1306   -5.3063    4.4017 H         1 LYS         0.0317
    303 H154       -3.7519   -3.9546    6.7416 H         1 LYS         0.0813
    304 H155       -3.5780   -3.3354    5.0644 H         1 LYS         0.0813
    305 H156       -1.8464   -4.8908    5.6317 H         1 LYS         0.1994
    306 H157       -2.7823   -5.5066    4.4257 H         1 LYS         0.1994
    307 H158       -2.9417   -6.0741    5.9626 H         1 LYS         0.1994
    308 H159       -9.7545   -7.6313    4.9700 H         1 MET         0.1883
    309 H160       -8.7251   -9.1055    2.6345 H         1 MET         0.0800
    310 H161      -10.1846  -10.9005    3.2690 H         1 MET         0.0320
    311 H162      -11.1003   -9.8390    4.3922 H         1 MET         0.0320
    312 H163       -9.2916  -11.5995    5.2272 H         1 MET         0.0378
    313 H164       -9.5709  -10.0276    6.0505 H         1 MET         0.0378
    314 H165       -5.8645  -11.2540    3.6048 H         1 MET         0.0340
    315 H166       -7.5093  -11.3266    2.8864 H         1 MET         0.0340
    316 H167       -7.0982  -12.3617    4.2958 H         1 MET         0.0340
    317 H168      -10.4706   -6.4613    2.6303 H         1 VAL         0.1875
    318 H169      -13.0641   -7.2472    1.7821 H         1 VAL         0.0729
    319 H170      -12.4294   -4.9781    2.6955 H         1 VAL         0.0336
    320 H171      -11.7031   -3.2724    1.0669 H         1 VAL         0.0234
    321 H172      -11.5256   -4.5469   -0.1864 H         1 VAL         0.0234
    322 H173      -10.4706   -4.5637    1.2674 H         1 VAL         0.0234
    323 H174      -14.6133   -5.4728    1.6641 H         1 VAL         0.0234
    324 H175      -13.9452   -5.0405    0.0538 H         1 VAL         0.0234
    325 H176      -14.0843   -3.7882    1.3341 H         1 VAL         0.0234
@<TRIPOS>BOND
     1    1    2 1  
     2    2    3 1  
     3    2    5 1  
     4    3    4 2  
     5    3   10 am 
     6    5    6 1  
     7    6    7 1  
     8    7    8 1  
     9    8    9 1  
    10   10   11 1  
    11   11   12 1  
    12   11   14 1  
    13   12   13 2  
    14   12   18 am 
    15   14   15 1  
    16   15   16 2  
    17   15   17 am 
    18   18   19 1  
    19   19   20 1  
    20   19   22 1  
    21   20   21 2  
    22   20   26 am 
    23   22   23 1  
    24   22   24 1  
    25   23   25 1  
    26   26   27 1  
    27   26   32 1  
    28   27   28 1  
    29   27   30 1  
    30   28   29 2  
    31   28   33 am 
    32   30   31 1  
    33   31   32 1  
    34   33   34 1  
    35   34   35 1  
    36   34   37 1  
    37   35   36 2  
    38   35   39 am 
    39   37   38 1  
    40   39   40 1  
    41   40   41 1  
    42   40   43 1  
    43   41   42 2  
    44   41   47 am 
    45   43   44 1  
    46   44   45 1  
    47   44   46 1  
    48   47   48 1  
    49   48   49 1  
    50   48   51 1  
    51   49   50 2  
    52   49   55 am 
    53   51   52 1  
    54   52   53 1  
    55   52   54 1  
    56   55   56 1  
    57   56   57 1  
    58   56   59 1  
    59   57   58 2  
    60   57   66 am 
    61   59   60 1  
    62   60   61 1  
    63   61   62 1  
    64   62   63 ar 
    65   63   64 ar 
    66   63   65 ar 
    67   66   67 1  
    68   67   68 1  
    69   67   70 1  
    70   68   69 2  
    71   68   73 am 
    72   70   71 1  
    73   70   72 1  
    74   73   74 1  
    75   74   75 1  
    76   74   77 1  
    77   75   76 2  
    78   75   82 am 
    79   77   78 1  
    80   78   79 1  
    81   79   80 2  
    82   79   81 am 
    83   82   83 1  
    84   83   84 1  
    85   83   86 1  
    86   84   85 2  
    87   84   87 am 
    88   87   88 1  
    89   88   89 1  
    90   88   91 1  
    91   89   90 2  
    92   89   97 am 
    93   91   92 1  
    94   92   93 1  
    95   92   94 2  
    96   93   95 2  
    97   94   96 1  
    98   95   96 1  
    99   97   98 1  
   100   98   99 1  
   101   98  101 1  
   102   99  100 2  
   103   99  105 am 
   104  101  102 1  
   105  101  103 1  
   106  102  104 1  
   107  105  106 1  
   108  106  107 1  
   109  106  109 1  
   110  107  108 2  
   111  107  116 am 
   112  109  110 1  
   113  110  111 1  
   114  111  112 1  
   115  112  113 ar 
   116  113  114 ar 
   117  113  115 ar 
   118  116  117 1  
   119  117  118 1  
   120  117  120 1  
   121  118  119 2  
   122  118  125 am 
   123  120  121 1  
   124  121  122 1  
   125  122  123 1  
   126  123  124 1  
   127  125  126 1  
   128  126  127 1  
   129  126  129 1  
   130  127  128 2  
   131  127  134 am 
   132  129  130 1  
   133  130  131 1  
   134  131  132 1  
   135  132  133 1  
   136  134  135 1  
   137  135  136 1  
   138  135  138 1  
   139  136  137 2  
   140  136  142 am 
   141  138  139 1  
   142  139  140 1  
   143  140  141 1  
   144  142  143 1  
   145  143  144 1  
   146  143  146 1  
   147  144  145 ar 
   148  146  147 1  
   149  146  148 1  
   150  144  149 ar 
   151    1  150 1  
   152    1  151 1  
   153    1  152 1  
   154    2  153 1  
   155    5  154 1  
   156    5  155 1  
   157    6  156 1  
   158    6  157 1  
   159    7  158 1  
   160    7  159 1  
   161    8  160 1  
   162    8  161 1  
   163    9  162 1  
   164    9  163 1  
   165    9  164 1  
   166   10  165 1  
   167   11  166 1  
   168   14  167 1  
   169   14  168 1  
   170   17  169 1  
   171   17  170 1  
   172   18  171 1  
   173   19  172 1  
   174   22  173 1  
   175   23  174 1  
   176   23  175 1  
   177   24  176 1  
   178   24  177 1  
   179   24  178 1  
   180   25  179 1  
   181   25  180 1  
   182   25  181 1  
   183   27  182 1  
   184   30  183 1  
   185   30  184 1  
   186   31  185 1  
   187   31  186 1  
   188   32  187 1  
   189   32  188 1  
   190   33  189 1  
   191   34  190 1  
   192   37  191 1  
   193   37  192 1  
   194   38  193 1  
   195   39  194 1  
   196   40  195 1  
   197   43  196 1  
   198   43  197 1  
   199   44  198 1  
   200   45  199 1  
   201   45  200 1  
   202   45  201 1  
   203   46  202 1  
   204   46  203 1  
   205   46  204 1  
   206   47  205 1  
   207   48  206 1  
   208   51  207 1  
   209   51  208 1  
   210   52  209 1  
   211   53  210 1  
   212   53  211 1  
   213   53  212 1  
   214   54  213 1  
   215   54  214 1  
   216   54  215 1  
   217   55  216 1  
   218   56  217 1  
   219   59  218 1  
   220   59  219 1  
   221   60  220 1  
   222   60  221 1  
   223   61  222 1  
   224   61  223 1  
   225   62  224 1  
   226   64  225 1  
   227   64  226 1  
   228   65  227 1  
   229   65  228 1  
   230   66  229 1  
   231   67  230 1  
   232   70  231 1  
   233   71  232 1  
   234   71  233 1  
   235   71  234 1  
   236   72  235 1  
   237   72  236 1  
   238   72  237 1  
   239   73  238 1  
   240   74  239 1  
   241   77  240 1  
   242   77  241 1  
   243   78  242 1  
   244   78  243 1  
   245   81  244 1  
   246   81  245 1  
   247   82  246 1  
   248   83  247 1  
   249   86  248 1  
   250   86  249 1  
   251   86  250 1  
   252   87  251 1  
   253   88  252 1  
   254   91  253 1  
   255   91  254 1  
   256   94  255 1  
   257   95  256 1  
   258   96  257 1  
   259   97  258 1  
   260   98  259 1  
   261  101  260 1  
   262  102  261 1  
   263  102  262 1  
   264  103  263 1  
   265  103  264 1  
   266  103  265 1  
   267  104  266 1  
   268  104  267 1  
   269  104  268 1  
   270  105  269 1  
   271  106  270 1  
   272  109  271 1  
   273  109  272 1  
   274  110  273 1  
   275  110  274 1  
   276  111  275 1  
   277  111  276 1  
   278  112  277 1  
   279  114  278 1  
   280  114  279 1  
   281  115  280 1  
   282  115  281 1  
   283  116  282 1  
   284  117  283 1  
   285  120  284 1  
   286  120  285 1  
   287  121  286 1  
   288  121  287 1  
   289  122  288 1  
   290  122  289 1  
   291  123  290 1  
   292  123  291 1  
   293  124  292 1  
   294  124  293 1  
   295  124  294 1  
   296  125  295 1  
   297  126  296 1  
   298  129  297 1  
   299  129  298 1  
   300  130  299 1  
   301  130  300 1  
   302  131  301 1  
   303  131  302 1  
   304  132  303 1  
   305  132  304 1  
   306  133  305 1  
   307  133  306 1  
   308  133  307 1  
   309  134  308 1  
   310  135  309 1  
   311  138  310 1  
   312  138  311 1  
   313  139  312 1  
   314  139  313 1  
   315  141  314 1  
   316  141  315 1  
   317  141  316 1  
   318  142  317 1  
   319  143  318 1  
   320  146  319 1  
   321  147  320 1  
   322  147  321 1  
   323  147  322 1  
   324  148  323 1  
   325  148  324 1  
   326  148  325 1  
@<TRIPOS>SUBSTRUCTURE
     1 LYS         1

