4aom_ligand
  -I-interpret- 

323324  0  0  0  0  0  0  0  0999 V2000
  -13.8810  -11.2850   27.2110 N   0  3  0  0  0
  -13.1640  -10.1350   27.7780 C   0  0  0  0  0
  -12.4940   -9.2820   26.6820 C   0  0  0  0  0
  -12.2530   -9.7830   25.5770 O   0  0  0  0  0
  -12.1310  -10.6260   28.7950 C   0  0  0  0  0
  -11.6550   -9.5550   29.7440 C   0  0  0  0  0
  -10.6570  -10.0890   30.7580 C   0  0  0  0  0
   -9.9410   -8.9140   31.4020 C   0  0  0  0  0
   -9.5810   -9.1830   32.8090 N   0  3  0  0  0
  -12.2030   -8.0090   26.9850 N   0  0  0  0  0
  -11.5700   -7.0900   26.0250 C   0  0  0  0  0
  -12.3270   -7.0300   24.7010 C   0  0  0  0  0
  -11.7140   -6.9810   23.6230 O   0  0  0  0  0
  -10.1110   -7.4730   25.7560 C   0  0  0  0  0
   -9.2570   -7.4400   27.0090 C   0  0  0  0  0
   -9.4550   -6.6000   27.8910 O   0  0  0  0  0
   -8.3070   -8.3610   27.0990 N   0  0  0  0  0
  -13.6530   -7.0460   24.7900 N   0  0  0  0  0
  -14.5070   -7.1270   23.6050 C   0  0  0  0  0
  -14.3780   -5.9330   22.6430 C   0  0  0  0  0
  -14.3060   -6.1440   21.4270 O   0  0  0  0  0
  -15.9820   -7.4080   23.9850 C   0  0  0  0  0
  -16.0870   -8.7550   24.7050 C   0  0  0  0  0
  -16.8940   -7.3760   22.7460 C   0  0  0  0  0
  -15.6750   -9.9660   23.8390 C   0  0  0  0  0
  -14.3420   -4.6850   23.1660 N   0  0  0  0  0
  -14.2400   -3.5910   22.1900 C   0  0  0  0  0
  -12.9720   -3.6610   21.3360 C   0  0  0  0  0
  -13.0680   -3.4220   20.1340 O   0  0  0  0  0
  -14.2510   -2.3370   23.0640 C   0  0  0  0  0
  -15.0660   -2.7410   24.2680 C   0  0  0  0  0
  -14.6520   -4.1770   24.5200 C   0  0  0  0  0
  -11.8250   -4.0110   21.9230 N   0  0  0  0  0
  -10.5990   -4.1440   21.1440 C   0  0  0  0  0
  -10.6610   -5.3520   20.1950 C   0  0  0  0  0
  -10.0930   -5.3220   19.0910 O   0  0  0  0  0
   -9.3780   -4.2170   22.0600 C   0  0  0  0  0
   -9.3780   -5.4180   22.8240 O   0  0  0  0  0
  -11.3550   -6.4120   20.6060 N   0  0  0  0  0
  -11.5780   -7.5390   19.7010 C   0  0  0  0  0
  -12.3490   -7.0790   18.4720 C   0  0  0  0  0
  -12.0180   -7.4760   17.3500 O   0  0  0  0  0
  -12.3440   -8.6710   20.3910 C   0  0  0  0  0
  -12.7040   -9.8530   19.4810 C   0  0  0  0  0
  -11.4580  -10.4680   18.8140 C   0  0  0  0  0
  -13.4680  -10.9250   20.2560 C   0  0  0  0  0
  -13.3760   -6.2480   18.6790 N   0  0  0  0  0
  -14.1610   -5.7470   17.5560 C   0  0  0  0  0
  -13.2770   -4.9920   16.5650 C   0  0  0  0  0
  -13.4690   -5.1160   15.3590 O   0  0  0  0  0
  -15.3180   -4.8630   18.0320 C   0  0  0  0  0
  -16.6760   -5.5510   18.2050 C   0  0  0  0  0
  -16.5490   -6.9240   18.8260 C   0  0  0  0  0
  -17.6200   -4.6870   19.0350 C   0  0  0  0  0
  -12.3020   -4.2360   17.0720 N   0  0  0  0  0
  -11.4120   -3.4690   16.1980 C   0  0  0  0  0
  -10.5000   -4.3810   15.3710 C   0  0  0  0  0
  -10.2820   -4.1350   14.1800 O   0  0  0  0  0
  -10.5820   -2.4490   16.9980 C   0  0  0  0  0
  -11.4090   -1.4260   17.8240 C   0  0  0  0  0
  -12.5200   -0.7630   17.0110 C   0  0  0  0  0
  -12.0110   -0.2140   15.7540 N   0  0  0  0  0
  -12.6830   -0.2240   14.6060 C   0  0  0  0  0
  -13.9190   -0.7320   14.5500 N   0  0  0  0  0
  -12.1240    0.2770   13.5080 N   0  0  0  0  0
   -9.9770   -5.4290   16.0020 N   0  0  0  0  0
   -9.1590   -6.4170   15.3030 C   0  0  0  0  0
   -9.9490   -7.0390   14.1570 C   0  0  0  0  0
   -9.4870   -7.0790   13.0090 O   0  0  0  0  0
   -8.6930   -7.5300   16.2640 C   0  0  0  0  0
   -8.1360   -8.7260   15.4970 C   0  0  0  0  0
   -7.6470   -6.9850   17.2520 C   0  0  0  0  0
  -11.1420   -7.5250   14.4720 N   0  0  0  0  0
  -11.9840   -8.1650   13.4700 C   0  0  0  0  0
  -12.3790   -7.1630   12.3910 C   0  0  0  0  0
  -12.4890   -7.5130   11.2210 O   0  0  0  0  0
  -13.2250   -8.7600   14.1390 C   0  0  0  0  0
  -12.9140   -9.8900   15.1460 C   0  0  0  0  0
  -14.0920  -10.1760   16.0670 C   0  0  0  0  0
  -14.8010   -9.2550   16.4740 O   0  0  0  0  0
  -14.2920  -11.4590   16.4200 N   0  0  0  0  0
  -12.5850   -5.9140   12.8010 N   0  0  0  0  0
  -12.9510   -4.8580   11.8690 C   0  0  0  0  0
  -11.8230   -4.6480   10.8720 C   0  0  0  0  0
  -12.0540   -4.5950    9.6680 O   0  0  0  0  0
  -13.2610   -3.5670   12.6240 C   0  0  0  0  0
  -10.5950   -4.5490   11.3620 N   0  0  0  0  0
   -9.4660   -4.3050   10.4670 C   0  0  0  0  0
   -9.1300   -5.5150    9.5950 C   0  0  0  0  0
   -8.6530   -5.3530    8.4680 O   0  0  0  0  0
   -8.2430   -3.8230   11.2460 C   0  0  0  0  0
   -8.3280   -2.3820   11.6400 C   0  0  0  0  0
   -8.0690   -1.3570   10.7590 N   0  0  0  0  0
   -8.6750   -1.7920   12.8110 C   0  0  0  0  0
   -8.2400   -0.1960   11.3680 C   0  0  0  0  0
   -8.6140   -0.4340   12.6110 N   0  0  0  0  0
   -9.3890   -6.7190   10.1100 N   0  0  0  0  0
   -9.2370   -7.9440    9.3090 C   0  0  0  0  0
  -10.2070   -7.9440    8.1200 C   0  0  0  0  0
   -9.8040   -8.2110    6.9820 O   0  0  0  0  0
   -9.4150   -9.2150   10.1600 C   0  0  0  0  0
   -8.1980   -9.4090   11.0680 C   0  0  0  0  0
   -9.5960  -10.4450    9.2630 C   0  0  0  0  0
   -8.3130  -10.5720   12.0370 C   0  0  0  0  0
  -11.4720   -7.6230    8.3720 N   0  0  0  0  0
  -12.4600   -7.5060    7.2980 C   0  0  0  0  0
  -12.1060   -6.3970    6.3110 C   0  0  0  0  0
  -12.3310   -6.5460    5.1060 O   0  0  0  0  0
  -13.8720   -7.3170    7.8730 C   0  0  0  0  0
  -14.5060   -8.6250    8.3710 C   0  0  0  0  0
  -15.9780   -8.4330    8.7490 C   0  0  0  0  0
  -16.5670   -9.6540    9.2920 N   0  0  0  0  0
  -16.6280   -9.9490   10.5900 C   0  0  0  0  0
  -16.1400   -9.1020   11.4990 N   0  0  0  0  0
  -17.1800  -11.0990   10.9780 N   0  0  0  0  0
  -11.5490   -5.2960    6.8180 N   0  0  0  0  0
  -11.0800   -4.2060    5.9630 C   0  0  0  0  0
   -9.9700   -4.7240    5.0540 C   0  0  0  0  0
  -10.0300   -4.5530    3.8370 O   0  0  0  0  0
  -10.5580   -3.0370    6.8130 C   0  0  0  0  0
   -9.8890   -1.9090    6.0090 C   0  0  0  0  0
   -8.9320   -1.0880    6.8930 C   0  0  0  0  0
   -7.6400   -1.8630    7.1740 C   0  0  0  0  0
   -6.7550   -1.1950    8.1900 N   0  3  0  0  0
   -8.9640   -5.3620    5.6500 N   0  0  0  0  0
   -7.8340   -5.9130    4.8960 C   0  0  0  0  0
   -8.2580   -6.9120    3.8150 C   0  0  0  0  0
   -7.6860   -6.9210    2.7250 O   0  0  0  0  0
   -6.8210   -6.5870    5.8360 C   0  0  0  0  0
   -5.7660   -5.6460    6.4280 C   0  0  0  0  0
   -5.1830   -4.7380    5.3420 C   0  0  0  0  0
   -3.7890   -4.2250    5.6760 C   0  0  0  0  0
   -2.7570   -5.2570    5.4020 N   0  3  0  0  0
   -9.2540   -7.7470    4.1120 N   0  0  0  0  0
   -9.6250   -8.8280    3.2030 C   0  0  0  0  0
  -10.7070   -8.4220    2.2030 C   0  0  0  0  0
  -11.2250   -9.2720    1.4750 O   0  0  0  0  0
  -10.1060  -10.0640    3.9790 C   0  0  0  0  0
   -9.2090  -10.5070    5.1290 C   0  0  0  0  0
   -7.4740  -10.0930    4.9270 S   0  0  0  0  0
   -6.9350  -11.3820    3.8230 C   0  0  0  0  0
  -11.0330   -7.1330    2.1480 N   0  0  0  0  0
  -12.2040   -6.6840    1.3910 C   0  0  0  0  0
  -12.1250   -6.9780   -0.1140 C   0  0  0  0  0
  -11.0160   -7.0657   -0.7057 O   0  0  0  0  0
  -12.4930   -5.1900    1.6180 C   0  0  0  0  0
  -11.4790   -4.3350    0.8920 C   0  0  0  0  0
  -13.8770   -4.8500    1.1350 C   0  0  0  0  0
  -13.1894   -7.1345   -0.7698 O   0  0  0  0  0
  -14.5687  -10.9551   26.5337 H   0  0  0  0  0
  -13.2158  -11.9042   26.7479 H   0  0  0  0  0
  -14.3546  -11.7913   27.9591 H   0  0  0  0  0
  -13.8877   -9.4939   28.2814 H   0  0  0  0  0
  -11.2629  -10.9734   28.2349 H   0  0  0  0  0
  -12.6075  -11.4024   29.3935 H   0  0  0  0  0
  -12.5199   -9.1744   30.2873 H   0  0  0  0  0
  -11.1619   -8.7784   29.1593 H   0  0  0  0  0
   -9.9341  -10.7358   30.2608 H   0  0  0  0  0
  -11.1778  -10.6683   31.5204 H   0  0  0  0  0
  -10.6123   -8.0555   31.3819 H   0  0  0  0  0
   -9.0216   -8.7310   30.8458 H   0  0  0  0  0
   -9.1044   -8.3695   33.1982 H   0  0  0  0  0
  -10.4279   -9.3713   33.3454 H   0  0  0  0  0
   -8.9630   -9.9933   32.8516 H   0  0  0  0  0
  -12.4292   -7.6635   27.9177 H   0  0  0  0  0
  -11.6010   -6.1032   26.4869 H   0  0  0  0  0
   -9.6996   -6.7503   25.0513 H   0  0  0  0  0
  -10.0982   -8.4918   25.3689 H   0  0  0  0  0
   -7.7049   -8.3939   27.9217 H   0  0  0  0  0
   -8.1785   -9.0364   26.3456 H   0  0  0  0  0
  -14.0879   -7.0005   25.7115 H   0  0  0  0  0
  -14.1330   -7.9807   23.0399 H   0  0  0  0  0
  -16.3201   -6.6209   24.6590 H   0  0  0  0  0
  -17.1330   -8.8944   24.9780 H   0  0  0  0  0
  -15.4064   -8.7201   25.5557 H   0  0  0  0  0
  -16.8366   -6.3925   22.2795 H   0  0  0  0  0
  -16.5672   -8.1359   22.0362 H   0  0  0  0  0
  -17.9219   -7.5770   23.0478 H   0  0  0  0  0
  -16.3191  -10.0193   22.9613 H   0  0  0  0  0
  -14.6381   -9.8497   23.5238 H   0  0  0  0  0
  -15.7781  -10.8806   24.4230 H   0  0  0  0  0
  -15.0492   -3.6235   21.4605 H   0  0  0  0  0
  -14.6748   -1.4760   22.5472 H   0  0  0  0  0
  -13.2463   -2.0120   23.3343 H   0  0  0  0  0
  -16.1377   -2.6424   24.0955 H   0  0  0  0  0
  -14.8807   -2.0987   25.1289 H   0  0  0  0  0
  -13.8051   -4.2559   25.2016 H   0  0  0  0  0
  -15.4297   -4.7565   25.0175 H   0  0  0  0  0
  -11.8059   -4.1874   22.9275 H   0  0  0  0  0
  -10.5007   -3.2528   20.5242 H   0  0  0  0  0
   -9.4058   -3.3694   22.7447 H   0  0  0  0  0
   -8.4792   -4.1970   21.4436 H   0  0  0  0  0
   -8.6019   -5.4367   23.3887 H   0  0  0  0  0
  -11.7316   -6.4378   21.5536 H   0  0  0  0  0
  -10.6017   -7.9201   19.4016 H   0  0  0  0  0
  -13.2835   -8.2470   20.7454 H   0  0  0  0  0
  -11.6941   -9.0613   21.1742 H   0  0  0  0  0
  -13.3460   -9.4622   18.6915 H   0  0  0  0  0
  -10.9604   -9.7105   18.2085 H   0  0  0  0  0
  -10.7747  -10.8260   19.5840 H   0  0  0  0  0
  -11.7609  -11.3009   18.1794 H   0  0  0  0  0
  -12.8491  -11.2892   21.0760 H   0  0  0  0  0
  -14.3874  -10.4969   20.6554 H   0  0  0  0  0
  -13.7108  -11.7511   19.5876 H   0  0  0  0  0
  -13.6123   -5.9623   19.6292 H   0  0  0  0  0
  -14.5892   -6.6091   17.0446 H   0  0  0  0  0
  -15.4584   -4.1070   17.2594 H   0  0  0  0  0
  -15.0347   -4.5005   19.0202 H   0  0  0  0  0
  -17.0930   -5.6786   17.2060 H   0  0  0  0  0
  -15.9296   -7.5541   18.1878 H   0  0  0  0  0
  -16.0872   -6.8353   19.8093 H   0  0  0  0  0
  -17.5390   -7.3687   18.9269 H   0  0  0  0  0
  -17.1839   -4.5170   20.0194 H   0  0  0  0  0
  -17.7713   -3.7312   18.5333 H   0  0  0  0  0
  -18.5770   -5.1975   19.1433 H   0  0  0  0  0
  -12.1745   -4.1915   18.0830 H   0  0  0  0  0
  -12.0466   -2.9191   15.5030 H   0  0  0  0  0
  -10.0082   -1.8737   16.2714 H   0  0  0  0  0
   -9.9877   -3.0199   17.7115 H   0  0  0  0  0
  -10.7294   -0.6425   18.1592 H   0  0  0  0  0
  -11.8764   -1.9646   18.6484 H   0  0  0  0  0
  -12.9381    0.0534   17.5998 H   0  0  0  0  0
  -13.2736   -1.5155   16.7787 H   0  0  0  0  0
  -11.0804    0.2036   15.7582 H   0  0  0  0  0
  -14.4299   -0.7344   13.6672 H   0  0  0  0  0
  -14.3507   -1.1170   15.3901 H   0  0  0  0  0
  -11.1825    0.6675   13.5477 H   0  0  0  0  0
  -10.1518   -5.5457   17.0001 H   0  0  0  0  0
   -8.2818   -5.9048   14.9076 H   0  0  0  0  0
   -9.5606   -7.8712   16.8287 H   0  0  0  0  0
   -8.9104   -9.1308   14.8455 H   0  0  0  0  0
   -7.2846   -8.4062   14.8963 H   0  0  0  0  0
   -7.8166   -9.4922   16.2034 H   0  0  0  0  0
   -6.7860   -6.6110   16.6980 H   0  0  0  0  0
   -8.0862   -6.1747   17.8338 H   0  0  0  0  0
   -7.3303   -7.7846   17.9217 H   0  0  0  0  0
  -11.4760   -7.4494   15.4328 H   0  0  0  0  0
  -11.4239   -8.9705   12.9951 H   0  0  0  0  0
  -13.8430   -9.1899   13.3507 H   0  0  0  0  0
  -13.7104   -7.9568   14.6935 H   0  0  0  0  0
  -12.0704   -9.5754   15.7604 H   0  0  0  0  0
  -12.6948  -10.7969   14.5825 H   0  0  0  0  0
  -15.0568  -11.7014   17.0498 H   0  0  0  0  0
  -13.6788  -12.1892   16.0577 H   0  0  0  0  0
  -12.4841   -5.6916   13.7913 H   0  0  0  0  0
  -13.8491   -5.1508   11.3251 H   0  0  0  0  0
  -14.0900   -3.7392   13.3104 H   0  0  0  0  0
  -12.3805   -3.2561   13.1864 H   0  0  0  0  0
  -13.5329   -2.7876   11.9121 H   0  0  0  0  0
  -10.4381   -4.6433   12.3654 H   0  0  0  0  0
   -9.7716   -3.5111    9.7855 H   0  0  0  0  0
   -7.3725   -3.9389   10.6004 H   0  0  0  0  0
   -8.1792   -4.4130   12.1603 H   0  0  0  0  0
   -8.9502   -2.2992   13.7357 H   0  0  0  0  0
   -8.0968    0.7876   10.9207 H   0  0  0  0  0
   -9.6988   -6.7914   11.0791 H   0  0  0  0  0
   -8.2176   -7.9525    8.9232 H   0  0  0  0  0
  -10.3082   -9.0982   10.7737 H   0  0  0  0  0
   -8.1000   -8.5037   11.6671 H   0  0  0  0  0
   -7.3469   -9.6174   10.4197 H   0  0  0  0  0
  -10.4795  -10.3110    8.6388 H   0  0  0  0  0
   -8.7168  -10.5639    8.6298 H   0  0  0  0  0
   -9.7200  -11.3315    9.8849 H   0  0  0  0  0
   -9.1731  -10.4169   12.6883 H   0  0  0  0  0
   -8.4419  -11.4983   11.4772 H   0  0  0  0  0
   -7.4062  -10.6329   12.6388 H   0  0  0  0  0
  -11.7609   -7.4544    9.3356 H   0  0  0  0  0
  -12.4450   -8.4409    6.7378 H   0  0  0  0  0
  -14.5035   -6.9283    7.0742 H   0  0  0  0  0
  -13.7926   -6.6437    8.7265 H   0  0  0  0  0
  -13.9638   -8.9537    9.2576 H   0  0  0  0  0
  -14.4506   -9.3608    7.5687 H   0  0  0  0  0
  -16.5284   -8.1602    7.8486 H   0  0  0  0  0
  -16.0354   -7.6578    9.5131 H   0  0  0  0  0
  -16.9583  -10.3268    8.6328 H   0  0  0  0  0
  -16.1893   -9.3344   12.4909 H   0  0  0  0  0
  -15.7178   -8.2224   11.2016 H   0  0  0  0  0
  -17.5521  -11.7462   10.2830 H   0  0  0  0  0
  -11.4474   -5.2120    7.8295 H   0  0  0  0  0
  -11.9124   -3.8447    5.3591 H   0  0  0  0  0
   -9.7995   -3.4439    7.4818 H   0  0  0  0  0
  -11.4203   -2.6002    7.3168 H   0  0  0  0  0
  -10.6653   -1.2460    5.6271 H   0  0  0  0  0
   -9.3160   -2.3539    5.1954 H   0  0  0  0  0
   -9.4265   -0.8782    7.8415 H   0  0  0  0  0
   -8.6790   -0.1655    6.3704 H   0  0  0  0  0
   -7.0819   -1.9231    6.2396 H   0  0  0  0  0
   -7.9206   -2.8382    7.5718 H   0  0  0  0  0
   -5.9163   -1.7581    8.3312 H   0  0  0  0  0
   -6.4915   -0.2690    7.8532 H   0  0  0  0  0
   -7.2590   -1.1065    9.0723 H   0  0  0  0  0
   -8.9804   -5.4707    6.6641 H   0  0  0  0  0
   -7.3712   -5.0622    4.3960 H   0  0  0  0  0
   -6.2856   -7.3290    5.2436 H   0  0  0  0  0
   -7.3886   -6.9921    6.6738 H   0  0  0  0  0
   -4.9619   -6.2431    6.8580 H   0  0  0  0  0
   -6.2349   -5.0261    7.1922 H   0  0  0  0  0
   -5.8396   -3.8733    5.2461 H   0  0  0  0  0
   -5.1093   -5.3235    4.4256 H   0  0  0  0  0
   -3.7558   -3.9727    6.7359 H   0  0  0  0  0
   -3.5816   -3.3526    5.0564 H   0  0  0  0  0
   -1.8361   -4.8854    5.6347 H   0  0  0  0  0
   -2.9450   -6.0832    5.9698 H   0  0  0  0  0
   -2.7836   -5.5088    4.4139 H   0  0  0  0  0
   -9.7645   -7.6290    4.9872 H   0  0  0  0  0
   -8.7197   -9.0659    2.6445 H   0  0  0  0  0
  -10.1274  -10.8887    3.2666 H   0  0  0  0  0
  -11.0673   -9.7992    4.4194 H   0  0  0  0  0
   -9.2724  -11.5939    5.1810 H   0  0  0  0  0
   -9.5576   -9.9883    6.0220 H   0  0  0  0  0
   -7.0973  -12.3522    4.2926 H   0  0  0  0  0
   -7.5048  -11.3260    2.8955 H   0  0  0  0  0
   -5.8742  -11.2541    3.6075 H   0  0  0  0  0
  -10.4594   -6.4479    2.6399 H   0  0  0  0  0
  -13.0313   -7.2743    1.7851 H   0  0  0  0  0
  -10.3061   -6.9234   -0.0753 H   0  0  0  0  0
  -12.4240   -4.9876    2.6868 H   0  0  0  0  0
  -10.4803   -4.5626    1.2648 H   0  0  0  0  0
  -11.5262   -4.5459   -0.1764 H   0  0  0  0  0
  -11.7021   -3.2824    1.0661 H   0  0  0  0  0
  -13.9535   -5.0714    0.0705 H   0  0  0  0  0
  -14.6081   -5.4432    1.6843 H   0  0  0  0  0
  -14.0684   -3.7899    1.3016 H   0  0  0  0  0
  1  2  1  0  0  0
  2  3  1  0  0  0
  2  5  1  0  0  0
  3  4  2  0  0  0
  3 10  1  0  0  0
  5  6  1  0  0  0
  6  7  1  0  0  0
  7  8  1  0  0  0
  8  9  1  0  0  0
 10 11  1  0  0  0
 11 12  1  0  0  0
 11 14  1  0  0  0
 12 13  2  0  0  0
 12 18  1  0  0  0
 14 15  1  0  0  0
 15 16  2  0  0  0
 15 17  1  0  0  0
 18 19  1  0  0  0
 19 20  1  0  0  0
 19 22  1  0  0  0
 20 21  2  0  0  0
 20 26  1  0  0  0
 22 23  1  0  0  0
 22 24  1  0  0  0
 23 25  1  0  0  0
 26 27  1  0  0  0
 26 32  1  0  0  0
 27 28  1  0  0  0
 27 30  1  0  0  0
 28 29  2  0  0  0
 28 33  1  0  0  0
 30 31  1  0  0  0
 31 32  1  0  0  0
 33 34  1  0  0  0
 34 35  1  0  0  0
 34 37  1  0  0  0
 35 36  2  0  0  0
 35 39  1  0  0  0
 37 38  1  0  0  0
 39 40  1  0  0  0
 40 41  1  0  0  0
 40 43  1  0  0  0
 41 42  2  0  0  0
 41 47  1  0  0  0
 43 44  1  0  0  0
 44 45  1  0  0  0
 44 46  1  0  0  0
 47 48  1  0  0  0
 48 49  1  0  0  0
 48 51  1  0  0  0
 49 50  2  0  0  0
 49 55  1  0  0  0
 51 52  1  0  0  0
 52 53  1  0  0  0
 52 54  1  0  0  0
 55 56  1  0  0  0
 56 57  1  0  0  0
 56 59  1  0  0  0
 57 58  2  0  0  0
 57 66  1  0  0  0
 59 60  1  0  0  0
 60 61  1  0  0  0
 61 62  1  0  0  0
 62 63  1  0  0  0
 63 64  1  0  0  0
 63 65  2  0  0  0
 66 67  1  0  0  0
 67 68  1  0  0  0
 67 70  1  0  0  0
 68 69  2  0  0  0
 68 73  1  0  0  0
 70 71  1  0  0  0
 70 72  1  0  0  0
 73 74  1  0  0  0
 74 75  1  0  0  0
 74 77  1  0  0  0
 75 76  2  0  0  0
 75 82  1  0  0  0
 77 78  1  0  0  0
 78 79  1  0  0  0
 79 80  2  0  0  0
 79 81  1  0  0  0
 82 83  1  0  0  0
 83 84  1  0  0  0
 83 86  1  0  0  0
 84 85  2  0  0  0
 84 87  1  0  0  0
 87 88  1  0  0  0
 88 89  1  0  0  0
 88 91  1  0  0  0
 89 90  2  0  0  0
 89 97  1  0  0  0
 91 92  1  0  0  0
 92 93  4  0  0  0
 92 94  4  0  0  0
 93 95  4  0  0  0
 94 96  4  0  0  0
 95 96  4  0  0  0
 97 98  1  0  0  0
 98 99  1  0  0  0
 98101  1  0  0  0
 99100  2  0  0  0
 99105  1  0  0  0
101102  1  0  0  0
101103  1  0  0  0
102104  1  0  0  0
105106  1  0  0  0
106107  1  0  0  0
106109  1  0  0  0
107108  2  0  0  0
107116  1  0  0  0
109110  1  0  0  0
110111  1  0  0  0
111112  1  0  0  0
112113  1  0  0  0
113114  1  0  0  0
113115  2  0  0  0
116117  1  0  0  0
117118  1  0  0  0
117120  1  0  0  0
118119  2  0  0  0
118125  1  0  0  0
120121  1  0  0  0
121122  1  0  0  0
122123  1  0  0  0
123124  1  0  0  0
125126  1  0  0  0
126127  1  0  0  0
126129  1  0  0  0
127128  2  0  0  0
127134  1  0  0  0
129130  1  0  0  0
130131  1  0  0  0
131132  1  0  0  0
132133  1  0  0  0
134135  1  0  0  0
135136  1  0  0  0
135138  1  0  0  0
136137  2  0  0  0
136142  1  0  0  0
138139  1  0  0  0
139140  1  0  0  0
140141  1  0  0  0
142143  1  0  0  0
143144  1  0  0  0
143146  1  0  0  0
144145  1  0  0  0
146147  1  0  0  0
146148  1  0  0  0
144149  2  0  0  0
  1150  1  0  0  0
  1151  1  0  0  0
  1152  1  0  0  0
  2153  1  0  0  0
  5154  1  0  0  0
  5155  1  0  0  0
  6156  1  0  0  0
  6157  1  0  0  0
  7158  1  0  0  0
  7159  1  0  0  0
  8160  1  0  0  0
  8161  1  0  0  0
  9162  1  0  0  0
  9163  1  0  0  0
  9164  1  0  0  0
 10165  1  0  0  0
 11166  1  0  0  0
 14167  1  0  0  0
 14168  1  0  0  0
 17169  1  0  0  0
 17170  1  0  0  0
 18171  1  0  0  0
 19172  1  0  0  0
 22173  1  0  0  0
 23174  1  0  0  0
 23175  1  0  0  0
 24176  1  0  0  0
 24177  1  0  0  0
 24178  1  0  0  0
 25179  1  0  0  0
 25180  1  0  0  0
 25181  1  0  0  0
 27182  1  0  0  0
 30183  1  0  0  0
 30184  1  0  0  0
 31185  1  0  0  0
 31186  1  0  0  0
 32187  1  0  0  0
 32188  1  0  0  0
 33189  1  0  0  0
 34190  1  0  0  0
 37191  1  0  0  0
 37192  1  0  0  0
 38193  1  0  0  0
 39194  1  0  0  0
 40195  1  0  0  0
 43196  1  0  0  0
 43197  1  0  0  0
 44198  1  0  0  0
 45199  1  0  0  0
 45200  1  0  0  0
 45201  1  0  0  0
 46202  1  0  0  0
 46203  1  0  0  0
 46204  1  0  0  0
 47205  1  0  0  0
 48206  1  0  0  0
 51207  1  0  0  0
 51208  1  0  0  0
 52209  1  0  0  0
 53210  1  0  0  0
 53211  1  0  0  0
 53212  1  0  0  0
 54213  1  0  0  0
 54214  1  0  0  0
 54215  1  0  0  0
 55216  1  0  0  0
 56217  1  0  0  0
 59218  1  0  0  0
 59219  1  0  0  0
 60220  1  0  0  0
 60221  1  0  0  0
 61222  1  0  0  0
 61223  1  0  0  0
 62224  1  0  0  0
 64225  1  0  0  0
 64226  1  0  0  0
 65227  1  0  0  0
 66228  1  0  0  0
 67229  1  0  0  0
 70230  1  0  0  0
 71231  1  0  0  0
 71232  1  0  0  0
 71233  1  0  0  0
 72234  1  0  0  0
 72235  1  0  0  0
 72236  1  0  0  0
 73237  1  0  0  0
 74238  1  0  0  0
 77239  1  0  0  0
 77240  1  0  0  0
 78241  1  0  0  0
 78242  1  0  0  0
 81243  1  0  0  0
 81244  1  0  0  0
 82245  1  0  0  0
 83246  1  0  0  0
 86247  1  0  0  0
 86248  1  0  0  0
 86249  1  0  0  0
 87250  1  0  0  0
 88251  1  0  0  0
 91252  1  0  0  0
 91253  1  0  0  0
 94254  1  0  0  0
 95255  1  0  0  0
 97256  1  0  0  0
 98257  1  0  0  0
101258  1  0  0  0
102259  1  0  0  0
102260  1  0  0  0
103261  1  0  0  0
103262  1  0  0  0
103263  1  0  0  0
104264  1  0  0  0
104265  1  0  0  0
104266  1  0  0  0
105267  1  0  0  0
106268  1  0  0  0
109269  1  0  0  0
109270  1  0  0  0
110271  1  0  0  0
110272  1  0  0  0
111273  1  0  0  0
111274  1  0  0  0
112275  1  0  0  0
114276  1  0  0  0
114277  1  0  0  0
115278  1  0  0  0
116279  1  0  0  0
117280  1  0  0  0
120281  1  0  0  0
120282  1  0  0  0
121283  1  0  0  0
121284  1  0  0  0
122285  1  0  0  0
122286  1  0  0  0
123287  1  0  0  0
123288  1  0  0  0
124289  1  0  0  0
124290  1  0  0  0
124291  1  0  0  0
125292  1  0  0  0
126293  1  0  0  0
129294  1  0  0  0
129295  1  0  0  0
130296  1  0  0  0
130297  1  0  0  0
131298  1  0  0  0
131299  1  0  0  0
132300  1  0  0  0
132301  1  0  0  0
133302  1  0  0  0
133303  1  0  0  0
133304  1  0  0  0
134305  1  0  0  0
135306  1  0  0  0
138307  1  0  0  0
138308  1  0  0  0
139309  1  0  0  0
139310  1  0  0  0
141311  1  0  0  0
141312  1  0  0  0
141313  1  0  0  0
142314  1  0  0  0
143315  1  0  0  0
145316  1  0  0  0
146317  1  0  0  0
147318  1  0  0  0
147319  1  0  0  0
147320  1  0  0  0
148321  1  0  0  0
148322  1  0  0  0
148323  1  0  0  0
M  END
$$$$
