4z8m_ligand
  -I-interpret- 

134135  0  0  0  0  0  0  0  0999 V2000
   20.6330   99.8590   13.1960 N   0  3  0  0  0
   20.0490   98.9150   14.1500 C   0  0  0  0  0
   20.8610   98.8270   15.4630 C   0  0  0  0  0
   22.0200   98.3850   15.4650 O   0  0  0  0  0
   19.9180   97.5220   13.5080 C   0  0  0  0  0
   20.2470   99.2580   16.5690 N   0  0  0  0  0
   20.8180   99.0890   17.9020 C   0  0  0  0  0
   19.9190   98.2580   18.8190 C   0  0  0  0  0
   18.7210   98.0970   18.5420 O   0  0  0  0  0
   20.4820   97.7250   19.9210 N   0  0  0  0  0
   19.7460   96.9010   20.8980 C   0  0  0  0  0
   18.7970   97.7000   21.8110 C   0  0  0  0  0
   19.0060   98.8890   22.0070 O   0  0  0  0  0
   20.8690   96.2550   21.7260 C   0  0  0  0  0
   21.9660   97.1940   21.6390 C   0  0  0  0  0
   21.9010   97.8410   20.2770 C   0  0  0  0  0
   17.7700   97.0490   22.3500 N   0  0  0  0  0
   16.8580   97.6800   23.2960 C   0  0  0  0  0
   16.2490   96.6450   24.2480 C   0  0  0  0  0
   16.1030   95.4660   23.9030 O   0  0  0  0  0
   15.7550   98.4180   22.5550 C   0  0  0  0  0
   15.9180   97.0770   25.4590 N   0  0  0  0  0
   15.1650   96.2320   26.3710 C   0  0  0  0  0
   13.8040   96.0190   25.7790 C   0  0  0  0  0
   13.2910   96.8830   25.0860 O   0  0  0  0  0
   15.0290   96.8580   27.7460 C   0  0  0  0  0
   16.0810   96.4340   28.7310 C   0  0  0  0  0
   15.8780   97.0900   30.0950 C   0  0  0  0  0
   15.0710   98.0540   30.1730 O   0  0  0  0  0
   16.5210   96.6500   31.0840 O   0  0  0  0  0
   13.1990   94.8840   26.0800 N   0  0  0  0  0
   11.9810   94.4970   25.4150 C   0  0  0  0  0
   11.2660   93.4380   26.2220 C   0  0  0  0  0
   11.7990   92.3610   26.4170 O   0  0  0  0  0
   12.3130   93.9850   24.0230 C   0  0  0  0  0
   11.1000   93.8260   23.1550 C   0  0  0  0  0
   10.3790   92.8210   23.2350 O   0  0  0  0  0
   10.8830   94.7990   22.2810 N   0  0  0  0  0
   10.0610   93.7530   26.6910 N   0  0  0  0  0
    9.3250   92.8780   27.5910 C   0  0  0  0  0
    8.2880   92.0570   26.8130 C   0  0  0  0  0
    7.8030   92.4920   25.7730 O   0  0  0  0  0
    8.6780   93.7040   28.7260 C   0  0  0  0  0
    7.7690   92.8660   29.6320 C   0  0  0  0  0
    7.4680   93.5160   30.9680 C   0  0  0  0  0
    8.1250   94.5280   31.2890 O   0  0  0  0  0
    6.5970   92.9890   31.7100 O   0  0  0  0  0
    7.9850   90.8570   27.3060 N   0  0  0  0  0
    7.0500   89.9250   26.6660 C   0  0  0  0  0
    6.1430   89.2310   27.7160 C   0  0  0  0  0
    6.6550   88.6310   28.6700 O   0  0  0  0  0
    7.8550   88.8970   25.8690 C   0  0  0  0  0
    7.0590   87.7660   25.2730 C   0  0  0  0  0
    7.0870   86.4930   25.8510 C   0  0  0  0  0
    6.2880   87.9530   24.1310 C   0  0  0  0  0
    6.3590   85.4280   25.3040 C   0  0  0  0  0
    5.5510   86.8980   23.5730 C   0  0  0  0  0
    5.5890   85.6320   24.1620 C   0  0  0  0  0
    4.8630   84.5780   23.6180 O   0  0  0  0  0
    4.8120   89.2680   27.5600 N   0  0  0  0  0
    4.1100   89.7360   26.3650 C   0  0  0  0  0
    3.7790   91.2250   26.4710 C   0  0  0  0  0
    3.7980   91.9490   25.4720 O   0  0  0  0  0
    2.8150   88.9180   26.1490 C   0  0  0  0  0
    2.9590   87.3920   26.2750 C   0  0  0  0  0
    1.7410   86.7560   26.9610 C   0  0  0  0  0
    1.4290   85.3440   26.4290 C   0  0  0  0  0
    1.2710   85.2510   24.9360 N   0  3  0  0  0
    3.4870   91.7310   27.5580 O   0  0  0  0  0
   20.7140  100.7767   13.6338 H   0  0  0  0  0
   21.5578   99.5309   12.9177 H   0  0  0  0  0
   20.0327   99.9249   12.3740 H   0  0  0  0  0
   19.0586   99.2890   14.4094 H   0  0  0  0  0
   20.9109   97.1302   13.2873 H   0  0  0  0  0
   19.4068   96.8516   14.1988 H   0  0  0  0  0
   19.3439   97.6013   12.5849 H   0  0  0  0  0
   19.3439   99.7233   16.4783 H   0  0  0  0  0
   20.9337  100.0770   18.3475 H   0  0  0  0  0
   21.7692   98.5670   17.7982 H   0  0  0  0  0
   19.0866   96.1944   20.3940 H   0  0  0  0  0
   21.1421   95.2701   21.3474 H   0  0  0  0  0
   20.5654   96.0745   22.7572 H   0  0  0  0  0
   22.9186   96.6814   21.7729 H   0  0  0  0  0
   21.8869   97.9469   22.4232 H   0  0  0  0  0
   22.2508   98.8733   20.2837 H   0  0  0  0  0
   22.5582   97.3621   19.5511 H   0  0  0  0  0
   17.6152   96.0743   22.0924 H   0  0  0  0  0
   17.4293   98.3952   23.8878 H   0  0  0  0  0
   16.1966   99.1859   21.9199 H   0  0  0  0  0
   15.1973   97.7121   21.9395 H   0  0  0  0  0
   15.0830   98.8833   23.2761 H   0  0  0  0  0
   16.1955   98.0134   25.7530 H   0  0  0  0  0
   15.6957   95.2886   26.4992 H   0  0  0  0  0
   14.0679   96.5378   28.1484 H   0  0  0  0  0
   15.1290   97.9357   27.6169 H   0  0  0  0  0
   17.0540   96.7388   28.3456 H   0  0  0  0  0
   16.0162   95.3533   28.8575 H   0  0  0  0  0
   14.6928   98.2241   29.3072 H   0  0  0  0  0
   13.5994   94.2737   26.7925 H   0  0  0  0  0
   11.3192   95.3585   25.3257 H   0  0  0  0  0
   12.7763   93.0042   24.1307 H   0  0  0  0  0
   12.9693   94.7141   23.5478 H   0  0  0  0  0
   10.0945   94.7393   21.6367 H   0  0  0  0  0
   11.5045   95.6073   22.2529 H   0  0  0  0  0
    9.6390   94.6380   26.4100 H   0  0  0  0  0
   10.0167   92.1721   28.0507 H   0  0  0  0  0
    8.0651   94.4788   28.2654 H   0  0  0  0  0
    9.4810   94.1076   29.3427 H   0  0  0  0  0
    8.2883   91.9296   29.8362 H   0  0  0  0  0
    6.8198   92.7391   29.1115 H   0  0  0  0  0
    6.2192   92.2262   31.2661 H   0  0  0  0  0
    8.4285   90.5697   28.1785 H   0  0  0  0  0
    6.3921   90.4751   25.9932 H   0  0  0  0  0
    8.5581   88.4451   26.5687 H   0  0  0  0  0
    8.3016   89.4350   25.0328 H   0  0  0  0  0
    7.6874   86.3258   26.7453 H   0  0  0  0  0
    6.2558   88.9361   23.6614 H   0  0  0  0  0
    6.3953   84.4436   25.7707 H   0  0  0  0  0
    4.9489   87.0660   22.6801 H   0  0  0  0  0
    4.3907   84.8840   22.8402 H   0  0  0  0  0
    4.2409   88.9425   28.3400 H   0  0  0  0  0
    4.7684   89.5925   25.5083 H   0  0  0  0  0
    2.4942   89.1136   25.1258 H   0  0  0  0  0
    2.1212   89.2275   26.9307 H   0  0  0  0  0
    3.8407   87.1809   26.8801 H   0  0  0  0  0
    3.0438   86.9730   25.2723 H   0  0  0  0  0
    0.8759   87.3880   26.7603 H   0  0  0  0  0
    1.9623   86.6715   28.0249 H   0  0  0  0  0
    0.4765   85.0450   26.8666 H   0  0  0  0  0
    2.2753   84.7115   26.6970 H   0  0  0  0  0
    1.0675   84.2858   24.6763 H   0  0  0  0  0
    0.5036   85.8534   24.6383 H   0  0  0  0  0
    2.1351   85.5509   24.4845 H   0  0  0  0  0
    3.5117   91.0565   28.2406 H   0  0  0  0  0
  1  2  1  0  0  0
  2  3  1  0  0  0
  2  5  1  0  0  0
  3  4  2  0  0  0
  3  6  1  0  0  0
  6  7  1  0  0  0
  7  8  1  0  0  0
  8  9  2  0  0  0
  8 10  1  0  0  0
 10 11  1  0  0  0
 10 16  1  0  0  0
 11 12  1  0  0  0
 11 14  1  0  0  0
 12 13  2  0  0  0
 12 17  1  0  0  0
 14 15  1  0  0  0
 15 16  1  0  0  0
 17 18  1  0  0  0
 18 19  1  0  0  0
 18 21  1  0  0  0
 19 20  2  0  0  0
 19 22  1  0  0  0
 22 23  1  0  0  0
 23 24  1  0  0  0
 23 26  1  0  0  0
 24 25  2  0  0  0
 24 31  1  0  0  0
 26 27  1  0  0  0
 27 28  1  0  0  0
 28 29  1  0  0  0
 28 30  2  0  0  0
 31 32  1  0  0  0
 32 33  1  0  0  0
 32 35  1  0  0  0
 33 34  2  0  0  0
 33 39  1  0  0  0
 35 36  1  0  0  0
 36 37  2  0  0  0
 36 38  1  0  0  0
 39 40  1  0  0  0
 40 41  1  0  0  0
 40 43  1  0  0  0
 41 42  2  0  0  0
 41 48  1  0  0  0
 43 44  1  0  0  0
 44 45  1  0  0  0
 45 46  2  0  0  0
 45 47  1  0  0  0
 48 49  1  0  0  0
 49 50  1  0  0  0
 49 52  1  0  0  0
 50 51  2  0  0  0
 50 60  1  0  0  0
 52 53  1  0  0  0
 53 54  4  0  0  0
 53 55  4  0  0  0
 54 56  4  0  0  0
 55 57  4  0  0  0
 56 58  4  0  0  0
 57 58  4  0  0  0
 58 59  1  0  0  0
 60 61  1  0  0  0
 61 62  1  0  0  0
 61 64  1  0  0  0
 62 63  2  0  0  0
 62 69  1  0  0  0
 64 65  1  0  0  0
 65 66  1  0  0  0
 66 67  1  0  0  0
 67 68  1  0  0  0
  1 70  1  0  0  0
  1 71  1  0  0  0
  1 72  1  0  0  0
  2 73  1  0  0  0
  5 74  1  0  0  0
  5 75  1  0  0  0
  5 76  1  0  0  0
  6 77  1  0  0  0
  7 78  1  0  0  0
  7 79  1  0  0  0
 11 80  1  0  0  0
 14 81  1  0  0  0
 14 82  1  0  0  0
 15 83  1  0  0  0
 15 84  1  0  0  0
 16 85  1  0  0  0
 16 86  1  0  0  0
 17 87  1  0  0  0
 18 88  1  0  0  0
 21 89  1  0  0  0
 21 90  1  0  0  0
 21 91  1  0  0  0
 22 92  1  0  0  0
 23 93  1  0  0  0
 26 94  1  0  0  0
 26 95  1  0  0  0
 27 96  1  0  0  0
 27 97  1  0  0  0
 29 98  1  0  0  0
 31 99  1  0  0  0
 32100  1  0  0  0
 35101  1  0  0  0
 35102  1  0  0  0
 38103  1  0  0  0
 38104  1  0  0  0
 39105  1  0  0  0
 40106  1  0  0  0
 43107  1  0  0  0
 43108  1  0  0  0
 44109  1  0  0  0
 44110  1  0  0  0
 47111  1  0  0  0
 48112  1  0  0  0
 49113  1  0  0  0
 52114  1  0  0  0
 52115  1  0  0  0
 54116  1  0  0  0
 55117  1  0  0  0
 56118  1  0  0  0
 57119  1  0  0  0
 59120  1  0  0  0
 60121  1  0  0  0
 61122  1  0  0  0
 64123  1  0  0  0
 64124  1  0  0  0
 65125  1  0  0  0
 65126  1  0  0  0
 66127  1  0  0  0
 66128  1  0  0  0
 67129  1  0  0  0
 67130  1  0  0  0
 68131  1  0  0  0
 68132  1  0  0  0
 68133  1  0  0  0
 69134  1  0  0  0
M  END
$$$$
