### 
### Created by X-TOOL on Mon Sep 10 21:13:24 2018
### 

@<TRIPOS>MOLECULE
4z8m_ligand
  131   132     1     0     0
SMALL
GAST_HUCK


@<TRIPOS>ATOM
      1 N          20.6330   99.8590   13.1960 N.4       1 HIS         0.2377
      2 CA         20.0490   98.9150   14.1500 C.3       1 HIS         0.0621
      3 C          20.8610   98.8270   15.4630 C.2       1 HIS         0.2262
      4 O          22.0200   98.3850   15.4650 O.2       1 HIS        -0.3907
      5 CB         19.9180   97.5220   13.5080 C.3       1 HIS        -0.0040
      6 N          20.2470   99.2580   16.5690 N.am      1 GLY        -0.2637
      7 CA         20.8180   99.0890   17.9020 C.3       1 GLY         0.1204
      8 C          19.9190   98.2580   18.8190 C.2       1 GLY         0.2032
      9 O          18.7210   98.0970   18.5420 O.2       1 GLY        -0.3945
     10 N          20.4820   97.7250   19.9210 N.am      1 PRO        -0.2501
     11 CA         19.7460   96.9010   20.8980 C.3       1 PRO         0.1338
     12 C          18.7970   97.7000   21.8110 C.2       1 PRO         0.2041
     13 O          19.0060   98.8890   22.0070 O.2       1 PRO        -0.3944
     14 CB         20.8690   96.2550   21.7260 C.3       1 PRO        -0.0104
     15 CG         21.9660   97.1940   21.6390 C.3       1 PRO        -0.0281
     16 CD         21.9010   97.8410   20.2770 C.3       1 PRO         0.0369
     17 N          17.7700   97.0490   22.3500 N.am      1 GLU        -0.2640
     18 CA         16.8580   97.6800   23.2960 C.3       1 GLU         0.1282
     19 C          16.2490   96.6450   24.2480 C.2       1 GLU         0.2036
     20 O          16.1030   95.4660   23.9030 O.2       1 GLU        -0.3944
     21 CB         15.7550   98.4180   22.5550 C.3       1 GLU        -0.0244
     22 N          15.9180   97.0770   25.4590 N.am      1 GLU        -0.2636
     23 CA         15.1650   96.2320   26.3710 C.3       1 GLU         0.1325
     24 C          13.8040   96.0190   25.7790 C.2       1 GLU         0.2041
     25 O          13.2910   96.8830   25.0860 O.2       1 GLU        -0.3944
     26 CB         15.0290   96.8580   27.7460 C.3       1 GLU        -0.0008
     27 CG         16.0810   96.4340   28.7310 C.3       1 GLU         0.0044
     28 CD         15.8780   97.0900   30.0950 C.2       1 GLU         0.0350
     29 OE1        15.0710   98.0540   30.1730 O.co2     1 GLU        -0.5690
     30 OE2        16.5210   96.6500   31.0840 O.co2     1 GLU        -0.5690
     31 N          13.1990   94.8840   26.0800 N.am      1 ASN        -0.2616
     32 CA         11.9810   94.4970   25.4150 C.3       1 ASN         0.1476
     33 C          11.2660   93.4380   26.2220 C.2       1 ASN         0.2063
     34 O          11.7990   92.3610   26.4170 O.2       1 ASN        -0.3942
     35 CB         12.3130   93.9850   24.0230 C.3       1 ASN         0.0773
     36 CG         11.1000   93.8260   23.1550 C.2       1 ASN         0.1780
     37 OD1        10.3790   92.8210   23.2350 O.2       1 ASN        -0.3970
     38 ND2        10.8830   94.7990   22.2810 N.am      1 ASN        -0.3007
     39 N          10.0610   93.7530   26.6910 N.am      1 GLU        -0.2635
     40 CA          9.3250   92.8780   27.5910 C.3       1 GLU         0.1325
     41 C           8.2880   92.0570   26.8130 C.2       1 GLU         0.2041
     42 O           7.8030   92.4920   25.7730 O.2       1 GLU        -0.3944
     43 CB          8.6780   93.7040   28.7260 C.3       1 GLU        -0.0008
     44 CG          7.7690   92.8660   29.6320 C.3       1 GLU         0.0044
     45 CD          7.4680   93.5160   30.9680 C.2       1 GLU         0.0350
     46 OE1         8.1250   94.5280   31.2890 O.co2     1 GLU        -0.5690
     47 OE2         6.5970   92.9890   31.7100 O.co2     1 GLU        -0.5690
     48 N           7.9850   90.8570   27.3060 N.am      1 TYR        -0.2621
     49 CA          7.0500   89.9250   26.6660 C.3       1 TYR         0.1390
     50 C           6.1430   89.2310   27.7160 C.2       1 TYR         0.2052
     51 O           6.6550   88.6310   28.6700 O.2       1 TYR        -0.3943
     52 CB          7.8550   88.8970   25.8690 C.3       1 TYR         0.0163
     53 CG          7.0590   87.7660   25.2730 C.ar      1 TYR        -0.0493
     54 CD1         7.0870   86.4930   25.8510 C.ar      1 TYR        -0.0685
     55 CD2         6.2880   87.9530   24.1310 C.ar      1 TYR        -0.0685
     56 CE1         6.3590   85.4280   25.3040 C.ar      1 TYR        -0.0398
     57 CE2         5.5510   86.8980   23.5730 C.ar      1 TYR        -0.0398
     58 CZ          5.5890   85.6320   24.1620 C.ar      1 TYR         0.0805
     59 OH          4.8630   84.5780   23.6180 O.3       1 TYR        -0.3376
     60 N           4.8120   89.2680   27.5600 N.am      1 LYS        -0.2694
     61 CA          4.1100   89.7360   26.3650 C.3       1 LYS         0.0944
     62 C           3.7790   91.2250   26.4710 C.2       1 LYS         0.0601
     63 O           3.7980   91.9490   25.4720 O.co2     1 LYS        -0.5666
     64 CB          2.8150   88.9180   26.1490 C.3       1 LYS        -0.0177
     65 CG          2.9590   87.3920   26.2750 C.3       1 LYS        -0.0446
     66 CD          1.7410   86.7560   26.9610 C.3       1 LYS        -0.0125
     67 CE          1.4290   85.3440   26.4290 C.3       1 LYS        -0.0354
     68 NZ          1.2710   85.2510   24.9360 N.4       1 LYS         0.2185
     69 OXT         3.4870   91.7310   27.5580 O.co2     1 LYS        -0.5666
     70 H1         20.0713   99.8819   12.3593 H         1 HIS         0.2015
     71 H2         21.5693   99.5664   12.9641 H         1 HIS         0.2015
     72 H3         20.6605  100.7788   13.6074 H         1 HIS         0.2015
     73 H4         19.0401   99.2731   14.4025 H         1 HIS         0.1095
     74 H5         19.4783   96.8232   14.2349 H         1 HIS         0.0310
     75 H6         20.9130   97.1613   13.2083 H         1 HIS         0.0310
     76 H7         19.2690   97.5860   12.6222 H         1 HIS         0.0310
     77 H8         19.3616   99.7142   16.4801 H         1 GLY         0.1882
     78 H9         20.9621  100.0817   18.3533 H         1 GLY         0.0763
     79 H10        21.7907   98.5840   17.8085 H         1 GLY         0.0763
     80 H11        19.1596   96.1327   20.3728 H         1 PRO         0.0802
     81 H12        21.1553   95.2816   21.3011 H         1 PRO         0.0313
     82 H13        20.5539   96.1204   22.7713 H         1 PRO         0.0313
     83 H14        22.9233   96.6656   21.7586 H         1 PRO         0.0287
     84 H15        21.8689   97.9590   22.4234 H         1 PRO         0.0287
     85 H16        22.2111   98.8953   20.3255 H         1 PRO         0.0524
     86 H17        22.5345   97.3053   19.5547 H         1 PRO         0.0524
     87 H18        17.6182   96.0934   22.0975 H         1 GLU         0.1883
     88 H19        17.4270   98.4083   23.8924 H         1 GLU         0.0797
     89 H20        15.0761   98.8880   23.2817 H         1 GLU         0.0277
     90 H21        15.1913   97.7067   21.9335 H         1 GLU         0.0277
     91 H22        16.1993   99.1934   21.9136 H         1 GLU         0.0277
     92 H23        16.1901   97.9951   25.7473 H         1 GLU         0.1883
     93 H24        15.6787   95.2646   26.4724 H         1 GLU         0.0801
     94 H25        14.0455   96.5813   28.1536 H         1 GLU         0.0330
     95 H26        15.0849   97.9507   27.6330 H         1 GLU         0.0330
     96 H27        17.0692   96.7202   28.3418 H         1 GLU         0.0433
     97 H28        16.0366   95.3415   28.8512 H         1 GLU         0.0433
     98 H29        13.5915   94.2856   26.7785 H         1 ASN         0.1885
     99 H30        11.3254   95.3757   25.3247 H         1 ASN         0.0826
    100 H31        12.8077   93.0071   24.1174 H         1 ASN         0.0551
    101 H32        12.9985   94.6977   23.5411 H         1 ASN         0.0551
    102 H33        10.0917   94.7560   21.6711 H         1 ASN         0.1814
    103 H34        11.5107   95.5759   22.2316 H         1 ASN         0.1814
    104 H35         9.6472   94.6207   26.4155 H         1 GLU         0.1883
    105 H36        10.0378   92.1756   28.0476 H         1 GLU         0.0801
    106 H37         8.0786   94.5091   28.2760 H         1 GLU         0.0330
    107 H38         9.4780   94.1422   29.3408 H         1 GLU         0.0330
    108 H39         8.2615   91.9005   29.8195 H         1 GLU         0.0433
    109 H40         6.8174   92.6964   29.1069 H         1 GLU         0.0433
    110 H41         8.4198   90.5754   28.1614 H         1 TYR         0.1885
    111 H42         6.4077   90.4876   25.9725 H         1 TYR         0.0821
    112 H43         8.6088   88.4622   26.5419 H         1 TYR         0.0453
    113 H44         8.3590   89.4259   25.0467 H         1 TYR         0.0453
    114 H45         7.6841   86.3267   26.7403 H         1 TYR         0.0530
    115 H46         6.2560   88.9307   23.6640 H         1 TYR         0.0530
    116 H47         6.3951   84.4491   25.7681 H         1 TYR         0.0525
    117 H48         4.9522   87.0651   22.6850 H         1 TYR         0.0525
    118 H49         5.0023   83.7964   24.1398 H         1 TYR         0.2458
    119 H50         4.2521   88.9489   28.3247 H         1 LYS         0.1875
    120 H51         4.7674   89.5871   25.4958 H         1 LYS         0.0726
    121 H52         2.4404   89.1394   25.1388 H         1 LYS         0.0305
    122 H53         2.0776   89.2502   26.8945 H         1 LYS         0.0305
    123 H54         3.8582   87.1674   26.8675 H         1 LYS         0.0269
    124 H55         3.0657   86.9607   25.2688 H         1 LYS         0.0269
    125 H56         0.8648   87.3984   26.7889 H         1 LYS         0.0317
    126 H57         1.9403   86.6891   28.0407 H         1 LYS         0.0317
    127 H58         0.4922   85.0029   26.8937 H         1 LYS         0.0813
    128 H59         2.2508   84.6767   26.7279 H         1 LYS         0.0813
    129 H60         1.0699   84.2975   24.6782 H         1 LYS         0.1994
    130 H61         2.1244   85.5471   24.4887 H         1 LYS         0.1994
    131 H62         0.5128   85.8460   24.6406 H         1 LYS         0.1994
@<TRIPOS>BOND
     1    1    2 1  
     2    2    3 1  
     3    2    5 1  
     4    3    4 2  
     5    3    6 am 
     6    6    7 1  
     7    7    8 1  
     8    8    9 2  
     9    8   10 am 
    10   10   11 1  
    11   10   16 1  
    12   11   12 1  
    13   11   14 1  
    14   12   13 2  
    15   12   17 am 
    16   14   15 1  
    17   15   16 1  
    18   17   18 1  
    19   18   19 1  
    20   18   21 1  
    21   19   20 2  
    22   19   22 am 
    23   22   23 1  
    24   23   24 1  
    25   23   26 1  
    26   24   25 2  
    27   24   31 am 
    28   26   27 1  
    29   27   28 1  
    30   28   29 ar 
    31   28   30 ar 
    32   31   32 1  
    33   32   33 1  
    34   32   35 1  
    35   33   34 2  
    36   33   39 am 
    37   35   36 1  
    38   36   37 2  
    39   36   38 am 
    40   39   40 1  
    41   40   41 1  
    42   40   43 1  
    43   41   42 2  
    44   41   48 am 
    45   43   44 1  
    46   44   45 1  
    47   45   46 ar 
    48   45   47 ar 
    49   48   49 1  
    50   49   50 1  
    51   49   52 1  
    52   50   51 2  
    53   50   60 am 
    54   52   53 1  
    55   53   54 ar 
    56   53   55 ar 
    57   54   56 ar 
    58   55   57 ar 
    59   56   58 ar 
    60   57   58 ar 
    61   58   59 1  
    62   60   61 1  
    63   61   62 1  
    64   61   64 1  
    65   62   63 ar 
    66   62   69 ar 
    67   64   65 1  
    68   65   66 1  
    69   66   67 1  
    70   67   68 1  
    71    1   70 1  
    72    1   71 1  
    73    1   72 1  
    74    2   73 1  
    75    5   74 1  
    76    5   75 1  
    77    5   76 1  
    78    6   77 1  
    79    7   78 1  
    80    7   79 1  
    81   11   80 1  
    82   14   81 1  
    83   14   82 1  
    84   15   83 1  
    85   15   84 1  
    86   16   85 1  
    87   16   86 1  
    88   17   87 1  
    89   18   88 1  
    90   21   89 1  
    91   21   90 1  
    92   21   91 1  
    93   22   92 1  
    94   23   93 1  
    95   26   94 1  
    96   26   95 1  
    97   27   96 1  
    98   27   97 1  
    99   31   98 1  
   100   32   99 1  
   101   35  100 1  
   102   35  101 1  
   103   38  102 1  
   104   38  103 1  
   105   39  104 1  
   106   40  105 1  
   107   43  106 1  
   108   43  107 1  
   109   44  108 1  
   110   44  109 1  
   111   48  110 1  
   112   49  111 1  
   113   52  112 1  
   114   52  113 1  
   115   54  114 1  
   116   55  115 1  
   117   56  116 1  
   118   57  117 1  
   119   59  118 1  
   120   60  119 1  
   121   61  120 1  
   122   64  121 1  
   123   64  122 1  
   124   65  123 1  
   125   65  124 1  
   126   66  125 1  
   127   66  126 1  
   128   67  127 1  
   129   67  128 1  
   130   68  129 1  
   131   68  130 1  
   132   68  131 1  
@<TRIPOS>SUBSTRUCTURE
     1 HIS         1

