3as0_ligand
  -I-interpret- 

 40 45  0  0  0  0  0  0  0  0999 V2000
   -4.5200    7.9810   20.4770 N   0  0  0  0  0
    1.5410    6.0380   19.0800 C   0  0  0  0  0
    0.2520    6.5670   18.6160 O   0  0  0  0  0
   -0.0500    5.3230   20.4650 C   0  0  0  0  0
    1.1930    4.9510   19.9980 O   0  0  0  0  0
   -0.6050    6.3020   19.6290 C   0  0  0  0  0
   -9.6260    8.7200   23.5900 O   0  0  0  0  0
   -0.7880    4.8980   21.5850 C   0  0  0  0  0
   -8.5680    9.4980   21.7370 O   0  0  0  0  0
   -2.0550    5.4330   21.8680 C   0  0  0  0  0
   -2.6140    6.4140   21.0270 C   0  0  0  0  0
   -1.8620    6.8310   19.9140 C   0  0  0  0  0
   -2.7360    4.9810   22.9880 C   0  0  0  0  0
   -3.9930    5.5200   23.2770 C   0  0  0  0  0
   -3.8930    6.9680   21.3080 C   0  0  0  0  0
   -5.8080    8.4910   20.8390 C   0  0  0  0  0
   -6.4750    8.0210   21.9900 C   0  0  0  0  0
   -5.8700    7.0270   22.8060 C   0  0  0  0  0
   -4.5890    6.5070   22.4590 C   0  0  0  0  0
   -6.5490    6.5620   23.9550 C   0  0  0  0  0
   -7.8090    7.0640   24.2980 C   0  0  0  0  0
   -8.4160    8.0460   23.4890 C   0  0  0  0  0
   -7.7540    8.5330   22.3310 C   0  0  0  0  0
   -9.4160    9.9760   22.8390 C   0  0  0  0  0
   -3.8740    8.5450   19.2430 C   0  0  0  0  0
    2.1411    6.8051   19.5695 H   0  0  0  0  0
    2.1566    5.6872   18.2517 H   0  0  0  0  0
   -0.3683    4.1392   22.2454 H   0  0  0  0  0
   -2.2760    7.5926   19.2531 H   0  0  0  0  0
   -2.2986    4.2183   23.6322 H   0  0  0  0  0
   -4.5292    5.1691   24.1587 H   0  0  0  0  0
   -6.4545    8.1883   20.0153 H   0  0  0  0  0
   -5.6267    9.5451   21.0491 H   0  0  0  0  0
   -6.0845    5.8016   24.5827 H   0  0  0  0  0
   -8.3198    6.6969   25.1882 H   0  0  0  0  0
   -8.9677   10.7756   23.4288 H   0  0  0  0  0
  -10.3381   10.4568   22.5125 H   0  0  0  0  0
   -2.9291    9.0168   19.5124 H   0  0  0  0  0
   -3.6899    7.7406   18.5308 H   0  0  0  0  0
   -4.5361    9.2852   18.7938 H   0  0  0  0  0
  1 15  1  0  0  0
 16  1  1  0  0  0
  1 25  1  0  0  0
  3  2  1  0  0  0
  5  2  1  0  0  0
  6  3  1  0  0  0
  4  5  1  0  0  0
  6  4  4  0  0  0
  8  4  4  0  0  0
 12  6  4  0  0  0
  7 22  1  0  0  0
 24  7  1  0  0  0
 10  8  4  0  0  0
 23  9  1  0  0  0
  9 24  1  0  0  0
 11 10  4  0  0  0
 10 13  4  0  0  0
 11 12  4  0  0  0
 15 11  4  0  0  0
 14 13  4  0  0  0
 19 14  4  0  0  0
 15 19  4  0  0  0
 17 16  1  0  0  0
 17 18  4  0  0  0
 17 23  4  0  0  0
 18 19  1  0  0  0
 18 20  4  0  0  0
 20 21  4  0  0  0
 21 22  4  0  0  0
 22 23  4  0  0  0
  2 26  1  0  0  0
  2 27  1  0  0  0
  8 28  1  0  0  0
 12 29  1  0  0  0
 13 30  1  0  0  0
 14 31  1  0  0  0
 16 32  1  0  0  0
 16 33  1  0  0  0
 20 34  1  0  0  0
 21 35  1  0  0  0
 24 36  1  0  0  0
 24 37  1  0  0  0
 25 38  1  0  0  0
 25 39  1  0  0  0
 25 40  1  0  0  0
M  END
$$$$
