6hky_ligand
  -I-interpret- 

 55 57  0  0  0  0  0  0  0  0999 V2000
   60.0450   42.6960   -2.2910 C   0  0  0  0  0
   61.6470   42.8890   -4.5350 C   0  0  0  0  0
   60.3420   42.4630   -4.6360 C   0  0  0  0  0
   58.4630   40.2740    1.3230 C   0  0  0  0  0
   57.3510   42.1910    4.8570 C   0  0  0  0  0
   58.6630   39.5040    0.0010 C   0  0  0  0  0
   59.0060   38.0390    0.2780 C   0  0  0  0  0
   57.7080   42.4010    2.4820 C   0  0  0  0  0
   57.3170   43.7290    2.5810 C   0  0  0  0  0
   56.9570   44.2790    3.8120 C   0  0  0  0  0
   53.2360   39.6740   -0.6010 C   0  0  0  0  0
   54.8840   42.1630   -2.1190 C   0  0  0  0  0
   55.6330   41.4490    0.2270 C   0  0  0  0  0
   58.1510   41.7930    1.1200 C   0  0  0  0  0
   59.1190   42.5840   -1.0750 C   0  0  0  0  0
   61.3580   43.1340   -2.1750 C   0  0  0  0  0
   62.1640   43.2260   -3.3080 C   0  0  0  0  0
   59.5200   42.3640   -3.5210 C   0  0  0  0  0
   56.9670   43.5110    4.9580 C   0  0  0  0  0
   57.7170   41.6310    3.6340 C   0  0  0  0  0
   59.8930   42.1580   -5.8770 F   0  0  0  0  0
   61.9050   43.4740   -0.9630 F   0  0  0  0  0
   54.6050   41.5720   -0.8180 N   0  0  0  0  0
   56.9920   41.9090    0.0340 N   0  0  0  0  0
   57.5980   42.5670   -1.2300 N   0  3  0  0  0
   60.3560   37.9450    0.8220 N   0  3  0  0  0
   55.3700   40.9650    1.2800 O   0  0  0  0  0
   53.2940   41.0890   -0.5410 O   0  0  0  0  0
   59.4320   42.5900    0.4960 S   0  0  0  0  0
   62.2691   42.9588   -5.4273 H   0  0  0  0  0
   59.3931   40.2034    1.8869 H   0  0  0  0  0
   57.6090   39.8299    1.8345 H   0  0  0  0  0
   57.3689   41.5712    5.7535 H   0  0  0  0  0
   59.4834   39.9603   -0.5529 H   0  0  0  0  0
   57.7395   39.5475   -0.5764 H   0  0  0  0  0
   58.9507   37.4728   -0.6518 H   0  0  0  0  0
   58.2968   37.6317    0.9986 H   0  0  0  0  0
   57.2908   44.3503    1.6858 H   0  0  0  0  0
   56.6645   45.3275    3.8687 H   0  0  0  0  0
   53.5221   39.3419   -1.5990 H   0  0  0  0  0
   53.9214   39.2521    0.1341 H   0  0  0  0  0
   52.2201   39.3438   -0.3841 H   0  0  0  0  0
   55.2158   43.1926   -1.9853 H   0  0  0  0  0
   55.6660   41.5897   -2.6169 H   0  0  0  0  0
   53.9784   42.1476   -2.7254 H   0  0  0  0  0
   60.0724   42.2630   -1.4946 H   0  0  0  0  0
   63.1970   43.5629   -3.2211 H   0  0  0  0  0
   58.4861   42.0322   -3.6164 H   0  0  0  0  0
   56.6786   43.9372    5.9189 H   0  0  0  0  0
   58.0116   40.5828    3.5837 H   0  0  0  0  0
   57.3356   42.0379   -2.0616 H   0  0  0  0  0
   57.2449   43.5182   -1.3344 H   0  0  0  0  0
   60.5802   36.9669    1.0050 H   0  0  0  0  0
   61.0200   38.3270    0.1485 H   0  0  0  0  0
   60.4086   38.4756    1.6915 H   0  0  0  0  0
 15  1  1  0  0  0
  1 16  4  0  0  0
  1 18  4  0  0  0
  3  2  4  0  0  0
 17  2  4  0  0  0
 18  3  4  0  0  0
  3 21  1  0  0  0
  4  6  1  0  0  0
 14  4  1  0  0  0
  5 19  4  0  0  0
 20  5  4  0  0  0
  6  7  1  0  0  0
  7 26  1  0  0  0
  8  9  4  0  0  0
 14  8  1  0  0  0
  8 20  4  0  0  0
  9 10  4  0  0  0
 10 19  4  0  0  0
 28 11  1  0  0  0
 23 12  1  0  0  0
 23 13  1  0  0  0
 13 24  1  0  0  0
 13 27  2  0  0  0
 24 14  1  0  0  0
 14 29  1  0  0  0
 15 25  1  0  0  0
 29 15  1  0  0  0
 16 17  4  0  0  0
 16 22  1  0  0  0
 23 28  1  0  0  0
 24 25  1  0  0  0
  2 30  1  0  0  0
  4 31  1  0  0  0
  4 32  1  0  0  0
  5 33  1  0  0  0
  6 34  1  0  0  0
  6 35  1  0  0  0
  7 36  1  0  0  0
  7 37  1  0  0  0
  9 38  1  0  0  0
 10 39  1  0  0  0
 11 40  1  0  0  0
 11 41  1  0  0  0
 11 42  1  0  0  0
 12 43  1  0  0  0
 12 44  1  0  0  0
 12 45  1  0  0  0
 15 46  1  0  0  0
 17 47  1  0  0  0
 18 48  1  0  0  0
 19 49  1  0  0  0
 20 50  1  0  0  0
 25 51  1  0  0  0
 25 52  1  0  0  0
 26 53  1  0  0  0
 26 54  1  0  0  0
 26 55  1  0  0  0
M  END
$$$$
