1ros_ligand
  -I-interpret- 

 60 63  0  0  0  0  0  0  0  0999 V2000
   56.2140   85.1380   10.5060 N   0  0  0  0  0
   56.0110   86.3580    9.8880 C   0  0  0  0  0
   54.9390   87.0010   10.6150 C   0  0  0  0  0
   54.5480   86.1570   11.6410 C   0  0  0  0  0
   53.5050   86.5050   12.5340 C   0  0  0  0  0
   52.8880   87.7740   12.3650 C   0  0  0  0  0
   53.3030   88.6460   11.3200 C   0  0  0  0  0
   54.3490   88.2680   10.4290 C   0  0  0  0  0
   55.3550   84.9500   11.5660 C   0  0  0  0  0
   55.3070   83.9810   12.3010 O   0  0  0  0  0
   56.6160   86.7970    8.9170 O   0  0  0  0  0
   57.2320   84.1570   10.0920 C   0  0  0  0  0
   56.7110   82.7980    9.5690 C   0  0  0  0  0
   56.0030   82.7640    8.1910 C   0  0  0  0  0
   55.7660   81.2980    7.7400 C   0  0  0  0  0
   55.5530   81.1130    6.2190 C   0  0  0  0  0
   56.5460   81.1010    5.4980 O   0  0  0  0  0
   54.1630   80.9500    5.6990 C   0  0  0  0  0
   53.0620   80.5610    6.5110 C   0  0  0  0  0
   51.7730   80.4130    5.9630 C   0  0  0  0  0
   51.5020   80.6430    4.5910 C   0  0  0  0  0
   52.6090   81.0360    3.7860 C   0  0  0  0  0
   53.9110   81.1890    4.3200 C   0  0  0  0  0
   50.1140   80.4530    4.0140 C   0  0  0  0  0
   49.9150   80.3160    2.6190 C   0  0  0  0  0
   48.6490   80.1110    2.0540 C   0  0  0  0  0
   47.4860   80.0270    2.8690 C   0  0  0  0  0
   47.6590   80.1690    4.2680 C   0  0  0  0  0
   48.9490   80.3770    4.8290 C   0  0  0  0  0
   46.1750   79.8100    2.4140 O   0  0  0  0  0
   45.9620   79.6540    1.0130 C   0  0  0  0  0
   44.4740   79.4240    0.7580 C   0  0  0  0  0
   54.6400   83.5030    8.2170 C   0  0  0  0  0
   53.7770   83.2820    9.0340 O   0  0  0  0  0
   54.5160   84.4310    7.2540 O   0  0  0  0  0
   53.1869   85.8235   13.3230 H   0  0  0  0  0
   52.0905   88.0818   13.0413 H   0  0  0  0  0
   52.8156   89.6135   11.1997 H   0  0  0  0  0
   54.6809   88.9342    9.6326 H   0  0  0  0  0
   57.8148   83.9325   10.9854 H   0  0  0  0  0
   57.7697   84.6134    9.2609 H   0  0  0  0  0
   55.9539   82.4852   10.2881 H   0  0  0  0  0
   57.5989   82.1769    9.4506 H   0  0  0  0  0
   56.6605   83.2742    7.4871 H   0  0  0  0  0
   54.8533   80.9598    8.2306 H   0  0  0  0  0
   56.6623   80.7369    8.0044 H   0  0  0  0  0
   53.2181   80.3746    7.5735 H   0  0  0  0  0
   50.9551   80.1109    6.6171 H   0  0  0  0  0
   52.4486   81.2251    2.7246 H   0  0  0  0  0
   54.7292   81.4933    3.6672 H   0  0  0  0  0
   50.7803   80.3722    1.9586 H   0  0  0  0  0
   48.5539   80.0143    0.9725 H   0  0  0  0  0
   46.7902   80.1180    4.9242 H   0  0  0  0  0
   49.0484   80.4808    5.9095 H   0  0  0  0  0
   46.5334   78.8008    0.6474 H   0  0  0  0  0
   46.2898   80.5521    0.4895 H   0  0  0  0  0
   44.1518   78.5239    1.2815 H   0  0  0  0  0
   43.9075   80.2806    1.1231 H   0  0  0  0  0
   44.3044   79.3039   -0.3120 H   0  0  0  0  0
   55.3120   84.4421    6.7174 H   0  0  0  0  0
  1  2  1  0  0  0
  1  9  1  0  0  0
  1 12  1  0  0  0
  2  3  1  0  0  0
  2 11  2  0  0  0
  3  4  4  0  0  0
  3  8  4  0  0  0
  4  5  4  0  0  0
  4  9  1  0  0  0
  5  6  4  0  0  0
  6  7  4  0  0  0
  7  8  4  0  0  0
  9 10  2  0  0  0
 12 13  1  0  0  0
 13 14  1  0  0  0
 14 15  1  0  0  0
 14 33  1  0  0  0
 15 16  1  0  0  0
 16 17  2  0  0  0
 16 18  1  0  0  0
 18 19  4  0  0  0
 18 23  4  0  0  0
 19 20  4  0  0  0
 20 21  4  0  0  0
 21 22  4  0  0  0
 21 24  1  0  0  0
 22 23  4  0  0  0
 24 25  4  0  0  0
 24 29  4  0  0  0
 25 26  4  0  0  0
 26 27  4  0  0  0
 27 28  4  0  0  0
 27 30  1  0  0  0
 28 29  4  0  0  0
 30 31  1  0  0  0
 31 32  1  0  0  0
 33 34  2  0  0  0
 33 35  1  0  0  0
  5 36  1  0  0  0
  6 37  1  0  0  0
  7 38  1  0  0  0
  8 39  1  0  0  0
 12 40  1  0  0  0
 12 41  1  0  0  0
 13 42  1  0  0  0
 13 43  1  0  0  0
 14 44  1  0  0  0
 15 45  1  0  0  0
 15 46  1  0  0  0
 19 47  1  0  0  0
 20 48  1  0  0  0
 22 49  1  0  0  0
 23 50  1  0  0  0
 25 51  1  0  0  0
 26 52  1  0  0  0
 28 53  1  0  0  0
 29 54  1  0  0  0
 31 55  1  0  0  0
 31 56  1  0  0  0
 32 57  1  0  0  0
 32 58  1  0  0  0
 32 59  1  0  0  0
 35 60  1  0  0  0
M  END
$$$$
