2i5f_ligand
  -I-interpret- 

 49 49  0  0  0  0  0  0  0  0999 V2000
    8.2380  -12.1180   -1.1220 O   0  0  0  0  0
    6.7460  -11.9940   -1.5930 P   0  0  0  0  0
    6.0610  -11.9810   -0.2150 O   0  0  0  0  0
    6.5320  -10.8890   -2.7230 O   0  0  0  0  0
    6.4800  -13.3750   -2.4520 O   0  0  0  0  0
    5.5470  -13.1170   -3.5690 C   0  0  0  0  0
    6.3110  -13.4070   -4.8190 C   0  0  0  0  0
    7.6520  -13.6940   -4.3980 O   0  0  0  0  0
    9.1930  -13.6790   -4.9380 P   0  0  0  0  0
    9.1830  -14.8520   -5.9030 O   0  0  0  0  0
    9.5240  -12.3360   -5.5690 O   0  0  0  0  0
    9.8530  -13.8860   -3.5820 O   0  0  0  0  0
    4.3270  -13.9740   -3.4360 C   0  0  0  0  0
    3.5100  -13.6330   -2.4900 O   0  0  0  0  0
    3.1210  -14.3000   -1.0760 P   0  0  0  0  0
    2.5210  -15.6970   -1.0350 O   0  0  0  0  0
    2.3250  -13.0160   -0.9970 O   0  0  0  0  0
    4.7410  -14.1120   -0.1150 O   0  0  0  0  0
    3.4240  -14.5710   -4.6550 C   0  0  0  0  0
    2.5270  -15.6900   -4.2220 O   0  0  0  0  0
    4.3190  -15.2390   -5.6470 C   0  0  0  0  0
    3.4120  -15.3670   -6.7740 O   0  0  0  0  0
    3.7230  -16.3320   -8.0050 P   0  0  0  0  0
    3.6860  -15.5280   -9.2890 O   0  0  0  0  0
    5.0450  -17.0370   -7.6940 O   0  0  0  0  0
    2.4670  -17.1930   -7.8360 O   0  0  0  0  0
    5.5910  -14.3390   -5.8600 C   0  0  0  0  0
    5.1660  -13.1550   -6.4360 O   0  0  0  0  0
    5.7630  -12.8790   -7.8900 P   0  0  0  0  0
    7.1810  -12.3030   -7.9580 O   0  0  0  0  0
    5.8820  -14.2270   -8.6340 O   0  0  0  0  0
    4.6830  -11.9190   -8.4710 O   0  0  0  0  0
    8.8140  -12.1397   -1.8897 H   0  0  0  0  0
    7.0633  -11.1113   -3.4910 H   0  0  0  0  0
    5.1886  -12.0876   -3.5773 H   0  0  0  0  0
    6.3609  -12.5492   -5.4897 H   0  0  0  0  0
    9.5088  -11.6539   -4.8936 H   0  0  0  0  0
    9.7925  -13.0756   -3.0709 H   0  0  0  0  0
    4.9905  -14.8174   -3.2448 H   0  0  0  0  0
    3.2236  -16.3479   -1.1009 H   0  0  0  0  0
    5.2407  -14.9299   -0.1693 H   0  0  0  0  0
    2.8560  -13.7226   -5.0369 H   0  0  0  0  0
    2.0206  -16.0025   -4.9753 H   0  0  0  0  0
    4.7500  -16.2066   -5.3900 H   0  0  0  0  0
    4.9642  -17.5151   -6.8655 H   0  0  0  0  0
    2.5265  -17.6860   -7.0144 H   0  0  0  0  0
    6.2090  -15.1623   -6.2183 H   0  0  0  0  0
    5.0273  -14.6641   -8.6406 H   0  0  0  0  0
    3.8190  -12.3317   -8.4016 H   0  0  0  0  0
  1  2  1  0  0  0
  2  3  2  0  0  0
  2  4  1  0  0  0
  2  5  1  0  0  0
  5  6  1  0  0  0
  6  7  1  0  0  0
  6 13  1  0  0  0
  7  8  1  0  0  0
  7 27  1  0  0  0
  8  9  1  0  0  0
  9 10  2  0  0  0
  9 11  1  0  0  0
  9 12  1  0  0  0
 13 14  1  0  0  0
 13 19  1  0  0  0
 14 15  1  0  0  0
 15 16  1  0  0  0
 15 17  2  0  0  0
 15 18  1  0  0  0
 19 20  1  0  0  0
 19 21  1  0  0  0
 21 22  1  0  0  0
 21 27  1  0  0  0
 22 23  1  0  0  0
 23 24  2  0  0  0
 23 25  1  0  0  0
 23 26  1  0  0  0
 27 28  1  0  0  0
 28 29  1  0  0  0
 29 30  2  0  0  0
 29 31  1  0  0  0
 29 32  1  0  0  0
  1 33  1  0  0  0
  4 34  1  0  0  0
  6 35  1  0  0  0
  7 36  1  0  0  0
 11 37  1  0  0  0
 12 38  1  0  0  0
 13 39  1  0  0  0
 16 40  1  0  0  0
 18 41  1  0  0  0
 19 42  1  0  0  0
 20 43  1  0  0  0
 21 44  1  0  0  0
 25 45  1  0  0  0
 26 46  1  0  0  0
 27 47  1  0  0  0
 31 48  1  0  0  0
 32 49  1  0  0  0
M  END
$$$$
