### 
### Created by X-TOOL on Mon Sep 10 21:12:55 2018
### 

@<TRIPOS>MOLECULE
2i5f_ligand
   39    39     1     0     0
SMALL
GAST_HUCK


@<TRIPOS>ATOM
      1 O46         8.2380  -12.1180   -1.1220 O.co2     1 5IP        -0.5537
      2 P6          6.7460  -11.9940   -1.5930 P.3       1 5IP         0.2013
      3 O26         6.0610  -11.9810   -0.2150 O.co2     1 5IP        -0.5537
      4 O36         6.5320  -10.8890   -2.7230 O.co2     1 5IP        -0.5537
      5 O16         6.4800  -13.3750   -2.4520 O.3       1 5IP        -0.2669
      6 C6          5.5470  -13.1170   -3.5690 C.3       1 5IP         0.1553
      7 C1          6.3110  -13.4070   -4.8190 C.3       1 5IP         0.1556
      8 O11         7.6520  -13.6940   -4.3980 O.3       1 5IP        -0.2668
      9 P1          9.1930  -13.6790   -4.9380 P.3       1 5IP         0.2013
     10 O41         9.1830  -14.8520   -5.9030 O.co2     1 5IP        -0.5537
     11 O31         9.5240  -12.3360   -5.5690 O.co2     1 5IP        -0.5537
     12 O21         9.8530  -13.8860   -3.5820 O.co2     1 5IP        -0.5537
     13 C5          4.3270  -13.9740   -3.4360 C.3       1 5IP         0.1510
     14 O15         3.5100  -13.6330   -2.4900 O.3       1 5IP        -0.2672
     15 P5          3.1210  -14.3000   -1.0760 P.3       1 5IP         0.2013
     16 O45         2.5210  -15.6970   -1.0350 O.co2     1 5IP        -0.5537
     17 O35         2.3250  -13.0160   -0.9970 O.co2     1 5IP        -0.5537
     18 O25         4.7410  -14.1120   -0.1150 O.co2     1 5IP        -0.5537
     19 C4          3.4240  -14.5710   -4.6550 C.3       1 5IP         0.1219
     20 O14         2.5270  -15.6900   -4.2220 O.3       1 5IP        -0.3858
     21 C3          4.3190  -15.2390   -5.6470 C.3       1 5IP         0.1510
     22 O13         3.4120  -15.3670   -6.7740 O.3       1 5IP        -0.2672
     23 P3          3.7230  -16.3320   -8.0050 P.3       1 5IP         0.2013
     24 O43         3.6860  -15.5280   -9.2890 O.co2     1 5IP        -0.5537
     25 O33         5.0450  -17.0370   -7.6940 O.co2     1 5IP        -0.5537
     26 O23         2.4670  -17.1930   -7.8360 O.co2     1 5IP        -0.5537
     27 C2          5.5910  -14.3390   -5.8600 C.3       1 5IP         0.1553
     28 O12         5.1660  -13.1550   -6.4360 O.3       1 5IP        -0.2669
     29 P2          5.7630  -12.8790   -7.8900 P.3       1 5IP         0.2013
     30 O22         7.1810  -12.3030   -7.9580 O.co2     1 5IP        -0.5537
     31 O32         5.8820  -14.2270   -8.6340 O.co2     1 5IP        -0.5537
     32 O42         4.6830  -11.9190   -8.4710 O.co2     1 5IP        -0.5537
     33 H1          5.2381  -12.0613   -3.5635 H         1 5IP         0.0710
     34 H2          6.3828  -12.4487   -5.3542 H         1 5IP         0.0710
     35 H3          4.7917  -14.8929   -3.0492 H         1 5IP         0.0706
     36 H4          2.8427  -13.7585   -5.1153 H         1 5IP         0.0654
     37 H5          2.0259  -15.9992   -4.9675 H         1 5IP         0.2100
     38 H6          4.6437  -16.2328   -5.3051 H         1 5IP         0.0706
     39 H7          6.3188  -14.9285   -6.4369 H         1 5IP         0.0710
@<TRIPOS>BOND
     1    1    2 ar 
     2    2    3 ar 
     3    2    4 ar 
     4    2    5 1  
     5    5    6 1  
     6    6    7 1  
     7    6   13 1  
     8    7    8 1  
     9    7   27 1  
    10    8    9 1  
    11    9   10 ar 
    12    9   11 ar 
    13    9   12 ar 
    14   13   14 1  
    15   13   19 1  
    16   14   15 1  
    17   15   16 ar 
    18   15   17 ar 
    19   15   18 ar 
    20   19   20 1  
    21   19   21 1  
    22   21   22 1  
    23   21   27 1  
    24   22   23 1  
    25   23   24 ar 
    26   23   25 ar 
    27   23   26 ar 
    28   27   28 1  
    29   28   29 1  
    30   29   30 ar 
    31   29   31 ar 
    32   29   32 ar 
    33    6   33 1  
    34    7   34 1  
    35   13   35 1  
    36   19   36 1  
    37   20   37 1  
    38   21   38 1  
    39   27   39 1  
@<TRIPOS>SUBSTRUCTURE
     1 5IP         1

