4x2i_ligand
  -I-interpret- 

 40 43  0  0  0  0  0  0  0  0999 V2000
  -13.8710   -7.5630    1.3080 C   0  0  0  0  0
  -13.1140   -7.4480    2.6410 C   0  0  0  0  0
  -11.1670   -6.4790    3.7270 C   0  0  0  0  0
   -9.9700   -5.7600    3.6960 C   0  0  0  0  0
   -9.3640   -5.3380    4.8900 C   0  0  0  0  0
   -9.8900   -5.7210    6.1240 C   0  0  0  0  0
  -11.0680   -6.4750    6.1610 C   0  0  0  0  0
  -12.7580   -5.7140    0.0240 N   0  0  0  0  0
  -14.4480   -4.4390   -0.4060 N   0  0  0  0  0
  -14.8570   -5.5070    0.3490 N   0  0  0  0  0
  -11.6690   -6.8270    4.9810 C   0  0  0  0  0
  -11.4960   -6.3170    0.1300 C   0  0  0  0  0
   -9.1650   -5.2480    7.6010 Cl  0  0  0  0  0
  -11.7980   -6.8180    2.5230 N   0  0  0  0  0
  -11.0630   -6.8920    1.3200 C   0  0  0  0  0
   -9.8440   -7.5560    1.3690 C   0  0  0  0  0
   -9.0100   -7.6210    0.2740 C   0  0  0  0  0
   -9.3850   -7.0370   -0.9210 C   0  0  0  0  0
  -10.6180   -6.4020   -1.0000 C   0  0  0  0  0
  -13.8070   -6.2610    0.6210 C   0  0  0  0  0
  -15.2710   -8.0880    1.5750 C   0  0  0  0  0
  -13.1400   -4.5680   -0.5810 C   0  0  0  0  0
  -12.2540   -3.6470   -1.3770 C   0  0  0  0  0
  -13.4166   -8.2845    0.6290 H   0  0  0  0  0
  -12.9567   -8.4604    3.0129 H   0  0  0  0  0
  -13.7145   -6.8232    3.3021 H   0  0  0  0  0
   -9.5036   -5.5252    2.7392 H   0  0  0  0  0
   -8.4763   -4.7067    4.8526 H   0  0  0  0  0
  -11.5012   -6.7779    7.1143 H   0  0  0  0  0
  -12.5888   -7.4103    5.0246 H   0  0  0  0  0
   -9.5392   -8.0382    2.2978 H   0  0  0  0  0
   -8.0516   -8.1346    0.3506 H   0  0  0  0  0
   -8.7243   -7.0740   -1.7872 H   0  0  0  0  0
  -10.9260   -5.9567   -1.9460 H   0  0  0  0  0
  -15.8098   -7.3790    2.2036 H   0  0  0  0  0
  -15.7983   -8.2105    0.6289 H   0  0  0  0  0
  -15.2061   -9.0500    2.0834 H   0  0  0  0  0
  -11.4481   -3.2807   -0.7410 H   0  0  0  0  0
  -11.8328   -4.1910   -2.2224 H   0  0  0  0  0
  -12.8420   -2.8048   -1.7418 H   0  0  0  0  0
  1  2  1  0  0  0
 20  1  1  0  0  0
  1 21  1  0  0  0
  2 14  1  0  0  0
  3  4  4  0  0  0
  3 11  4  0  0  0
 14  3  1  0  0  0
  4  5  4  0  0  0
  5  6  4  0  0  0
  7  6  4  0  0  0
  6 13  1  0  0  0
 11  7  4  0  0  0
  8 12  1  0  0  0
  8 20  4  0  0  0
 22  8  4  0  0  0
  9 10  4  0  0  0
  9 22  4  0  0  0
 10 20  4  0  0  0
 12 15  4  0  0  0
 12 19  4  0  0  0
 14 15  1  0  0  0
 15 16  4  0  0  0
 16 17  4  0  0  0
 17 18  4  0  0  0
 18 19  4  0  0  0
 22 23  1  0  0  0
  1 24  1  0  0  0
  2 25  1  0  0  0
  2 26  1  0  0  0
  4 27  1  0  0  0
  5 28  1  0  0  0
  7 29  1  0  0  0
 11 30  1  0  0  0
 16 31  1  0  0  0
 17 32  1  0  0  0
 18 33  1  0  0  0
 19 34  1  0  0  0
 21 35  1  0  0  0
 21 36  1  0  0  0
 21 37  1  0  0  0
 23 38  1  0  0  0
 23 39  1  0  0  0
 23 40  1  0  0  0
M  END
$$$$
