1zeo_ligand
  -I-interpret- 

 62 64  0  0  0  0  0  0  0  0999 V2000
   21.3430    6.1890   14.8940 C   0  0  0  0  0
   21.3070    7.0550   16.0460 C   0  0  0  0  0
   21.9410    8.3830   15.9580 C   0  0  0  0  0
   22.5680    8.7370   14.6910 C   0  0  0  0  0
   22.5670    7.8480   13.6040 C   0  0  0  0  0
   21.9860    6.5990   13.6840 C   0  0  0  0  0
   23.2480    9.9190   14.3110 O   0  0  0  0  0
   23.6510    9.6700   12.9390 N   0  0  0  0  0
   23.2820    8.4460   12.4820 C   0  0  0  0  0
   24.4030   10.6080   12.0960 C   0  0  0  0  0
   23.4970    7.9900   11.3540 O   0  0  0  0  0
   21.9780    9.3750   17.1350 C   0  0  0  0  0
   20.7540   10.2820   17.3190 C   0  0  0  0  0
   20.9100   11.1900   18.5310 C   0  0  0  0  0
   20.7370    4.8170   14.8990 C   0  0  0  0  0
   19.6800    4.6890   13.8080 C   0  0  0  0  0
   19.0930    3.2910   13.7840 C   0  0  0  0  0
   20.6650    6.5880   17.2540 O   0  0  0  0  0
   19.3930    7.1510   17.6720 C   0  0  0  0  0
   18.2420    6.5980   16.8450 C   0  0  0  0  0
   19.1490    6.9320   19.2070 C   0  0  0  0  0
   17.5740    7.4790   15.9720 C   0  0  0  0  0
   16.5110    7.0470   15.1610 C   0  0  0  0  0
   16.0550    5.7120   15.1910 C   0  0  0  0  0
   16.7210    4.7930   16.0770 C   0  0  0  0  0
   17.8040    5.2270   16.9060 C   0  0  0  0  0
   14.8870    5.3210   14.2770 C   0  0  0  0  0
   15.3640    4.6130   13.0080 C   0  0  0  0  0
   13.8470    4.4720   15.0330 C   0  0  0  0  0
   18.0930    7.0170   19.7520 O   0  0  0  0  0
   20.2780    6.6580   19.8770 O   0  0  0  0  0
   22.0170    5.9263   12.8269 H   0  0  0  0  0
   23.8346   11.5315   11.9859 H   0  0  0  0  0
   25.3636   10.8246   12.5633 H   0  0  0  0  0
   24.5671   10.1617   11.1152 H   0  0  0  0  0
   22.8163   10.0426   16.9358 H   0  0  0  0  0
   22.0354    8.7654   18.0368 H   0  0  0  0  0
   19.8771    9.6524   17.4697 H   0  0  0  0  0
   20.6498   10.9058   16.4312 H   0  0  0  0  0
   21.0267   10.5807   19.4272 H   0  0  0  0  0
   21.7903   11.8195   18.4009 H   0  0  0  0  0
   20.0243   11.8177   18.6296 H   0  0  0  0  0
   20.2664    4.6439   15.8668 H   0  0  0  0  0
   21.5230    4.0846   14.7149 H   0  0  0  0  0
   20.1460    4.8899   12.8434 H   0  0  0  0  0
   18.8801    5.4014   14.0098 H   0  0  0  0  0
   19.8860    2.5686   13.5907 H   0  0  0  0  0
   18.6307    3.0758   14.7474 H   0  0  0  0  0
   18.3418    3.2272   12.9967 H   0  0  0  0  0
   19.4368    8.2257   17.4952 H   0  0  0  0  0
   17.8895    8.5213   15.9245 H   0  0  0  0  0
   16.0273    7.7598   14.4931 H   0  0  0  0  0
   16.3962    3.7533   16.1169 H   0  0  0  0  0
   18.2945    4.5243   17.5796 H   0  0  0  0  0
   14.4017    6.2455   13.9641 H   0  0  0  0  0
   16.0258    5.2759   12.4506 H   0  0  0  0  0
   15.9022    3.7052   13.2805 H   0  0  0  0  0
   14.5027    4.3552   12.3917 H   0  0  0  0  0
   14.3209    3.5619   15.4008 H   0  0  0  0  0
   13.4547    5.0442   15.8737 H   0  0  0  0  0
   13.0323    4.2114   14.3574 H   0  0  0  0  0
   21.0153    6.6328   19.2627 H   0  0  0  0  0
  1  2  4  0  0  0
  1  6  4  0  0  0
  1 15  1  0  0  0
  2  3  4  0  0  0
  2 18  1  0  0  0
  3  4  4  0  0  0
  3 12  1  0  0  0
  4  5  4  0  0  0
  4  7  1  0  0  0
  5  6  4  0  0  0
  5  9  1  0  0  0
  7  8  1  0  0  0
  8  9  1  0  0  0
  8 10  1  0  0  0
  9 11  2  0  0  0
 12 13  1  0  0  0
 13 14  1  0  0  0
 15 16  1  0  0  0
 16 17  1  0  0  0
 18 19  1  0  0  0
 19 20  1  0  0  0
 19 21  1  0  0  0
 20 22  4  0  0  0
 20 26  4  0  0  0
 21 30  2  0  0  0
 21 31  1  0  0  0
 22 23  4  0  0  0
 23 24  4  0  0  0
 24 25  4  0  0  0
 24 27  1  0  0  0
 25 26  4  0  0  0
 27 28  1  0  0  0
 27 29  1  0  0  0
  6 32  1  0  0  0
 10 33  1  0  0  0
 10 34  1  0  0  0
 10 35  1  0  0  0
 12 36  1  0  0  0
 12 37  1  0  0  0
 13 38  1  0  0  0
 13 39  1  0  0  0
 14 40  1  0  0  0
 14 41  1  0  0  0
 14 42  1  0  0  0
 15 43  1  0  0  0
 15 44  1  0  0  0
 16 45  1  0  0  0
 16 46  1  0  0  0
 17 47  1  0  0  0
 17 48  1  0  0  0
 17 49  1  0  0  0
 19 50  1  0  0  0
 22 51  1  0  0  0
 23 52  1  0  0  0
 25 53  1  0  0  0
 26 54  1  0  0  0
 27 55  1  0  0  0
 28 56  1  0  0  0
 28 57  1  0  0  0
 28 58  1  0  0  0
 29 59  1  0  0  0
 29 60  1  0  0  0
 29 61  1  0  0  0
 31 62  1  0  0  0
M  END
$$$$
