### 
### Created by X-TOOL on Mon Aug  2 16:14:00 2021
### 

@<TRIPOS>MOLECULE
6hy2_ligand
  206   210     1     0     0
SMALL
GAST_HUCK


@<TRIPOS>ATOM
      1 N           4.3270   15.6510    5.8330 N.4       1 TRP         0.2388
      2 CA          4.2510   17.0360    6.3890 C.3       1 TRP         0.0691
      3 C           3.0860   17.1290    7.3620 C.2       1 TRP         0.2280
      4 O           2.1460   16.3220    7.2980 O.2       1 TRP        -0.3906
      5 CB          4.0890   18.0670    5.2630 C.3       1 TRP         0.0245
      6 CG          5.1010   17.9240    4.1460 C.2       1 TRP        -0.0386
      7 CD1         5.8670   16.8230    3.8650 C.2       1 TRP         0.0168
      8 CD2         5.4270   18.9000    3.1460 C.ar      1 TRP        -0.0213
      9 NE1         6.6580   17.0610    2.7690 N.pl3     1 TRP        -0.2890
     10 CE2         6.4080   18.3250    2.3060 C.ar      1 TRP         0.0603
     11 CE3         4.9910   20.2060    2.8820 C.ar      1 TRP        -0.0747
     12 CZ2         6.9620   19.0110    1.2180 C.ar      1 TRP        -0.0443
     13 CZ3         5.5410   20.8870    1.7980 C.ar      1 TRP        -0.0792
     14 CH2         6.5150   20.2840    0.9790 C.ar      1 TRP        -0.0768
     15 N           3.1550   18.1190    8.2510 N.am      1 TRP        -0.2609
     16 CA          2.1340   18.3410    9.2720 C.3       1 TRP         0.1318
     17 C           1.0030   19.2220    8.7380 C.2       1 TRP         0.2039
     18 O           1.2540   20.3020    8.2010 O.2       1 TRP        -0.3944
     19 CB          2.7750   18.9770   10.5140 C.3       1 TRP        -0.0034
     20 CG          1.8030   19.5770   11.5280 C.3       1 TRP        -0.0024
     21 SD          0.8210   18.3680   12.4350 S.3       1 TRP        -0.1639
     22 CE          2.0570   17.6510   13.5170 C.3       1 TRP        -0.0181
     23 N          -0.2330   18.7550    8.8890 N.am      1 TRP        -0.2637
     24 CA         -1.3970   19.5620    8.5400 C.3       1 TRP         0.1312
     25 C          -1.7900   20.4360    9.7280 C.2       1 TRP         0.2040
     26 O          -1.9290   19.9460   10.8490 O.2       1 TRP        -0.3944
     27 CB         -2.5740   18.6770    8.1180 C.3       1 TRP        -0.0101
     28 CG         -3.9000   19.3590    7.7570 C.3       1 TRP        -0.0425
     29 CD1        -3.7620   20.2620    6.5320 C.3       1 TRP        -0.0625
     30 CD2        -4.9650   18.3050    7.5270 C.3       1 TRP        -0.0625
     31 N          -1.9480   21.7310    9.4670 N.am      1 TRP        -0.2622
     32 CA         -2.4590   22.6820   10.4520 C.3       1 TRP         0.1425
     33 C          -3.8020   23.1920    9.9130 C.2       1 TRP         0.2081
     34 O          -3.8360   24.1690    9.1660 O.2       1 TRP        -0.3941
     35 CB         -1.4490   23.8270   10.6490 C.3       1 TRP         0.0406
     36 CG         -1.8580   24.8040   11.7530 C.2       1 TRP         0.0393
     37 OD1        -3.0490   24.8360   12.1260 O.co2     1 TRP        -0.5688
     38 OD2        -0.9770   25.5570   12.2370 O.co2     1 TRP        -0.5688
     39 N          -4.9140   22.5010   10.2510 N.am      1 TRP        -0.2497
     40 CA         -6.2150   22.8920    9.7000 C.3       1 TRP         0.1338
     41 C          -6.6730   24.2910   10.1070 C.2       1 TRP         0.2041
     42 O          -7.2990   24.9850    9.3060 O.2       1 TRP        -0.3944
     43 CB         -7.1720   21.8290   10.2600 C.3       1 TRP        -0.0104
     44 CG         -6.2950   20.6640   10.5710 C.3       1 TRP        -0.0281
     45 CD         -5.0360   21.3010   11.0960 C.3       1 TRP         0.0369
     46 N          -6.3600   24.7010   11.3330 N.am      1 TRP        -0.2635
     47 CA         -6.7280   26.0400   11.7980 C.3       1 TRP         0.1335
     48 C          -6.0130   27.1290   10.9760 C.2       1 TRP         0.2041
     49 O          -6.6410   28.0960   10.5320 O.2       1 TRP        -0.3944
     50 CB         -6.5480   26.1810   13.3370 C.3       1 TRP        -0.0037
     51 CG1        -7.6290   25.3420   14.0390 C.3       1 TRP        -0.0491
     52 CG2        -6.6220   27.6500   13.7590 C.3       1 TRP        -0.0582
     53 CD1        -7.2660   24.8570   15.4410 C.3       1 TRP        -0.0648
     54 N          -4.7170   26.9500   10.7350 N.am      1 TRP        -0.2640
     55 CA         -3.9800   27.8520    9.8530 C.3       1 TRP         0.1282
     56 C          -4.3970   27.6710    8.3930 C.2       1 TRP         0.2034
     57 O          -4.2790   28.5990    7.5830 O.2       1 TRP        -0.3944
     58 CB         -2.4860   27.6400    9.9970 C.3       1 TRP        -0.0244
     59 N          -4.8850   26.4730    8.0730 N.am      1 TRP        -0.2664
     60 CA         -5.2520   26.1120    6.7050 C.3       1 TRP         0.1201
     61 C          -4.0230   25.9140    5.8370 C.2       1 TRP         0.2007
     62 O          -3.9240   26.4830    4.7480 O.2       1 TRP        -0.3947
     63 N          -3.0860   25.0970    6.3120 N.am      1 TRP        -0.2640
     64 CA         -1.8340   24.8760    5.5880 C.3       1 TRP         0.1310
     65 C          -1.2700   23.4750    5.8000 C.2       1 TRP         0.2040
     66 O          -1.5530   22.8210    6.8100 O.2       1 TRP        -0.3944
     67 CB         -0.7840   25.9090    6.0210 C.3       1 TRP        -0.0122
     68 CG         -0.3770   25.7740    7.4870 C.3       1 TRP        -0.0440
     69 CD          0.8590   26.5620    7.8530 C.3       1 TRP        -0.0124
     70 CE          1.2140   26.2810    9.3100 C.3       1 TRP        -0.0354
     71 NZ          2.3540   27.0930    9.8030 N.4       1 TRP         0.2185
     72 N          -0.4770   23.0260    4.8290 N.am      1 TRP        -0.2627
     73 CA          0.4880   21.9570    5.0500 C.3       1 TRP         0.1352
     74 C           1.7850   22.6420    5.4580 C.2       1 TRP         0.2052
     75 O           2.2870   23.5070    4.7340 O.2       1 TRP        -0.3942
     76 CB          0.7080   21.1330    3.7780 C.3       1 TRP         0.0042
     77 CG         -0.4410   20.2530    3.4180 C.2       1 TRP        -0.0418
     78 CD1        -1.3510   20.4620    2.4200 C.2       1 TRP         0.0167
     79 CD2        -0.8120   19.0200    4.0480 C.ar      1 TRP        -0.0214
     80 NE1        -2.2690   19.4380    2.3930 N.pl3     1 TRP        -0.2890
     81 CE2        -1.9620   18.5390    3.3800 C.ar      1 TRP         0.0603
     82 CE3        -0.2870   18.2760    5.1140 C.ar      1 TRP        -0.0747
     83 CZ2        -2.5950   17.3460    3.7380 C.ar      1 TRP        -0.0443
     84 CZ3        -0.9180   17.0900    5.4710 C.ar      1 TRP        -0.0792
     85 CH2        -2.0650   16.6400    4.7860 C.ar      1 TRP        -0.0768
     86 N           2.3120   22.2830    6.6240 N.am      1 TRP        -0.2615
     87 CA          3.5250   22.9260    7.1250 C.3       1 TRP         0.1539
     88 C           4.7570   22.5460    6.2990 C.2       1 TRP         0.2056
     89 O           4.9580   21.3750    5.9610 O.2       1 TRP        -0.3943
     90 CB          3.7450   22.6010    8.6030 C.3       1 TRP         0.0843
     91 OG          4.8280   23.3500    9.1320 O.3       1 TRP        -0.3903
     92 N           5.5630   23.5540    5.9680 N.am      1 TRP        -0.2694
     93 CA          6.8150   23.3720    5.2350 C.3       1 TRP         0.0945
     94 C           7.9130   22.8400    6.1500 C.2       1 TRP         0.0601
     95 O           8.9690   22.4010    5.6810 O.co2     1 TRP        -0.5666
     96 CB          7.2700   24.6970    4.6180 C.3       1 TRP        -0.0148
     97 CG          6.3770   25.2260    3.5030 C.3       1 TRP        -0.0162
     98 CD          6.6970   26.6830    3.1960 C.3       1 TRP         0.0627
     99 NE          6.5130   27.5380    4.3700 N.pl3     1 TRP        -0.2723
    100 CZ          6.7450   28.8490    4.4010 C.cat     1 TRP         0.2882
    101 NH1         7.1720   29.4870    3.3170 N.pl3     1 TRP        -0.2849
    102 NH2         6.5440   29.5280    5.5230 N.pl3     1 TRP        -0.2849
    103 OXT         7.7770   22.8480    7.3780 O.co2     1 TRP        -0.5666
    104 H1          5.0993   15.5898    5.1881 H         1 TRP         0.2016
    105 H2          3.4687   15.4350    5.3507 H         1 TRP         0.2016
    106 H3          4.4644   14.9941    6.5851 H         1 TRP         0.2016
    107 H4          5.1841   17.2516    6.9302 H         1 TRP         0.1114
    108 H5          4.1930   19.0724    5.6971 H         1 TRP         0.0430
    109 H6          3.0824   17.9551    4.8339 H         1 TRP         0.0430
    110 H7          5.8504   15.8924    4.4304 H         1 TRP         0.0795
    111 H8          7.3308   16.3964    2.3609 H         1 TRP         0.2216
    112 H9          4.2415   20.6763    3.5082 H         1 TRP         0.0540
    113 H10         7.7160   18.5522    0.5887 H         1 TRP         0.0541
    114 H11         5.2138   21.8975    1.5815 H         1 TRP         0.0510
    115 H12         6.9202   20.8393    0.1408 H         1 TRP         0.0530
    116 H13         3.9403   18.7373    8.2179 H         1 TRP         0.1885
    117 H14         1.7082   17.3676    9.5569 H         1 TRP         0.0800
    118 H15         3.4466   19.7792   10.1743 H         1 TRP         0.0320
    119 H16         3.3614   18.2004   11.0268 H         1 TRP         0.0320
    120 H17         1.1137   20.2436   10.9891 H         1 TRP         0.0378
    121 H18         2.3846   20.1617   12.2559 H         1 TRP         0.0378
    122 H19         1.5903   16.8780   14.1452 H         1 TRP         0.0340
    123 H20         2.4831   18.4366   14.1583 H         1 TRP         0.0340
    124 H21         2.8561   17.1983   12.9116 H         1 TRP         0.0340
    125 H22        -0.3672   17.8318    9.2491 H         1 TRP         0.1883
    126 H23        -1.1311   20.2137    7.6947 H         1 TRP         0.0800
    127 H24        -2.7780   17.9868    8.9499 H         1 TRP         0.0315
    128 H25        -2.2515   18.1036    7.2364 H         1 TRP         0.0315
    129 H26        -4.2074   19.9851    8.6076 H         1 TRP         0.0298
    130 H27        -4.7328   20.7290    6.3096 H         1 TRP         0.0232
    131 H28        -3.4374   19.6622    5.6690 H         1 TRP         0.0232
    132 H29        -3.0166   21.0449    6.7356 H         1 TRP         0.0232
    133 H30        -5.0481   17.6669    8.4192 H         1 TRP         0.0232
    134 H31        -4.6888   17.6879    6.6593 H         1 TRP         0.0232
    135 H32        -5.9309   18.7953    7.3357 H         1 TRP         0.0232
    136 H33        -1.7066   22.0683    8.5571 H         1 TRP         0.1884
    137 H34        -2.6169   22.1760   11.4159 H         1 TRP         0.0819
    138 H35        -1.3614   24.3832    9.7040 H         1 TRP         0.0478
    139 H36        -0.4730   23.3920   10.9103 H         1 TRP         0.0478
    140 H37        -6.1837   22.8429    8.6016 H         1 TRP         0.0802
    141 H38        -7.9305   21.5558    9.5117 H         1 TRP         0.0313
    142 H39        -7.6698   22.1948   11.1701 H         1 TRP         0.0313
    143 H40        -6.0890   20.0743    9.6656 H         1 TRP         0.0287
    144 H41        -6.7555   20.0176   11.3327 H         1 TRP         0.0287
    145 H42        -5.1389   21.5703   12.1575 H         1 TRP         0.0524
    146 H43        -4.1699   20.6348   10.9690 H         1 TRP         0.0524
    147 H44        -5.8657   24.0854   11.9467 H         1 TRP         0.1883
    148 H45        -7.8036   26.1610   11.6020 H         1 TRP         0.0803
    149 H46        -5.5589   25.7895   13.6171 H         1 TRP         0.0345
    150 H47        -7.8330   24.4590   13.4155 H         1 TRP         0.0267
    151 H48        -8.5392   25.9549   14.1158 H         1 TRP         0.0267
    152 H49        -5.8375   28.2205   13.2402 H         1 TRP         0.0235
    153 H50        -6.4732   27.7272   14.8461 H         1 TRP         0.0235
    154 H51        -7.6084   28.0584   13.4940 H         1 TRP         0.0235
    155 H52        -8.1000   24.2702   15.8533 H         1 TRP         0.0230
    156 H53        -7.0714   25.7236   16.0899 H         1 TRP         0.0230
    157 H54        -6.3652   24.2278   15.3896 H         1 TRP         0.0230
    158 H55        -4.2387   26.1844   11.1652 H         1 TRP         0.1883
    159 H56        -4.2128   28.8851   10.1506 H         1 TRP         0.0797
    160 H57        -1.9516   28.3280    9.3253 H         1 TRP         0.0277
    161 H58        -2.2358   26.6019    9.7331 H         1 TRP         0.0277
    162 H59        -2.1863   27.8364   11.0370 H         1 TRP         0.0277
    163 H60        -5.0049   25.7941    8.7974 H         1 TRP         0.1881
    164 H61        -5.8679   26.9158    6.2755 H         1 TRP         0.0763
    165 H62        -5.8310   25.1769    6.7245 H         1 TRP         0.0763
    166 H63        -3.2406   24.6253    7.1801 H         1 TRP         0.1883
    167 H64        -2.0352   25.0062    4.5144 H         1 TRP         0.0800
    168 H65        -1.1985   26.9158    5.8645 H         1 TRP         0.0312
    169 H66         0.1120   25.7801    5.3960 H         1 TRP         0.0312
    170 H67        -0.1853   24.7114    7.6971 H         1 TRP         0.0269
    171 H68        -1.2106   26.1268    8.1120 H         1 TRP         0.0269
    172 H69         0.6636   27.6365    7.7217 H         1 TRP         0.0317
    173 H70         1.6947   26.2594    7.2049 H         1 TRP         0.0317
    174 H71         1.4755   25.2169    9.4068 H         1 TRP         0.0813
    175 H72         0.3340   26.5004    9.9325 H         1 TRP         0.0813
    176 H73         2.5387   26.8625   10.7668 H         1 TRP         0.1994
    177 H74         2.1258   28.0721    9.7295 H         1 TRP         0.1994
    178 H75         3.1719   26.8959    9.2478 H         1 TRP         0.1994
    179 H76        -0.5460   23.4355    3.9193 H         1 TRP         0.1884
    180 H77         0.1375   21.2939    5.8546 H         1 TRP         0.0815
    181 H78         1.5954   20.4999    3.9253 H         1 TRP         0.0397
    182 H79         0.8869   21.8267    2.9433 H         1 TRP         0.0397
    183 H80        -1.3495   21.3157    1.7439 H         1 TRP         0.0795
    184 H81        -3.0592   19.3598    1.7370 H         1 TRP         0.2216
    185 H82         0.5919   18.6182    5.6482 H         1 TRP         0.0540
    186 H83        -3.4716   16.9926    3.2072 H         1 TRP         0.0541
    187 H84        -0.5213   16.5011    6.2901 H         1 TRP         0.0510
    188 H85        -2.5382   15.7150    5.0952 H         1 TRP         0.0530
    189 H86         1.8737   21.5649    7.1646 H         1 TRP         0.1884
    190 H87         3.3861   24.0135    7.0359 H         1 TRP         0.0823
    191 H88         3.9648   21.5282    8.7067 H         1 TRP         0.0606
    192 H89         2.8311   22.8440    9.1648 H         1 TRP         0.0606
    193 H90         4.6411   24.2776    9.0478 H         1 TRP         0.2097
    194 H91         5.2985   24.4810    6.2341 H         1 TRP         0.1875
    195 H92         6.6443   22.6442    4.4280 H         1 TRP         0.0726
    196 H93         8.2803   24.5535    4.2074 H         1 TRP         0.0307
    197 H94         7.3027   25.4525    5.4169 H         1 TRP         0.0307
    198 H95         5.3253   25.1463    3.8153 H         1 TRP         0.0301
    199 H96         6.5371   24.6234    2.5968 H         1 TRP         0.0301
    200 H97         6.0313   27.0324    2.3930 H         1 TRP         0.0689
    201 H98         7.7428   26.7555    2.8629 H         1 TRP         0.0689
    202 H99         6.1792   27.0924    5.2366 H         1 TRP         0.2642
    203 H100        7.3482   30.5012    3.3523 H         1 TRP         0.2615
    204 H101        7.3269   28.9675    2.4412 H         1 TRP         0.2615
    205 H102        6.2130   29.0404    6.3677 H         1 TRP         0.2615
    206 H103        6.7190   30.5427    5.5493 H         1 TRP         0.2615
@<TRIPOS>BOND
     1    1    2 1  
     2    2    3 1  
     3    2    5 1  
     4    3    4 2  
     5    3   15 am 
     6    5    6 1  
     7    6    7 2  
     8    6    8 1  
     9    7    9 1  
    10    8   10 ar 
    11    8   11 ar 
    12    9   10 1  
    13   10   12 ar 
    14   11   13 ar 
    15   12   14 ar 
    16   13   14 ar 
    17   15   16 1  
    18   16   17 1  
    19   16   19 1  
    20   17   18 2  
    21   17   23 am 
    22   19   20 1  
    23   20   21 1  
    24   21   22 1  
    25   23   24 1  
    26   24   25 1  
    27   24   27 1  
    28   25   26 2  
    29   25   31 am 
    30   27   28 1  
    31   28   29 1  
    32   28   30 1  
    33   31   32 1  
    34   32   33 1  
    35   32   35 1  
    36   33   34 2  
    37   33   39 am 
    38   35   36 1  
    39   36   37 ar 
    40   36   38 ar 
    41   39   40 1  
    42   39   45 1  
    43   40   41 1  
    44   40   43 1  
    45   41   42 2  
    46   41   46 am 
    47   43   44 1  
    48   44   45 1  
    49   46   47 1  
    50   47   48 1  
    51   47   50 1  
    52   48   49 2  
    53   48   54 am 
    54   50   51 1  
    55   50   52 1  
    56   51   53 1  
    57   54   55 1  
    58   55   56 1  
    59   55   58 1  
    60   56   57 2  
    61   56   59 am 
    62   59   60 1  
    63   60   61 1  
    64   61   62 2  
    65   61   63 am 
    66   63   64 1  
    67   64   65 1  
    68   64   67 1  
    69   65   66 2  
    70   65   72 am 
    71   67   68 1  
    72   68   69 1  
    73   69   70 1  
    74   70   71 1  
    75   72   73 1  
    76   73   74 1  
    77   73   76 1  
    78   74   75 2  
    79   74   86 am 
    80   76   77 1  
    81   77   78 2  
    82   77   79 1  
    83   78   80 1  
    84   79   81 ar 
    85   79   82 ar 
    86   80   81 1  
    87   81   83 ar 
    88   82   84 ar 
    89   83   85 ar 
    90   84   85 ar 
    91   86   87 1  
    92   87   88 1  
    93   87   90 1  
    94   88   89 2  
    95   88   92 am 
    96   90   91 1  
    97   92   93 1  
    98   93   94 1  
    99   93   96 1  
   100   94   95 ar 
   101   94  103 ar 
   102   96   97 1  
   103   97   98 1  
   104   98   99 1  
   105   99  100 ar 
   106  100  101 ar 
   107  100  102 ar 
   108    1  104 1  
   109    1  105 1  
   110    1  106 1  
   111    2  107 1  
   112    5  108 1  
   113    5  109 1  
   114    7  110 1  
   115    9  111 1  
   116   11  112 1  
   117   12  113 1  
   118   13  114 1  
   119   14  115 1  
   120   15  116 1  
   121   16  117 1  
   122   19  118 1  
   123   19  119 1  
   124   20  120 1  
   125   20  121 1  
   126   22  122 1  
   127   22  123 1  
   128   22  124 1  
   129   23  125 1  
   130   24  126 1  
   131   27  127 1  
   132   27  128 1  
   133   28  129 1  
   134   29  130 1  
   135   29  131 1  
   136   29  132 1  
   137   30  133 1  
   138   30  134 1  
   139   30  135 1  
   140   31  136 1  
   141   32  137 1  
   142   35  138 1  
   143   35  139 1  
   144   40  140 1  
   145   43  141 1  
   146   43  142 1  
   147   44  143 1  
   148   44  144 1  
   149   45  145 1  
   150   45  146 1  
   151   46  147 1  
   152   47  148 1  
   153   50  149 1  
   154   51  150 1  
   155   51  151 1  
   156   52  152 1  
   157   52  153 1  
   158   52  154 1  
   159   53  155 1  
   160   53  156 1  
   161   53  157 1  
   162   54  158 1  
   163   55  159 1  
   164   58  160 1  
   165   58  161 1  
   166   58  162 1  
   167   59  163 1  
   168   60  164 1  
   169   60  165 1  
   170   63  166 1  
   171   64  167 1  
   172   67  168 1  
   173   67  169 1  
   174   68  170 1  
   175   68  171 1  
   176   69  172 1  
   177   69  173 1  
   178   70  174 1  
   179   70  175 1  
   180   71  176 1  
   181   71  177 1  
   182   71  178 1  
   183   72  179 1  
   184   73  180 1  
   185   76  181 1  
   186   76  182 1  
   187   78  183 1  
   188   80  184 1  
   189   82  185 1  
   190   83  186 1  
   191   84  187 1  
   192   85  188 1  
   193   86  189 1  
   194   87  190 1  
   195   90  191 1  
   196   90  192 1  
   197   91  193 1  
   198   92  194 1  
   199   93  195 1  
   200   96  196 1  
   201   96  197 1  
   202   97  198 1  
   203   97  199 1  
   204   98  200 1  
   205   98  201 1  
   206   99  202 1  
   207  101  203 1  
   208  101  204 1  
   209  102  205 1  
   210  102  206 1  
@<TRIPOS>SUBSTRUCTURE
     1 TRP         1

