6hy2_ligand
  -I-interpret- 

205209  0  0  0  0  0  0  0  0999 V2000
    4.3270   15.6510    5.8330 N   0  3  0  0  0
    4.2510   17.0360    6.3890 C   0  0  0  0  0
    3.0860   17.1290    7.3620 C   0  0  0  0  0
    2.1460   16.3220    7.2980 O   0  0  0  0  0
    4.0890   18.0670    5.2630 C   0  0  0  0  0
    5.1010   17.9240    4.1460 C   0  0  0  0  0
    5.8670   16.8230    3.8650 C   0  0  0  0  0
    5.4270   18.9000    3.1460 C   0  0  0  0  0
    6.6580   17.0610    2.7690 N   0  0  0  0  0
    6.4080   18.3250    2.3060 C   0  0  0  0  0
    4.9910   20.2060    2.8820 C   0  0  0  0  0
    6.9620   19.0110    1.2180 C   0  0  0  0  0
    5.5410   20.8870    1.7980 C   0  0  0  0  0
    6.5150   20.2840    0.9790 C   0  0  0  0  0
    3.1550   18.1190    8.2510 N   0  0  0  0  0
    2.1340   18.3410    9.2720 C   0  0  0  0  0
    1.0030   19.2220    8.7380 C   0  0  0  0  0
    1.2540   20.3020    8.2010 O   0  0  0  0  0
    2.7750   18.9770   10.5140 C   0  0  0  0  0
    1.8030   19.5770   11.5280 C   0  0  0  0  0
    0.8210   18.3680   12.4350 S   0  0  0  0  0
    2.0570   17.6510   13.5170 C   0  0  0  0  0
   -0.2330   18.7550    8.8890 N   0  0  0  0  0
   -1.3970   19.5620    8.5400 C   0  0  0  0  0
   -1.7900   20.4360    9.7280 C   0  0  0  0  0
   -1.9290   19.9460   10.8490 O   0  0  0  0  0
   -2.5740   18.6770    8.1180 C   0  0  0  0  0
   -3.9000   19.3590    7.7570 C   0  0  0  0  0
   -3.7620   20.2620    6.5320 C   0  0  0  0  0
   -4.9650   18.3050    7.5270 C   0  0  0  0  0
   -1.9480   21.7310    9.4670 N   0  0  0  0  0
   -2.4590   22.6820   10.4520 C   0  0  0  0  0
   -3.8020   23.1920    9.9130 C   0  0  0  0  0
   -3.8360   24.1690    9.1660 O   0  0  0  0  0
   -1.4490   23.8270   10.6490 C   0  0  0  0  0
   -1.8580   24.8040   11.7530 C   0  0  0  0  0
   -3.0490   24.8360   12.1260 O   0  0  0  0  0
   -0.9770   25.5570   12.2370 O   0  0  0  0  0
   -4.9140   22.5010   10.2510 N   0  0  0  0  0
   -6.2150   22.8920    9.7000 C   0  0  0  0  0
   -6.6730   24.2910   10.1070 C   0  0  0  0  0
   -7.2990   24.9850    9.3060 O   0  0  0  0  0
   -7.1720   21.8290   10.2600 C   0  0  0  0  0
   -6.2950   20.6640   10.5710 C   0  0  0  0  0
   -5.0360   21.3010   11.0960 C   0  0  0  0  0
   -6.3600   24.7010   11.3330 N   0  0  0  0  0
   -6.7280   26.0400   11.7980 C   0  0  0  0  0
   -6.0130   27.1290   10.9760 C   0  0  0  0  0
   -6.6410   28.0960   10.5320 O   0  0  0  0  0
   -6.5480   26.1810   13.3370 C   0  0  0  0  0
   -7.6290   25.3420   14.0390 C   0  0  0  0  0
   -6.6220   27.6500   13.7590 C   0  0  0  0  0
   -7.2660   24.8570   15.4410 C   0  0  0  0  0
   -4.7170   26.9500   10.7350 N   0  0  0  0  0
   -3.9800   27.8520    9.8530 C   0  0  0  0  0
   -4.3970   27.6710    8.3930 C   0  0  0  0  0
   -4.2790   28.5990    7.5830 O   0  0  0  0  0
   -2.4860   27.6400    9.9970 C   0  0  0  0  0
   -4.8850   26.4730    8.0730 N   0  0  0  0  0
   -5.2520   26.1120    6.7050 C   0  0  0  0  0
   -4.0230   25.9140    5.8370 C   0  0  0  0  0
   -3.9240   26.4830    4.7480 O   0  0  0  0  0
   -3.0860   25.0970    6.3120 N   0  0  0  0  0
   -1.8340   24.8760    5.5880 C   0  0  0  0  0
   -1.2700   23.4750    5.8000 C   0  0  0  0  0
   -1.5530   22.8210    6.8100 O   0  0  0  0  0
   -0.7840   25.9090    6.0210 C   0  0  0  0  0
   -0.3770   25.7740    7.4870 C   0  0  0  0  0
    0.8590   26.5620    7.8530 C   0  0  0  0  0
    1.2140   26.2810    9.3100 C   0  0  0  0  0
    2.3540   27.0930    9.8030 N   0  3  0  0  0
   -0.4770   23.0260    4.8290 N   0  0  0  0  0
    0.4880   21.9570    5.0500 C   0  0  0  0  0
    1.7850   22.6420    5.4580 C   0  0  0  0  0
    2.2870   23.5070    4.7340 O   0  0  0  0  0
    0.7080   21.1330    3.7780 C   0  0  0  0  0
   -0.4410   20.2530    3.4180 C   0  0  0  0  0
   -1.3510   20.4620    2.4200 C   0  0  0  0  0
   -0.8120   19.0200    4.0480 C   0  0  0  0  0
   -2.2690   19.4380    2.3930 N   0  0  0  0  0
   -1.9620   18.5390    3.3800 C   0  0  0  0  0
   -0.2870   18.2760    5.1140 C   0  0  0  0  0
   -2.5950   17.3460    3.7380 C   0  0  0  0  0
   -0.9180   17.0900    5.4710 C   0  0  0  0  0
   -2.0650   16.6400    4.7860 C   0  0  0  0  0
    2.3120   22.2830    6.6240 N   0  0  0  0  0
    3.5250   22.9260    7.1250 C   0  0  0  0  0
    4.7570   22.5460    6.2990 C   0  0  0  0  0
    4.9580   21.3750    5.9610 O   0  0  0  0  0
    3.7450   22.6010    8.6030 C   0  0  0  0  0
    4.8280   23.3500    9.1320 O   0  0  0  0  0
    5.5630   23.5540    5.9680 N   0  0  0  0  0
    6.8150   23.3720    5.2350 C   0  0  0  0  0
    7.9130   22.8400    6.1500 C   0  0  0  0  0
    8.9690   22.4010    5.6810 O   0  0  0  0  0
    7.2700   24.6970    4.6180 C   0  0  0  0  0
    6.3770   25.2260    3.5030 C   0  0  0  0  0
    6.6970   26.6830    3.1960 C   0  0  0  0  0
    6.5130   27.5380    4.3700 N   0  0  0  0  0
    6.7450   28.8490    4.4010 C   0  0  0  0  0
    7.1720   29.4870    3.3170 N   0  0  0  0  0
    6.5440   29.5280    5.5230 N   0  0  0  0  0
    7.7770   22.8480    7.3780 O   0  0  0  0  0
    4.4342   14.9844    6.5976 H   0  0  0  0  0
    3.4708   15.4451    5.3184 H   0  0  0  0  0
    5.1277   15.5815    5.2049 H   0  0  0  0  0
    5.1796   17.2556    6.9158 H   0  0  0  0  0
    4.2325   19.0531    5.7047 H   0  0  0  0  0
    3.1019   17.9158    4.8260 H   0  0  0  0  0
    5.8504   15.8916    4.4309 H   0  0  0  0  0
    4.2374   20.6789    3.5117 H   0  0  0  0  0
    7.7202   18.5497    0.5852 H   0  0  0  0  0
    5.2120   21.9031    1.5804 H   0  0  0  0  0
    6.9224   20.8424    0.1362 H   0  0  0  0  0
    3.9560   18.7497    8.2172 H   0  0  0  0  0
    1.7012   17.3790    9.5465 H   0  0  0  0  0
    3.3931   19.7999   10.1550 H   0  0  0  0  0
    3.3055   18.1774   11.0310 H   0  0  0  0  0
    1.1039   20.1985   10.9685 H   0  0  0  0  0
    2.4023   20.1148   12.2626 H   0  0  0  0  0
    2.8482   17.2029   12.9160 H   0  0  0  0  0
    2.4784   18.4304   14.1518 H   0  0  0  0  0
    1.5934   16.8852   14.1389 H   0  0  0  0  0
   -0.3699   17.8133    9.2563 H   0  0  0  0  0
   -1.1372   20.1984    7.6941 H   0  0  0  0  0
   -2.7958   18.0591    8.9881 H   0  0  0  0  0
   -2.2476   18.1807    7.2041 H   0  0  0  0  0
   -4.1928   19.9966    8.5911 H   0  0  0  0  0
   -3.0231   21.0372    6.7350 H   0  0  0  0  0
   -3.4403   19.6665    5.6776 H   0  0  0  0  0
   -4.7245   20.7241    6.3126 H   0  0  0  0  0
   -4.6577   17.6520    6.7102 H   0  0  0  0  0
   -5.0942   17.7166    8.4354 H   0  0  0  0  0
   -5.9062   18.7913    7.2707 H   0  0  0  0  0
   -1.7017   22.0751    8.5389 H   0  0  0  0  0
   -2.6010   22.2190   11.4285 H   0  0  0  0  0
   -1.3955   24.3861    9.7148 H   0  0  0  0  0
   -0.4960   23.3826   10.9361 H   0  0  0  0  0
   -0.1341   25.3735   11.8157 H   0  0  0  0  0
   -6.1767   22.9382    8.6117 H   0  0  0  0  0
   -7.9572   21.5711    9.5493 H   0  0  0  0  0
   -7.7070   22.1842   11.1407 H   0  0  0  0  0
   -6.1125   20.0346    9.7000 H   0  0  0  0  0
   -6.7479   19.9805   11.2892 H   0  0  0  0  0
   -5.0834   21.5298   12.1607 H   0  0  0  0  0
   -4.1673   20.6453   11.0369 H   0  0  0  0  0
   -5.8558   24.0730   11.9590 H   0  0  0  0  0
   -7.7931   26.1896   11.6212 H   0  0  0  0  0
   -5.5641   25.8135   13.6286 H   0  0  0  0  0
   -7.7799   24.4515   13.4288 H   0  0  0  0  0
   -8.5033   25.9840   14.1462 H   0  0  0  0  0
   -5.8322   28.2106   13.2589 H   0  0  0  0  0
   -7.5928   28.0587   13.4787 H   0  0  0  0  0
   -6.4935   27.7234   14.8389 H   0  0  0  0  0
   -6.3733   24.2337   15.3887 H   0  0  0  0  0
   -7.0734   25.7166   16.0829 H   0  0  0  0  0
   -8.0931   24.2757   15.8485 H   0  0  0  0  0
   -4.2291   26.1691   11.1738 H   0  0  0  0  0
   -4.2228   28.8719   10.1513 H   0  0  0  0  0
   -2.1904   27.8349   11.0279 H   0  0  0  0  0
   -2.2394   26.6110    9.7353 H   0  0  0  0  0
   -1.9577   28.3222    9.3310 H   0  0  0  0  0
   -5.0073   25.7806    8.8119 H   0  0  0  0  0
   -5.8487   26.9200    6.2816 H   0  0  0  0  0
   -5.8117   25.1770    6.7316 H   0  0  0  0  0
   -3.2437   24.6158    7.1975 H   0  0  0  0  0
   -2.0631   24.9857    4.5280 H   0  0  0  0  0
   -1.2203   26.8991    5.8889 H   0  0  0  0  0
    0.1073   25.7486    5.4144 H   0  0  0  0  0
   -0.1563   24.7219    7.6670 H   0  0  0  0  0
   -1.1990   26.1613    8.0891 H   0  0  0  0  0
    0.6687   27.6270    7.7199 H   0  0  0  0  0
    1.6874   26.2663    7.2093 H   0  0  0  0  0
    1.5007   25.2319    9.3830 H   0  0  0  0  0
    0.3436   26.5329    9.9158 H   0  0  0  0  0
    2.5400   26.8590   10.7782 H   0  0  0  0  0
    3.1809   26.8928    9.2404 H   0  0  0  0  0
    2.1220   28.0834    9.7281 H   0  0  0  0  0
   -0.5474   23.4437    3.9011 H   0  0  0  0  0
    0.1315   21.2663    5.8142 H   0  0  0  0  0
    1.5668   20.4860    3.9568 H   0  0  0  0  0
    0.8456   21.8367    2.9570 H   0  0  0  0  0
   -1.3495   21.3165    1.7433 H   0  0  0  0  0
    0.5968   18.6201    5.6512 H   0  0  0  0  0
   -3.4764   16.9906    3.2042 H   0  0  0  0  0
   -0.5191   16.4978    6.2946 H   0  0  0  0  0
   -2.5408   15.7099    5.0969 H   0  0  0  0  0
    1.8649   21.5505    7.1754 H   0  0  0  0  0
    3.3835   24.0021    7.0244 H   0  0  0  0  0
    3.9744   21.5396    8.6975 H   0  0  0  0  0
    2.8406   22.8554    9.1556 H   0  0  0  0  0
    4.9460   23.1290   10.0587 H   0  0  0  0  0
    5.2933   24.4995    6.2394 H   0  0  0  0  0
    6.6326   22.6451    4.4435 H   0  0  0  0  0
    8.9388   22.4540    4.7229 H   0  0  0  0  0
    8.2516   24.5196    4.1785 H   0  0  0  0  0
    7.2514   25.4393    5.4160 H   0  0  0  0  0
    5.3374   25.1552    3.8229 H   0  0  0  0  0
    6.5486   24.6326    2.6050 H   0  0  0  0  0
    6.0203   27.0252    2.4130 H   0  0  0  0  0
    7.7398   26.7470    2.8851 H   0  0  0  0  0
    6.1825   27.0967    5.2282 H   0  0  0  0  0
    7.3430   30.4920    3.3509 H   0  0  0  0  0
    7.3288   28.9719    2.4507 H   0  0  0  0  0
    6.2127   29.0458    6.3585 H   0  0  0  0  0
  1  2  1  0  0  0
  2  3  1  0  0  0
  2  5  1  0  0  0
  3  4  2  0  0  0
  3 15  1  0  0  0
  5  6  1  0  0  0
  6  7  4  0  0  0
  6  8  4  0  0  0
  7  9  4  0  0  0
  8 10  4  0  0  0
  8 11  4  0  0  0
  9 10  4  0  0  0
 10 12  4  0  0  0
 11 13  4  0  0  0
 12 14  4  0  0  0
 13 14  4  0  0  0
 15 16  1  0  0  0
 16 17  1  0  0  0
 16 19  1  0  0  0
 17 18  2  0  0  0
 17 23  1  0  0  0
 19 20  1  0  0  0
 20 21  1  0  0  0
 21 22  1  0  0  0
 23 24  1  0  0  0
 24 25  1  0  0  0
 24 27  1  0  0  0
 25 26  2  0  0  0
 25 31  1  0  0  0
 27 28  1  0  0  0
 28 29  1  0  0  0
 28 30  1  0  0  0
 31 32  1  0  0  0
 32 33  1  0  0  0
 32 35  1  0  0  0
 33 34  2  0  0  0
 33 39  1  0  0  0
 35 36  1  0  0  0
 36 37  2  0  0  0
 36 38  1  0  0  0
 39 40  1  0  0  0
 39 45  1  0  0  0
 40 41  1  0  0  0
 40 43  1  0  0  0
 41 42  2  0  0  0
 41 46  1  0  0  0
 43 44  1  0  0  0
 44 45  1  0  0  0
 46 47  1  0  0  0
 47 48  1  0  0  0
 47 50  1  0  0  0
 48 49  2  0  0  0
 48 54  1  0  0  0
 50 51  1  0  0  0
 50 52  1  0  0  0
 51 53  1  0  0  0
 54 55  1  0  0  0
 55 56  1  0  0  0
 55 58  1  0  0  0
 56 57  2  0  0  0
 56 59  1  0  0  0
 59 60  1  0  0  0
 60 61  1  0  0  0
 61 62  2  0  0  0
 61 63  1  0  0  0
 63 64  1  0  0  0
 64 65  1  0  0  0
 64 67  1  0  0  0
 65 66  2  0  0  0
 65 72  1  0  0  0
 67 68  1  0  0  0
 68 69  1  0  0  0
 69 70  1  0  0  0
 70 71  1  0  0  0
 72 73  1  0  0  0
 73 74  1  0  0  0
 73 76  1  0  0  0
 74 75  2  0  0  0
 74 86  1  0  0  0
 76 77  1  0  0  0
 77 78  4  0  0  0
 77 79  4  0  0  0
 78 80  4  0  0  0
 79 81  4  0  0  0
 79 82  4  0  0  0
 80 81  4  0  0  0
 81 83  4  0  0  0
 82 84  4  0  0  0
 83 85  4  0  0  0
 84 85  4  0  0  0
 86 87  1  0  0  0
 87 88  1  0  0  0
 87 90  1  0  0  0
 88 89  2  0  0  0
 88 92  1  0  0  0
 90 91  1  0  0  0
 92 93  1  0  0  0
 93 94  1  0  0  0
 93 96  1  0  0  0
 94 95  1  0  0  0
 94103  2  0  0  0
 96 97  1  0  0  0
 97 98  1  0  0  0
 98 99  1  0  0  0
 99100  1  0  0  0
100101  1  0  0  0
100102  2  0  0  0
  1104  1  0  0  0
  1105  1  0  0  0
  1106  1  0  0  0
  2107  1  0  0  0
  5108  1  0  0  0
  5109  1  0  0  0
  7110  1  0  0  0
 11111  1  0  0  0
 12112  1  0  0  0
 13113  1  0  0  0
 14114  1  0  0  0
 15115  1  0  0  0
 16116  1  0  0  0
 19117  1  0  0  0
 19118  1  0  0  0
 20119  1  0  0  0
 20120  1  0  0  0
 22121  1  0  0  0
 22122  1  0  0  0
 22123  1  0  0  0
 23124  1  0  0  0
 24125  1  0  0  0
 27126  1  0  0  0
 27127  1  0  0  0
 28128  1  0  0  0
 29129  1  0  0  0
 29130  1  0  0  0
 29131  1  0  0  0
 30132  1  0  0  0
 30133  1  0  0  0
 30134  1  0  0  0
 31135  1  0  0  0
 32136  1  0  0  0
 35137  1  0  0  0
 35138  1  0  0  0
 38139  1  0  0  0
 40140  1  0  0  0
 43141  1  0  0  0
 43142  1  0  0  0
 44143  1  0  0  0
 44144  1  0  0  0
 45145  1  0  0  0
 45146  1  0  0  0
 46147  1  0  0  0
 47148  1  0  0  0
 50149  1  0  0  0
 51150  1  0  0  0
 51151  1  0  0  0
 52152  1  0  0  0
 52153  1  0  0  0
 52154  1  0  0  0
 53155  1  0  0  0
 53156  1  0  0  0
 53157  1  0  0  0
 54158  1  0  0  0
 55159  1  0  0  0
 58160  1  0  0  0
 58161  1  0  0  0
 58162  1  0  0  0
 59163  1  0  0  0
 60164  1  0  0  0
 60165  1  0  0  0
 63166  1  0  0  0
 64167  1  0  0  0
 67168  1  0  0  0
 67169  1  0  0  0
 68170  1  0  0  0
 68171  1  0  0  0
 69172  1  0  0  0
 69173  1  0  0  0
 70174  1  0  0  0
 70175  1  0  0  0
 71176  1  0  0  0
 71177  1  0  0  0
 71178  1  0  0  0
 72179  1  0  0  0
 73180  1  0  0  0
 76181  1  0  0  0
 76182  1  0  0  0
 78183  1  0  0  0
 82184  1  0  0  0
 83185  1  0  0  0
 84186  1  0  0  0
 85187  1  0  0  0
 86188  1  0  0  0
 87189  1  0  0  0
 90190  1  0  0  0
 90191  1  0  0  0
 91192  1  0  0  0
 92193  1  0  0  0
 93194  1  0  0  0
 95195  1  0  0  0
 96196  1  0  0  0
 96197  1  0  0  0
 97198  1  0  0  0
 97199  1  0  0  0
 98200  1  0  0  0
 98201  1  0  0  0
 99202  1  0  0  0
101203  1  0  0  0
101204  1  0  0  0
102205  1  0  0  0
M  END
$$$$
