5e7r_ligand
  -I-interpret- 

 58 61  0  0  0  0  0  0  0  0999 V2000
  -21.2660  -51.8450  -22.2790 C   0  0  0  0  0
  -20.2700  -50.8540  -21.9340 N   0  3  0  0  0
  -20.8310  -49.6450  -21.4110 C   0  0  0  0  0
  -19.7870  -48.6610  -20.8520 C   0  0  0  0  0
  -19.0300  -51.3040  -21.6370 C   0  0  0  0  0
  -18.5200  -50.8030  -20.5550 C   0  0  0  0  0
  -18.8070  -49.5380  -20.2150 N   0  0  0  0  0
  -17.7680  -48.8950  -19.5700 C   0  0  0  0  0
  -18.1700  -47.8280  -18.8260 C   0  0  0  0  0
  -17.1660  -47.1270  -18.1300 C   0  0  0  0  0
  -16.4870  -49.4010  -19.6990 C   0  0  0  0  0
  -15.4970  -48.7350  -18.9240 C   0  0  0  0  0
  -15.8420  -47.5900  -18.1690 C   0  0  0  0  0
  -14.9490  -46.8060  -17.3880 N   0  0  0  0  0
  -13.7470  -47.2090  -16.8710 C   0  0  0  0  0
  -13.1470  -46.3240  -16.0950 N   0  0  0  0  0
  -11.8900  -46.5680  -15.6460 C   0  0  0  0  0
  -11.2880  -47.7690  -15.7860 C   0  0  0  0  0
   -9.6570  -48.1920  -15.1840 Cl  0  0  0  0  0
  -12.0070  -48.6180  -16.5750 C   0  0  0  0  0
  -11.3390  -49.8320  -16.7880 O   0  0  0  0  0
  -11.8480  -50.6610  -17.7930 C   0  0  0  0  0
  -13.1480  -51.1170  -17.7640 C   0  0  0  0  0
  -13.5830  -51.9680  -18.7900 C   0  0  0  0  0
  -12.6880  -52.2660  -19.8370 C   0  0  0  0  0
  -11.3580  -51.7580  -19.8890 C   0  0  0  0  0
  -10.9540  -50.9350  -18.8420 C   0  0  0  0  0
   -9.6830  -50.3620  -18.6750 N   0  0  0  0  0
   -8.5100  -50.8180  -19.2750 C   0  0  0  0  0
   -7.2200  -50.1350  -18.8310 C   0  0  0  0  0
   -8.5540  -51.7570  -20.1350 O   0  0  0  0  0
  -13.1900  -48.3770  -17.1230 N   0  0  0  0  0
  -20.9369  -52.3980  -23.1588 H   0  0  0  0  0
  -21.3967  -52.5330  -21.4437 H   0  0  0  0  0
  -22.2121  -51.3480  -22.4935 H   0  0  0  0  0
  -19.8740  -50.4334  -22.7746 H   0  0  0  0  0
  -21.4872  -49.9232  -20.5864 H   0  0  0  0  0
  -21.3409  -49.1429  -22.2332 H   0  0  0  0  0
  -20.2189  -47.9399  -20.1581 H   0  0  0  0  0
  -19.3470  -48.0313  -21.6253 H   0  0  0  0  0
  -18.3791  -51.0117  -22.4610 H   0  0  0  0  0
  -19.1100  -52.3801  -21.4830 H   0  0  0  0  0
  -17.4440  -50.8057  -20.7290 H   0  0  0  0  0
  -18.9341  -51.4074  -19.7480 H   0  0  0  0  0
  -19.2173  -47.5309  -18.7716 H   0  0  0  0  0
  -17.4162  -46.2296  -17.5641 H   0  0  0  0  0
  -16.2536  -50.2466  -20.3459 H   0  0  0  0  0
  -14.4726  -49.1073  -18.9122 H   0  0  0  0  0
  -15.2328  -45.8458  -17.1932 H   0  0  0  0  0
  -11.3447  -45.7632  -15.1530 H   0  0  0  0  0
  -13.8236  -50.8225  -16.9609 H   0  0  0  0  0
  -14.5885  -52.3886  -18.7781 H   0  0  0  0  0
  -13.0289  -52.9148  -20.6438 H   0  0  0  0  0
  -10.6868  -52.0030  -20.7121 H   0  0  0  0  0
   -9.6122  -49.5469  -18.0659 H   0  0  0  0  0
   -6.5509  -50.8752  -18.3923 H   0  0  0  0  0
   -6.7387  -49.6744  -19.6937 H   0  0  0  0  0
   -7.4520  -49.3691  -18.0909 H   0  0  0  0  0
  1  2  1  0  0  0
  2  3  1  0  0  0
  2  5  1  0  0  0
  3  4  1  0  0  0
  4  7  1  0  0  0
  5  6  1  0  0  0
  6  7  1  0  0  0
  7  8  1  0  0  0
  8  9  4  0  0  0
  8 11  4  0  0  0
  9 10  4  0  0  0
 10 13  4  0  0  0
 11 12  4  0  0  0
 12 13  4  0  0  0
 13 14  1  0  0  0
 14 15  1  0  0  0
 15 16  4  0  0  0
 15 32  4  0  0  0
 16 17  4  0  0  0
 17 18  4  0  0  0
 18 19  1  0  0  0
 18 20  4  0  0  0
 20 21  1  0  0  0
 20 32  4  0  0  0
 21 22  1  0  0  0
 22 23  4  0  0  0
 22 27  4  0  0  0
 23 24  4  0  0  0
 24 25  4  0  0  0
 25 26  4  0  0  0
 26 27  4  0  0  0
 27 28  1  0  0  0
 28 29  1  0  0  0
 29 30  1  0  0  0
 29 31  2  0  0  0
  1 33  1  0  0  0
  1 34  1  0  0  0
  1 35  1  0  0  0
  2 36  1  0  0  0
  3 37  1  0  0  0
  3 38  1  0  0  0
  4 39  1  0  0  0
  4 40  1  0  0  0
  5 41  1  0  0  0
  5 42  1  0  0  0
  6 43  1  0  0  0
  6 44  1  0  0  0
  9 45  1  0  0  0
 10 46  1  0  0  0
 11 47  1  0  0  0
 12 48  1  0  0  0
 14 49  1  0  0  0
 17 50  1  0  0  0
 23 51  1  0  0  0
 24 52  1  0  0  0
 25 53  1  0  0  0
 26 54  1  0  0  0
 28 55  1  0  0  0
 30 56  1  0  0  0
 30 57  1  0  0  0
 30 58  1  0  0  0
M  END
$$$$
