3bgl_ligand
  -I-interpret- 

 78 81  0  0  0  0  0  0  0  0999 V2000
    3.5320    6.3320  -11.8520 N   0  0  0  0  0
    0.5930    6.7530  -15.5360 N   0  0  0  0  0
    3.2870    5.1110  -12.3100 C   0  0  0  0  0
    2.6960    8.6620  -11.9900 C   0  0  0  0  0
    4.6720    6.6130  -10.9710 C   0  0  0  0  0
    4.2520    6.6630   -9.5220 C   0  0  0  0  0
    5.0850    6.1690   -7.2390 C   0  0  0  0  0
    1.4040    9.1500  -11.3240 C   0  0  0  0  0
    5.5120    2.0760  -12.4930 C   0  0  0  0  0
    1.7930    7.3120  -16.1590 C   0  0  0  0  0
    2.0200    6.6010  -17.4920 C   0  0  0  0  0
    3.4430    3.0970  -10.9510 C   0  0  0  0  0
   -0.0260    2.1260  -13.9490 C   0  0  0  0  0
    3.9920    1.8660  -10.6230 C   0  0  0  0  0
   -0.6260    6.6820  -16.3520 C   0  0  0  0  0
    0.5390    1.7080  -15.1450 C   0  0  0  0  0
   -0.7840    6.3690  -13.6010 O   0  0  0  0  0
    0.4110    7.0330  -14.0530 S   0  0  0  0  0
    0.2650    8.4510  -13.9000 O   0  0  0  0  0
   -0.2590    6.0000  -17.6670 C   0  0  0  0  0
    0.8370    6.6730  -18.2880 O   0  0  0  0  0
    1.7200    6.4860  -13.1760 C   0  0  0  0  0
    2.0980    5.1660  -13.1560 C   0  0  0  0  0
    1.5300    3.9720  -13.8440 C   0  0  0  0  0
    0.4730    3.2530  -13.2980 C   0  0  0  0  0
    1.6080    2.4170  -15.6900 C   0  0  0  0  0
    2.1090    3.5430  -15.0340 C   0  0  0  0  0
    2.6220    7.2140  -12.3540 C   0  0  0  0  0
    3.1040    9.4910  -13.1890 C   0  0  0  0  0
    3.9250    3.8070  -12.0490 C   0  0  0  0  0
    5.0240    1.3630  -11.4000 C   0  0  0  0  0
    5.5450    0.1770  -11.0800 F   0  0  0  0  0
    4.9660    3.3130  -12.8200 C   0  0  0  0  0
    5.4850    6.6240   -8.6300 C   0  0  0  0  0
    6.0470    7.9190   -8.5640 O   0  0  0  0  0
    4.9460    4.6550   -7.1820 C   0  0  0  0  0
    6.2040    4.0640   -7.4530 O   0  0  0  0  0
    4.4590    4.2280   -5.8020 C   0  0  0  0  0
    3.9800    2.7930   -5.8530 C   0  0  0  0  0
    2.9190    2.5100   -6.3990 O   0  0  0  0  0
    4.7200    1.8340   -5.3020 O   0  0  0  0  0
    3.4746    8.7904  -11.2381 H   0  0  0  0  0
    5.0882    7.5828  -11.2436 H   0  0  0  0  0
    5.4056    5.8157  -11.0906 H   0  0  0  0  0
    3.6173    5.8052   -9.2995 H   0  0  0  0  0
    3.7006    7.5848   -9.3368 H   0  0  0  0  0
    4.1251    6.6189   -6.9856 H   0  0  0  0  0
    5.8571    6.4769   -6.5339 H   0  0  0  0  0
    0.5684    9.0118  -12.0102 H   0  0  0  0  0
    1.2270    8.5769  -10.4139 H   0  0  0  0  0
    1.5013   10.2070  -11.0762 H   0  0  0  0  0
    6.3232    1.6637  -13.0931 H   0  0  0  0  0
    2.6542    7.1661  -15.5070 H   0  0  0  0  0
    1.6638    8.3817  -16.3240 H   0  0  0  0  0
    2.2647    5.5554  -17.3050 H   0  0  0  0  0
    2.8405    7.0843  -18.0224 H   0  0  0  0  0
    2.6334    3.5096  -10.3490 H   0  0  0  0  0
   -0.8606    1.5729  -13.5181 H   0  0  0  0  0
    3.6178    1.3031   -9.7678 H   0  0  0  0  0
   -1.0190    7.6816  -16.5378 H   0  0  0  0  0
   -1.3999    6.1168  -15.8326 H   0  0  0  0  0
    0.1484    0.8284  -15.6566 H   0  0  0  0  0
   -1.1195    6.0312  -18.3354 H   0  0  0  0  0
    0.0271    4.9680  -17.4639 H   0  0  0  0  0
    0.0313    3.5727  -12.3542 H   0  0  0  0  0
    2.0537    2.0918  -16.6301 H   0  0  0  0  0
    2.9549    4.0867  -15.4548 H   0  0  0  0  0
    2.3143    9.4554  -13.9394 H   0  0  0  0  0
    3.2649   10.5231  -12.8777 H   0  0  0  0  0
    4.0256    9.0893  -13.6102 H   0  0  0  0  0
    5.3493    3.8830  -13.6663 H   0  0  0  0  0
    6.2175    5.9282   -9.0392 H   0  0  0  0  0
    6.2985    8.2028   -9.4459 H   0  0  0  0  0
    4.2198    4.3276   -7.9260 H   0  0  0  0  0
    6.1214    3.1082   -7.4182 H   0  0  0  0  0
    3.6366    4.8732   -5.4929 H   0  0  0  0  0
    5.2781    4.3108   -5.0876 H   0  0  0  0  0
    5.5114    2.2212   -4.9207 H   0  0  0  0  0
  3  1  4  0  0  0
  1  5  1  0  0  0
 28  1  4  0  0  0
  2 10  1  0  0  0
  2 15  1  0  0  0
 18  2  1  0  0  0
 23  3  4  0  0  0
  3 30  1  0  0  0
  4  8  1  0  0  0
 28  4  1  0  0  0
  4 29  1  0  0  0
  5  6  1  0  0  0
  6 34  1  0  0  0
 34  7  1  0  0  0
  7 36  1  0  0  0
 31  9  4  0  0  0
  9 33  4  0  0  0
 10 11  1  0  0  0
 11 21  1  0  0  0
 12 14  4  0  0  0
 30 12  4  0  0  0
 13 16  4  0  0  0
 25 13  4  0  0  0
 14 31  4  0  0  0
 15 20  1  0  0  0
 16 26  4  0  0  0
 18 17  2  0  0  0
 18 19  2  0  0  0
 22 18  1  0  0  0
 20 21  1  0  0  0
 23 22  4  0  0  0
 22 28  4  0  0  0
 24 23  1  0  0  0
 24 25  4  0  0  0
 24 27  4  0  0  0
 26 27  4  0  0  0
 30 33  4  0  0  0
 31 32  1  0  0  0
 34 35  1  0  0  0
 36 37  1  0  0  0
 36 38  1  0  0  0
 38 39  1  0  0  0
 39 40  2  0  0  0
 39 41  1  0  0  0
  4 42  1  0  0  0
  5 43  1  0  0  0
  5 44  1  0  0  0
  6 45  1  0  0  0
  6 46  1  0  0  0
  7 47  1  0  0  0
  7 48  1  0  0  0
  8 49  1  0  0  0
  8 50  1  0  0  0
  8 51  1  0  0  0
  9 52  1  0  0  0
 10 53  1  0  0  0
 10 54  1  0  0  0
 11 55  1  0  0  0
 11 56  1  0  0  0
 12 57  1  0  0  0
 13 58  1  0  0  0
 14 59  1  0  0  0
 15 60  1  0  0  0
 15 61  1  0  0  0
 16 62  1  0  0  0
 20 63  1  0  0  0
 20 64  1  0  0  0
 25 65  1  0  0  0
 26 66  1  0  0  0
 27 67  1  0  0  0
 29 68  1  0  0  0
 29 69  1  0  0  0
 29 70  1  0  0  0
 33 71  1  0  0  0
 34 72  1  0  0  0
 35 73  1  0  0  0
 36 74  1  0  0  0
 37 75  1  0  0  0
 38 76  1  0  0  0
 38 77  1  0  0  0
 41 78  1  0  0  0
M  END
$$$$
