5wei_ligand
  -I-interpret- 

 39 40  0  0  0  0  0  0  0  0999 V2000
  127.9390  192.4670  283.8620 C   0  0  0  0  0
  130.0080  193.4920  283.9030 C   0  0  0  0  0
  129.6360  194.3020  284.9340 C   0  0  0  0  0
  128.3490  194.1980  285.4700 C   0  0  0  0  0
  131.3810  193.5500  283.2850 C   0  0  0  0  0
  132.9270  192.4270  281.7630 C   0  0  0  0  0
  132.9430  191.2540  280.8140 C   0  0  0  0  0
  128.4570  190.1840  281.7360 C   0  0  0  0  0
  127.6640  190.0340  283.0260 C   0  0  0  0  0
  127.0460  191.4310  283.2140 C   0  0  0  0  0
  127.4930  190.9510  280.8600 C   0  0  0  0  0
  125.8100  192.6770  281.4500 C   0  0  0  0  0
  125.7700  193.9860  282.1810 C   0  0  0  0  0
  129.1720  192.5910  283.3780 N   0  0  0  0  0
  127.5160  193.2580  284.8980 N   0  0  0  0  0
  131.6060  192.6310  282.3480 N   0  0  0  0  0
  126.7330  191.7770  281.8160 N   0  0  0  0  0
  130.4420  195.2170  285.4920 O   0  0  0  0  0
  127.9320  194.8910  286.4130 O   0  0  0  0  0
  132.2150  194.3750  283.6530 O   0  0  0  0  0
  125.0460  192.4610  280.5110 O   0  0  0  0  0
  133.1973  193.3235  281.2050 H   0  0  0  0  0
  133.6320  192.2255  282.5695 H   0  0  0  0  0
  132.6624  190.3488  281.3525 H   0  0  0  0  0
  132.2335  191.4323  280.0060 H   0  0  0  0  0
  133.9446  191.1365  280.4004 H   0  0  0  0  0
  128.7653  189.2310  281.3062 H   0  0  0  0  0
  129.4118  190.6914  281.8734 H   0  0  0  0  0
  128.2823  189.7276  283.8698 H   0  0  0  0  0
  126.9153  189.2436  282.9732 H   0  0  0  0  0
  126.2051  191.4185  283.9074 H   0  0  0  0  0
  126.8495  190.2937  280.2753 H   0  0  0  0  0
  128.0032  191.5508  280.1063 H   0  0  0  0  0
  125.9820  194.7966  281.4838 H   0  0  0  0  0
  124.7804  194.1281  282.6153 H   0  0  0  0  0
  126.5186  193.9813  282.9732 H   0  0  0  0  0
  126.5661  193.1498  285.2536 H   0  0  0  0  0
  130.8299  192.0510  282.0290 H   0  0  0  0  0
  129.9719  195.6686  286.1968 H   0  0  0  0  0
 10  1  1  0  0  0
  1 14  2  0  0  0
  1 15  1  0  0  0
  2  3  2  0  0  0
  2  5  1  0  0  0
 14  2  1  0  0  0
  4  3  1  0  0  0
  3 18  1  0  0  0
 15  4  1  0  0  0
  4 19  2  0  0  0
  5 16  1  0  0  0
  5 20  2  0  0  0
  6  7  1  0  0  0
 16  6  1  0  0  0
  8  9  1  0  0  0
 11  8  1  0  0  0
 10  9  1  0  0  0
 17 10  1  0  0  0
 17 11  1  0  0  0
 12 13  1  0  0  0
 12 17  1  0  0  0
 12 21  2  0  0  0
  6 22  1  0  0  0
  6 23  1  0  0  0
  7 24  1  0  0  0
  7 25  1  0  0  0
  7 26  1  0  0  0
  8 27  1  0  0  0
  8 28  1  0  0  0
  9 29  1  0  0  0
  9 30  1  0  0  0
 10 31  1  0  0  0
 11 32  1  0  0  0
 11 33  1  0  0  0
 13 34  1  0  0  0
 13 35  1  0  0  0
 13 36  1  0  0  0
 15 37  1  0  0  0
 16 38  1  0  0  0
 18 39  1  0  0  0
M  END
$$$$
