6h4v_ligand
  -I-interpret- 

 39 42  0  0  0  0  0  0  0  0999 V2000
    8.0570  -20.3730  -55.7580 C   0  0  0  0  0
    3.6930  -16.9710  -51.4800 C   0  0  0  0  0
    4.1190  -18.1900  -50.9170 C   0  0  0  0  0
    6.3050  -19.2910  -54.4140 C   0  0  0  0  0
    7.7370  -21.4860  -55.0660 N   0  0  0  0  0
    6.7760  -21.5040  -54.1160 C   0  0  0  0  0
    2.5880  -19.4850  -49.3620 C   0  0  0  0  0
    3.9200  -18.7600  -49.5430 C   0  0  0  0  0
    4.8410  -18.7820  -51.9060 C   0  0  0  0  0
    4.1080  -17.7430  -48.4210 C   0  0  0  0  0
    8.9870  -20.3630  -56.5540 O   0  0  0  0  0
    7.2640  -19.1920  -55.4300 C   0  0  0  0  0
    7.4150  -18.0180  -56.1580 C   0  0  0  0  0
    6.0610  -20.4700  -53.7470 N   0  0  0  0  0
    5.5570  -18.1050  -54.1720 C   0  0  0  0  0
    5.6460  -16.9950  -54.9030 N   0  0  0  0  0
    6.5720  -16.9680  -55.8670 C   0  0  0  0  0
    4.8490  -17.9460  -52.9600 N   0  0  0  0  0
    4.1290  -16.8150  -52.7170 N   0  0  0  0  0
    4.0270  -18.4640  -47.0850 C   0  0  0  0  0
    2.7340  -19.1380  -46.9210 N   0  3  0  0  0
    2.5540  -20.1320  -47.9860 C   0  0  0  0  0
    3.0755  -16.2415  -50.9559 H   0  0  0  0  0
    8.2411  -22.3494  -55.2681 H   0  0  0  0  0
    6.5804  -22.4534  -53.6176 H   0  0  0  0  0
    2.4814  -20.2516  -50.1295 H   0  0  0  0  0
    1.7683  -18.7721  -49.4515 H   0  0  0  0  0
    4.7171  -19.4992  -49.4632 H   0  0  0  0  0
    5.3254  -19.7571  -51.8540 H   0  0  0  0  0
    3.3286  -16.9831  -48.4777 H   0  0  0  0  0
    5.0798  -17.2595  -48.5207 H   0  0  0  0  0
    8.1756  -17.9308  -56.9339 H   0  0  0  0  0
    6.6658  -16.0582  -56.4599 H   0  0  0  0  0
    4.1396  -17.7301  -46.2870 H   0  0  0  0  0
    4.8168  -19.2142  -47.0469 H   0  0  0  0  0
    1.9846  -18.4480  -46.9730 H   0  0  0  0  0
    2.7097  -19.6058  -46.0149 H   0  0  0  0  0
    3.3665  -20.8560  -47.9242 H   0  0  0  0  0
    1.5835  -20.6099  -47.8525 H   0  0  0  0  0
  1  5  1  0  0  0
  1 11  2  0  0  0
 12  1  1  0  0  0
  3  2  4  0  0  0
  2 19  4  0  0  0
  3  8  1  0  0  0
  9  3  4  0  0  0
  4 12  4  0  0  0
  4 14  1  0  0  0
 15  4  4  0  0  0
  6  5  1  0  0  0
 14  6  2  0  0  0
  8  7  1  0  0  0
  7 22  1  0  0  0
  8 10  1  0  0  0
 18  9  4  0  0  0
 10 20  1  0  0  0
 12 13  4  0  0  0
 13 17  4  0  0  0
 15 16  4  0  0  0
 15 18  1  0  0  0
 16 17  4  0  0  0
 18 19  4  0  0  0
 20 21  1  0  0  0
 21 22  1  0  0  0
  2 23  1  0  0  0
  5 24  1  0  0  0
  6 25  1  0  0  0
  7 26  1  0  0  0
  7 27  1  0  0  0
  8 28  1  0  0  0
  9 29  1  0  0  0
 10 30  1  0  0  0
 10 31  1  0  0  0
 13 32  1  0  0  0
 17 33  1  0  0  0
 20 34  1  0  0  0
 20 35  1  0  0  0
 21 36  1  0  0  0
 21 37  1  0  0  0
 22 38  1  0  0  0
 22 39  1  0  0  0
M  END
$$$$
