6d8e_ligand
  -I-interpret- 

 60 63  0  0  0  0  0  0  0  0999 V2000
    0.9370  -52.8840   18.5680 C   0  0  0  0  0
    2.5980  -53.1960   29.5700 C   0  0  0  0  0
    1.1970  -53.7420   20.9270 C   0  0  0  0  0
    0.1560  -52.7390   22.8170 C   0  0  0  0  0
    0.9200  -51.8690   27.8330 C   0  0  0  0  0
    0.6590  -53.7540   23.6350 C   0  0  0  0  0
    1.4470  -54.7560   23.0460 C   0  0  0  0  0
   -0.9380  -51.4220   24.5390 C   0  0  0  0  0
    0.0040  -51.1350   26.8680 C   0  0  0  0  0
    0.3750  -52.4600   28.9860 C   0  0  0  0  0
    1.2200  -53.1300   29.8590 C   0  0  0  0  0
    0.6030  -51.9310   16.6770 N   0  0  0  0  0
    1.4350  -52.8850   17.3080 N   0  0  0  0  0
   -0.1360  -52.0100   18.7480 C   0  0  0  0  0
    1.4260  -53.6770   19.5860 N   0  0  0  0  0
    0.9220  -51.7160   15.2350 C   0  0  0  0  0
    3.1630  -52.6030   28.4390 C   0  0  0  0  0
    2.3030  -51.9520   27.5580 C   0  0  0  0  0
   -1.3760  -50.8980   22.2710 C   0  0  0  0  0
   -0.7880  -49.8880   21.4650 C   0  0  0  0  0
   -1.5700  -49.1790   20.5450 C   0  0  0  0  0
   -0.3200  -51.4030   17.5090 C   0  0  0  0  0
   -2.9390  -49.4480   20.4090 C   0  0  0  0  0
   -3.5490  -50.4500   21.1940 C   0  0  0  0  0
   -2.7620  -51.1390   22.1070 C   0  0  0  0  0
   -5.7800  -50.5790   20.2230 C   0  0  0  0  0
   -7.2510  -50.9610   20.3250 C   0  0  0  0  0
   -7.6010  -52.0590   19.3110 C   0  0  0  0  0
    3.4200  -53.8470   30.3940 F   0  0  0  0  0
    0.4360  -52.7700   21.4850 N   0  0  0  0  0
    1.7050  -54.7350   21.7140 N   0  0  0  0  0
   -0.6490  -51.6540   23.2430 N   0  0  0  0  0
   -4.9370  -50.7660   21.1460 N   0  0  0  0  0
   -1.9630  -50.8530   24.8750 O   0  0  0  0  0
    0.0010  -51.7750   25.5940 O   0  0  0  0  0
   -5.3930  -50.0960   19.1680 O   0  0  0  0  0
    0.4450  -53.7677   24.7037 H   0  0  0  0  0
    1.8544  -55.5566   23.6634 H   0  0  0  0  0
    0.3628  -50.1127   26.7489 H   0  0  0  0  0
   -1.0096  -51.1415   27.2689 H   0  0  0  0  0
   -0.6935  -52.3931   29.1908 H   0  0  0  0  0
    0.8226  -53.6002   30.7585 H   0  0  0  0  0
   -0.7064  -51.8396   19.6611 H   0  0  0  0  0
    2.1075  -54.3642   19.2640 H   0  0  0  0  0
    1.9494  -51.3645   15.1400 H   0  0  0  0  0
    0.8067  -52.6556   14.6947 H   0  0  0  0  0
    0.2421  -50.9714   14.8209 H   0  0  0  0  0
    4.2360  -52.6479   28.2528 H   0  0  0  0  0
    2.7007  -51.5025   26.6481 H   0  0  0  0  0
    0.2743  -49.6640   21.5625 H   0  0  0  0  0
   -1.1087  -48.4086   19.9271 H   0  0  0  0  0
   -1.0650  -50.6477   17.2589 H   0  0  0  0  0
   -3.5350  -48.8809   19.6940 H   0  0  0  0  0
   -3.2332  -51.9016   22.7270 H   0  0  0  0  0
   -7.8581  -50.0808   20.1133 H   0  0  0  0  0
   -7.4480  -51.3349   21.3297 H   0  0  0  0  0
   -7.4004  -51.6976   18.3024 H   0  0  0  0  0
   -6.9936  -52.9420   19.5094 H   0  0  0  0  0
   -8.6566  -52.3142   19.4037 H   0  0  0  0  0
   -5.3076  -51.2116   21.9853 H   0  0  0  0  0
  1 13  4  0  0  0
  1 14  4  0  0  0
 15  1  1  0  0  0
 11  2  4  0  0  0
 17  2  4  0  0  0
  2 29  1  0  0  0
  3 15  1  0  0  0
 30  3  4  0  0  0
  3 31  4  0  0  0
  4  6  4  0  0  0
  4 30  4  0  0  0
 32  4  1  0  0  0
  9  5  1  0  0  0
  5 10  4  0  0  0
  5 18  4  0  0  0
  6  7  4  0  0  0
  7 31  4  0  0  0
 32  8  1  0  0  0
  8 34  2  0  0  0
  8 35  1  0  0  0
 35  9  1  0  0  0
 10 11  4  0  0  0
 13 12  4  0  0  0
 12 16  1  0  0  0
 22 12  4  0  0  0
 14 22  4  0  0  0
 18 17  4  0  0  0
 19 20  4  0  0  0
 25 19  4  0  0  0
 19 32  1  0  0  0
 21 20  4  0  0  0
 23 21  4  0  0  0
 24 23  4  0  0  0
 24 25  4  0  0  0
 33 24  1  0  0  0
 26 27  1  0  0  0
 26 33  1  0  0  0
 26 36  2  0  0  0
 27 28  1  0  0  0
  6 37  1  0  0  0
  7 38  1  0  0  0
  9 39  1  0  0  0
  9 40  1  0  0  0
 10 41  1  0  0  0
 11 42  1  0  0  0
 14 43  1  0  0  0
 15 44  1  0  0  0
 16 45  1  0  0  0
 16 46  1  0  0  0
 16 47  1  0  0  0
 17 48  1  0  0  0
 18 49  1  0  0  0
 20 50  1  0  0  0
 21 51  1  0  0  0
 22 52  1  0  0  0
 23 53  1  0  0  0
 25 54  1  0  0  0
 27 55  1  0  0  0
 27 56  1  0  0  0
 28 57  1  0  0  0
 28 58  1  0  0  0
 28 59  1  0  0  0
 33 60  1  0  0  0
M  END
$$$$
