4kz8_ligand
  -I-interpret- 

 25 25  0  0  0  0  0  0  0  0999 V2000
   23.8700    8.7590   16.0970 C   0  0  0  0  0
   23.4040    7.3540   16.2820 C   0  0  0  0  0
   22.5960    6.7670   15.2370 N   0  0  0  0  0
   21.2530    6.8820   15.3500 C   0  0  0  0  0
   20.6770    7.5320   16.4230 O   0  0  0  0  0
   20.4420    6.3360   14.3770 C   0  0  0  0  0
   21.0130    5.6870   13.3050 C   0  0  0  0  0
   20.2750    5.2090   12.4500 O   0  0  0  0  0
   22.3550    5.5810   13.2030 N   0  0  0  0  0
   22.8720    4.8830   12.0450 C   0  0  0  0  0
   23.1160    5.6950   10.8130 C   0  0  0  0  0
   23.1630    6.1230   14.1700 C   0  0  0  0  0
   24.8340    6.0130   14.0840 S   0  0  0  0  0
   24.4794    8.8226   15.1955 H   0  0  0  0  0
   23.0065    9.4171   16.0005 H   0  0  0  0  0
   24.4634    9.0603   16.9603 H   0  0  0  0  0
   22.7661    7.3737   17.1656 H   0  0  0  0  0
   24.3107    6.7503   16.3215 H   0  0  0  0  0
   21.3665    7.8539   17.0083 H   0  0  0  0  0
   19.3579    6.4176   14.4560 H   0  0  0  0  0
   22.1092    4.1533   11.7733 H   0  0  0  0  0
   23.8462    4.4953   12.3427 H   0  0  0  0  0
   22.1801    6.1491   10.4874 H   0  0  0  0  0
   23.8434    6.4765   11.0326 H   0  0  0  0  0
   23.5017    5.0491   10.0242 H   0  0  0  0  0
  1  2  1  0  0  0
  2  3  1  0  0  0
  3  4  1  0  0  0
  3 12  1  0  0  0
  4  5  1  0  0  0
  4  6  2  0  0  0
  6  7  1  0  0  0
  7  8  2  0  0  0
  7  9  1  0  0  0
  9 10  1  0  0  0
  9 12  1  0  0  0
 10 11  1  0  0  0
 12 13  2  0  0  0
  1 14  1  0  0  0
  1 15  1  0  0  0
  1 16  1  0  0  0
  2 17  1  0  0  0
  2 18  1  0  0  0
  5 19  1  0  0  0
  6 20  1  0  0  0
 10 21  1  0  0  0
 10 22  1  0  0  0
 11 23  1  0  0  0
 11 24  1  0  0  0
 11 25  1  0  0  0
M  END
$$$$
