4lgg_ligand
  -I-interpret- 

 43 45  0  0  0  0  0  0  0  0999 V2000
   -4.5440   -4.3530   -9.4040 C   0  0  0  0  0
   -5.8670   -4.5970   -8.7560 C   0  0  0  0  0
   -6.4600   -3.2830   -8.3680 C   0  0  0  0  0
   -6.7680   -5.2820   -9.7290 C   0  0  0  0  0
   -5.6980   -5.4100   -7.5850 N   0  0  0  0  0
   -4.5210   -5.8260   -7.1300 N   0  0  0  0  0
   -6.7070   -5.8570   -6.7790 C   0  0  0  0  0
   -8.0720   -5.6930   -6.8310 N   0  0  0  0  0
   -8.8730   -6.2400   -5.9090 C   0  0  0  0  0
   -8.3650   -6.9710   -4.8950 N   0  0  0  0  0
   -7.0330   -7.1780   -4.7730 C   0  0  0  0  0
   -6.6060   -7.9670   -3.6560 N   0  0  0  0  0
   -6.1370   -6.6110   -5.7390 C   0  0  0  0  0
   -4.7020   -6.5580   -6.0210 C   0  0  0  0  0
   -3.5440   -7.1570   -5.2880 C   0  0  0  0  0
   -3.7410   -8.6140   -5.0290 C   0  0  0  0  0
   -3.3100   -9.1530   -3.8250 C   0  0  0  0  0
   -4.3370   -9.4300   -5.9810 C   0  0  0  0  0
   -4.5090  -10.7830   -5.7220 C   0  0  0  0  0
   -4.0780  -11.3210   -4.5160 C   0  0  0  0  0
   -3.4790  -10.5050   -3.5680 C   0  0  0  0  0
   -3.0120  -11.0730   -2.2710 C   0  0  0  0  0
   -3.8864   -3.8398   -8.7024 H   0  0  0  0  0
   -4.0995   -5.3063   -9.6898 H   0  0  0  0  0
   -4.6838   -3.7353  -10.2912 H   0  0  0  0  0
   -7.4288   -3.4481   -7.8965 H   0  0  0  0  0
   -5.7948   -2.7783   -7.6674 H   0  0  0  0  0
   -6.5879   -2.6666   -9.2578 H   0  0  0  0  0
   -6.3306   -6.2382  -10.0162 H   0  0  0  0  0
   -7.7402   -5.4502   -9.2657 H   0  0  0  0  0
   -6.8888   -4.6561  -10.6131 H   0  0  0  0  0
   -9.9508   -6.0930   -5.9781 H   0  0  0  0  0
   -7.2944   -8.3404   -3.0025 H   0  0  0  0  0
   -5.6136   -8.1553   -3.5143 H   0  0  0  0  0
   -3.4483   -6.6496   -4.3281 H   0  0  0  0  0
   -2.6520   -7.0372   -5.9028 H   0  0  0  0  0
   -2.8378   -8.5124   -3.0801 H   0  0  0  0  0
   -4.6693   -9.0092   -6.9300 H   0  0  0  0  0
   -4.9827  -11.4238   -6.4657 H   0  0  0  0  0
   -4.2105  -12.3840   -4.3149 H   0  0  0  0  0
   -1.9383  -10.9137   -2.1717 H   0  0  0  0  0
   -3.5315  -10.5776   -1.4508 H   0  0  0  0  0
   -3.2260  -12.1415   -2.2457 H   0  0  0  0  0
  1  2  1  0  0  0
  2  3  1  0  0  0
  2  4  1  0  0  0
  2  5  1  0  0  0
  5  6  4  0  0  0
  5  7  4  0  0  0
  6 14  4  0  0  0
  7  8  4  0  0  0
  7 13  4  0  0  0
  8  9  4  0  0  0
  9 10  4  0  0  0
 10 11  4  0  0  0
 11 12  1  0  0  0
 11 13  4  0  0  0
 13 14  4  0  0  0
 14 15  1  0  0  0
 15 16  1  0  0  0
 16 17  4  0  0  0
 16 18  4  0  0  0
 17 21  4  0  0  0
 18 19  4  0  0  0
 19 20  4  0  0  0
 20 21  4  0  0  0
 21 22  1  0  0  0
  1 23  1  0  0  0
  1 24  1  0  0  0
  1 25  1  0  0  0
  3 26  1  0  0  0
  3 27  1  0  0  0
  3 28  1  0  0  0
  4 29  1  0  0  0
  4 30  1  0  0  0
  4 31  1  0  0  0
  9 32  1  0  0  0
 12 33  1  0  0  0
 12 34  1  0  0  0
 15 35  1  0  0  0
 15 36  1  0  0  0
 17 37  1  0  0  0
 18 38  1  0  0  0
 19 39  1  0  0  0
 20 40  1  0  0  0
 22 41  1  0  0  0
 22 42  1  0  0  0
 22 43  1  0  0  0
M  END
$$$$
