3q3k_ligand
  -I-interpret- 

 52 56  0  0  0  0  0  0  0  0999 V2000
    8.5570    8.9150   25.0360 C   0  0  0  0  0
    8.6980    8.2650   26.2130 N   0  0  0  0  0
    7.1400   10.1380   23.8020 O   0  0  0  0  0
   14.4530    8.0710   26.5830 Cl  0  0  0  0  0
    7.2930    9.1640   24.5110 C   0  0  0  0  0
    9.8070    9.2460   24.4410 C   0  0  0  0  0
   10.7330    8.7470   25.3790 C   0  0  0  0  0
   10.0350    8.1310   26.4750 C   0  0  0  0  0
   12.1370    8.7290   25.4250 C   0  0  0  0  0
   10.6660    7.5510   27.5800 C   0  0  0  0  0
   12.0600    7.5390   27.6190 C   0  0  0  0  0
   12.7450    8.1330   26.5130 C   0  0  0  0  0
    2.2570    8.5100   24.2770 C   0  0  0  0  0
    3.0110    7.7990   23.3630 C   0  0  0  0  0
    2.8670    9.1280   25.3670 C   0  0  0  0  0
    4.2400    9.0340   25.5460 C   0  0  0  0  0
    5.1970    5.6790   22.5080 C   0  0  0  0  0
    4.6440    4.8300   23.1890 O   0  0  0  0  0
    5.0100    8.3340   24.6290 C   0  0  0  0  0
    6.3520    8.2360   24.8190 N   0  0  0  0  0
    4.3800    7.7060   23.5390 C   0  0  0  0  0
    5.1010    7.0080   22.6330 N   0  0  0  0  0
    6.1090    5.1310   21.4330 C   0  0  0  0  0
    6.8340    5.8200   20.5270 N   0  0  0  0  0
    6.3210    3.4160   21.2990 S   0  0  0  0  0
    7.4230    3.6550   19.9670 C   0  0  0  0  0
    8.8080    2.9640   18.0860 N   0  3  0  0  0
    8.0850    2.5300   19.2460 C   0  0  0  0  0
    9.2330    4.3140   17.8450 C   0  0  0  0  0
    8.4910    5.4480   18.5630 C   0  0  0  0  0
    7.6100    4.9420   19.6600 C   0  0  0  0  0
    9.6050    1.9240   17.4550 C   0  0  0  0  0
    9.9996    9.7568   23.4975 H   0  0  0  0  0
   12.7298    9.1726   24.6250 H   0  0  0  0  0
   10.0818    7.1183   28.3921 H   0  0  0  0  0
   12.6028    7.0970   28.4545 H   0  0  0  0  0
    1.1779    8.5880   24.1445 H   0  0  0  0  0
    2.5317    7.3160   22.5115 H   0  0  0  0  0
    2.2634    9.6874   26.0817 H   0  0  0  0  0
    4.7124    9.5094   26.4056 H   0  0  0  0  0
    6.6890    7.3698   25.2392 H   0  0  0  0  0
    5.6365    7.5611   21.9639 H   0  0  0  0  0
    7.9530    3.1588   17.5650 H   0  0  0  0  0
    7.3077    1.8404   18.9168 H   0  0  0  0  0
    8.7967    2.0674   19.9298 H   0  0  0  0  0
    9.0586    4.4844   16.7826 H   0  0  0  0  0
   10.2575    4.3625   18.2141 H   0  0  0  0  0
    7.8633    5.9581   17.8323 H   0  0  0  0  0
    9.2336    6.1128   19.0042 H   0  0  0  0  0
   10.3392    1.5481   18.1675 H   0  0  0  0  0
    8.9530    1.1095   17.1394 H   0  0  0  0  0
   10.1180    2.3376   16.5868 H   0  0  0  0  0
  1  2  4  0  0  0
  5  1  1  0  0  0
  1  6  4  0  0  0
  2  8  4  0  0  0
  5  3  2  0  0  0
 12  4  1  0  0  0
 20  5  1  0  0  0
  6  7  4  0  0  0
  7  8  4  0  0  0
  7  9  4  0  0  0
  8 10  4  0  0  0
  9 12  4  0  0  0
 10 11  4  0  0  0
 12 11  4  0  0  0
 14 13  4  0  0  0
 13 15  4  0  0  0
 21 14  4  0  0  0
 16 15  4  0  0  0
 19 16  4  0  0  0
 17 18  2  0  0  0
 22 17  1  0  0  0
 17 23  1  0  0  0
 19 20  1  0  0  0
 21 19  4  0  0  0
 21 22  1  0  0  0
 23 24  4  0  0  0
 23 25  4  0  0  0
 24 31  4  0  0  0
 25 26  4  0  0  0
 26 28  1  0  0  0
 26 31  4  0  0  0
 28 27  1  0  0  0
 27 29  1  0  0  0
 27 32  1  0  0  0
 29 30  1  0  0  0
 30 31  1  0  0  0
  6 33  1  0  0  0
  9 34  1  0  0  0
 10 35  1  0  0  0
 11 36  1  0  0  0
 13 37  1  0  0  0
 14 38  1  0  0  0
 15 39  1  0  0  0
 16 40  1  0  0  0
 20 41  1  0  0  0
 22 42  1  0  0  0
 27 43  1  0  0  0
 28 44  1  0  0  0
 28 45  1  0  0  0
 29 46  1  0  0  0
 29 47  1  0  0  0
 30 48  1  0  0  0
 30 49  1  0  0  0
 32 50  1  0  0  0
 32 51  1  0  0  0
 32 52  1  0  0  0
M  END
$$$$
