### 
### Created by X-TOOL on Mon Sep 10 21:13:06 2018
### 

@<TRIPOS>MOLECULE
3q3k_ligand
   52    56     1     0     0
SMALL
GAST_HUCK


@<TRIPOS>ATOM
      1 C1          8.5570    8.9150   25.0360 C.2       1 D90         0.1377
      2 N1          8.6980    8.2650   26.2130 N.pl3     1 D90        -0.2666
      3 O1          7.1400   10.1380   23.8020 O.2       1 D90        -0.3744
      4 CL1        14.4530    8.0710   26.5830 Cl        1 D90        -0.0811
      5 C2          7.2930    9.1640   24.5110 C.2       1 D90         0.2508
      6 C3          9.8070    9.2460   24.4410 C.2       1 D90        -0.0387
      7 C4         10.7330    8.7470   25.3790 C.ar      1 D90        -0.0169
      8 C5         10.0350    8.1310   26.4750 C.ar      1 D90         0.0679
      9 C6         12.1370    8.7290   25.4250 C.ar      1 D90        -0.0571
     10 C7         10.6660    7.5510   27.5800 C.ar      1 D90        -0.0398
     11 C8         12.0600    7.5390   27.6190 C.ar      1 D90        -0.0600
     12 C9         12.7450    8.1330   26.5130 C.ar      1 D90         0.0253
     13 C10         2.2570    8.5100   24.2770 C.ar      1 D90        -0.0909
     14 C11         3.0110    7.7990   23.3630 C.ar      1 D90        -0.0535
     15 C13         2.8670    9.1280   25.3670 C.ar      1 D90        -0.0909
     16 C15         4.2400    9.0340   25.5460 C.ar      1 D90        -0.0535
     17 CC1         5.1970    5.6790   22.5080 C.2       1 D90         0.2611
     18 OC1         4.6440    4.8300   23.1890 O.2       1 D90        -0.3689
     19 CP1         5.0100    8.3340   24.6290 C.ar      1 D90         0.0895
     20 NP1         6.3520    8.2360   24.8190 N.am      1 D90        -0.2364
     21 CP2         4.3800    7.7060   23.5390 C.ar      1 D90         0.0897
     22 NP2         5.1010    7.0080   22.6330 N.am      1 D90        -0.2347
     23 CZ1         6.1090    5.1310   21.4330 C.2       1 D90         0.1800
     24 NZ1         6.8340    5.8200   20.5270 N.2       1 D90        -0.3002
     25 SZ1         6.3210    3.4160   21.2990 S.3       1 D90         0.0019
     26 CZ2         7.4230    3.6550   19.9670 C.2       1 D90         0.0146
     27 NZ2         8.8080    2.9640   18.0860 N.4       1 D90         0.4070
     28 CZ3         8.0850    2.5300   19.2460 C.3       1 D90        -0.0659
     29 CZ4         9.2330    4.3140   17.8450 C.3       1 D90        -0.1043
     30 CZ5         8.4910    5.4480   18.5630 C.3       1 D90        -0.0415
     31 CZ6         7.6100    4.9420   19.6600 C.2       1 D90         0.0051
     32 CZ7         9.6050    1.9240   17.4550 C.3       1 D90        -0.1226
     33 H           7.9375    7.9312   26.8051 H         1 D90         0.2262
     34 H           9.9996    9.7568   23.4975 H         1 D90         0.0399
     35 H          12.7298    9.1726   24.6250 H         1 D90         0.0563
     36 H          10.0818    7.1183   28.3921 H         1 D90         0.0550
     37 H          12.6028    7.0970   28.4545 H         1 D90         0.0556
     38 H           1.1779    8.5880   24.1445 H         1 D90         0.0450
     39 H           2.5317    7.3160   22.5115 H         1 D90         0.0453
     40 H           2.2634    9.6874   26.0817 H         1 D90         0.0451
     41 H           4.7124    9.5094   26.4056 H         1 D90         0.0452
     42 H           6.6890    7.3698   25.2392 H         1 D90         0.2212
     43 H           5.6365    7.5611   21.9639 H         1 D90         0.2215
     44 H           7.3077    1.8404   18.9168 H         1 D90         0.0193
     45 H           8.7967    2.0674   19.9298 H         1 D90         0.0193
     46 H           9.0586    4.4844   16.7826 H         1 D90         0.0035
     47 H          10.2575    4.3625   18.2141 H         1 D90         0.0035
     48 H           7.8633    5.9581   17.8323 H         1 D90         0.0350
     49 H           9.2336    6.1128   19.0042 H         1 D90         0.0350
     50 H          10.3392    1.5481   18.1675 H         1 D90        -0.0016
     51 H           8.9530    1.1095   17.1394 H         1 D90        -0.0016
     52 H          10.1180    2.3376   16.5868 H         1 D90        -0.0016
@<TRIPOS>BOND
     1    1    2 1  
     2    5    1 1  
     3    1    6 2  
     4    2    8 1  
     5    5    3 2  
     6   12    4 1  
     7   20    5 am 
     8    6    7 1  
     9    7    8 ar 
    10    7    9 ar 
    11    8   10 ar 
    12    9   12 ar 
    13   10   11 ar 
    14   12   11 ar 
    15   14   13 ar 
    16   13   15 ar 
    17   21   14 ar 
    18   16   15 ar 
    19   19   16 ar 
    20   17   18 2  
    21   22   17 am 
    22   17   23 1  
    23   19   20 1  
    24   21   19 ar 
    25   21   22 1  
    26   23   24 2  
    27   23   25 1  
    28   24   31 1  
    29   25   26 1  
    30   26   28 1  
    31   26   31 2  
    32   28   27 1  
    33   27   29 1  
    34   27   32 1  
    35   29   30 1  
    36   30   31 1  
    37    2   33 1  
    38    6   34 1  
    39    9   35 1  
    40   10   36 1  
    41   11   37 1  
    42   13   38 1  
    43   14   39 1  
    44   15   40 1  
    45   16   41 1  
    46   20   42 1  
    47   22   43 1  
    48   28   44 1  
    49   28   45 1  
    50   29   46 1  
    51   29   47 1  
    52   30   48 1  
    53   30   49 1  
    54   32   50 1  
    55   32   51 1  
    56   32   52 1  
@<TRIPOS>SUBSTRUCTURE
     1 D90         1

