2brp_ligand
  -I-interpret- 

 68 70  0  0  0  0  0  0  0  0999 V2000
   15.3520  -10.8030   33.6460 C   0  0  0  0  0
   16.1400  -11.9350   33.9780 C   0  0  0  0  0
   17.5700  -11.8280   34.2050 C   0  0  0  0  0
   18.2840  -10.5340   34.1050 C   0  0  0  0  0
   17.4220   -9.3020   33.7610 C   0  0  0  0  0
   15.9920   -9.4870   33.5400 C   0  0  0  0  0
   19.9090  -10.3910   34.3480 O   0  0  0  0  0
   20.4990   -9.1530   34.6280 S   0  0  0  0  0
   20.1980   -8.0870   33.6950 O   0  0  0  0  0
   20.0830   -8.8480   35.9290 O   0  0  0  0  0
   22.0030   -9.3470   34.6820 N   0  0  0  0  0
   12.8380  -11.9980   33.3800 N   0  0  0  0  0
   13.6640  -10.8730   33.3090 C   0  0  0  0  0
   12.9960   -9.7400   32.9910 C   0  0  0  0  0
   10.5000   -9.3730   32.5400 C   0  0  0  0  0
    9.2780  -10.0140   32.4820 C   0  0  0  0  0
    9.1470  -11.4080   32.7110 C   0  0  0  0  0
   10.2700  -12.2240   33.0260 C   0  0  0  0  0
   11.5380  -11.5570   33.0880 C   0  0  0  0  0
   11.6320  -10.1310   32.8570 C   0  0  0  0  0
   13.2000  -13.4090   33.7750 C   0  0  0  0  0
   14.1980  -14.0560   32.8290 C   0  0  0  0  0
   14.7750  -15.2990   33.4680 C   0  0  0  0  0
   16.2970  -15.2640   33.5420 C   0  0  0  0  0
   16.8780  -16.6450   33.8900 C   0  0  0  0  0
   16.2210  -17.2910   35.1260 C   0  0  0  0  0
   16.3460  -18.8180   35.0780 C   0  0  0  0  0
   15.9740  -19.3490   33.6900 C   0  0  0  0  0
   14.6860  -20.1440   33.7150 C   0  0  0  0  0
   13.9970  -20.1370   32.3600 C   0  0  0  0  0
    7.2000  -11.7610   34.8300 O   0  0  0  0  0
    6.6210  -12.0350   33.5920 S   0  0  0  0  0
    5.6300  -11.1150   33.0920 O   0  0  0  0  0
    7.6720  -12.1250   32.6160 O   0  0  0  0  0
    6.0080  -13.3990   33.6810 N   0  0  0  0  0
   15.6598  -12.9096   34.0649 H   0  0  0  0  0
   18.1346  -12.7259   34.4563 H   0  0  0  0  0
   17.8726   -8.3124   33.6845 H   0  0  0  0  0
   15.3800   -8.6208   33.2883 H   0  0  0  0  0
   22.6133   -8.7637   34.1096 H   0  0  0  0  0
   22.4036  -10.0607   35.2907 H   0  0  0  0  0
   13.4125   -8.7407   32.8643 H   0  0  0  0  0
   10.5802   -8.3038   32.3438 H   0  0  0  0  0
    8.3862   -9.4306   32.2531 H   0  0  0  0  0
   10.1718  -13.2940   33.2095 H   0  0  0  0  0
   12.2871  -14.0041   33.7507 H   0  0  0  0  0
   13.6585  -13.3689   34.7631 H   0  0  0  0  0
   15.0029  -13.3523   32.6168 H   0  0  0  0  0
   13.6930  -14.3277   31.9021 H   0  0  0  0  0
   14.4874  -16.1553   32.8580 H   0  0  0  0  0
   14.3901  -15.3637   34.4857 H   0  0  0  0  0
   16.5881  -14.5610   34.3225 H   0  0  0  0  0
   16.6826  -14.9633   32.5678 H   0  0  0  0  0
   17.9363  -16.5098   34.1131 H   0  0  0  0  0
   16.6959  -17.3021   33.0396 H   0  0  0  0  0
   15.1637  -17.0265   35.1389 H   0  0  0  0  0
   16.7249  -16.9264   36.0211 H   0  0  0  0  0
   15.6678  -19.2501   35.8138 H   0  0  0  0  0
   17.3778  -19.0939   35.2957 H   0  0  0  0  0
   16.7743  -20.0064   33.3502 H   0  0  0  0  0
   15.8364  -18.4970   33.0242 H   0  0  0  0  0
   14.0154  -19.6899   34.4445 H   0  0  0  0  0
   14.9233  -21.1756   33.9751 H   0  0  0  0  0
   13.7627  -19.1104   32.0782 H   0  0  0  0  0
   14.6593  -20.5775   31.6148 H   0  0  0  0  0
   13.0766  -20.7180   32.4188 H   0  0  0  0  0
    6.0714  -13.9310   34.5490 H   0  0  0  0  0
    5.5272  -13.7957   32.8736 H   0  0  0  0  0
  1  2  4  0  0  0
  1  6  4  0  0  0
 13  1  1  0  0  0
  2  3  4  0  0  0
  3  4  4  0  0  0
  5  4  4  0  0  0
  4  7  1  0  0  0
  6  5  4  0  0  0
  7  8  1  0  0  0
  8  9  2  0  0  0
  8 10  2  0  0  0
  8 11  1  0  0  0
 12 13  4  0  0  0
 19 12  4  0  0  0
 12 21  1  0  0  0
 14 13  4  0  0  0
 20 14  4  0  0  0
 16 15  4  0  0  0
 15 20  4  0  0  0
 17 16  4  0  0  0
 17 18  4  0  0  0
 34 17  1  0  0  0
 18 19  4  0  0  0
 19 20  4  0  0  0
 21 22  1  0  0  0
 22 23  1  0  0  0
 23 24  1  0  0  0
 24 25  1  0  0  0
 25 26  1  0  0  0
 26 27  1  0  0  0
 27 28  1  0  0  0
 28 29  1  0  0  0
 29 30  1  0  0  0
 32 31  2  0  0  0
 32 33  2  0  0  0
 32 34  1  0  0  0
 32 35  1  0  0  0
  2 36  1  0  0  0
  3 37  1  0  0  0
  5 38  1  0  0  0
  6 39  1  0  0  0
 11 40  1  0  0  0
 11 41  1  0  0  0
 14 42  1  0  0  0
 15 43  1  0  0  0
 16 44  1  0  0  0
 18 45  1  0  0  0
 21 46  1  0  0  0
 21 47  1  0  0  0
 22 48  1  0  0  0
 22 49  1  0  0  0
 23 50  1  0  0  0
 23 51  1  0  0  0
 24 52  1  0  0  0
 24 53  1  0  0  0
 25 54  1  0  0  0
 25 55  1  0  0  0
 26 56  1  0  0  0
 26 57  1  0  0  0
 27 58  1  0  0  0
 27 59  1  0  0  0
 28 60  1  0  0  0
 28 61  1  0  0  0
 29 62  1  0  0  0
 29 63  1  0  0  0
 30 64  1  0  0  0
 30 65  1  0  0  0
 30 66  1  0  0  0
 35 67  1  0  0  0
 35 68  1  0  0  0
M  END
$$$$
