5x28_ligand
  -I-interpret- 

 71 76  0  0  0  0  0  0  0  0999 V2000
  -52.6610    0.1440  -21.8930 C   0  0  0  0  0
  -53.6140    0.7890  -22.6470 C   0  0  0  0  0
  -54.5850    1.5150  -22.0090 C   0  0  0  0  0
  -52.3030   -0.2090  -23.9710 C   0  0  0  0  0
  -54.5720    1.5710  -20.7070 N   0  0  0  0  0
  -53.7370    1.0650  -18.6900 N   0  0  0  0  0
  -52.6890    0.2280  -20.5650 N   0  0  0  0  0
  -49.1910   -1.6440  -15.0920 C   0  0  0  0  0
  -49.4390   -2.5670  -13.9080 C   0  0  0  0  0
  -49.3940   -1.8180  -12.6490 N   0  3  0  0  0
  -49.7050   -2.7310  -11.5490 C   0  0  0  0  0
  -50.3950   -0.7540  -12.6210 C   0  0  0  0  0
  -50.0500    0.2490  -13.6990 C   0  0  0  0  0
  -50.0740   -0.4850  -14.9550 N   0  0  0  0  0
  -50.9810   -0.1160  -15.9400 C   0  0  0  0  0
  -51.9740    0.7770  -15.6020 C   0  0  0  0  0
  -52.8940    1.1630  -16.5510 C   0  0  0  0  0
  -50.9130   -0.6240  -17.2260 C   0  0  0  0  0
  -51.8400   -0.2320  -18.1820 C   0  0  0  0  0
  -52.8270    0.6630  -17.8340 C   0  0  0  0  0
  -53.6470    0.9450  -19.9910 C   0  0  0  0  0
  -53.3730    0.5520  -23.9280 N   0  0  0  0  0
  -51.8860   -0.4620  -22.7600 N   0  0  0  0  0
  -50.7080   -1.2590  -22.4760 C   0  0  0  0  0
  -51.0290   -2.7350  -22.4310 C   0  0  0  0  0
  -49.7240   -3.4960  -22.2530 C   0  0  0  0  0
  -49.0130   -3.0490  -20.9800 C   0  0  0  0  0
  -48.8030   -1.5460  -20.9620 C   0  0  0  0  0
  -50.1230   -0.8360  -21.1460 C   0  0  0  0  0
  -51.7250   -0.6820  -25.0500 N   0  0  0  0  0
  -52.0460   -0.2440  -26.2490 C   0  0  0  0  0
  -52.2140    1.1030  -26.4780 C   0  0  0  0  0
  -52.5420    1.5540  -27.7440 C   0  0  0  0  0
  -52.7030    0.6550  -28.7790 C   0  0  0  0  0
  -52.5370   -0.6950  -28.5420 C   0  0  0  0  0
  -52.2050   -1.1440  -27.2790 C   0  0  0  0  0
  -55.3539    2.0359  -22.5796 H   0  0  0  0  0
  -54.5774    1.5038  -18.3138 H   0  0  0  0  0
  -49.3975   -2.1662  -16.0262 H   0  0  0  0  0
  -48.1492   -1.3238  -15.1080 H   0  0  0  0  0
  -48.6639   -3.3332  -13.8901 H   0  0  0  0  0
  -50.4252   -3.0190  -14.0141 H   0  0  0  0  0
  -48.4633   -1.4101  -12.5608 H   0  0  0  0  0
  -50.7006   -3.1495  -11.6963 H   0  0  0  0  0
  -48.9705   -3.5361  -11.5281 H   0  0  0  0  0
  -49.6747   -2.1853  -10.6059 H   0  0  0  0  0
  -50.3982   -0.2685  -11.6451 H   0  0  0  0  0
  -51.3872   -1.1686  -12.7991 H   0  0  0  0  0
  -49.0718    0.6962  -13.5226 H   0  0  0  0  0
  -50.7616    1.0746  -13.7114 H   0  0  0  0  0
  -52.0311    1.1757  -14.5892 H   0  0  0  0  0
  -53.6810    1.8690  -16.2859 H   0  0  0  0  0
  -50.1289   -1.3342  -17.4887 H   0  0  0  0  0
  -51.7873   -0.6280  -19.1962 H   0  0  0  0  0
  -49.9895   -1.0927  -23.2787 H   0  0  0  0  0
  -51.5201   -3.0414  -23.3546 H   0  0  0  0  0
  -51.7046   -2.9479  -21.6025 H   0  0  0  0  0
  -49.0782   -3.2955  -23.1079 H   0  0  0  0  0
  -49.9429   -4.5613  -22.1804 H   0  0  0  0  0
  -48.0384   -3.5353  -20.9388 H   0  0  0  0  0
  -49.6303   -3.3226  -20.1243 H   0  0  0  0  0
  -48.1311   -1.2687  -21.7743 H   0  0  0  0  0
  -48.3713   -1.2564  -20.0040 H   0  0  0  0  0
  -50.8048   -1.0983  -20.3370 H   0  0  0  0  0
  -49.9726    0.2435  -21.1298 H   0  0  0  0  0
  -51.0114   -1.4049  -24.9575 H   0  0  0  0  0
  -52.0886    1.8143  -25.6617 H   0  0  0  0  0
  -52.6735    2.6209  -27.9245 H   0  0  0  0  0
  -52.9597    1.0088  -29.7775 H   0  0  0  0  0
  -52.6685   -1.4091  -29.3549 H   0  0  0  0  0
  -52.0689   -2.2101  -27.0975 H   0  0  0  0  0
  1  2  4  0  0  0
  7  1  4  0  0  0
  1 23  4  0  0  0
  3  2  4  0  0  0
  2 22  4  0  0  0
  5  3  4  0  0  0
  4 22  4  0  0  0
 23  4  4  0  0  0
  4 30  1  0  0  0
 21  5  4  0  0  0
 20  6  1  0  0  0
  6 21  1  0  0  0
 21  7  4  0  0  0
  8  9  1  0  0  0
 14  8  1  0  0  0
  9 10  1  0  0  0
 10 11  1  0  0  0
 12 10  1  0  0  0
 13 12  1  0  0  0
 14 13  1  0  0  0
 15 14  1  0  0  0
 16 15  4  0  0  0
 15 18  4  0  0  0
 17 16  4  0  0  0
 17 20  4  0  0  0
 18 19  4  0  0  0
 19 20  4  0  0  0
 23 24  1  0  0  0
 24 25  1  0  0  0
 24 29  1  0  0  0
 25 26  1  0  0  0
 26 27  1  0  0  0
 27 28  1  0  0  0
 28 29  1  0  0  0
 30 31  1  0  0  0
 31 32  4  0  0  0
 31 36  4  0  0  0
 32 33  4  0  0  0
 33 34  4  0  0  0
 34 35  4  0  0  0
 35 36  4  0  0  0
  3 37  1  0  0  0
  6 38  1  0  0  0
  8 39  1  0  0  0
  8 40  1  0  0  0
  9 41  1  0  0  0
  9 42  1  0  0  0
 10 43  1  0  0  0
 11 44  1  0  0  0
 11 45  1  0  0  0
 11 46  1  0  0  0
 12 47  1  0  0  0
 12 48  1  0  0  0
 13 49  1  0  0  0
 13 50  1  0  0  0
 16 51  1  0  0  0
 17 52  1  0  0  0
 18 53  1  0  0  0
 19 54  1  0  0  0
 24 55  1  0  0  0
 25 56  1  0  0  0
 25 57  1  0  0  0
 26 58  1  0  0  0
 26 59  1  0  0  0
 27 60  1  0  0  0
 27 61  1  0  0  0
 28 62  1  0  0  0
 28 63  1  0  0  0
 29 64  1  0  0  0
 29 65  1  0  0  0
 30 66  1  0  0  0
 32 67  1  0  0  0
 33 68  1  0  0  0
 34 69  1  0  0  0
 35 70  1  0  0  0
 36 71  1  0  0  0
M  END
$$$$
