### 
### Created by X-TOOL on Mon Sep 10 21:13:28 2018
### 

@<TRIPOS>MOLECULE
5jaz_ligand
   47    48     1     0     0
SMALL
GAST_HUCK


@<TRIPOS>ATOM
      1 O12         3.7640   15.1960   20.8210 O.2       1 LC5        -0.3968
      2 C4          3.3320   14.1520   20.3830 C.2       1 LC5         0.2014
      3 N9          3.9020   13.5680   19.2950 N.am      1 LC5        -0.1538
      4 O10         4.9930   14.1830   18.6870 O.3       1 LC5        -0.2694
      5 C11         3.4070   12.3050   18.7380 C.3       1 LC5         0.0516
      6 C3          2.0810   13.5890   21.0110 C.3       1 LC5         0.0432
      7 C2          0.8630   14.3830   20.4730 C.3       1 LC5        -0.0091
      8 C1         -0.2230   14.5110   21.5480 C.3       1 LC5         0.0245
      9 P5         -0.9050   16.2020   21.5580 P.3       1 LC5         0.0583
     10 O6         -2.2810   16.1400   22.1930 O.co2     1 LC5        -0.5622
     11 O7         -0.0150   17.1130   22.3820 O.co2     1 LC5        -0.5622
     12 O8         -1.0220   16.7130   20.1500 O.co2     1 LC5        -0.5622
     13 C13         0.3000   13.7570   19.1450 C.3       1 LC5        -0.0449
     14 C14        -0.2830   12.3270   19.3510 C.3       1 LC5        -0.0421
     15 C15        -0.6940   11.7050   17.9850 C.3       1 LC5        -0.0168
     16 C16         0.5330   11.2120   17.2010 C.ar      1 LC5        -0.0324
     17 C17         1.2210   10.0310   17.5760 C.ar      1 LC5        -0.0122
     18 C23         0.8190    9.2820   18.7000 C.ar      1 LC5        -0.0548
     19 C25         1.5090    8.1300   19.0440 C.ar      1 LC5        -0.0625
     20 C24         2.6100    7.7380   18.3090 C.ar      1 LC5        -0.0629
     21 C22         3.0140    8.4760   17.1970 C.ar      1 LC5        -0.0569
     22 C19         2.3270    9.6180   16.8340 C.ar      1 LC5        -0.0243
     23 C21         2.7540   10.3640   15.7310 C.ar      1 LC5        -0.0631
     24 C20         2.0710   11.5030   15.3550 C.ar      1 LC5        -0.0707
     25 C18         0.9550   11.9240   16.0770 C.ar      1 LC5        -0.0607
     26 H1          5.7025   14.2589   19.3142 H         1 LC5         0.2492
     27 H2          4.0167   12.0247   17.8664 H         1 LC5         0.0514
     28 H3          2.3586   12.4268   18.4281 H         1 LC5         0.0514
     29 H4          3.4744   11.5161   19.5016 H         1 LC5         0.0514
     30 H5          2.1366   13.6903   22.1049 H         1 LC5         0.0505
     31 H6          1.9781   12.5264   20.7459 H         1 LC5         0.0505
     32 H7          1.2109   15.3986   20.2332 H         1 LC5         0.0339
     33 H8          0.2134   14.2897   22.5332 H         1 LC5         0.0455
     34 H9         -1.0306   13.7951   21.3354 H         1 LC5         0.0455
     35 H10         1.1159   13.7012   18.4093 H         1 LC5         0.0271
     36 H11        -0.4974   14.4093   18.7595 H         1 LC5         0.0271
     37 H12        -1.1674   12.3868   20.0024 H         1 LC5         0.0289
     38 H13         0.4787   11.6901   19.8244 H         1 LC5         0.0289
     39 H14        -1.2177   12.4663   17.3882 H         1 LC5         0.0439
     40 H15        -1.3675   10.8546   18.1672 H         1 LC5         0.0439
     41 H16        -0.0278    9.6060   19.2942 H         1 LC5         0.0628
     42 H17         1.1839    7.5364   19.8908 H         1 LC5         0.0601
     43 H18         3.1634    6.8518   18.5979 H         1 LC5         0.0616
     44 H19         3.8698    8.1525   16.6156 H         1 LC5         0.0609
     45 H20         3.6249   10.0465   15.1690 H         1 LC5         0.0542
     46 H21         2.4037   12.0726   14.4948 H         1 LC5         0.0595
     47 H22         0.4124   12.8086   15.7639 H         1 LC5         0.0530
@<TRIPOS>BOND
     1    1    2 2  
     2    2    3 am 
     3    2    6 1  
     4    3    4 1  
     5    3    5 1  
     6    6    7 1  
     7    7    8 1  
     8    7   13 1  
     9    8    9 1  
    10    9   10 ar 
    11    9   11 ar 
    12    9   12 ar 
    13   13   14 1  
    14   14   15 1  
    15   15   16 1  
    16   16   17 ar 
    17   16   25 ar 
    18   17   18 ar 
    19   17   22 ar 
    20   18   19 ar 
    21   19   20 ar 
    22   20   21 ar 
    23   21   22 ar 
    24   22   23 ar 
    25   23   24 ar 
    26   24   25 ar 
    27    4   26 1  
    28    5   27 1  
    29    5   28 1  
    30    5   29 1  
    31    6   30 1  
    32    6   31 1  
    33    7   32 1  
    34    8   33 1  
    35    8   34 1  
    36   13   35 1  
    37   13   36 1  
    38   14   37 1  
    39   14   38 1  
    40   15   39 1  
    41   15   40 1  
    42   18   41 1  
    43   19   42 1  
    44   20   43 1  
    45   21   44 1  
    46   23   45 1  
    47   24   46 1  
    48   25   47 1  
@<TRIPOS>SUBSTRUCTURE
     1 LC5         1

