5jaz_ligand
  -I-interpret- 

 49 50  0  0  0  0  0  0  0  0999 V2000
    3.7640   15.1960   20.8210 O   0  0  0  0  0
    3.3320   14.1520   20.3830 C   0  0  0  0  0
    3.9020   13.5680   19.2950 N   0  0  0  0  0
    4.9930   14.1830   18.6870 O   0  0  0  0  0
    3.4070   12.3050   18.7380 C   0  0  0  0  0
    2.0810   13.5890   21.0110 C   0  0  0  0  0
    0.8630   14.3830   20.4730 C   0  0  0  0  0
   -0.2230   14.5110   21.5480 C   0  0  0  0  0
   -0.9050   16.2020   21.5580 P   0  0  0  0  0
   -2.2810   16.1400   22.1930 O   0  0  0  0  0
   -0.0150   17.1130   22.3820 O   0  0  0  0  0
   -1.0220   16.7130   20.1500 O   0  0  0  0  0
    0.3000   13.7570   19.1450 C   0  0  0  0  0
   -0.2830   12.3270   19.3510 C   0  0  0  0  0
   -0.6940   11.7050   17.9850 C   0  0  0  0  0
    0.5330   11.2120   17.2010 C   0  0  0  0  0
    1.2210   10.0310   17.5760 C   0  0  0  0  0
    0.8190    9.2820   18.7000 C   0  0  0  0  0
    1.5090    8.1300   19.0440 C   0  0  0  0  0
    2.6100    7.7380   18.3090 C   0  0  0  0  0
    3.0140    8.4760   17.1970 C   0  0  0  0  0
    2.3270    9.6180   16.8340 C   0  0  0  0  0
    2.7540   10.3640   15.7310 C   0  0  0  0  0
    2.0710   11.5030   15.3550 C   0  0  0  0  0
    0.9550   11.9240   16.0770 C   0  0  0  0  0
    5.2038   14.9940   19.1554 H   0  0  0  0  0
    3.0973   12.4617   17.7047 H   0  0  0  0  0
    4.2008   11.5587   18.7715 H   0  0  0  0  0
    2.5563   11.9591   19.3252 H   0  0  0  0  0
    2.1353   13.6794   22.0959 H   0  0  0  0  0
    1.9793   12.5336   20.7581 H   0  0  0  0  0
    1.2042   15.3882   20.2256 H   0  0  0  0  0
    0.2141   14.2973   22.5234 H   0  0  0  0  0
   -1.0244   13.8048   21.3308 H   0  0  0  0  0
   -2.2028   15.8132   23.0923 H   0  0  0  0  0
    0.0486   16.7722   23.2772 H   0  0  0  0  0
    1.1242   13.6823   18.4357 H   0  0  0  0  0
   -0.5066   14.3982   18.7896 H   0  0  0  0  0
   -1.1635   12.3919   19.9902 H   0  0  0  0  0
    0.4775   11.6973   19.8127 H   0  0  0  0  0
   -1.1978   12.4699   17.3941 H   0  0  0  0  0
   -1.3481   10.8540   18.1750 H   0  0  0  0  0
   -0.0325    9.6078   19.2975 H   0  0  0  0  0
    1.1821    7.5332   19.8955 H   0  0  0  0  0
    3.1664    6.8469   18.5995 H   0  0  0  0  0
    3.8746    8.1507   16.6124 H   0  0  0  0  0
    3.6297   10.0448   15.1659 H   0  0  0  0  0
    2.4055   12.0757   14.4900 H   0  0  0  0  0
    0.4094   12.8135   15.7622 H   0  0  0  0  0
  1  2  2  0  0  0
  2  3  1  0  0  0
  2  6  1  0  0  0
  3  4  1  0  0  0
  3  5  1  0  0  0
  6  7  1  0  0  0
  7  8  1  0  0  0
  7 13  1  0  0  0
  8  9  1  0  0  0
  9 10  1  0  0  0
  9 11  1  0  0  0
  9 12  2  0  0  0
 13 14  1  0  0  0
 14 15  1  0  0  0
 15 16  1  0  0  0
 16 17  4  0  0  0
 16 25  4  0  0  0
 17 18  4  0  0  0
 17 22  4  0  0  0
 18 19  4  0  0  0
 19 20  4  0  0  0
 20 21  4  0  0  0
 21 22  4  0  0  0
 22 23  4  0  0  0
 23 24  4  0  0  0
 24 25  4  0  0  0
  4 26  1  0  0  0
  5 27  1  0  0  0
  5 28  1  0  0  0
  5 29  1  0  0  0
  6 30  1  0  0  0
  6 31  1  0  0  0
  7 32  1  0  0  0
  8 33  1  0  0  0
  8 34  1  0  0  0
 10 35  1  0  0  0
 11 36  1  0  0  0
 13 37  1  0  0  0
 13 38  1  0  0  0
 14 39  1  0  0  0
 14 40  1  0  0  0
 15 41  1  0  0  0
 15 42  1  0  0  0
 18 43  1  0  0  0
 19 44  1  0  0  0
 20 45  1  0  0  0
 21 46  1  0  0  0
 23 47  1  0  0  0
 24 48  1  0  0  0
 25 49  1  0  0  0
M  END
$$$$
