1bma_ligand
  -I-interpret- 

 73 74  0  0  0  0  0  0  0  0999 V2000
   41.1490   23.3540   37.6440 C   0  0  0  0  0
   41.3470   24.6160   38.5620 C   0  0  0  0  0
   40.7380   23.4660   36.4830 O   0  0  0  0  0
   41.8710   24.3920   39.7540 F   0  0  0  0  0
   42.1300   25.5370   38.0580 F   0  0  0  0  0
   40.2100   25.2310   38.7870 F   0  0  0  0  0
   41.4280   22.1360   38.1490 N   0  0  0  0  0
   40.8000   20.9190   37.7020 C   0  0  0  0  0
   39.3070   21.0480   37.4350 C   0  0  0  0  0
   38.5140   21.5650   38.2110 O   0  0  0  0  0
   41.1000   19.8690   38.7470 C   0  0  0  0  0
   41.2800   18.4430   38.2880 C   0  0  0  0  0
   42.2250   18.3330   37.0870 C   0  0  0  0  0
   41.8110   17.6760   39.4790 C   0  0  0  0  0
   37.7730   20.6860   35.4060 N   0  3  0  0  0
   39.1210   20.5680   36.1900 N   0  0  0  0  0
   37.7120   22.1170   34.9400 C   0  0  0  0  0
   36.5220   22.5540   34.0800 C   0  0  0  0  0
   35.7530   23.6410   34.4900 C   0  0  0  0  0
   34.7240   24.0770   33.6770 C   0  0  0  0  0
   34.4260   23.4610   32.4590 C   0  0  0  0  0
   35.1790   22.3730   32.0390 C   0  0  0  0  0
   36.2250   21.9230   32.8500 C   0  0  0  0  0
   38.1600   19.7130   34.3160 C   0  0  0  0  0
   36.5310   20.2380   36.1060 C   0  0  0  0  0
   36.5440   18.8920   36.8120 C   0  0  0  0  0
   36.6680   17.7920   36.2510 O   0  0  0  0  0
   36.1950   18.3510   39.0700 C   0  0  0  0  0
   36.4320   19.2410   38.1030 N   0  0  0  0  0
   36.8200   17.0940   39.1380 C   0  0  0  0  0
   36.5290   16.2290   40.2070 C   0  0  0  0  0
   35.6130   16.6130   41.2160 C   0  0  0  0  0
   35.0070   17.8720   41.1250 C   0  0  0  0  0
   35.2900   18.7230   40.0590 C   0  0  0  0  0
   35.2730   15.6970   42.4140 C   0  0  0  0  0
   35.7420   14.2420   42.2510 C   0  0  0  0  0
   33.7770   15.6910   42.5010 C   0  0  0  0  0
   42.1247   22.0721   38.8913 H   0  0  0  0  0
   41.2077   20.6426   36.7296 H   0  0  0  0  0
   40.2277   19.8542   39.4004 H   0  0  0  0  0
   42.0586   20.1567   39.1787 H   0  0  0  0  0
   40.3305   18.0331   37.9438 H   0  0  0  0  0
   41.8202   18.9077   36.2539 H   0  0  0  0  0
   43.2043   18.7265   37.3596 H   0  0  0  0  0
   42.3205   17.2869   36.7961 H   0  0  0  0  0
   42.7606   18.1085   39.7941 H   0  0  0  0  0
   41.0936   17.7361   40.2974 H   0  0  0  0  0
   41.9600   16.6327   39.2006 H   0  0  0  0  0
   39.9040   20.1010   35.7327 H   0  0  0  0  0
   38.5873   22.2476   34.3037 H   0  0  0  0  0
   37.6393   22.7110   35.8510 H   0  0  0  0  0
   35.9597   24.1396   35.4370 H   0  0  0  0  0
   34.1251   24.9298   33.9967 H   0  0  0  0  0
   33.6075   23.8323   31.8424 H   0  0  0  0  0
   34.9585   21.8781   31.0932 H   0  0  0  0  0
   36.8226   21.0701   32.5282 H   0  0  0  0  0
   38.3392   18.7311   34.7541 H   0  0  0  0  0
   37.3520   19.6453   33.5875 H   0  0  0  0  0
   39.0669   20.0634   33.8231 H   0  0  0  0  0
   35.7800   20.1420   35.3218 H   0  0  0  0  0
   36.3668   20.9725   36.8944 H   0  0  0  0  0
   36.5318   20.2242   38.3554 H   0  0  0  0  0
   37.5269   16.7914   38.3655 H   0  0  0  0  0
   37.0129   15.2537   40.2597 H   0  0  0  0  0
   34.3060   18.1898   41.8968 H   0  0  0  0  0
   34.7960   19.6928   39.9990 H   0  0  0  0  0
   35.7815   16.0815   43.2981 H   0  0  0  0  0
   35.2694   13.8057   41.3710 H   0  0  0  0  0
   36.8252   14.2221   42.1308 H   0  0  0  0  0
   35.4627   13.6703   43.1360 H   0  0  0  0  0
   33.4196   16.7080   42.6626 H   0  0  0  0  0
   33.3618   15.3021   41.5712 H   0  0  0  0  0
   33.4652   15.0586   43.3322 H   0  0  0  0  0
  1  3  2  0  0  0
  1  2  1  0  0  0
  2  6  1  0  0  0
  2  5  1  0  0  0
  2  4  1  0  0  0
  9  8  1  0  0  0
  8 11  1  0  0  0
  8  7  1  0  0  0
 11 12  1  0  0  0
 12 14  1  0  0  0
 12 13  1  0  0  0
  9 10  2  0  0  0
 25 15  1  0  0  0
 15 24  1  0  0  0
 15 17  1  0  0  0
 15 16  1  0  0  0
 17 18  1  0  0  0
 18 23  4  0  0  0
 18 19  4  0  0  0
 19 20  4  0  0  0
 20 21  4  0  0  0
 22 21  4  0  0  0
 23 22  4  0  0  0
 26 25  1  0  0  0
 26 27  2  0  0  0
 28 34  4  0  0  0
 28 30  4  0  0  0
 29 28  1  0  0  0
 30 31  4  0  0  0
 31 32  4  0  0  0
 32 35  1  0  0  0
 33 32  4  0  0  0
 34 33  4  0  0  0
 35 37  1  0  0  0
 35 36  1  0  0  0
  7  1  1  0  0  0
 16  9  1  0  0  0
 29 26  1  0  0  0
  7 38  1  0  0  0
  8 39  1  0  0  0
 11 40  1  0  0  0
 11 41  1  0  0  0
 12 42  1  0  0  0
 13 43  1  0  0  0
 13 44  1  0  0  0
 13 45  1  0  0  0
 14 46  1  0  0  0
 14 47  1  0  0  0
 14 48  1  0  0  0
 16 49  1  0  0  0
 17 50  1  0  0  0
 17 51  1  0  0  0
 19 52  1  0  0  0
 20 53  1  0  0  0
 21 54  1  0  0  0
 22 55  1  0  0  0
 23 56  1  0  0  0
 24 57  1  0  0  0
 24 58  1  0  0  0
 24 59  1  0  0  0
 25 60  1  0  0  0
 25 61  1  0  0  0
 29 62  1  0  0  0
 30 63  1  0  0  0
 31 64  1  0  0  0
 33 65  1  0  0  0
 34 66  1  0  0  0
 35 67  1  0  0  0
 36 68  1  0  0  0
 36 69  1  0  0  0
 36 70  1  0  0  0
 37 71  1  0  0  0
 37 72  1  0  0  0
 37 73  1  0  0  0
M  END
$$$$
