5yhg_ligand
  -I-interpret- 

 44 44  0  0  0  0  0  0  0  0999 V2000
  103.6210   18.3950   47.4920 O   0  0  0  0  0
  102.5440   18.9370   47.8210 C   0  0  0  0  0
  101.5940   19.1520   47.0670 O   0  0  0  0  0
  102.3560   19.4870   49.2210 C   0  0  0  0  0
  101.7080   20.9210   49.1470 C   0  0  0  0  0
  103.6140   19.4060   49.9550 N   0  3  0  0  0
  104.4590   20.6010   50.4350 C   0  0  0  0  0
  105.1820   21.3490   49.3080 C   0  0  0  0  0
  105.4760   22.5720   49.4520 O   0  0  0  0  0
  105.4330   20.6740   48.3210 O   0  0  0  0  0
  105.5320   20.2480   51.4410 C   0  0  0  0  0
  105.9380   18.7820   51.3670 C   0  0  0  0  0
  106.8720   18.5060   50.2850 N   0  3  0  0  0
  107.2020   17.0710   50.1070 C   0  0  0  0  0
  106.0420   16.0520   49.8830 C   0  0  0  0  0
  106.3120   14.8580   50.3050 O   0  0  0  0  0
  104.9020   16.4600   49.3980 O   0  0  0  0  0
  108.3420   16.9470   49.1280 C   0  0  0  0  0
  107.9140   17.4260   47.7890 C   0  0  0  0  0
  108.7560   17.4650   46.8120 C   0  0  0  0  0
  108.1240   17.9650   45.7670 N   0  0  0  0  0
  106.8890   18.2250   46.0980 C   0  0  0  0  0
  106.7390   17.9110   47.3730 N   0  0  0  0  0
  104.1981   18.3418   48.2574 H   0  0  0  0  0
  101.6513   18.8842   49.7937 H   0  0  0  0  0
  101.5005   21.2771   50.1561 H   0  0  0  0  0
  102.3983   21.6052   48.6536 H   0  0  0  0  0
  100.7784   20.8694   48.5802 H   0  0  0  0  0
  104.2315   18.9738   49.2677 H   0  0  0  0  0
  103.3166   18.9902   50.8376 H   0  0  0  0  0
  103.6967   21.2299   50.8949 H   0  0  0  0  0
  105.1732   22.8737   50.3116 H   0  0  0  0  0
  105.1348   20.4379   52.4381 H   0  0  0  0  0
  106.4118   20.8529   51.2218 H   0  0  0  0  0
  105.0369   18.1960   51.1862 H   0  0  0  0  0
  106.4304   18.5254   52.3050 H   0  0  0  0  0
  107.7426   18.9861   50.5129 H   0  0  0  0  0
  106.4289   18.8194   49.4214 H   0  0  0  0  0
  107.5103   16.7300   51.0953 H   0  0  0  0  0
  104.9702   17.3877   49.1605 H   0  0  0  0  0
  108.6419   15.9015   49.0565 H   0  0  0  0  0
  109.1804   17.5513   49.4745 H   0  0  0  0  0
  109.7972   17.1441   46.8440 H   0  0  0  0  0
  106.1189   18.6288   45.4407 H   0  0  0  0  0
  1  2  1  0  0  0
  2  3  2  0  0  0
  2  4  1  0  0  0
  4  5  1  0  0  0
  4  6  1  0  0  0
  6  7  1  0  0  0
  7  8  1  0  0  0
  7 11  1  0  0  0
  8  9  1  0  0  0
  8 10  2  0  0  0
 11 12  1  0  0  0
 12 13  1  0  0  0
 13 14  1  0  0  0
 14 15  1  0  0  0
 14 18  1  0  0  0
 15 16  2  0  0  0
 15 17  1  0  0  0
 18 19  1  0  0  0
 19 20  4  0  0  0
 19 23  4  0  0  0
 20 21  4  0  0  0
 21 22  4  0  0  0
 22 23  4  0  0  0
  1 24  1  0  0  0
  4 25  1  0  0  0
  5 26  1  0  0  0
  5 27  1  0  0  0
  5 28  1  0  0  0
  6 29  1  0  0  0
  6 30  1  0  0  0
  7 31  1  0  0  0
  9 32  1  0  0  0
 11 33  1  0  0  0
 11 34  1  0  0  0
 12 35  1  0  0  0
 12 36  1  0  0  0
 13 37  1  0  0  0
 13 38  1  0  0  0
 14 39  1  0  0  0
 17 40  1  0  0  0
 18 41  1  0  0  0
 18 42  1  0  0  0
 20 43  1  0  0  0
 22 44  1  0  0  0
M  END
$$$$
