1g2o_ligand
  -I-interpret- 

 33 35  0  0  0  0  0  0  0  0999 V2000
   55.2480   13.9450   43.5030 O   0  0  0  0  0
   55.0140   15.2780   43.9290 C   0  0  0  0  0
   56.3320   15.9040   44.2220 C   0  0  0  0  0
   57.1430   15.8500   43.0570 N   0  3  0  0  0
   56.1460   17.3380   44.6070 C   0  0  0  0  0
   57.0730   17.6270   45.6570 O   0  0  0  0  0
   56.4520   18.0500   43.3310 C   0  0  0  0  0
   57.2500   19.1990   43.5950 O   0  0  0  0  0
   57.2120   17.0970   42.3780 C   0  0  0  0  0
   56.4490   16.8610   41.0640 C   0  0  0  0  0
   56.6880   15.8060   40.1790 C   0  0  0  0  0
   55.9180   15.7880   39.1160 N   0  0  0  0  0
   55.0820   16.8970   39.2600 C   0  0  0  0  0
   54.0310   17.3800   38.3940 C   0  0  0  0  0
   53.6630   16.8910   37.3270 O   0  0  0  0  0
   53.4000   18.5420   38.8760 N   0  0  0  0  0
   53.7340   19.1900   40.0770 C   0  0  0  0  0
   54.7270   18.7390   40.9030 N   0  0  0  0  0
   55.3770   17.5810   40.4460 C   0  0  0  0  0
   54.4092   13.5207   43.3080 H   0  0  0  0  0
   54.3871   15.2843   44.8207 H   0  0  0  0  0
   54.4958   15.8373   43.1500 H   0  0  0  0  0
   56.8059   15.3646   45.0421 H   0  0  0  0  0
   56.7305   15.1689   42.4196 H   0  0  0  0  0
   58.0884   15.5976   43.3450 H   0  0  0  0  0
   55.1636   17.6187   44.9867 H   0  0  0  0  0
   56.8225   17.1412   46.4462 H   0  0  0  0  0
   55.5190   18.3649   42.8636 H   0  0  0  0  0
   56.7755   19.7878   44.1864 H   0  0  0  0  0
   58.2015   17.4932   42.1497 H   0  0  0  0  0
   57.4566   15.0541   40.3581 H   0  0  0  0  0
   52.6480   18.9414   38.3144 H   0  0  0  0  0
   53.1814   20.0855   40.3613 H   0  0  0  0  0
  2  1  1  0  0  0
  2  3  1  0  0  0
  3  5  1  0  0  0
  3  4  1  0  0  0
  4  9  1  0  0  0
  9 10  1  0  0  0
  9  7  1  0  0  0
  7  8  1  0  0  0
  7  5  1  0  0  0
  5  6  1  0  0  0
 10 19  4  0  0  0
 10 11  4  0  0  0
 11 12  4  0  0  0
 12 13  4  0  0  0
 13 19  4  0  0  0
 13 14  1  0  0  0
 14 16  1  0  0  0
 14 15  2  0  0  0
 16 17  1  0  0  0
 17 18  2  0  0  0
 18 19  1  0  0  0
  1 20  1  0  0  0
  2 21  1  0  0  0
  2 22  1  0  0  0
  3 23  1  0  0  0
  4 24  1  0  0  0
  4 25  1  0  0  0
  5 26  1  0  0  0
  6 27  1  0  0  0
  7 28  1  0  0  0
  8 29  1  0  0  0
  9 30  1  0  0  0
 11 31  1  0  0  0
 16 32  1  0  0  0
 17 33  1  0  0  0
M  END
$$$$
