2ydf_ligand
  -I-interpret- 

 28 28  0  0  0  0  0  0  0  0999 V2000
    7.2560  -13.1420    7.2940 I   0  0  0  0  0
    3.9020  -12.0250   12.0250 I   0  0  0  0  0
    3.1480   -8.5590    7.2340 I   0  0  0  0  0
    2.8260   -9.7470   10.0540 O   0  0  0  0  0
    4.6850   -8.9210    3.1840 O   0  0  0  0  0
    6.2480  -10.4520    3.3010 O   0  0  0  0  0
    5.1420  -10.9020    7.4700 C   0  0  0  0  0
    5.7490  -11.9520    8.1530 C   0  0  0  0  0
    5.3910  -12.2650    9.4430 C   0  0  0  0  0
    4.4180  -11.5240   10.0610 C   0  0  0  0  0
    3.8000  -10.4780    9.4150 C   0  0  0  0  0
    4.1630  -10.1650    8.1250 C   0  0  0  0  0
    5.5660  -10.5750    6.0730 C   0  0  0  0  0
    4.5430  -10.4550    4.9960 C   0  0  0  0  0
    5.1940   -9.9200    3.7620 C   0  0  0  0  0
    3.9240  -11.7820    4.7160 C   0  0  0  0  0
    4.7530  -12.8490    4.0840 C   0  0  0  0  0
    2.5035   -9.0614    9.4644 H   0  0  0  0  0
    6.4992  -11.1944    3.8554 H   0  0  0  0  0
    5.8739  -13.0902    9.9663 H   0  0  0  0  0
    6.1846  -11.4197    5.7700 H   0  0  0  0  0
    6.0045   -9.5798    6.1460 H   0  0  0  0  0
    3.7564   -9.7734    5.3197 H   0  0  0  0  0
    3.1339  -11.5761    3.9938 H   0  0  0  0  0
    3.6557  -12.1785    5.6952 H   0  0  0  0  0
    5.1098  -12.5033    3.1138 H   0  0  0  0  0
    5.6043  -13.0743    4.7264 H   0  0  0  0  0
    4.1486  -13.7464    3.9516 H   0  0  0  0  0
  8  1  1  0  0  0
 10  2  1  0  0  0
 12  3  1  0  0  0
 11  4  1  0  0  0
 15  5  2  0  0  0
 15  6  1  0  0  0
  7  8  4  0  0  0
  7 12  4  0  0  0
 13  7  1  0  0  0
  8  9  4  0  0  0
  9 10  4  0  0  0
 11 10  4  0  0  0
 12 11  4  0  0  0
 14 13  1  0  0  0
 14 15  1  0  0  0
 14 16  1  0  0  0
 16 17  1  0  0  0
  4 18  1  0  0  0
  6 19  1  0  0  0
  9 20  1  0  0  0
 13 21  1  0  0  0
 13 22  1  0  0  0
 14 23  1  0  0  0
 16 24  1  0  0  0
 16 25  1  0  0  0
 17 26  1  0  0  0
 17 27  1  0  0  0
 17 28  1  0  0  0
M  END
$$$$
