5u6j_ligand
  -I-interpret- 

 78 81  0  0  0  0  0  0  0  0999 V2000
    3.6010   35.7100   24.3470 C   0  0  0  0  0
    5.6920   39.8320   22.1980 C   0  0  0  0  0
    6.7200   40.2320   23.2340 C   0  0  0  0  0
    5.8320   40.0610   20.8150 C   0  0  0  0  0
    4.8370   39.6660   19.9260 C   0  0  0  0  0
    3.6890   39.0400   20.3870 C   0  0  0  0  0
    3.5180   38.8070   21.7450 C   0  0  0  0  0
    4.5220   39.1950   22.6280 C   0  0  0  0  0
    3.2550   36.6410   26.5480 C   0  0  0  0  0
    2.7290   36.0250   25.4120 C   0  0  0  0  0
    3.3060   33.5490   23.2020 C   0  0  0  0  0
    9.5470   33.7590   28.4530 C   0  0  0  0  0
    8.7820   34.8650   28.8130 C   0  0  0  0  0
    8.2040   35.6460   27.8140 C   0  0  0  0  0
    8.3930   35.3250   26.4650 C   0  0  0  0  0
    9.1630   34.2160   26.1240 C   0  0  0  0  0
    9.7320   33.4410   27.1180 C   0  0  0  0  0
    7.8590   36.1010   25.4320 N   0  0  0  0  0
    6.8990   37.1850   25.5750 C   0  0  0  0  0
    7.0860   38.1490   24.3900 C   0  0  0  0  0
    4.5980   36.9610   26.6290 C   0  0  0  0  0
    4.9520   36.0430   24.4560 C   0  0  0  0  0
    7.5840   37.7240   23.3660 O   0  0  0  0  0
    6.6530   39.4280   24.4690 N   0  0  0  0  0
    2.3310   38.1710   22.2060 N   0  0  0  0  0
    1.2270   35.7690   25.3610 C   0  0  0  0  0
    1.7870   38.2400   23.4530 C   0  0  0  0  0
    0.7810   37.3450   23.5570 O   0  0  0  0  0
    2.1780   38.9280   24.3670 O   0  0  0  0  0
    0.3990   36.9720   24.9110 C   0  0  0  0  0
    3.1610   35.0050   23.0900 C   0  0  0  0  0
    8.5400   35.2580   30.2510 C   0  0  0  0  0
    9.1390   34.5370   31.2250 N   0  0  0  0  0
    7.7770   36.2080   30.5000 O   0  0  0  0  0
    6.1440   40.1020   25.6640 C   0  0  0  0  0
    7.2470   40.8660   20.0580 S   0  0  0  0  0
    7.9620   41.6130   21.0580 O   0  0  0  0  0
    8.3480   39.4950   19.4770 C   0  0  0  0  0
    9.0470   38.7250   20.5840 C   0  0  0  0  0
    9.3220   40.0450   18.4530 C   0  0  0  0  0
    6.7760   41.5650   18.8930 O   0  0  0  0  0
    5.4590   36.6870   25.5780 C   0  0  0  0  0
    6.5244   41.2690   23.5068 H   0  0  0  0  0
    7.7056   40.0772   22.7949 H   0  0  0  0  0
    4.9611   39.8502   18.8589 H   0  0  0  0  0
    2.9184   38.7299   19.6812 H   0  0  0  0  0
    4.3924   38.9957   23.6918 H   0  0  0  0  0
    2.5969   36.8738   27.3851 H   0  0  0  0  0
    4.3518   33.3023   23.3851 H   0  0  0  0  0
    2.6958   33.1870   24.0294 H   0  0  0  0  0
    2.9777   33.0800   22.2744 H   0  0  0  0  0
   10.0027   33.1402   29.2260 H   0  0  0  0  0
    7.6008   36.5125   28.0851 H   0  0  0  0  0
    9.3169   33.9593   25.0759 H   0  0  0  0  0
   10.3317   32.5717   26.8481 H   0  0  0  0  0
    8.1730   35.8863   24.4856 H   0  0  0  0  0
    7.0797   37.6766   26.5309 H   0  0  0  0  0
    4.9845   37.4349   27.5313 H   0  0  0  0  0
    5.6278   35.7910   23.6387 H   0  0  0  0  0
    1.8311   37.5987   21.5256 H   0  0  0  0  0
    0.9092   35.5217   26.3739 H   0  0  0  0  0
    1.0615   34.9752   24.6326 H   0  0  0  0  0
    0.5808   37.8102   25.5837 H   0  0  0  0  0
   -0.6595   36.7125   24.9314 H   0  0  0  0  0
    3.7875   35.3492   22.2671 H   0  0  0  0  0
    2.1085   35.2323   22.9204 H   0  0  0  0  0
    8.9714   34.7653   32.2049 H   0  0  0  0  0
    9.7586   33.7647   30.9800 H   0  0  0  0  0
    5.2652   39.5723   26.0318 H   0  0  0  0  0
    6.9158   40.1063   26.4337 H   0  0  0  0  0
    5.8732   41.1277   25.4135 H   0  0  0  0  0
    7.7079   38.7439   19.0141 H   0  0  0  0  0
    9.6719   39.4070   21.1606 H   0  0  0  0  0
    8.3009   38.2733   21.2377 H   0  0  0  0  0
    9.6681   37.9440   20.1453 H   0  0  0  0  0
    8.7671   40.4546   17.6090 H   0  0  0  0  0
    9.9227   40.8311   18.9104 H   0  0  0  0  0
    9.9738   39.2432   18.1062 H   0  0  0  0  0
 10  1  4  0  0  0
  1 22  4  0  0  0
  1 31  1  0  0  0
  3  2  1  0  0  0
  2  4  4  0  0  0
  2  8  4  0  0  0
 24  3  1  0  0  0
  4  5  4  0  0  0
  4 36  1  0  0  0
  5  6  4  0  0  0
  7  6  4  0  0  0
  8  7  4  0  0  0
  7 25  1  0  0  0
  9 10  4  0  0  0
 21  9  4  0  0  0
 10 26  1  0  0  0
 31 11  1  0  0  0
 13 12  4  0  0  0
 17 12  4  0  0  0
 14 13  4  0  0  0
 13 32  1  0  0  0
 15 14  4  0  0  0
 15 16  4  0  0  0
 18 15  1  0  0  0
 16 17  4  0  0  0
 19 18  1  0  0  0
 19 20  1  0  0  0
 42 19  1  0  0  0
 20 23  2  0  0  0
 20 24  1  0  0  0
 21 42  4  0  0  0
 22 42  4  0  0  0
 24 35  1  0  0  0
 25 27  1  0  0  0
 26 30  1  0  0  0
 27 28  1  0  0  0
 27 29  2  0  0  0
 28 30  1  0  0  0
 32 33  1  0  0  0
 32 34  2  0  0  0
 36 37  2  0  0  0
 36 38  1  0  0  0
 36 41  2  0  0  0
 38 39  1  0  0  0
 38 40  1  0  0  0
  3 43  1  0  0  0
  3 44  1  0  0  0
  5 45  1  0  0  0
  6 46  1  0  0  0
  8 47  1  0  0  0
  9 48  1  0  0  0
 11 49  1  0  0  0
 11 50  1  0  0  0
 11 51  1  0  0  0
 12 52  1  0  0  0
 14 53  1  0  0  0
 16 54  1  0  0  0
 17 55  1  0  0  0
 18 56  1  0  0  0
 19 57  1  0  0  0
 21 58  1  0  0  0
 22 59  1  0  0  0
 25 60  1  0  0  0
 26 61  1  0  0  0
 26 62  1  0  0  0
 30 63  1  0  0  0
 30 64  1  0  0  0
 31 65  1  0  0  0
 31 66  1  0  0  0
 33 67  1  0  0  0
 33 68  1  0  0  0
 35 69  1  0  0  0
 35 70  1  0  0  0
 35 71  1  0  0  0
 38 72  1  0  0  0
 39 73  1  0  0  0
 39 74  1  0  0  0
 39 75  1  0  0  0
 40 76  1  0  0  0
 40 77  1  0  0  0
 40 78  1  0  0  0
M  END
$$$$
