### 
### Created by X-TOOL on Mon Aug  2 16:15:13 2021
### 

@<TRIPOS>MOLECULE
6n7y_ligand
   47    50     1     0     0
SMALL
GAST_HUCK


@<TRIPOS>ATOM
      1 C5          3.4460   72.0220   28.1070 C.ar      1 KFA         0.0469
      2 C6          4.7430   72.0480   27.6730 C.ar      1 KFA         0.1085
      3 N1          5.4440   70.9260   27.3700 N.ar      1 KFA        -0.2773
      4 C2          4.8630   69.6500   27.4840 C.ar      1 KFA         0.0586
      5 N3          3.5450   69.6030   27.9170 N.ar      1 KFA        -0.2639
      6 C4          2.8940   70.7760   28.2030 C.ar      1 KFA         0.1295
      7 CAP         2.2240   76.2690   28.2880 C.ar      1 KFA        -0.0592
      8 CAQ         2.0300   77.6600   28.3160 C.ar      1 KFA        -0.0593
      9 CAR         3.1230   78.5320   28.3190 C.ar      1 KFA        -0.0451
     10 CAW         2.8990   79.9160   28.3470 C.3       1 KFA        -0.0306
     11 CAS         4.4170   77.9950   28.2920 C.ar      1 KFA        -0.0593
     12 CAT         4.6150   76.6010   28.2550 C.ar      1 KFA        -0.0592
     13 CAO         3.5180   75.6960   28.2730 C.ar      1 KFA        -0.0128
     14 CAM         3.7250   74.3400   28.1790 C.2       1 KFA         0.0373
     15 SAN         5.2270   73.6540   27.5970 S.3       1 KFA        -0.0140
     16 CAL         2.8850   73.2790   28.3720 C.2       1 KFA        -0.0456
     17 NAB         1.6190   70.7310   28.6280 N.pl3     1 KFA        -0.2805
     18 CAC         0.9340   69.4600   28.9370 C.3       1 KFA         0.1218
     19 PAA        -0.7930   69.6010   28.1510 P.3       1 KFA         0.0872
     20 OAE        -0.5320   69.5860   26.4960 O.co2     1 KFA        -0.5606
     21 OAU        -1.2980   71.1070   28.4700 O.co2     1 KFA        -0.5606
     22 OAD        -1.7340   68.5700   28.6860 O.co2     1 KFA        -0.5606
     23 CAV         0.9720   69.1880   30.4740 C.3       1 KFA         0.0202
     24 CAX         2.3340   69.2240   30.9500 C.ar      1 KFA        -0.0394
     25 CAY         2.9540   70.4370   31.3440 C.ar      1 KFA        -0.0602
     26 CAZ         4.2770   70.4970   31.7940 C.ar      1 KFA        -0.0686
     27 CBA         5.0110   69.3190   31.8540 C.ar      1 KFA        -0.0687
     28 CBB         4.4140   68.1050   31.4810 C.ar      1 KFA        -0.0686
     29 CBC         3.0880   68.0460   31.0280 C.ar      1 KFA        -0.0602
     30 H1          5.4165   68.7490   27.2458 H         1 KFA         0.1012
     31 H2          1.3585   75.6164   28.2776 H         1 KFA         0.0607
     32 H3          1.0232   78.0612   28.3355 H         1 KFA         0.0561
     33 H4          3.8641   80.4437   28.3452 H         1 KFA         0.0395
     34 H5          2.3393   80.1785   29.2568 H         1 KFA         0.0395
     35 H6          2.3180   80.2114   27.4609 H         1 KFA         0.0395
     36 H7          5.2739   78.6589   28.2997 H         1 KFA         0.0561
     37 H8          5.6250   76.2096   28.2119 H         1 KFA         0.0607
     38 H9          1.8560   73.4012   28.7069 H         1 KFA         0.0448
     39 H10         1.1019   71.6145   28.7420 H         1 KFA         0.1885
     40 H11         1.4657   68.6314   28.4463 H         1 KFA         0.0781
     41 H12         0.5410   68.1969   30.6790 H         1 KFA         0.0464
     42 H13         0.3841   69.9583   30.9946 H         1 KFA         0.0464
     43 H14         2.3794   71.3548   31.2944 H         1 KFA         0.0557
     44 H15         4.7196   71.4414   32.0893 H         1 KFA         0.0599
     45 H16         6.0421   69.3375   32.1880 H         1 KFA         0.0559
     46 H17         4.9921   67.1902   31.5446 H         1 KFA         0.0599
     47 H18         2.6503   67.0968   30.7407 H         1 KFA         0.0557
@<TRIPOS>BOND
     1    2    1 ar 
     2    1    6 ar 
     3    1   16 1  
     4    2    3 ar 
     5   15    2 1  
     6    3    4 ar 
     7    4    5 ar 
     8    6    5 ar 
     9    6   17 1  
    10    7    8 ar 
    11   13    7 ar 
    12    8    9 ar 
    13    9   10 1  
    14   11    9 ar 
    15   12   11 ar 
    16   13   12 ar 
    17   14   13 1  
    18   14   15 1  
    19   14   16 2  
    20   17   18 1  
    21   18   19 1  
    22   18   23 1  
    23   19   20 ar 
    24   19   21 ar 
    25   19   22 ar 
    26   23   24 1  
    27   24   25 ar 
    28   24   29 ar 
    29   25   26 ar 
    30   26   27 ar 
    31   27   28 ar 
    32   28   29 ar 
    33    4   30 1  
    34    7   31 1  
    35    8   32 1  
    36   10   33 1  
    37   10   34 1  
    38   10   35 1  
    39   11   36 1  
    40   12   37 1  
    41   16   38 1  
    42   17   39 1  
    43   18   40 1  
    44   23   41 1  
    45   23   42 1  
    46   25   43 1  
    47   26   44 1  
    48   27   45 1  
    49   28   46 1  
    50   29   47 1  
@<TRIPOS>SUBSTRUCTURE
     1 KFA         1

