6n7y_ligand
  -I-interpret- 

 49 52  0  0  0  0  0  0  0  0999 V2000
    3.4460   72.0220   28.1070 C   0  0  0  0  0
    4.7430   72.0480   27.6730 C   0  0  0  0  0
    5.4440   70.9260   27.3700 N   0  0  0  0  0
    4.8630   69.6500   27.4840 C   0  0  0  0  0
    3.5450   69.6030   27.9170 N   0  0  0  0  0
    2.8940   70.7760   28.2030 C   0  0  0  0  0
    2.2240   76.2690   28.2880 C   0  0  0  0  0
    2.0300   77.6600   28.3160 C   0  0  0  0  0
    3.1230   78.5320   28.3190 C   0  0  0  0  0
    2.8990   79.9160   28.3470 C   0  0  0  0  0
    4.4170   77.9950   28.2920 C   0  0  0  0  0
    4.6150   76.6010   28.2550 C   0  0  0  0  0
    3.5180   75.6960   28.2730 C   0  0  0  0  0
    3.7250   74.3400   28.1790 C   0  0  0  0  0
    5.2270   73.6540   27.5970 S   0  0  0  0  0
    2.8850   73.2790   28.3720 C   0  0  0  0  0
    1.6190   70.7310   28.6280 N   0  0  0  0  0
    0.9340   69.4600   28.9370 C   0  0  0  0  0
   -0.7930   69.6010   28.1510 P   0  0  0  0  0
   -0.5320   69.5860   26.4960 O   0  0  0  0  0
   -1.2980   71.1070   28.4700 O   0  0  0  0  0
   -1.7340   68.5700   28.6860 O   0  0  0  0  0
    0.9720   69.1880   30.4740 C   0  0  0  0  0
    2.3340   69.2240   30.9500 C   0  0  0  0  0
    2.9540   70.4370   31.3440 C   0  0  0  0  0
    4.2770   70.4970   31.7940 C   0  0  0  0  0
    5.0110   69.3190   31.8540 C   0  0  0  0  0
    4.4140   68.1050   31.4810 C   0  0  0  0  0
    3.0880   68.0460   31.0280 C   0  0  0  0  0
    5.4196   68.7440   27.2444 H   0  0  0  0  0
    1.3538   75.6127   28.2775 H   0  0  0  0  0
    1.0176   78.0635   28.3356 H   0  0  0  0  0
    2.3232   80.2074   27.4686 H   0  0  0  0  0
    2.3443   80.1748   29.2489 H   0  0  0  0  0
    3.8560   80.4378   28.3452 H   0  0  0  0  0
    5.2787   78.6625   28.2997 H   0  0  0  0  0
    5.6305   76.2074   28.2117 H   0  0  0  0  0
    1.8551   73.4013   28.7072 H   0  0  0  0  0
    1.1069   71.6059   28.7409 H   0  0  0  0  0
    1.4198   68.5789   28.5177 H   0  0  0  0  0
    0.0841   70.2847   26.2640 H   0  0  0  0  0
   -0.6687   71.7370   28.1113 H   0  0  0  0  0
    0.5489   68.2035   30.6738 H   0  0  0  0  0
    0.3929   69.9554   30.9877 H   0  0  0  0  0
    2.3762   71.3599   31.2941 H   0  0  0  0  0
    4.7221   71.4466   32.0909 H   0  0  0  0  0
    6.0478   69.3376   32.1899 H   0  0  0  0  0
    4.9952   67.1851   31.5449 H   0  0  0  0  0
    2.6479   67.0916   30.7391 H   0  0  0  0  0
  2  1  4  0  0  0
  1  6  4  0  0  0
  1 16  4  0  0  0
  2  3  4  0  0  0
 15  2  4  0  0  0
  3  4  4  0  0  0
  4  5  4  0  0  0
  6  5  4  0  0  0
  6 17  1  0  0  0
  7  8  4  0  0  0
 13  7  4  0  0  0
  8  9  4  0  0  0
  9 10  1  0  0  0
 11  9  4  0  0  0
 12 11  4  0  0  0
 13 12  4  0  0  0
 14 13  1  0  0  0
 14 15  4  0  0  0
 14 16  4  0  0  0
 17 18  1  0  0  0
 18 19  1  0  0  0
 18 23  1  0  0  0
 19 20  1  0  0  0
 19 21  1  0  0  0
 19 22  2  0  0  0
 23 24  1  0  0  0
 24 25  4  0  0  0
 24 29  4  0  0  0
 25 26  4  0  0  0
 26 27  4  0  0  0
 27 28  4  0  0  0
 28 29  4  0  0  0
  4 30  1  0  0  0
  7 31  1  0  0  0
  8 32  1  0  0  0
 10 33  1  0  0  0
 10 34  1  0  0  0
 10 35  1  0  0  0
 11 36  1  0  0  0
 12 37  1  0  0  0
 16 38  1  0  0  0
 17 39  1  0  0  0
 18 40  1  0  0  0
 20 41  1  0  0  0
 21 42  1  0  0  0
 23 43  1  0  0  0
 23 44  1  0  0  0
 25 45  1  0  0  0
 26 46  1  0  0  0
 27 47  1  0  0  0
 28 48  1  0  0  0
 29 49  1  0  0  0
M  END
$$$$
