3cke_ligand
  -I-interpret- 

 52 51  0  0  0  0  0  0  0  0999 V2000
   -1.8450  -38.6980   19.9160 P   0  0  0  0  0
   -1.7600  -39.1070   17.3410 P   0  0  0  0  0
   -0.8800  -36.5200   20.3340 C   0  0  0  0  0
   -2.1150  -37.2250   19.9340 O   0  0  0  0  0
   -0.3250  -39.0740   20.0560 O   0  0  0  0  0
   -0.5590  -38.2050   17.6650 O   0  0  0  0  0
   -0.9170  -35.0090   20.3380 C   0  0  0  0  0
   -2.5810  -39.2570   21.2430 O   0  0  0  0  0
   -1.1350  -40.4150   16.6050 O   0  0  0  0  0
    0.0050  -34.2810   21.0290 C   0  0  0  0  0
   -2.6200  -39.4390   18.7380 O   0  0  0  0  0
   -2.8410  -38.4160   16.3010 O   0  0  0  0  0
    1.1040  -34.9450   21.8810 C   0  0  0  0  0
   -0.0210  -32.7670   20.9620 C   0  0  0  0  0
    1.2910  -32.3010   20.2700 C   0  0  0  0  0
    0.9570  -31.8030   18.8800 C   0  0  0  0  0
    1.5880  -32.2080   17.7840 C   0  0  0  0  0
    1.1520  -31.6310   16.4800 C   0  0  0  0  0
    2.7420  -33.2390   17.8070 C   0  0  0  0  0
    0.6100  -32.7710   15.6230 C   0  0  0  0  0
   -0.8750  -32.5820   15.3880 C   0  0  0  0  0
   -1.8010  -33.5450   15.7130 C   0  0  0  0  0
   -3.1330  -33.2950   15.4280 C   0  0  0  0  0
   -1.3930  -34.7890   16.2880 C   0  0  0  0  0
   -1.7940  -35.2550   17.4810 F   0  0  0  0  0
   -3.8060  -34.2650   14.9030 F   0  0  0  0  0
   -0.1291  -36.7955   19.5935 H   0  0  0  0  0
   -0.6929  -36.8140   21.3668 H   0  0  0  0  0
   -1.6958  -34.4918   19.7776 H   0  0  0  0  0
   -3.5171  -39.0485   21.2002 H   0  0  0  0  0
   -1.8434  -41.0211   16.3762 H   0  0  0  0  0
   -3.5638  -39.0270   16.1399 H   0  0  0  0  0
    0.6415  -35.5517   22.6595 H   0  0  0  0  0
    1.7226  -35.5779   21.2447 H   0  0  0  0  0
    1.7225  -34.1734   22.3393 H   0  0  0  0  0
   -0.0916  -32.3444   21.9643 H   0  0  0  0  0
   -0.8889  -32.4275   20.3967 H   0  0  0  0  0
    1.9916  -33.1336   20.2063 H   0  0  0  0  0
    1.7507  -31.5003   20.8494 H   0  0  0  0  0
    0.1552  -31.0724   18.7730 H   0  0  0  0  0
    1.9919  -31.1484   15.9802 H   0  0  0  0  0
    0.3806  -30.8774   16.6388 H   0  0  0  0  0
    3.5587  -32.8547   18.4181 H   0  0  0  0  0
    2.3811  -34.1770   18.2288 H   0  0  0  0  0
    3.0961  -33.4088   16.7902 H   0  0  0  0  0
    0.7738  -33.7169   16.1393 H   0  0  0  0  0
    1.1272  -32.7755   14.6635 H   0  0  0  0  0
   -1.2218  -31.6484   14.9451 H   0  0  0  0  0
   -3.1367  -32.4930   14.6899 H   0  0  0  0  0
   -3.6099  -33.0820   16.3847 H   0  0  0  0  0
   -0.3261  -34.6324   16.4468 H   0  0  0  0  0
   -1.8232  -35.5155   15.5986 H   0  0  0  0  0
  1  4  1  0  0  0
  1  5  2  0  0  0
  1  8  1  0  0  0
 11  1  1  0  0  0
  2  6  2  0  0  0
  2  9  1  0  0  0
  2 11  1  0  0  0
  2 12  1  0  0  0
  4  3  1  0  0  0
  3  7  1  0  0  0
  7 10  2  0  0  0
 10 13  1  0  0  0
 10 14  1  0  0  0
 14 15  1  0  0  0
 15 16  1  0  0  0
 16 17  2  0  0  0
 17 18  1  0  0  0
 17 19  1  0  0  0
 18 20  1  0  0  0
 20 21  1  0  0  0
 21 22  2  0  0  0
 22 23  1  0  0  0
 22 24  1  0  0  0
 23 26  1  0  0  0
 24 25  1  0  0  0
  3 27  1  0  0  0
  3 28  1  0  0  0
  7 29  1  0  0  0
  8 30  1  0  0  0
  9 31  1  0  0  0
 12 32  1  0  0  0
 13 33  1  0  0  0
 13 34  1  0  0  0
 13 35  1  0  0  0
 14 36  1  0  0  0
 14 37  1  0  0  0
 15 38  1  0  0  0
 15 39  1  0  0  0
 16 40  1  0  0  0
 18 41  1  0  0  0
 18 42  1  0  0  0
 19 43  1  0  0  0
 19 44  1  0  0  0
 19 45  1  0  0  0
 20 46  1  0  0  0
 20 47  1  0  0  0
 21 48  1  0  0  0
 23 49  1  0  0  0
 23 50  1  0  0  0
 24 51  1  0  0  0
 24 52  1  0  0  0
M  END
$$$$
