### 
### Created by X-TOOL on Mon Sep 10 21:12:58 2018
### 

@<TRIPOS>MOLECULE
2pl9_ligand
  266   266     1     0     0
SMALL
GAST_HUCK


@<TRIPOS>ATOM
      1 N         -26.0450   36.7580  -23.7710 N.4       1 ALA         0.2377
      2 CA        -24.6950   36.8810  -24.3530 C.3       1 ALA         0.0621
      3 C         -24.1040   38.2890  -24.1430 C.2       1 ALA         0.2262
      4 O         -22.9600   38.5300  -24.5260 O.2       1 ALA        -0.3907
      5 CB        -24.7190   36.5550  -25.8470 C.3       1 ALA        -0.0040
      6 N         -24.8600   39.2380  -23.5250 N.am      1 GLY        -0.2637
      7 CA        -24.2380   40.4930  -23.0640 C.3       1 GLY         0.1202
      8 C         -23.4500   40.2020  -21.7990 C.2       1 GLY         0.2008
      9 O         -22.6010   40.9960  -21.3780 O.2       1 GLY        -0.3947
     10 N         -23.7300   39.0370  -21.2140 N.am      1 VAL        -0.2637
     11 CA        -23.0720   38.5710  -19.9980 C.3       1 VAL         0.1332
     12 C         -22.0890   37.4390  -20.3220 C.2       1 VAL         0.2042
     13 O         -22.2950   36.6430  -21.2530 O.2       1 VAL        -0.3944
     14 CB        -24.0910   38.0420  -18.9720 C.3       1 VAL        -0.0063
     15 CG1       -23.3760   37.4500  -17.7670 C.3       1 VAL        -0.0584
     16 CG2       -25.0420   39.1510  -18.5450 C.3       1 VAL        -0.0584
     17 N         -20.9490   37.4650  -19.5750 N.am      1 VAL        -0.2635
     18 CA        -20.0110   36.3450  -19.5810 C.3       1 VAL         0.1332
     19 C         -20.4040   35.3450  -18.4660 C.2       1 VAL         0.2041
     20 O         -20.8600   35.7520  -17.3910 O.2       1 VAL        -0.3944
     21 CB        -18.5450   36.8410  -19.3770 C.3       1 VAL        -0.0063
     22 CG1       -17.5770   35.6870  -19.4930 C.3       1 VAL        -0.0584
     23 CG2       -18.1930   37.9210  -20.3990 C.3       1 VAL        -0.0584
     24 N         -20.2490   34.0480  -18.7310 N.am      1 ALA        -0.2640
     25 CA        -20.6750   33.0120  -17.7730 C.3       1 ALA         0.1282
     26 C         -19.5250   32.1220  -17.2600 C.2       1 ALA         0.2037
     27 O         -19.7620   31.1370  -16.5420 O.2       1 ALA        -0.3944
     28 CB        -21.7810   32.1580  -18.3770 C.3       1 ALA        -0.0244
     29 N         -18.2900   32.4710  -17.6270 N.am      1 SER        -0.2616
     30 CA        -17.1220   31.6770  -17.2650 C.3       1 SER         0.1539
     31 C         -15.8650   32.5300  -17.1970 C.2       1 SER         0.2062
     32 O         -15.7900   33.6080  -17.8100 O.2       1 SER        -0.3943
     33 CB        -16.9100   30.5590  -18.2800 C.3       1 SER         0.0843
     34 OG        -16.1680   31.0400  -19.4140 O.3       1 SER        -0.3903
     35 N         -14.8690   32.0270  -16.4640 N.am      1 GLN        -0.2635
     36 CA        -13.5450   32.6430  -16.4080 C.3       1 GLN         0.1330
     37 C         -12.8750   32.7080  -17.7780 C.2       1 GLN         0.2041
     38 O         -12.3260   33.7480  -18.1580 O.2       1 GLN        -0.3944
     39 CB        -12.6390   31.9080  -15.4150 C.3       1 GLN         0.0045
     40 CG        -11.3760   32.6990  -15.0520 C.3       1 GLN         0.0412
     41 CD        -11.6820   34.1480  -14.6350 C.2       1 GLN         0.1737
     42 OE1       -12.5240   34.3880  -13.7700 O.2       1 GLN        -0.3973
     43 NE2       -10.9940   35.1140  -15.2610 N.am      1 GLN        -0.3009
     44 N         -12.9290   31.6000  -18.5180 N.am      1 ASP        -0.2622
     45 CA        -12.3340   31.5400  -19.8480 C.3       1 ASP         0.1423
     46 C         -12.8890   32.6390  -20.7600 C.2       1 ASP         0.2056
     47 O         -12.1320   33.3250  -21.4390 O.2       1 ASP        -0.3943
     48 CB        -12.5140   30.1460  -20.4790 C.3       1 ASP         0.0406
     49 CG        -11.4390   29.1460  -20.0020 C.2       1 ASP         0.0393
     50 OD1       -10.8090   29.3860  -18.9450 O.co2     1 ASP        -0.5688
     51 OD2       -11.2260   28.1140  -20.6840 O.co2     1 ASP        -0.5688
     52 N         -14.2070   32.8150  -20.7460 N.am      1 GLN        -0.2635
     53 CA        -14.8390   33.9030  -21.4790 C.3       1 GLN         0.1330
     54 C         -14.2650   35.2780  -21.0990 C.2       1 GLN         0.2041
     55 O         -13.9820   36.0830  -21.9690 O.2       1 GLN        -0.3944
     56 CB        -16.3570   33.8720  -21.2910 C.3       1 GLN         0.0045
     57 CG        -17.0840   32.8160  -22.1270 C.3       1 GLN         0.0412
     58 CD        -18.5990   32.7920  -21.8840 C.2       1 GLN         0.1737
     59 OE1       -19.1400   33.6370  -21.1570 O.2       1 GLN        -0.3973
     60 NE2       -19.2870   31.8240  -22.5090 N.am      1 GLN        -0.3009
     61 N         -14.0770   35.5290  -19.8010 N.am      1 VAL        -0.2635
     62 CA        -13.4640   36.7890  -19.3280 C.3       1 VAL         0.1333
     63 C         -12.0170   36.9180  -19.8120 C.2       1 VAL         0.2042
     64 O         -11.6090   37.9720  -20.3010 O.2       1 VAL        -0.3944
     65 CB        -13.5050   36.9150  -17.7590 C.3       1 VAL        -0.0063
     66 CG1       -12.8380   38.2280  -17.2930 C.3       1 VAL        -0.0584
     67 CG2       -14.9250   36.8450  -17.2640 C.3       1 VAL        -0.0584
     68 N         -11.2570   35.8310  -19.6700 N.am      1 ASP        -0.2622
     69 CA         -9.8710   35.7740  -20.1240 C.3       1 ASP         0.1423
     70 C          -9.7780   36.0340  -21.6210 C.2       1 ASP         0.2057
     71 O          -8.9490   36.8160  -22.0710 O.2       1 ASP        -0.3943
     72 CB         -9.2510   34.4080  -19.8020 C.3       1 ASP         0.0406
     73 CG         -9.0790   34.1760  -18.3130 C.2       1 ASP         0.0393
     74 OD1        -9.4340   35.0760  -17.5090 O.co2     1 ASP        -0.5688
     75 OD2        -8.5750   33.0860  -17.9450 O.co2     1 ASP        -0.5688
     76 N         -10.6300   35.3750  -22.3880 N.am      1 ASP        -0.2621
     77 CA        -10.6360   35.5530  -23.8300 C.3       1 ASP         0.1423
     78 C         -10.9780   37.0080  -24.1890 C.2       1 ASP         0.2056
     79 O         -10.3220   37.6230  -25.0280 O.2       1 ASP        -0.3943
     80 CB        -11.6160   34.5760  -24.4900 C.3       1 ASP         0.0406
     81 CG        -11.4320   34.4960  -25.9800 C.2       1 ASP         0.0393
     82 OD1       -12.2100   35.1480  -26.7090 O.co2     1 ASP        -0.5688
     83 OD2       -10.4950   33.8010  -26.4290 O.co2     1 ASP        -0.5688
     84 N         -11.9850   37.5580  -23.5100 N.am      1 LEU        -0.2636
     85 CA        -12.3720   38.9430  -23.7040 C.3       1 LEU         0.1312
     86 C         -11.1760   39.8840  -23.4730 C.2       1 LEU         0.2039
     87 O         -10.7390   40.5770  -24.4050 O.2       1 LEU        -0.3944
     88 CB        -13.5430   39.3210  -22.7750 C.3       1 LEU        -0.0101
     89 CG        -14.5520   40.3950  -23.2420 C.3       1 LEU        -0.0425
     90 CD1       -15.0910   41.1900  -22.0490 C.3       1 LEU        -0.0625
     91 CD2       -14.0030   41.3320  -24.3150 C.3       1 LEU        -0.0625
     92 N         -10.6470   39.8910  -22.2410 N.am      1 LEU        -0.2637
     93 CA         -9.5200   40.7590  -21.8960 C.3       1 LEU         0.1312
     94 C          -8.3280   40.5670  -22.8340 C.2       1 LEU         0.2040
     95 O          -7.6650   41.5340  -23.2120 O.2       1 LEU        -0.3944
     96 CB         -9.1010   40.5740  -20.4250 C.3       1 LEU        -0.0101
     97 CG        -10.0860   41.1050  -19.3590 C.3       1 LEU        -0.0425
     98 CD1        -9.5110   40.9960  -17.9530 C.3       1 LEU        -0.0625
     99 CD2       -10.4960   42.5390  -19.6720 C.3       1 LEU        -0.0625
    100 N          -8.0770   39.3200  -23.2220 N.am      1 ASP        -0.2622
    101 CA         -7.0110   38.9960  -24.1820 C.3       1 ASP         0.1423
    102 C          -7.2550   39.6430  -25.5390 C.2       1 ASP         0.2057
    103 O          -6.3560   40.2680  -26.0990 O.2       1 ASP        -0.3943
    104 CB         -6.8930   37.4800  -24.3560 C.3       1 ASP         0.0406
    105 CG         -5.5210   37.0480  -24.8340 C.2       1 ASP         0.0393
    106 OD1        -4.6450   37.9150  -25.0800 O.co2     1 ASP        -0.5688
    107 OD2        -5.3080   35.8200  -24.9480 O.co2     1 ASP        -0.5688
    108 N          -8.4860   39.4990  -26.0460 N.am      1 SER        -0.2615
    109 CA         -8.8600   40.0180  -27.3670 C.3       1 SER         0.1539
    110 C          -8.7030   41.5290  -27.4800 C.2       1 SER         0.2062
    111 O          -8.7230   42.0760  -28.5790 O.2       1 SER        -0.3943
    112 CB        -10.3070   39.6080  -27.7320 C.3       1 SER         0.0843
    113 OG        -11.2720   40.4820  -27.1460 O.3       1 SER        -0.3903
    114 N          -8.5320   42.1960  -26.3430 N.am      1 LEU        -0.2636
    115 CA         -8.4910   43.6560  -26.3240 C.3       1 LEU         0.1312
    116 C          -7.1470   44.2280  -25.8880 C.2       1 LEU         0.2037
    117 O          -7.0200   45.4340  -25.6980 O.2       1 LEU        -0.3944
    118 CB         -9.6200   44.2170  -25.4550 C.3       1 LEU        -0.0101
    119 CG        -11.0400   44.0460  -25.9920 C.3       1 LEU        -0.0425
    120 CD1       -12.0730   44.2550  -24.8890 C.3       1 LEU        -0.0625
    121 CD2       -11.2940   44.9790  -27.1880 C.3       1 LEU        -0.0625
    122 N          -6.1440   43.3660  -25.7470 N.am      1 GLY        -0.2664
    123 CA         -4.7880   43.8110  -25.4080 C.3       1 GLY         0.1201
    124 C          -4.5310   43.9480  -23.9090 C.2       1 GLY         0.2003
    125 O          -3.6230   44.6750  -23.4950 O.2       1 GLY        -0.3947
    126 N          -5.3220   43.2430  -23.0950 N.am      1 PHE        -0.2679
    127 CA         -5.1270   43.2370  -21.6460 C.3       1 PHE         0.1039
    128 C          -4.5860   41.9100  -21.1320 C.2       1 PHE         0.0621
    129 O          -4.4990   41.6970  -19.9190 O.co2     1 PHE        -0.5664
    130 CB         -6.4280   43.5930  -20.9290 C.3       1 PHE         0.0159
    131 CG         -6.9680   44.9430  -21.3140 C.ar      1 PHE        -0.0392
    132 CD1        -8.0550   45.0470  -22.1980 C.ar      1 PHE        -0.0602
    133 CD2        -6.3700   46.1170  -20.8260 C.ar      1 PHE        -0.0602
    134 CE1        -8.5410   46.2930  -22.5770 C.ar      1 PHE        -0.0686
    135 CE2        -6.8560   47.3700  -21.1980 C.ar      1 PHE        -0.0686
    136 CZ         -7.9410   47.4590  -22.0730 C.ar      1 PHE        -0.0687
    137 OXT        -4.2180   41.0160  -21.9030 O.co2     1 PHE        -0.5664
    138 H1        -26.3953   35.8261  -23.9289 H         1 ALA         0.2015
    139 H2        -26.6609   37.4267  -24.2065 H         1 ALA         0.2015
    140 H3        -26.0013   36.9371  -22.7800 H         1 ALA         0.2015
    141 H4        -24.0405   36.1548  -23.8487 H         1 ALA         0.1095
    142 H5        -23.7041   36.6528  -26.2599 H         1 ALA         0.0310
    143 H6        -25.3939   37.2531  -26.3639 H         1 ALA         0.0310
    144 H7        -25.0761   35.5247  -25.9918 H         1 ALA         0.0310
    145 H8        -25.8379   39.0837  -23.3836 H         1 GLY         0.1882
    146 H9        -25.0187   41.2384  -22.8519 H         1 GLY         0.0763
    147 H10       -23.5628   40.8802  -23.8412 H         1 GLY         0.0763
    148 H11       -24.4267   38.4527  -21.6300 H         1 VAL         0.1883
    149 H12       -22.5209   39.4130  -19.5537 H         1 VAL         0.0802
    150 H13       -24.6812   37.2456  -19.4489 H         1 VAL         0.0343
    151 H14       -24.1189   37.0779  -17.0462 H         1 VAL         0.0234
    152 H15       -22.7584   38.2251  -17.2898 H         1 VAL         0.0234
    153 H16       -22.7337   36.6188  -18.0935 H         1 VAL         0.0234
    154 H17       -25.5465   39.5629  -19.4315 H         1 VAL         0.0234
    155 H18       -24.4740   39.9480  -18.0429 H         1 VAL         0.0234
    156 H19       -25.7929   38.7436  -17.8521 H         1 VAL         0.0234
    157 H20       -20.7508   38.2670  -19.0115 H         1 VAL         0.1883
    158 H21       -20.0748   35.8358  -20.5539 H         1 VAL         0.0802
    159 H22       -18.4596   37.2716  -18.3684 H         1 VAL         0.0343
    160 H23       -16.5502   36.0536  -19.3469 H         1 VAL         0.0234
    161 H24       -17.6656   35.2329  -20.4910 H         1 VAL         0.0234
    162 H25       -17.8102   34.9342  -18.7256 H         1 VAL         0.0234
    163 H26       -18.9021   38.7570  -20.3079 H         1 VAL         0.0234
    164 H27       -18.2518   37.4992  -21.4132 H         1 VAL         0.0234
    165 H28       -17.1718   38.2843  -20.2116 H         1 VAL         0.0234
    166 H29       -19.8348   33.7719  -19.5983 H         1 ALA         0.1883
    167 H30       -21.0931   33.5330  -16.8991 H         1 ALA         0.0797
    168 H31       -22.0887   31.3901  -17.6520 H         1 ALA         0.0277
    169 H32       -21.4107   31.6715  -19.2914 H         1 ALA         0.0277
    170 H33       -22.6429   32.7953  -18.6240 H         1 ALA         0.0277
    171 H34       -18.1619   33.3029  -18.1670 H         1 SER         0.1884
    172 H35       -17.2983   31.2311  -16.2750 H         1 SER         0.0823
    173 H36       -17.8885   30.1880  -18.6190 H         1 SER         0.0606
    174 H37       -16.3519   29.7393  -17.8039 H         1 SER         0.0606
    175 H38       -16.0457   30.3313  -20.0347 H         1 SER         0.2097
    176 H39       -15.0354   31.1964  -15.9326 H         1 GLN         0.1883
    177 H40       -13.6748   33.6749  -16.0498 H         1 GLN         0.0801
    178 H41       -12.3353   30.9497  -15.8615 H         1 GLN         0.0337
    179 H42       -13.2101   31.7189  -14.4941 H         1 GLN         0.0337
    180 H43       -10.7092   32.7180  -15.9266 H         1 GLN         0.0504
    181 H44       -10.8710   32.1917  -14.2168 H         1 GLN         0.0504
    182 H45       -11.1541   36.0732  -15.0280 H         1 GLN         0.1814
    183 H46       -10.3208   34.8751  -15.9609 H         1 GLN         0.1814
    184 H47       -13.3886   30.7907  -18.1521 H         1 ASP         0.1884
    185 H48       -11.2541   31.7165  -19.7360 H         1 ASP         0.0819
    186 H49       -12.4484   30.2413  -21.5729 H         1 ASP         0.0478
    187 H50       -13.5057   29.7579  -20.2035 H         1 ASP         0.0478
    188 H51       -14.7779   32.1850  -20.2194 H         1 GLN         0.1883
    189 H52       -14.6311   33.7445  -22.5475 H         1 GLN         0.0801
    190 H53       -16.7563   34.8598  -21.5645 H         1 GLN         0.0337
    191 H54       -16.5668   33.6727  -20.2298 H         1 GLN         0.0337
    192 H55       -16.6737   31.8270  -21.8750 H         1 GLN         0.0504
    193 H56       -16.9038   33.0275  -23.1913 H         1 GLN         0.0504
    194 H57       -20.2776   31.7575  -22.3892 H         1 GLN         0.1814
    195 H58       -18.8091   31.1692  -23.0946 H         1 GLN         0.1814
    196 H59       -14.3591   34.8445  -19.1287 H         1 VAL         0.1883
    197 H60       -14.0437   37.6223  -19.7518 H         1 VAL         0.0802
    198 H61       -12.9450   36.0712  -17.3296 H         1 VAL         0.0343
    199 H62       -12.8800   38.2912  -16.1956 H         1 VAL         0.0234
    200 H63       -13.3708   39.0853  -17.7302 H         1 VAL         0.0234
    201 H64       -11.7882   38.2426  -17.6212 H         1 VAL         0.0234
    202 H65       -15.3858   35.9056  -17.6036 H         1 VAL         0.0234
    203 H66       -15.4946   37.6976  -17.6622 H         1 VAL         0.0234
    204 H67       -14.9323   36.8805  -16.1646 H         1 VAL         0.0234
    205 H68       -11.6529   35.0224  -19.2348 H         1 ASP         0.1884
    206 H69        -9.3008   36.5526  -19.5962 H         1 ASP         0.0819
    207 H70        -8.2637   34.3481  -20.2832 H         1 ASP         0.0478
    208 H71        -9.9046   33.6213  -20.2069 H         1 ASP         0.0478
    209 H72       -11.2816   34.7431  -21.9683 H         1 ASP         0.1884
    210 H73        -9.6268   35.3341  -24.2090 H         1 ASP         0.0819
    211 H74       -12.6428   34.9092  -24.2786 H         1 ASP         0.0478
    212 H75       -11.4596   33.5753  -24.0609 H         1 ASP         0.0478
    213 H76       -12.4874   37.0008  -22.8489 H         1 LEU         0.1883
    214 H77       -12.7070   39.0622  -24.7449 H         1 LEU         0.0800
    215 H78       -13.1041   39.6791  -21.8321 H         1 LEU         0.0315
    216 H79       -14.1155   38.4008  -22.5868 H         1 LEU         0.0315
    217 H80       -15.4013   39.8597  -23.6915 H         1 LEU         0.0298
    218 H81       -15.8055   41.9466  -22.4053 H         1 LEU         0.0232
    219 H82       -14.2568   41.6878  -21.5330 H         1 LEU         0.0232
    220 H83       -15.5979   40.5066  -21.3519 H         1 LEU         0.0232
    221 H84       -13.6225   40.7390  -25.1598 H         1 LEU         0.0232
    222 H85       -13.1855   41.9345  -23.8923 H         1 LEU         0.0232
    223 H86       -14.8054   41.9975  -24.6661 H         1 LEU         0.0232
    224 H87       -11.0315   39.2889  -21.5412 H         1 LEU         0.1883
    225 H88        -9.8625   41.7977  -22.0130 H         1 LEU         0.0800
    226 H89        -8.1416   41.0928  -20.2823 H         1 LEU         0.0315
    227 H90        -8.9653   39.4968  -20.2484 H         1 LEU         0.0315
    228 H91       -10.9901   40.4797  -19.3984 H         1 LEU         0.0298
    229 H92       -10.2412   41.3833  -17.2272 H         1 LEU         0.0232
    230 H93        -8.5836   41.5842  -17.8895 H         1 LEU         0.0232
    231 H94        -9.2929   39.9419  -17.7267 H         1 LEU         0.0232
    232 H95       -10.9069   42.5887  -20.6912 H         1 LEU         0.0232
    233 H96        -9.6169   43.1960  -19.5987 H         1 LEU         0.0232
    234 H97       -11.2602   42.8673  -18.9522 H         1 LEU         0.0232
    235 H98        -8.6322   38.5770  -22.8481 H         1 ASP         0.1884
    236 H99        -6.0608   39.3790  -23.7814 H         1 ASP         0.0819
    237 H100       -7.6411   37.1516  -25.0925 H         1 ASP         0.0478
    238 H101       -7.0955   36.9984  -23.3880 H         1 ASP         0.0478
    239 H102       -9.1765   39.0198  -25.5042 H         1 SER         0.1884
    240 H103       -8.1828   39.5594  -28.1025 H         1 SER         0.0823
    241 H104      -10.4885   38.5849  -27.3711 H         1 SER         0.0606
    242 H105      -10.4195   39.6364  -28.8259 H         1 SER         0.0606
    243 H106      -11.1853   40.4591  -26.2003 H         1 SER         0.2097
    244 H107       -8.4297   41.6900  -25.4866 H         1 LEU         0.1883
    245 H108       -8.6652   43.9953  -27.3557 H         1 LEU         0.0800
    246 H109       -9.4388   45.2942  -25.3254 H         1 LEU         0.0315
    247 H110       -9.5697   43.7164  -24.4768 H         1 LEU         0.0315
    248 H111      -11.1401   43.0107  -26.3501 H         1 LEU         0.0298
    249 H112      -13.0836   44.1260  -25.3039 H         1 LEU         0.0232
    250 H113      -11.9717   45.2709  -24.4795 H         1 LEU         0.0232
    251 H114      -11.9086   43.5188  -24.0884 H         1 LEU         0.0232
    252 H115      -10.5319   44.8002  -27.9608 H         1 LEU         0.0232
    253 H116      -11.2394   46.0258  -26.8545 H         1 LEU         0.0232
    254 H117      -12.2923   44.7783  -27.6041 H         1 LEU         0.0232
    255 H118       -6.3187   42.3898  -25.8753 H         1 GLY         0.1881
    256 H119       -4.6188   44.7910  -25.8780 H         1 GLY         0.0763
    257 H120       -4.0733   43.0807  -25.8152 H         1 GLY         0.0763
    258 H121       -6.0678   42.7047  -23.4876 H         1 PHE         0.1877
    259 H122       -4.3845   44.0129  -21.4082 H         1 PHE         0.0749
    260 H123       -6.2423   43.5873  -19.8448 H         1 PHE         0.0467
    261 H124       -7.1826   42.8316  -21.1758 H         1 PHE         0.0467
    262 H125       -8.5186   44.1480  -22.5878 H         1 PHE         0.0557
    263 H126       -5.5225   46.0481  -20.1537 H         1 PHE         0.0557
    264 H127       -9.3803   46.3647  -23.2593 H         1 PHE         0.0599
    265 H128       -6.3940   48.2706  -20.8100 H         1 PHE         0.0599
    266 H129       -8.3215   48.4313  -22.3643 H         1 PHE         0.0559
@<TRIPOS>BOND
     1    1    2 1  
     2    2    3 1  
     3    2    5 1  
     4    3    4 2  
     5    3    6 am 
     6    6    7 1  
     7    7    8 1  
     8    8    9 2  
     9    8   10 am 
    10   10   11 1  
    11   11   12 1  
    12   11   14 1  
    13   12   13 2  
    14   12   17 am 
    15   14   15 1  
    16   14   16 1  
    17   17   18 1  
    18   18   19 1  
    19   18   21 1  
    20   19   20 2  
    21   19   24 am 
    22   21   22 1  
    23   21   23 1  
    24   24   25 1  
    25   25   26 1  
    26   25   28 1  
    27   26   27 2  
    28   26   29 am 
    29   29   30 1  
    30   30   31 1  
    31   30   33 1  
    32   31   32 2  
    33   31   35 am 
    34   33   34 1  
    35   35   36 1  
    36   36   37 1  
    37   36   39 1  
    38   37   38 2  
    39   37   44 am 
    40   39   40 1  
    41   40   41 1  
    42   41   42 2  
    43   41   43 am 
    44   44   45 1  
    45   45   46 1  
    46   45   48 1  
    47   46   47 2  
    48   46   52 am 
    49   48   49 1  
    50   49   50 ar 
    51   49   51 ar 
    52   52   53 1  
    53   53   54 1  
    54   53   56 1  
    55   54   55 2  
    56   54   61 am 
    57   56   57 1  
    58   57   58 1  
    59   58   59 2  
    60   58   60 am 
    61   61   62 1  
    62   62   63 1  
    63   62   65 1  
    64   63   64 2  
    65   63   68 am 
    66   65   66 1  
    67   65   67 1  
    68   68   69 1  
    69   69   70 1  
    70   69   72 1  
    71   70   71 2  
    72   70   76 am 
    73   72   73 1  
    74   73   74 ar 
    75   73   75 ar 
    76   76   77 1  
    77   77   78 1  
    78   77   80 1  
    79   78   79 2  
    80   78   84 am 
    81   80   81 1  
    82   81   82 ar 
    83   81   83 ar 
    84   84   85 1  
    85   85   86 1  
    86   85   88 1  
    87   86   87 2  
    88   86   92 am 
    89   88   89 1  
    90   89   90 1  
    91   89   91 1  
    92   92   93 1  
    93   93   94 1  
    94   93   96 1  
    95   94   95 2  
    96   94  100 am 
    97   96   97 1  
    98   97   98 1  
    99   97   99 1  
   100  100  101 1  
   101  101  102 1  
   102  101  104 1  
   103  102  103 2  
   104  102  108 am 
   105  104  105 1  
   106  105  106 ar 
   107  105  107 ar 
   108  108  109 1  
   109  109  110 1  
   110  109  112 1  
   111  110  111 2  
   112  110  114 am 
   113  112  113 1  
   114  114  115 1  
   115  115  116 1  
   116  115  118 1  
   117  116  117 2  
   118  116  122 am 
   119  118  119 1  
   120  119  120 1  
   121  119  121 1  
   122  122  123 1  
   123  123  124 1  
   124  124  125 2  
   125  124  126 am 
   126  126  127 1  
   127  127  128 1  
   128  127  130 1  
   129  128  129 ar 
   130  128  137 ar 
   131  130  131 1  
   132  131  132 ar 
   133  131  133 ar 
   134  132  134 ar 
   135  133  135 ar 
   136  134  136 ar 
   137  135  136 ar 
   138    1  138 1  
   139    1  139 1  
   140    1  140 1  
   141    2  141 1  
   142    5  142 1  
   143    5  143 1  
   144    5  144 1  
   145    6  145 1  
   146    7  146 1  
   147    7  147 1  
   148   10  148 1  
   149   11  149 1  
   150   14  150 1  
   151   15  151 1  
   152   15  152 1  
   153   15  153 1  
   154   16  154 1  
   155   16  155 1  
   156   16  156 1  
   157   17  157 1  
   158   18  158 1  
   159   21  159 1  
   160   22  160 1  
   161   22  161 1  
   162   22  162 1  
   163   23  163 1  
   164   23  164 1  
   165   23  165 1  
   166   24  166 1  
   167   25  167 1  
   168   28  168 1  
   169   28  169 1  
   170   28  170 1  
   171   29  171 1  
   172   30  172 1  
   173   33  173 1  
   174   33  174 1  
   175   34  175 1  
   176   35  176 1  
   177   36  177 1  
   178   39  178 1  
   179   39  179 1  
   180   40  180 1  
   181   40  181 1  
   182   43  182 1  
   183   43  183 1  
   184   44  184 1  
   185   45  185 1  
   186   48  186 1  
   187   48  187 1  
   188   52  188 1  
   189   53  189 1  
   190   56  190 1  
   191   56  191 1  
   192   57  192 1  
   193   57  193 1  
   194   60  194 1  
   195   60  195 1  
   196   61  196 1  
   197   62  197 1  
   198   65  198 1  
   199   66  199 1  
   200   66  200 1  
   201   66  201 1  
   202   67  202 1  
   203   67  203 1  
   204   67  204 1  
   205   68  205 1  
   206   69  206 1  
   207   72  207 1  
   208   72  208 1  
   209   76  209 1  
   210   77  210 1  
   211   80  211 1  
   212   80  212 1  
   213   84  213 1  
   214   85  214 1  
   215   88  215 1  
   216   88  216 1  
   217   89  217 1  
   218   90  218 1  
   219   90  219 1  
   220   90  220 1  
   221   91  221 1  
   222   91  222 1  
   223   91  223 1  
   224   92  224 1  
   225   93  225 1  
   226   96  226 1  
   227   96  227 1  
   228   97  228 1  
   229   98  229 1  
   230   98  230 1  
   231   98  231 1  
   232   99  232 1  
   233   99  233 1  
   234   99  234 1  
   235  100  235 1  
   236  101  236 1  
   237  104  237 1  
   238  104  238 1  
   239  108  239 1  
   240  109  240 1  
   241  112  241 1  
   242  112  242 1  
   243  113  243 1  
   244  114  244 1  
   245  115  245 1  
   246  118  246 1  
   247  118  247 1  
   248  119  248 1  
   249  120  249 1  
   250  120  250 1  
   251  120  251 1  
   252  121  252 1  
   253  121  253 1  
   254  121  254 1  
   255  122  255 1  
   256  123  256 1  
   257  123  257 1  
   258  126  258 1  
   259  127  259 1  
   260  130  260 1  
   261  130  261 1  
   262  132  262 1  
   263  133  263 1  
   264  134  264 1  
   265  135  265 1  
   266  136  266 1  
@<TRIPOS>SUBSTRUCTURE
     1 ALA         1

