2pl9_ligand
  -I-interpret- 

271271  0  0  0  0  0  0  0  0999 V2000
  -26.0450   36.7580  -23.7710 N   0  3  0  0  0
  -24.6950   36.8810  -24.3530 C   0  0  0  0  0
  -24.1040   38.2890  -24.1430 C   0  0  0  0  0
  -22.9600   38.5300  -24.5260 O   0  0  0  0  0
  -24.7190   36.5550  -25.8470 C   0  0  0  0  0
  -24.8600   39.2380  -23.5250 N   0  0  0  0  0
  -24.2380   40.4930  -23.0640 C   0  0  0  0  0
  -23.4500   40.2020  -21.7990 C   0  0  0  0  0
  -22.6010   40.9960  -21.3780 O   0  0  0  0  0
  -23.7300   39.0370  -21.2140 N   0  0  0  0  0
  -23.0720   38.5710  -19.9980 C   0  0  0  0  0
  -22.0890   37.4390  -20.3220 C   0  0  0  0  0
  -22.2950   36.6430  -21.2530 O   0  0  0  0  0
  -24.0910   38.0420  -18.9720 C   0  0  0  0  0
  -23.3760   37.4500  -17.7670 C   0  0  0  0  0
  -25.0420   39.1510  -18.5450 C   0  0  0  0  0
  -20.9490   37.4650  -19.5750 N   0  0  0  0  0
  -20.0110   36.3450  -19.5810 C   0  0  0  0  0
  -20.4040   35.3450  -18.4660 C   0  0  0  0  0
  -20.8600   35.7520  -17.3910 O   0  0  0  0  0
  -18.5450   36.8410  -19.3770 C   0  0  0  0  0
  -17.5770   35.6870  -19.4930 C   0  0  0  0  0
  -18.1930   37.9210  -20.3990 C   0  0  0  0  0
  -20.2490   34.0480  -18.7310 N   0  0  0  0  0
  -20.6750   33.0120  -17.7730 C   0  0  0  0  0
  -19.5250   32.1220  -17.2600 C   0  0  0  0  0
  -19.7620   31.1370  -16.5420 O   0  0  0  0  0
  -21.7810   32.1580  -18.3770 C   0  0  0  0  0
  -18.2900   32.4710  -17.6270 N   0  0  0  0  0
  -17.1220   31.6770  -17.2650 C   0  0  0  0  0
  -15.8650   32.5300  -17.1970 C   0  0  0  0  0
  -15.7900   33.6080  -17.8100 O   0  0  0  0  0
  -16.9100   30.5590  -18.2800 C   0  0  0  0  0
  -16.1680   31.0400  -19.4140 O   0  0  0  0  0
  -14.8690   32.0270  -16.4640 N   0  0  0  0  0
  -13.5450   32.6430  -16.4080 C   0  0  0  0  0
  -12.8750   32.7080  -17.7780 C   0  0  0  0  0
  -12.3260   33.7480  -18.1580 O   0  0  0  0  0
  -12.6390   31.9080  -15.4150 C   0  0  0  0  0
  -11.3760   32.6990  -15.0520 C   0  0  0  0  0
  -11.6820   34.1480  -14.6350 C   0  0  0  0  0
  -12.5240   34.3880  -13.7700 O   0  0  0  0  0
  -10.9940   35.1140  -15.2610 N   0  0  0  0  0
  -12.9290   31.6000  -18.5180 N   0  0  0  0  0
  -12.3340   31.5400  -19.8480 C   0  0  0  0  0
  -12.8890   32.6390  -20.7600 C   0  0  0  0  0
  -12.1320   33.3250  -21.4390 O   0  0  0  0  0
  -12.5140   30.1460  -20.4790 C   0  0  0  0  0
  -11.4390   29.1460  -20.0020 C   0  0  0  0  0
  -10.8090   29.3860  -18.9450 O   0  0  0  0  0
  -11.2260   28.1140  -20.6840 O   0  0  0  0  0
  -14.2070   32.8150  -20.7460 N   0  0  0  0  0
  -14.8390   33.9030  -21.4790 C   0  0  0  0  0
  -14.2650   35.2780  -21.0990 C   0  0  0  0  0
  -13.9820   36.0830  -21.9690 O   0  0  0  0  0
  -16.3570   33.8720  -21.2910 C   0  0  0  0  0
  -17.0840   32.8160  -22.1270 C   0  0  0  0  0
  -18.5990   32.7920  -21.8840 C   0  0  0  0  0
  -19.1400   33.6370  -21.1570 O   0  0  0  0  0
  -19.2870   31.8240  -22.5090 N   0  0  0  0  0
  -14.0770   35.5290  -19.8010 N   0  0  0  0  0
  -13.4640   36.7890  -19.3280 C   0  0  0  0  0
  -12.0170   36.9180  -19.8120 C   0  0  0  0  0
  -11.6090   37.9720  -20.3010 O   0  0  0  0  0
  -13.5050   36.9150  -17.7590 C   0  0  0  0  0
  -12.8380   38.2280  -17.2930 C   0  0  0  0  0
  -14.9250   36.8450  -17.2640 C   0  0  0  0  0
  -11.2570   35.8310  -19.6700 N   0  0  0  0  0
   -9.8710   35.7740  -20.1240 C   0  0  0  0  0
   -9.7780   36.0340  -21.6210 C   0  0  0  0  0
   -8.9490   36.8160  -22.0710 O   0  0  0  0  0
   -9.2510   34.4080  -19.8020 C   0  0  0  0  0
   -9.0790   34.1760  -18.3130 C   0  0  0  0  0
   -9.4340   35.0760  -17.5090 O   0  0  0  0  0
   -8.5750   33.0860  -17.9450 O   0  0  0  0  0
  -10.6300   35.3750  -22.3880 N   0  0  0  0  0
  -10.6360   35.5530  -23.8300 C   0  0  0  0  0
  -10.9780   37.0080  -24.1890 C   0  0  0  0  0
  -10.3220   37.6230  -25.0280 O   0  0  0  0  0
  -11.6160   34.5760  -24.4900 C   0  0  0  0  0
  -11.4320   34.4960  -25.9800 C   0  0  0  0  0
  -12.2100   35.1480  -26.7090 O   0  0  0  0  0
  -10.4950   33.8010  -26.4290 O   0  0  0  0  0
  -11.9850   37.5580  -23.5100 N   0  0  0  0  0
  -12.3720   38.9430  -23.7040 C   0  0  0  0  0
  -11.1760   39.8840  -23.4730 C   0  0  0  0  0
  -10.7390   40.5770  -24.4050 O   0  0  0  0  0
  -13.5430   39.3210  -22.7750 C   0  0  0  0  0
  -14.5520   40.3950  -23.2420 C   0  0  0  0  0
  -15.0910   41.1900  -22.0490 C   0  0  0  0  0
  -14.0030   41.3320  -24.3150 C   0  0  0  0  0
  -10.6470   39.8910  -22.2410 N   0  0  0  0  0
   -9.5200   40.7590  -21.8960 C   0  0  0  0  0
   -8.3280   40.5670  -22.8340 C   0  0  0  0  0
   -7.6650   41.5340  -23.2120 O   0  0  0  0  0
   -9.1010   40.5740  -20.4250 C   0  0  0  0  0
  -10.0860   41.1050  -19.3590 C   0  0  0  0  0
   -9.5110   40.9960  -17.9530 C   0  0  0  0  0
  -10.4960   42.5390  -19.6720 C   0  0  0  0  0
   -8.0770   39.3200  -23.2220 N   0  0  0  0  0
   -7.0110   38.9960  -24.1820 C   0  0  0  0  0
   -7.2550   39.6430  -25.5390 C   0  0  0  0  0
   -6.3560   40.2680  -26.0990 O   0  0  0  0  0
   -6.8930   37.4800  -24.3560 C   0  0  0  0  0
   -5.5210   37.0480  -24.8340 C   0  0  0  0  0
   -4.6450   37.9150  -25.0800 O   0  0  0  0  0
   -5.3080   35.8200  -24.9480 O   0  0  0  0  0
   -8.4860   39.4990  -26.0460 N   0  0  0  0  0
   -8.8600   40.0180  -27.3670 C   0  0  0  0  0
   -8.7030   41.5290  -27.4800 C   0  0  0  0  0
   -8.7230   42.0760  -28.5790 O   0  0  0  0  0
  -10.3070   39.6080  -27.7320 C   0  0  0  0  0
  -11.2720   40.4820  -27.1460 O   0  0  0  0  0
   -8.5320   42.1960  -26.3430 N   0  0  0  0  0
   -8.4910   43.6560  -26.3240 C   0  0  0  0  0
   -7.1470   44.2280  -25.8880 C   0  0  0  0  0
   -7.0200   45.4340  -25.6980 O   0  0  0  0  0
   -9.6200   44.2170  -25.4550 C   0  0  0  0  0
  -11.0400   44.0460  -25.9920 C   0  0  0  0  0
  -12.0730   44.2550  -24.8890 C   0  0  0  0  0
  -11.2940   44.9790  -27.1880 C   0  0  0  0  0
   -6.1440   43.3660  -25.7470 N   0  0  0  0  0
   -4.7880   43.8110  -25.4080 C   0  0  0  0  0
   -4.5310   43.9480  -23.9090 C   0  0  0  0  0
   -3.6230   44.6750  -23.4950 O   0  0  0  0  0
   -5.3220   43.2430  -23.0950 N   0  0  0  0  0
   -5.1270   43.2370  -21.6460 C   0  0  0  0  0
   -4.5860   41.9100  -21.1320 C   0  0  0  0  0
   -4.4990   41.6970  -19.9190 O   0  0  0  0  0
   -6.4280   43.5930  -20.9290 C   0  0  0  0  0
   -6.9680   44.9430  -21.3140 C   0  0  0  0  0
   -8.0550   45.0470  -22.1980 C   0  0  0  0  0
   -6.3700   46.1170  -20.8260 C   0  0  0  0  0
   -8.5410   46.2930  -22.5770 C   0  0  0  0  0
   -6.8560   47.3700  -21.1980 C   0  0  0  0  0
   -7.9410   47.4590  -22.0730 C   0  0  0  0  0
   -4.2180   41.0160  -21.9030 O   0  0  0  0  0
  -26.0065   36.9793  -22.7760 H   0  0  0  0  0
  -26.6768   37.4067  -24.2406 H   0  0  0  0  0
  -26.3819   35.8033  -23.8954 H   0  0  0  0  0
  -24.0587   36.1639  -23.8344 H   0  0  0  0  0
  -25.3339   37.2889  -26.3679 H   0  0  0  0  0
  -23.7030   36.5854  -26.2406 H   0  0  0  0  0
  -25.1372   35.5591  -25.9936 H   0  0  0  0  0
  -25.8574   39.0807  -23.3808 H   0  0  0  0  0
  -25.0076   41.2376  -22.8606 H   0  0  0  0  0
  -23.5742   40.8850  -23.8346 H   0  0  0  0  0
  -24.4407   38.4410  -21.6384 H   0  0  0  0  0
  -22.5434   39.4248  -19.5742 H   0  0  0  0  0
  -24.6772   37.2523  -19.4419 H   0  0  0  0  0
  -22.7399   36.6266  -18.0919 H   0  0  0  0  0
  -22.7643   38.2190  -17.2951 H   0  0  0  0  0
  -24.1132   37.0817  -17.0535 H   0  0  0  0  0
  -24.4720   39.9626  -18.0928 H   0  0  0  0  0
  -25.5782   39.5241  -19.4176 H   0  0  0  0  0
  -25.7545   38.7577  -17.8199 H   0  0  0  0  0
  -20.7468   38.2830  -19.0002 H   0  0  0  0  0
  -20.0600   35.8480  -20.5498 H   0  0  0  0  0
  -18.4674   37.2686  -18.3774 H   0  0  0  0  0
  -17.8092   34.9418  -18.7321 H   0  0  0  0  0
  -17.6658   35.2380  -20.4822 H   0  0  0  0  0
  -16.5600   36.0515  -19.3480 H   0  0  0  0  0
  -18.2907   37.5131  -21.4051 H   0  0  0  0  0
  -18.8711   38.7661  -20.2808 H   0  0  0  0  0
  -17.1669   38.2515  -20.2377 H   0  0  0  0  0
  -19.8266   33.7663  -19.6157 H   0  0  0  0  0
  -21.0520   33.5444  -16.8997 H   0  0  0  0  0
  -22.6344   32.7906  -18.6213 H   0  0  0  0  0
  -21.4128   31.6765  -19.2829 H   0  0  0  0  0
  -22.0850   31.3975  -17.6577 H   0  0  0  0  0
  -18.1593   33.3195  -18.1778 H   0  0  0  0  0
  -17.3089   31.2542  -16.2779 H   0  0  0  0  0
  -17.8819   30.2009  -18.6196 H   0  0  0  0  0
  -16.3490   29.7533  -17.8064 H   0  0  0  0  0
  -16.0444   30.3238  -20.0412 H   0  0  0  0  0
  -15.0388   31.1798  -15.9220 H   0  0  0  0  0
  -13.6932   33.6669  -16.0650 H   0  0  0  0  0
  -12.3225   30.9760  -15.8832 H   0  0  0  0  0
  -13.2084   31.7550  -14.4983 H   0  0  0  0  0
  -10.7371   32.7326  -15.9345 H   0  0  0  0  0
  -10.9006   32.2009  -14.2070 H   0  0  0  0  0
  -11.1599   36.0926  -15.0258 H   0  0  0  0  0
  -10.3048   34.8702  -15.9723 H   0  0  0  0  0
  -13.3978   30.7746  -18.1448 H   0  0  0  0  0
  -11.2642   31.7165  -19.7362 H   0  0  0  0  0
  -12.4246   30.2494  -21.5604 H   0  0  0  0  0
  -13.4897   29.7625  -20.1808 H   0  0  0  0  0
  -11.8047   28.1129  -21.4500 H   0  0  0  0  0
  -14.7893   32.1724  -20.2089 H   0  0  0  0  0
  -14.6155   33.7498  -22.5348 H   0  0  0  0  0
  -16.7357   34.8436  -21.6083 H   0  0  0  0  0
  -16.5420   33.6304  -20.2443 H   0  0  0  0  0
  -16.6883   31.8405  -21.8443 H   0  0  0  0  0
  -16.9214   33.0565  -23.1776 H   0  0  0  0  0
  -20.2987   31.7624  -22.3950 H   0  0  0  0  0
  -18.7982   31.1499  -23.0981 H   0  0  0  0  0
  -14.3648   34.8309  -19.1153 H   0  0  0  0  0
  -14.0578   37.5986  -19.7524 H   0  0  0  0  0
  -12.9451   36.0805  -17.3369 H   0  0  0  0  0
  -11.7979   38.2412  -17.6188 H   0  0  0  0  0
  -13.3669   39.0766  -17.7269 H   0  0  0  0  0
  -12.8802   38.2894  -16.2056 H   0  0  0  0  0
  -15.5015   37.6601  -17.7015 H   0  0  0  0  0
  -15.3635   35.8907  -17.5558 H   0  0  0  0  0
  -14.9345   36.9337  -16.1777 H   0  0  0  0  0
  -11.6608   35.0062  -19.2261 H   0  0  0  0  0
   -9.3180   36.5508  -19.5960 H   0  0  0  0  0
   -8.2631   34.3735  -20.2612 H   0  0  0  0  0
   -9.9221   33.6387  -20.1841 H   0  0  0  0  0
   -9.7911   35.8196  -18.0001 H   0  0  0  0  0
  -11.2946   34.7305  -21.9599 H   0  0  0  0  0
   -9.6385   35.3357  -24.2120 H   0  0  0  0  0
  -12.6280   34.9306  -24.2943 H   0  0  0  0  0
  -11.4342   33.5848  -24.0747 H   0  0  0  0  0
  -10.0262   33.3884  -25.6999 H   0  0  0  0  0
  -12.4974   36.9896  -22.8357 H   0  0  0  0  0
  -12.7030   39.0571  -24.7362 H   0  0  0  0  0
  -13.0725   39.7442  -21.8875 H   0  0  0  0  0
  -14.1299   38.4078  -22.6765 H   0  0  0  0  0
  -15.3718   39.8512  -23.7114 H   0  0  0  0  0
  -15.5930   40.5117  -21.3590 H   0  0  0  0  0
  -14.2634   41.6827  -21.5386 H   0  0  0  0  0
  -15.7988   41.9393  -22.4033 H   0  0  0  0  0
  -13.1295   41.8554  -23.9262 H   0  0  0  0  0
  -13.7192   40.7509  -25.1924 H   0  0  0  0  0
  -14.7697   42.0564  -24.5899 H   0  0  0  0  0
  -11.0392   39.2769  -21.5272 H   0  0  0  0  0
   -9.8646   41.7850  -22.0252 H   0  0  0  0  0
   -8.1807   41.1442  -20.2980 H   0  0  0  0  0
   -9.0301   39.4984  -20.2631 H   0  0  0  0  0
  -10.9764   40.4772  -19.3925 H   0  0  0  0  0
   -9.2953   39.9511  -17.7301 H   0  0  0  0  0
   -8.5922   41.5792  -17.8914 H   0  0  0  0  0
  -10.2354   41.3800  -17.2348 H   0  0  0  0  0
   -9.6106   43.1746  -19.6824 H   0  0  0  0  0
  -10.9802   42.5723  -20.6480 H   0  0  0  0  0
  -11.1894   42.8921  -18.9087 H   0  0  0  0  0
   -8.6433   38.5622  -22.8407 H   0  0  0  0  0
   -6.0806   39.3938  -23.7767 H   0  0  0  0  0
   -7.6201   37.1729  -25.1077 H   0  0  0  0  0
   -7.0685   37.0181  -23.3844 H   0  0  0  0  0
   -5.0113   38.7897  -24.9306 H   0  0  0  0  0
   -9.1903   39.0102  -25.4933 H   0  0  0  0  0
   -8.1656   39.5687  -28.0769 H   0  0  0  0  0
  -10.4829   38.6013  -27.3528 H   0  0  0  0  0
  -10.4135   39.6587  -28.8156 H   0  0  0  0  0
  -12.1540   40.1958  -27.3947 H   0  0  0  0  0
   -8.4277   41.6798  -25.4694 H   0  0  0  0  0
   -8.6339   43.9730  -27.3571 H   0  0  0  0  0
   -9.4478   45.2914  -25.3918 H   0  0  0  0  0
   -9.5828   43.6639  -24.5165 H   0  0  0  0  0
  -11.1445   43.0210  -26.3477 H   0  0  0  0  0
  -11.9090   43.5250  -24.0963 H   0  0  0  0  0
  -11.9716   45.2619  -24.4840 H   0  0  0  0  0
  -13.0739   44.1269  -25.3013 H   0  0  0  0  0
  -11.1610   46.0143  -26.8742 H   0  0  0  0  0
  -10.5881   44.7461  -27.9852 H   0  0  0  0  0
  -12.3123   44.8355  -27.5493 H   0  0  0  0  0
   -6.3222   42.3703  -25.8779 H   0  0  0  0  0
   -4.6538   44.7987  -25.8490 H   0  0  0  0  0
   -4.0980   43.0562  -25.7851 H   0  0  0  0  0
   -6.0827   42.6940  -23.4954 H   0  0  0  0  0
   -4.3749   43.9948  -21.4262 H   0  0  0  0  0
   -6.2200   43.6138  -19.8592 H   0  0  0  0  0
   -7.1730   42.8479  -21.2081 H   0  0  0  0  0
   -8.5212   44.1430  -22.5900 H   0  0  0  0  0
   -5.5178   46.0477  -20.1500 H   0  0  0  0  0
   -9.3849   46.3651  -23.2631 H   0  0  0  0  0
   -6.3914   48.2755  -20.8078 H   0  0  0  0  0
   -8.3236   48.4367  -22.3659 H   0  0  0  0  0
   -4.3375   41.3077  -22.8098 H   0  0  0  0  0
  1  2  1  0  0  0
  2  3  1  0  0  0
  2  5  1  0  0  0
  3  4  2  0  0  0
  3  6  1  0  0  0
  6  7  1  0  0  0
  7  8  1  0  0  0
  8  9  2  0  0  0
  8 10  1  0  0  0
 10 11  1  0  0  0
 11 12  1  0  0  0
 11 14  1  0  0  0
 12 13  2  0  0  0
 12 17  1  0  0  0
 14 15  1  0  0  0
 14 16  1  0  0  0
 17 18  1  0  0  0
 18 19  1  0  0  0
 18 21  1  0  0  0
 19 20  2  0  0  0
 19 24  1  0  0  0
 21 22  1  0  0  0
 21 23  1  0  0  0
 24 25  1  0  0  0
 25 26  1  0  0  0
 25 28  1  0  0  0
 26 27  2  0  0  0
 26 29  1  0  0  0
 29 30  1  0  0  0
 30 31  1  0  0  0
 30 33  1  0  0  0
 31 32  2  0  0  0
 31 35  1  0  0  0
 33 34  1  0  0  0
 35 36  1  0  0  0
 36 37  1  0  0  0
 36 39  1  0  0  0
 37 38  2  0  0  0
 37 44  1  0  0  0
 39 40  1  0  0  0
 40 41  1  0  0  0
 41 42  2  0  0  0
 41 43  1  0  0  0
 44 45  1  0  0  0
 45 46  1  0  0  0
 45 48  1  0  0  0
 46 47  2  0  0  0
 46 52  1  0  0  0
 48 49  1  0  0  0
 49 50  2  0  0  0
 49 51  1  0  0  0
 52 53  1  0  0  0
 53 54  1  0  0  0
 53 56  1  0  0  0
 54 55  2  0  0  0
 54 61  1  0  0  0
 56 57  1  0  0  0
 57 58  1  0  0  0
 58 59  2  0  0  0
 58 60  1  0  0  0
 61 62  1  0  0  0
 62 63  1  0  0  0
 62 65  1  0  0  0
 63 64  2  0  0  0
 63 68  1  0  0  0
 65 66  1  0  0  0
 65 67  1  0  0  0
 68 69  1  0  0  0
 69 70  1  0  0  0
 69 72  1  0  0  0
 70 71  2  0  0  0
 70 76  1  0  0  0
 72 73  1  0  0  0
 73 74  1  0  0  0
 73 75  2  0  0  0
 76 77  1  0  0  0
 77 78  1  0  0  0
 77 80  1  0  0  0
 78 79  2  0  0  0
 78 84  1  0  0  0
 80 81  1  0  0  0
 81 82  2  0  0  0
 81 83  1  0  0  0
 84 85  1  0  0  0
 85 86  1  0  0  0
 85 88  1  0  0  0
 86 87  2  0  0  0
 86 92  1  0  0  0
 88 89  1  0  0  0
 89 90  1  0  0  0
 89 91  1  0  0  0
 92 93  1  0  0  0
 93 94  1  0  0  0
 93 96  1  0  0  0
 94 95  2  0  0  0
 94100  1  0  0  0
 96 97  1  0  0  0
 97 98  1  0  0  0
 97 99  1  0  0  0
100101  1  0  0  0
101102  1  0  0  0
101104  1  0  0  0
102103  2  0  0  0
102108  1  0  0  0
104105  1  0  0  0
105106  1  0  0  0
105107  2  0  0  0
108109  1  0  0  0
109110  1  0  0  0
109112  1  0  0  0
110111  2  0  0  0
110114  1  0  0  0
112113  1  0  0  0
114115  1  0  0  0
115116  1  0  0  0
115118  1  0  0  0
116117  2  0  0  0
116122  1  0  0  0
118119  1  0  0  0
119120  1  0  0  0
119121  1  0  0  0
122123  1  0  0  0
123124  1  0  0  0
124125  2  0  0  0
124126  1  0  0  0
126127  1  0  0  0
127128  1  0  0  0
127130  1  0  0  0
128129  2  0  0  0
128137  1  0  0  0
130131  1  0  0  0
131132  4  0  0  0
131133  4  0  0  0
132134  4  0  0  0
133135  4  0  0  0
134136  4  0  0  0
135136  4  0  0  0
  1138  1  0  0  0
  1139  1  0  0  0
  1140  1  0  0  0
  2141  1  0  0  0
  5142  1  0  0  0
  5143  1  0  0  0
  5144  1  0  0  0
  6145  1  0  0  0
  7146  1  0  0  0
  7147  1  0  0  0
 10148  1  0  0  0
 11149  1  0  0  0
 14150  1  0  0  0
 15151  1  0  0  0
 15152  1  0  0  0
 15153  1  0  0  0
 16154  1  0  0  0
 16155  1  0  0  0
 16156  1  0  0  0
 17157  1  0  0  0
 18158  1  0  0  0
 21159  1  0  0  0
 22160  1  0  0  0
 22161  1  0  0  0
 22162  1  0  0  0
 23163  1  0  0  0
 23164  1  0  0  0
 23165  1  0  0  0
 24166  1  0  0  0
 25167  1  0  0  0
 28168  1  0  0  0
 28169  1  0  0  0
 28170  1  0  0  0
 29171  1  0  0  0
 30172  1  0  0  0
 33173  1  0  0  0
 33174  1  0  0  0
 34175  1  0  0  0
 35176  1  0  0  0
 36177  1  0  0  0
 39178  1  0  0  0
 39179  1  0  0  0
 40180  1  0  0  0
 40181  1  0  0  0
 43182  1  0  0  0
 43183  1  0  0  0
 44184  1  0  0  0
 45185  1  0  0  0
 48186  1  0  0  0
 48187  1  0  0  0
 51188  1  0  0  0
 52189  1  0  0  0
 53190  1  0  0  0
 56191  1  0  0  0
 56192  1  0  0  0
 57193  1  0  0  0
 57194  1  0  0  0
 60195  1  0  0  0
 60196  1  0  0  0
 61197  1  0  0  0
 62198  1  0  0  0
 65199  1  0  0  0
 66200  1  0  0  0
 66201  1  0  0  0
 66202  1  0  0  0
 67203  1  0  0  0
 67204  1  0  0  0
 67205  1  0  0  0
 68206  1  0  0  0
 69207  1  0  0  0
 72208  1  0  0  0
 72209  1  0  0  0
 74210  1  0  0  0
 76211  1  0  0  0
 77212  1  0  0  0
 80213  1  0  0  0
 80214  1  0  0  0
 83215  1  0  0  0
 84216  1  0  0  0
 85217  1  0  0  0
 88218  1  0  0  0
 88219  1  0  0  0
 89220  1  0  0  0
 90221  1  0  0  0
 90222  1  0  0  0
 90223  1  0  0  0
 91224  1  0  0  0
 91225  1  0  0  0
 91226  1  0  0  0
 92227  1  0  0  0
 93228  1  0  0  0
 96229  1  0  0  0
 96230  1  0  0  0
 97231  1  0  0  0
 98232  1  0  0  0
 98233  1  0  0  0
 98234  1  0  0  0
 99235  1  0  0  0
 99236  1  0  0  0
 99237  1  0  0  0
100238  1  0  0  0
101239  1  0  0  0
104240  1  0  0  0
104241  1  0  0  0
106242  1  0  0  0
108243  1  0  0  0
109244  1  0  0  0
112245  1  0  0  0
112246  1  0  0  0
113247  1  0  0  0
114248  1  0  0  0
115249  1  0  0  0
118250  1  0  0  0
118251  1  0  0  0
119252  1  0  0  0
120253  1  0  0  0
120254  1  0  0  0
120255  1  0  0  0
121256  1  0  0  0
121257  1  0  0  0
121258  1  0  0  0
122259  1  0  0  0
123260  1  0  0  0
123261  1  0  0  0
126262  1  0  0  0
127263  1  0  0  0
130264  1  0  0  0
130265  1  0  0  0
132266  1  0  0  0
133267  1  0  0  0
134268  1  0  0  0
135269  1  0  0  0
136270  1  0  0  0
137271  1  0  0  0
M  END
$$$$
