2i03_ligand
  -I-interpret- 

 56 58  0  0  0  0  0  0  0  0999 V2000
   32.4490    4.6210   64.0770 N   0  3  0  0  0
   33.5320    4.8000   63.0720 C   0  0  0  0  0
   34.3470    3.4980   63.0160 C   0  0  0  0  0
   35.4710    3.6080   61.9700 C   0  0  0  0  0
   34.9240    4.0110   60.6130 N   0  0  0  0  0
   34.0500    5.2270   60.5730 C   0  0  0  0  0
   32.9600    5.0840   61.6340 C   0  0  0  0  0
   29.7170    8.1340   64.0000 C   0  0  0  0  0
   29.4490    6.8000   63.3880 N   0  0  0  0  0
   28.1710    6.7890   62.6680 C   0  0  0  0  0
   27.4070    7.8680   63.4440 C   0  0  0  0  0
   28.4640    8.9470   63.6380 C   0  0  0  0  0
   28.2720    7.1940   61.1650 C   0  0  0  0  0
   29.4500    7.4330   60.5690 N   0  0  0  0  0
   30.2280    5.6600   63.4780 C   0  0  0  0  0
   29.9490    4.6090   62.9280 O   0  0  0  0  0
   31.5070    5.7030   64.3530 C   0  0  0  0  0
   35.2170    3.2840   59.4470 C   0  0  0  0  0
   36.0460    2.1430   59.4930 C   0  0  0  0  0
   36.3320    1.4210   58.3230 C   0  0  0  0  0
   35.7800    1.8530   57.0770 C   0  0  0  0  0
   34.9570    3.0090   57.0790 C   0  0  0  0  0
   34.6870    3.7090   58.2340 N   0  0  0  0  0
   30.8610    8.8250   63.3480 C   0  0  0  0  0
   31.7610    9.3350   62.7360 C   0  0  0  0  0
   34.4650    5.9740   63.5350 C   0  0  0  0  0
   37.2100    0.2410   58.4290 C   0  0  0  0  0
   37.6770   -0.0690   59.5540 O   0  0  0  0  0
   37.4720   -0.4190   57.4090 O   0  0  0  0  0
   32.9442    4.4882   64.9588 H   0  0  0  0  0
   31.8693    3.8757   63.6913 H   0  0  0  0  0
   33.6847    2.6781   62.7383 H   0  0  0  0  0
   34.7914    3.3168   63.9947 H   0  0  0  0  0
   35.9528    2.6349   61.8748 H   0  0  0  0  0
   36.1780    4.3695   62.2992 H   0  0  0  0  0
   33.5956    5.3234   59.5869 H   0  0  0  0  0
   34.6461    6.1174   60.7730 H   0  0  0  0  0
   32.4124    6.0256   61.6753 H   0  0  0  0  0
   32.3337    4.2372   61.3534 H   0  0  0  0  0
   29.9382    8.0364   65.0629 H   0  0  0  0  0
   27.7234    5.7958   62.6337 H   0  0  0  0  0
   26.9915    7.5041   64.3837 H   0  0  0  0  0
   26.5228    8.2268   62.9172 H   0  0  0  0  0
   28.6025    9.5694   62.7539 H   0  0  0  0  0
   28.1934    9.6735   64.4042 H   0  0  0  0  0
   27.3566    7.2857   60.5805 H   0  0  0  0  0
   30.3165    7.3518   61.1010 H   0  0  0  0  0
   32.0176    6.6411   64.1353 H   0  0  0  0  0
   31.1928    5.6025   65.3919 H   0  0  0  0  0
   36.4678    1.8194   60.4445 H   0  0  0  0  0
   35.9850    1.3110   56.1538 H   0  0  0  0  0
   34.5259    3.3531   56.1389 H   0  0  0  0  0
   35.2957    6.0733   62.8364 H   0  0  0  0  0
   33.8945    6.9025   63.5575 H   0  0  0  0  0
   34.8504    5.7587   64.5316 H   0  0  0  0  0
   37.3635    0.5553   60.2124 H   0  0  0  0  0
  1  2  1  0  0  0
 17  1  1  0  0  0
  2  3  1  0  0  0
  2  7  1  0  0  0
  2 26  1  0  0  0
  3  4  1  0  0  0
  4  5  1  0  0  0
  6  5  1  0  0  0
  5 18  1  0  0  0
  7  6  1  0  0  0
  9  8  1  0  0  0
  8 12  1  0  0  0
  8 24  1  0  0  0
  9 10  1  0  0  0
 15  9  1  0  0  0
 10 11  1  0  0  0
 10 13  1  0  0  0
 11 12  1  0  0  0
 13 14  2  0  0  0
 15 16  2  0  0  0
 15 17  1  0  0  0
 18 19  4  0  0  0
 18 23  4  0  0  0
 19 20  4  0  0  0
 20 21  4  0  0  0
 20 27  1  0  0  0
 21 22  4  0  0  0
 22 23  4  0  0  0
 24 25  3  0  0  0
 27 28  1  0  0  0
 27 29  2  0  0  0
  1 30  1  0  0  0
  1 31  1  0  0  0
  3 32  1  0  0  0
  3 33  1  0  0  0
  4 34  1  0  0  0
  4 35  1  0  0  0
  6 36  1  0  0  0
  6 37  1  0  0  0
  7 38  1  0  0  0
  7 39  1  0  0  0
  8 40  1  0  0  0
 10 41  1  0  0  0
 11 42  1  0  0  0
 11 43  1  0  0  0
 12 44  1  0  0  0
 12 45  1  0  0  0
 13 46  1  0  0  0
 14 47  1  0  0  0
 17 48  1  0  0  0
 17 49  1  0  0  0
 19 50  1  0  0  0
 21 51  1  0  0  0
 22 52  1  0  0  0
 26 53  1  0  0  0
 26 54  1  0  0  0
 26 55  1  0  0  0
 28 56  1  0  0  0
M  END
$$$$
