### 
### Created by X-TOOL on Mon Sep 10 21:12:53 2018
### 

@<TRIPOS>MOLECULE
2i03_ligand
   56    58     1     0     0
SMALL
GAST_HUCK


@<TRIPOS>ATOM
      1 N1         32.4490    4.6210   64.0770 N.4       1 AXD         0.2482
      2 C2         33.5320    4.8000   63.0720 C.3       1 AXD        -0.0091
      3 C3         34.3470    3.4980   63.0160 C.3       1 AXD         0.0131
      4 C4         35.4710    3.6080   61.9700 C.3       1 AXD         0.0351
      5 N5         34.9240    4.0110   60.6130 N.pl3     1 AXD        -0.2933
      6 C6         34.0500    5.2270   60.5730 C.3       1 AXD         0.0351
      7 C7         32.9600    5.0840   61.6340 C.3       1 AXD         0.0131
      8 C8         29.7170    8.1340   64.0000 C.3       1 AXD         0.1094
      9 N9         29.4490    6.8000   63.3880 N.am      1 AXD        -0.2315
     10 C10        28.1710    6.7890   62.6680 C.3       1 AXD         0.1050
     11 C11        27.4070    7.8680   63.4440 C.3       1 AXD        -0.0084
     12 C12        28.4640    8.9470   63.6380 C.3       1 AXD        -0.0131
     13 C13        28.2720    7.1940   61.1650 C.2       1 AXD         0.0209
     14 N14        29.4500    7.4330   60.5690 N.2       1 AXD        -0.3619
     15 C15        30.2280    5.6600   63.4780 C.2       1 AXD         0.2281
     16 O16        29.9490    4.6090   62.9280 O.2       1 AXD        -0.3907
     17 C17        31.5070    5.7030   64.3530 C.3       1 AXD         0.0570
     18 C18        35.2170    3.2840   59.4470 C.ar      1 AXD         0.1171
     19 C19        36.0460    2.1430   59.4930 C.ar      1 AXD        -0.0021
     20 C20        36.3320    1.4210   58.3230 C.ar      1 AXD         0.0178
     21 C21        35.7800    1.8530   57.0770 C.ar      1 AXD        -0.0342
     22 C22        34.9570    3.0090   57.0790 C.ar      1 AXD        -0.0009
     23 N23        34.6870    3.7090   58.2340 N.ar      1 AXD        -0.2826
     24 C24        30.8610    8.8250   63.3480 C.1       1 AXD        -0.0772
     25 C25        31.7610    9.3350   62.7360 C.1       1 AXD        -0.1168
     26 C26        34.4650    5.9740   63.5350 C.3       1 AXD        -0.0186
     27 C27        37.2100    0.2410   58.4290 C.2       1 AXD         0.0688
     28 O28        37.6770   -0.0690   59.5540 O.co2     1 AXD        -0.5577
     29 O29        37.4720   -0.4190   57.4090 O.co2     1 AXD        -0.5577
     30 H1         32.8998    4.4007   64.9512 H         1 AXD         0.2038
     31 H2         31.9009    3.8315   63.7733 H         1 AXD         0.2038
     32 H3         33.6809    2.6657   62.7448 H         1 AXD         0.0342
     33 H4         34.7902    3.3059   64.0042 H         1 AXD         0.0342
     34 H5         35.9725    2.6332   61.8790 H         1 AXD         0.0521
     35 H6         36.1972    4.3643   62.3025 H         1 AXD         0.0521
     36 H7         33.5885    5.3182   59.5787 H         1 AXD         0.0521
     37 H8         34.6532    6.1230   60.7809 H         1 AXD         0.0521
     38 H9         32.3785    6.0172   61.6665 H         1 AXD         0.0342
     39 H10        32.3008    4.2509   61.3486 H         1 AXD         0.0342
     40 H11        29.8729    8.0551   65.0860 H         1 AXD         0.0699
     41 H12        27.6850    5.8052   62.7447 H         1 AXD         0.0842
     42 H13        27.0493    7.4840   64.4107 H         1 AXD         0.0324
     43 H14        26.5542    8.2474   62.8619 H         1 AXD         0.0324
     44 H15        28.6180    9.5217   62.7128 H         1 AXD         0.0300
     45 H16        28.1865    9.6316   64.4531 H         1 AXD         0.0300
     46 H17        27.3574    7.2856   60.5810 H         1 AXD         0.1225
     47 H18        29.4788    7.6928   59.5955 H         1 AXD         0.1054
     48 H19        32.0173    6.6608   64.1737 H         1 AXD         0.1062
     49 H20        31.2064    5.6397   65.4092 H         1 AXD         0.1062
     50 H21        36.4655    1.8212   60.4393 H         1 AXD         0.0643
     51 H22        35.9839    1.3140   56.1589 H         1 AXD         0.0628
     52 H23        34.5282    3.3512   56.1440 H         1 AXD         0.0787
     53 H24        32.5517    9.7831   62.1983 H         1 AXD         0.1229
     54 H25        35.2698    6.1150   62.7985 H         1 AXD         0.0287
     55 H26        34.9027    5.7302   64.5142 H         1 AXD         0.0287
     56 H27        33.8765    6.8997   63.6167 H         1 AXD         0.0287
@<TRIPOS>BOND
     1    1    2 1  
     2   17    1 1  
     3    2    3 1  
     4    2    7 1  
     5    2   26 1  
     6    3    4 1  
     7    4    5 1  
     8    6    5 1  
     9    5   18 1  
    10    7    6 1  
    11    9    8 1  
    12    8   12 1  
    13    8   24 1  
    14    9   10 1  
    15   15    9 am 
    16   10   11 1  
    17   10   13 1  
    18   11   12 1  
    19   13   14 2  
    20   15   16 2  
    21   15   17 1  
    22   18   19 ar 
    23   18   23 ar 
    24   19   20 ar 
    25   20   21 ar 
    26   20   27 1  
    27   21   22 ar 
    28   22   23 ar 
    29   24   25 3  
    30   27   28 ar 
    31   27   29 ar 
    32    1   30 1  
    33    1   31 1  
    34    3   32 1  
    35    3   33 1  
    36    4   34 1  
    37    4   35 1  
    38    6   36 1  
    39    6   37 1  
    40    7   38 1  
    41    7   39 1  
    42    8   40 1  
    43   10   41 1  
    44   11   42 1  
    45   11   43 1  
    46   12   44 1  
    47   12   45 1  
    48   13   46 1  
    49   14   47 1  
    50   17   48 1  
    51   17   49 1  
    52   19   50 1  
    53   21   51 1  
    54   22   52 1  
    55   25   53 1  
    56   26   54 1  
    57   26   55 1  
    58   26   56 1  
@<TRIPOS>SUBSTRUCTURE
     1 AXD         1

