6g6t_ligand
  -I-interpret- 

 33 33  0  0  0  0  0  0  0  0999 V2000
   -4.8430    1.8610   14.5960 C   0  0  0  0  0
   -4.6210    2.9000   13.6900 C   0  0  0  0  0
   -5.5150    2.0820   15.8110 C   0  0  0  0  0
   -5.6310    4.4620   15.2520 C   0  0  0  0  0
   -4.5900    3.0220   11.3180 O   0  0  0  0  0
   -3.9960    2.6610   12.4200 C   0  0  0  0  0
   -2.9150    1.9760   12.3830 N   0  0  0  0  0
   -2.1080    1.6970   11.1500 C   0  0  0  0  0
   -0.8370    2.5460   11.1180 C   0  0  0  0  0
   -1.2670    4.0240   11.1040 C   0  0  0  0  0
    0.0680    4.9080   11.2880 C   0  0  0  0  0
   -5.0070    4.1880   14.0410 C   0  0  0  0  0
   -4.5290    5.5150   13.1110 Cl  0  0  0  0  0
   -5.8660    3.4120   16.1270 C   0  0  0  0  0
   -6.6850    3.7780   17.6010 Cl  0  0  0  0  0
   -5.9300    0.7190   16.8580 S   0  0  0  0  0
   -5.2860    0.9700   18.1260 O   0  0  0  0  0
   -7.3720    0.7110   16.8370 O   0  0  0  0  0
   -5.3490   -0.5870   16.1770 N   0  0  0  0  0
   -4.4882    0.8586   14.3565 H   0  0  0  0  0
   -5.9289    5.4787   15.5083 H   0  0  0  0  0
   -2.5751    1.5887   13.2633 H   0  0  0  0  0
   -2.7119    1.9412   10.2760 H   0  0  0  0  0
   -1.8238    0.6447   11.1507 H   0  0  0  0  0
   -0.2455    2.3130   10.2326 H   0  0  0  0  0
   -0.2178    2.3377   11.9905 H   0  0  0  0  0
   -1.9758    4.2260   11.9070 H   0  0  0  0  0
   -1.7655    4.2707   10.1666 H   0  0  0  0  0
    0.5425    4.6543   12.2359 H   0  0  0  0  0
    0.7560    4.6996   10.4686 H   0  0  0  0  0
   -0.1948    5.9658   11.2834 H   0  0  0  0  0
   -4.6161   -1.1221   16.6427 H   0  0  0  0  0
   -5.7077   -0.8933   15.2726 H   0  0  0  0  0
  1  2  4  0  0  0
  1  3  4  0  0  0
  2  6  1  0  0  0
  2 12  4  0  0  0
  3 14  4  0  0  0
  3 16  1  0  0  0
 12  4  4  0  0  0
  4 14  4  0  0  0
  6  5  2  0  0  0
  6  7  1  0  0  0
  7  8  1  0  0  0
  8  9  1  0  0  0
  9 10  1  0  0  0
 10 11  1  0  0  0
 12 13  1  0  0  0
 14 15  1  0  0  0
 16 17  2  0  0  0
 16 18  2  0  0  0
 16 19  1  0  0  0
  1 20  1  0  0  0
  4 21  1  0  0  0
  7 22  1  0  0  0
  8 23  1  0  0  0
  8 24  1  0  0  0
  9 25  1  0  0  0
  9 26  1  0  0  0
 10 27  1  0  0  0
 10 28  1  0  0  0
 11 29  1  0  0  0
 11 30  1  0  0  0
 11 31  1  0  0  0
 19 32  1  0  0  0
 19 33  1  0  0  0
M  END
$$$$
