3w32_ligand
  -I-interpret- 

 62 65  0  0  0  0  0  0  0  0999 V2000
   17.5230   28.9900    5.7980 C   0  0  0  0  0
   16.2910   28.4180    6.0800 C   0  0  0  0  0
   17.3990   32.4000   11.0690 C   0  0  0  0  0
   17.7660   30.2650    6.2690 C   0  0  0  0  0
   17.6200   31.9950    9.7720 C   0  0  0  0  0
   15.6050   30.4080    7.2680 C   0  0  0  0  0
   15.7860   33.9910   10.3130 C   0  0  0  0  0
   12.7480   33.5660   13.3790 C   0  0  0  0  0
   14.9420   34.4920   14.5740 C   0  0  0  0  0
   15.3700   29.1340    6.8090 C   0  0  0  0  0
   16.4800   33.3980   11.3520 C   0  0  0  0  0
   16.8300   30.9650    6.9940 C   0  0  0  0  0
   16.9230   32.5970    8.7430 C   0  0  0  0  0
   15.9950   33.5920    9.0090 C   0  0  0  0  0
   13.6990   34.5620   15.1920 C   0  0  0  0  0
   14.9890   33.9350   13.3050 C   0  0  0  0  0
   16.1630   35.0290   15.1700 C   0  0  0  0  0
   16.4430   35.1960   16.4650 C   0  0  0  0  0
   17.7340   35.8640   16.8100 C   0  0  0  0  0
   15.5660   34.8150   17.5820 C   0  0  0  0  0
   14.3100   35.6400   17.4090 C   0  0  0  0  0
   23.0390   35.0530   18.7000 C   0  0  0  0  0
   20.0480   36.3220   16.1570 C   0  0  0  0  0
   20.7350   35.5380   17.2580 C   0  0  0  0  0
   14.0380   28.5220    7.1200 C   0  0  0  0  0
   12.5980   34.0910   14.5900 N   0  0  0  0  0
   13.8910   33.4610   12.6950 N   0  0  0  0  0
   13.3910   35.0600   16.4560 N   0  0  0  0  0
   16.2480   33.8570   12.6500 N   0  0  0  0  0
   18.7330   35.7910   15.8670 N   0  0  0  0  0
   17.8350   36.4820   17.8600 O   0  0  0  0  0
   23.0660   36.4370   16.4890 O   0  0  0  0  0
   21.9970   37.4430   18.5570 O   0  0  0  0  0
   17.1180   32.2490    7.4240 O   0  0  0  0  0
   14.0970   27.6110    8.1150 F   0  0  0  0  0
   13.1660   29.4380    7.5620 F   0  0  0  0  0
   13.5590   27.8560    6.0390 F   0  0  0  0  0
   22.2760   36.3050   17.7000 S   0  0  0  0  0
   15.1370   34.3430    7.7020 Cl  0  0  0  0  0
   18.2752   28.4501    5.2229 H   0  0  0  0  0
   16.0557   27.4135    5.7282 H   0  0  0  0  0
   17.9528   31.9307   11.8821 H   0  0  0  0  0
   18.7289   30.7310    6.0599 H   0  0  0  0  0
   18.3399   31.2049    9.5588 H   0  0  0  0  0
   14.8474   30.9558    7.8285 H   0  0  0  0  0
   15.0667   34.7816   10.5266 H   0  0  0  0  0
   11.8495   33.1828   12.8953 H   0  0  0  0  0
   16.9425   35.3309   14.4705 H   0  0  0  0  0
   16.0398   35.0058   18.5449 H   0  0  0  0  0
   15.3471   33.7472   17.5718 H   0  0  0  0  0
   14.6023   36.6223   17.0380 H   0  0  0  0  0
   13.8056   35.6895   18.3740 H   0  0  0  0  0
   23.0560   34.1116   18.1509 H   0  0  0  0  0
   24.0588   35.3533   18.9404 H   0  0  0  0  0
   22.4691   34.9278   19.6207 H   0  0  0  0  0
   20.6547   36.2524   15.2541 H   0  0  0  0  0
   19.9376   37.3551   16.4867 H   0  0  0  0  0
   20.9320   34.5266   16.9025 H   0  0  0  0  0
   20.0867   35.5153   18.1340 H   0  0  0  0  0
   12.4124   35.0100   16.7393 H   0  0  0  0  0
   17.0622   34.1669   13.1805 H   0  0  0  0  0
   18.5465   35.3615   14.9608 H   0  0  0  0  0
  1  2  4  0  0  0
  4  1  4  0  0  0
 10  2  4  0  0  0
  3  5  4  0  0  0
 11  3  4  0  0  0
 12  4  4  0  0  0
  5 13  4  0  0  0
  6 10  4  0  0  0
 12  6  4  0  0  0
 11  7  4  0  0  0
  7 14  4  0  0  0
 26  8  4  0  0  0
 27  8  4  0  0  0
  9 15  4  0  0  0
  9 16  4  0  0  0
 17  9  1  0  0  0
 10 25  1  0  0  0
 29 11  1  0  0  0
 34 12  1  0  0  0
 14 13  4  0  0  0
 13 34  1  0  0  0
 14 39  1  0  0  0
 15 26  4  0  0  0
 28 15  1  0  0  0
 16 27  4  0  0  0
 16 29  1  0  0  0
 18 17  2  0  0  0
 19 18  1  0  0  0
 18 20  1  0  0  0
 30 19  1  0  0  0
 19 31  2  0  0  0
 20 21  1  0  0  0
 21 28  1  0  0  0
 38 22  1  0  0  0
 24 23  1  0  0  0
 23 30  1  0  0  0
 24 38  1  0  0  0
 25 35  1  0  0  0
 25 36  1  0  0  0
 25 37  1  0  0  0
 38 32  2  0  0  0
 38 33  2  0  0  0
  1 40  1  0  0  0
  2 41  1  0  0  0
  3 42  1  0  0  0
  4 43  1  0  0  0
  5 44  1  0  0  0
  6 45  1  0  0  0
  7 46  1  0  0  0
  8 47  1  0  0  0
 17 48  1  0  0  0
 20 49  1  0  0  0
 20 50  1  0  0  0
 21 51  1  0  0  0
 21 52  1  0  0  0
 22 53  1  0  0  0
 22 54  1  0  0  0
 22 55  1  0  0  0
 23 56  1  0  0  0
 23 57  1  0  0  0
 24 58  1  0  0  0
 24 59  1  0  0  0
 28 60  1  0  0  0
 29 61  1  0  0  0
 30 62  1  0  0  0
M  END
$$$$
