3so9_ligand
  -I-interpret- 

 75 78  0  0  0  0  0  0  0  0999 V2000
   15.9970   -8.6550  -16.3070 N   0  0  0  0  0
   15.5710   -8.8720  -15.0410 C   0  0  0  0  0
   16.0760   -9.9620  -14.3290 C   0  0  0  0  0
   15.6590  -10.1860  -13.0230 C   0  0  0  0  0
   14.7860   -9.2880  -12.3990 C   0  0  0  0  0
   14.2210   -8.2340  -13.1410 C   0  0  0  0  0
   14.6500   -7.9980  -14.4440 C   0  0  0  0  0
   14.2530   -9.6630  -10.9430 S   0  0  0  0  0
   14.6520  -11.0040  -10.6670 O   0  0  0  0  0
   12.8250   -9.6020  -10.9810 O   0  0  0  0  0
   14.7630   -8.8060   -9.7910 N   0  0  0  0  0
   15.5650   -9.4750   -8.7700 C   0  0  0  0  0
   16.3140   -8.3820   -8.0130 C   0  0  0  0  0
   17.7120   -8.1400   -8.5910 C   0  0  0  0  0
   16.3590   -8.6990   -6.5220 C   0  0  0  0  0
   14.4670   -7.3740   -9.6990 C   0  0  0  0  0
   13.4520   -7.0740   -8.5770 C   0  0  0  0  0
   12.9560   -5.7420   -8.8220 O   0  0  0  0  0
   12.2250   -7.9810   -8.4910 C   0  0  0  0  0
   11.6240   -7.9130   -7.1620 N   0  0  0  0  0
   11.9570   -8.6660   -6.1180 C   0  0  0  0  0
   11.8420   -9.8810   -6.0760 O   0  0  0  0  0
   12.4610   -7.9310   -4.9770 O   0  0  0  0  0
   12.0940   -8.4170   -3.6880 C   0  0  0  0  0
   12.4380   -7.3400   -2.6560 C   0  0  0  0  0
   11.2870   -7.1770   -1.8110 O   0  0  0  0  0
   10.1600   -7.8750   -2.3190 C   0  0  0  0  0
    9.2120   -6.9140   -2.7690 O   0  0  0  0  0
    8.8050   -7.1660   -4.1200 C   0  0  0  0  0
    9.7920   -8.1700   -4.6960 C   0  0  0  0  0
   10.6100   -8.6740   -3.5260 C   0  0  0  0  0
   11.1480   -7.5010   -9.4690 C   0  0  0  0  0
    8.8070   -6.9960   -8.6780 C   0  0  0  0  0
    7.5570   -7.4120   -8.2260 C   0  0  0  0  0
    7.2830   -8.7670   -8.0570 C   0  0  0  0  0
    8.2640   -9.7080   -8.3440 C   0  0  0  0  0
    9.5110   -9.2870   -8.7980 C   0  0  0  0  0
    9.7880   -7.9360   -8.9710 C   0  0  0  0  0
   16.6792   -9.2841  -16.7304 H   0  0  0  0  0
   15.6359   -7.8624  -16.8378 H   0  0  0  0  0
   16.7950  -10.6348  -14.7965 H   0  0  0  0  0
   16.0129  -11.0640  -12.4827 H   0  0  0  0  0
   13.4500   -7.6045  -12.6968 H   0  0  0  0  0
   14.2723   -7.1385  -14.9978 H   0  0  0  0  0
   16.2618  -10.1796   -9.2241 H   0  0  0  0  0
   14.9318  -10.0504   -8.0947 H   0  0  0  0  0
   15.7646   -7.4492   -8.1401 H   0  0  0  0  0
   18.2941   -9.0594   -8.5277 H   0  0  0  0  0
   17.6248   -7.8347   -9.6337 H   0  0  0  0  0
   18.2083   -7.3543   -8.0213 H   0  0  0  0  0
   15.3421   -8.7651   -6.1351 H   0  0  0  0  0
   16.8698   -9.6497   -6.3692 H   0  0  0  0  0
   16.8972   -7.9080   -5.9997 H   0  0  0  0  0
   14.0377   -7.0498  -10.6470 H   0  0  0  0  0
   15.3934   -6.8449   -9.4754 H   0  0  0  0  0
   13.9944   -7.2244   -7.6436 H   0  0  0  0  0
   12.3169   -5.5101   -8.1443 H   0  0  0  0  0
   12.5562   -8.9939   -8.7199 H   0  0  0  0  0
   10.8826   -7.2266   -7.0220 H   0  0  0  0  0
   12.6289   -9.3575   -3.5557 H   0  0  0  0  0
   12.6872   -6.4009   -3.1501 H   0  0  0  0  0
   13.3068   -7.6358   -2.0679 H   0  0  0  0  0
    9.7303   -8.5229   -1.5550 H   0  0  0  0  0
    8.8043   -6.2449   -4.7029 H   0  0  0  0  0
    7.7889   -7.5593   -4.1518 H   0  0  0  0  0
   10.4280   -7.7080   -5.4511 H   0  0  0  0  0
    9.2743   -8.9885   -5.1960 H   0  0  0  0  0
   10.4610   -9.7502   -3.4387 H   0  0  0  0  0
   11.3309   -7.9332  -10.4528 H   0  0  0  0  0
   11.1791   -6.4138   -9.5400 H   0  0  0  0  0
    9.0159   -5.9334   -8.8019 H   0  0  0  0  0
    6.7881   -6.6722   -8.0031 H   0  0  0  0  0
    6.3038   -9.0876   -7.7013 H   0  0  0  0  0
    8.0584  -10.7706   -8.2144 H   0  0  0  0  0
   10.2801  -10.0266   -9.0207 H   0  0  0  0  0
  2  1  1  0  0  0
  3  2  4  0  0  0
  7  2  4  0  0  0
  4  3  4  0  0  0
  5  4  4  0  0  0
  5  6  4  0  0  0
  8  5  1  0  0  0
  6  7  4  0  0  0
  8  9  2  0  0  0
  8 10  2  0  0  0
 11  8  1  0  0  0
 11 12  1  0  0  0
 16 11  1  0  0  0
 12 13  1  0  0  0
 13 14  1  0  0  0
 13 15  1  0  0  0
 17 16  1  0  0  0
 17 18  1  0  0  0
 19 17  1  0  0  0
 19 20  1  0  0  0
 32 19  1  0  0  0
 20 21  1  0  0  0
 21 22  2  0  0  0
 21 23  1  0  0  0
 23 24  1  0  0  0
 24 25  1  0  0  0
 24 31  1  0  0  0
 25 26  1  0  0  0
 27 26  1  0  0  0
 27 28  1  0  0  0
 31 27  1  0  0  0
 29 28  1  0  0  0
 30 29  1  0  0  0
 31 30  1  0  0  0
 38 32  1  0  0  0
 33 34  4  0  0  0
 33 38  4  0  0  0
 34 35  4  0  0  0
 35 36  4  0  0  0
 36 37  4  0  0  0
 37 38  4  0  0  0
  1 39  1  0  0  0
  1 40  1  0  0  0
  3 41  1  0  0  0
  4 42  1  0  0  0
  6 43  1  0  0  0
  7 44  1  0  0  0
 12 45  1  0  0  0
 12 46  1  0  0  0
 13 47  1  0  0  0
 14 48  1  0  0  0
 14 49  1  0  0  0
 14 50  1  0  0  0
 15 51  1  0  0  0
 15 52  1  0  0  0
 15 53  1  0  0  0
 16 54  1  0  0  0
 16 55  1  0  0  0
 17 56  1  0  0  0
 18 57  1  0  0  0
 19 58  1  0  0  0
 20 59  1  0  0  0
 24 60  1  0  0  0
 25 61  1  0  0  0
 25 62  1  0  0  0
 27 63  1  0  0  0
 29 64  1  0  0  0
 29 65  1  0  0  0
 30 66  1  0  0  0
 30 67  1  0  0  0
 31 68  1  0  0  0
 32 69  1  0  0  0
 32 70  1  0  0  0
 33 71  1  0  0  0
 34 72  1  0  0  0
 35 73  1  0  0  0
 36 74  1  0  0  0
 37 75  1  0  0  0
M  END
$$$$
