4pce_ligand
  -I-interpret- 

 38 40  0  0  0  0  0  0  0  0999 V2000
   15.3310    4.3600    0.0240 O   0  0  0  0  0
   14.1950    4.8160   -0.0120 C   0  0  0  0  0
   13.7380    5.8370    0.9620 C   0  0  0  0  0
   14.4140    6.5550    1.9340 C   0  0  0  0  0
   13.1680    4.2780   -0.9880 C   0  0  0  0  0
   11.9740    5.2170   -1.1680 C   0  0  0  0  0
   11.3140    5.5930    0.1520 C   0  0  0  0  0
   12.3980    6.1650    1.0230 C   0  0  0  0  0
   12.2440    7.0720    1.9860 N   0  0  0  0  0
   13.4370    7.3300    2.5580 C   0  0  0  0  0
   13.6380    8.3180    3.6910 C   0  0  0  0  0
   15.0870    8.4210    4.1120 C   0  0  0  0  0
   10.9540    7.6550    2.3730 C   0  0  0  0  0
   10.1930    6.6340    3.2110 C   0  0  0  0  0
   10.7510    6.1500    4.3930 C   0  0  0  0  0
   10.0710    5.2140    5.1720 C   0  0  0  0  0
    8.8250    4.7550    4.7670 C   0  0  0  0  0
    8.2650    5.2340    3.5880 C   0  0  0  0  0
    8.9410    6.1710    2.8090 C   0  0  0  0  0
   15.4794    6.5216    2.1621 H   0  0  0  0  0
   12.7938    3.3337   -0.5926 H   0  0  0  0  0
   13.6543    4.1663   -1.9571 H   0  0  0  0  0
   11.2320    4.7003   -1.7767 H   0  0  0  0  0
   12.3375    6.1337   -1.6323 H   0  0  0  0  0
   10.8549    4.7226    0.6209 H   0  0  0  0  0
   10.5149    6.3178   -0.0035 H   0  0  0  0  0
   13.0605    7.9718    4.5482 H   0  0  0  0  0
   13.3157    9.3000    3.3447 H   0  0  0  0  0
   15.4366    7.4449    4.4483 H   0  0  0  0  0
   15.6877    8.7513    3.2645 H   0  0  0  0  0
   15.1774    9.1408    4.9255 H   0  0  0  0  0
   10.3784    7.9085    1.4827 H   0  0  0  0  0
   11.1156    8.5646    2.9515 H   0  0  0  0  0
   11.7301    6.5071    4.7123 H   0  0  0  0  0
   10.5164    4.8442    6.0956 H   0  0  0  0  0
    8.2884    4.0227    5.3703 H   0  0  0  0  0
    7.2871    4.8728    3.2697 H   0  0  0  0  0
    8.4919    6.5411    1.8874 H   0  0  0  0  0
  1  2  2  0  0  0
  2  3  1  0  0  0
  2  5  1  0  0  0
  3  4  4  0  0  0
  3  8  4  0  0  0
  4 10  4  0  0  0
  5  6  1  0  0  0
  6  7  1  0  0  0
  7  8  1  0  0  0
  8  9  4  0  0  0
  9 10  4  0  0  0
  9 13  1  0  0  0
 10 11  1  0  0  0
 11 12  1  0  0  0
 13 14  1  0  0  0
 14 15  4  0  0  0
 14 19  4  0  0  0
 15 16  4  0  0  0
 16 17  4  0  0  0
 17 18  4  0  0  0
 18 19  4  0  0  0
  4 20  1  0  0  0
  5 21  1  0  0  0
  5 22  1  0  0  0
  6 23  1  0  0  0
  6 24  1  0  0  0
  7 25  1  0  0  0
  7 26  1  0  0  0
 11 27  1  0  0  0
 11 28  1  0  0  0
 12 29  1  0  0  0
 12 30  1  0  0  0
 12 31  1  0  0  0
 13 32  1  0  0  0
 13 33  1  0  0  0
 15 34  1  0  0  0
 16 35  1  0  0  0
 17 36  1  0  0  0
 18 37  1  0  0  0
 19 38  1  0  0  0
M  END
$$$$
