6mub_ligand
  -I-interpret- 

108112  0  0  0  0  0  0  0  0999 V2000
   19.0600  -16.4000  -62.1800 C   0  0  0  0  0
   18.9340  -17.5260  -61.1440 C   0  0  0  0  0
   17.4690  -17.6600  -60.7140 C   0  0  0  0  0
   16.8990  -16.3020  -60.2720 C   0  0  0  0  0
   17.1090  -15.2540  -61.3860 C   0  0  0  0  0
   16.6680  -13.8650  -60.9750 C   0  0  0  0  0
   20.4330  -16.1840  -62.3880 O   0  0  0  0  0
   19.6820  -17.2220  -59.9690 O   0  0  0  0  0
   17.2940  -18.6400  -59.6810 O   0  0  0  0  0
   15.5130  -16.4230  -59.9850 O   0  0  0  0  0
   18.5120  -15.1880  -61.7080 O   0  0  0  0  0
   15.3440  -13.9470  -60.4730 O   0  0  0  0  0
   14.6510  -12.7470  -60.8690 C   0  0  0  0  0
   13.3790  -12.6060  -59.9810 C   0  0  0  0  0
   12.3390  -13.6350  -60.3900 C   0  0  0  0  0
   12.0700  -13.5410  -61.9050 C   0  0  0  0  0
   13.3820  -13.8070  -62.6460 C   0  0  0  0  0
   13.2430  -13.7590  -64.1600 C   0  0  0  0  0
   12.7570  -11.3340  -60.1950 O   0  0  0  0  0
   11.1340  -13.4840  -59.6460 O   0  0  0  0  0
   11.1040  -14.4970  -62.3010 O   0  0  0  0  0
   14.3340  -12.7960  -62.2580 O   0  0  0  0  0
   13.0640  -12.4010  -64.5520 O   0  0  0  0  0
   12.7470  -10.5600  -58.9750 C   0  0  0  0  0
   11.9710   -9.2420  -59.2710 C   0  0  0  0  0
   12.8250   -8.2630  -60.0800 C   0  0  0  0  0
   14.2310   -8.1130  -59.5040 C   0  0  0  0  0
   14.8750   -9.4790  -59.3940 C   0  0  0  0  0
   16.2640   -9.4350  -58.8090 C   0  0  0  0  0
   11.6350   -8.5510  -58.0730 O   0  0  0  0  0
   12.2120   -6.9910  -60.1540 O   0  0  0  0  0
   15.0100   -7.3100  -60.3710 O   0  0  0  0  0
   14.0670  -10.3070  -58.5250 O   0  0  0  0  0
   16.5080  -10.7010  -58.1960 O   0  0  0  0  0
   17.7950  -19.9090  -60.1670 C   0  0  0  0  0
   16.5690  -20.8180  -60.5380 C   0  0  0  0  0
   15.9440  -21.4520  -59.2890 C   0  0  0  0  0
   17.0170  -22.0830  -58.3940 C   0  0  0  0  0
   18.0330  -21.0090  -58.0040 C   0  0  0  0  0
   19.1330  -21.5320  -57.1030 C   0  0  0  0  0
   16.9830  -21.8980  -61.3950 O   0  0  0  0  0
   14.9470  -22.4130  -59.6190 O   0  0  0  0  0
   16.4200  -22.6190  -57.2240 O   0  0  0  0  0
   18.6620  -20.5180  -59.2010 O   0  0  0  0  0
   20.0440  -20.4650  -56.8580 O   0  0  0  0  0
   16.1820  -21.9610  -62.6050 C   0  0  0  0  0
   16.8740  -22.9840  -63.5560 C   0  0  0  0  0
   18.1180  -22.3640  -64.1840 C   0  0  0  0  0
   17.7610  -21.0620  -64.9010 C   0  0  0  0  0
   17.1610  -20.0780  -63.8980 C   0  0  0  0  0
   16.6880  -18.7940  -64.5480 C   0  0  0  0  0
   16.0210  -23.3320  -64.6470 O   0  0  0  0  0
   18.7580  -23.2610  -65.0840 O   0  0  0  0  0
   18.9270  -20.4890  -65.4700 O   0  0  0  0  0
   16.0060  -20.6770  -63.2400 O   0  0  0  0  0
   15.6210  -19.1190  -65.4360 O   0  0  0  0  0
   18.5277  -16.6931  -63.0849 H   0  0  0  0  0
   19.3063  -18.4422  -61.6024 H   0  0  0  0  0
   16.9134  -18.0049  -61.5860 H   0  0  0  0  0
   17.4221  -15.9791  -59.3719 H   0  0  0  0  0
   16.5048  -15.5684  -62.2370 H   0  0  0  0  0
   16.7011  -13.1936  -61.8330 H   0  0  0  0  0
   17.3350  -13.4735  -60.2069 H   0  0  0  0  0
   20.8377  -16.9925  -62.7106 H   0  0  0  0  0
   20.6100  -17.1296  -60.1968 H   0  0  0  0  0
   15.3866  -17.0753  -59.2921 H   0  0  0  0  0
   15.2814  -11.8699  -60.7227 H   0  0  0  0  0
   13.6956  -12.7320  -58.9456 H   0  0  0  0  0
   12.7334  -14.6261  -60.1657 H   0  0  0  0  0
   11.6887  -12.5481  -62.1436 H   0  0  0  0  0
   13.7024  -14.8136  -62.3774 H   0  0  0  0  0
   12.3860  -14.3543  -64.4751 H   0  0  0  0  0
   14.1373  -14.1682  -64.6299 H   0  0  0  0  0
   10.4999  -14.1473  -59.9280 H   0  0  0  0  0
   10.9505  -14.4228  -63.2457 H   0  0  0  0  0
   12.9746  -12.3538  -65.5067 H   0  0  0  0  0
   12.2539  -11.1077  -58.1718 H   0  0  0  0  0
   11.0787   -9.5458  -59.8185 H   0  0  0  0  0
   12.9080   -8.6835  -61.0822 H   0  0  0  0  0
   14.1722   -7.6483  -58.5198 H   0  0  0  0  0
   14.9441   -9.8760  -60.4068 H   0  0  0  0  0
   16.3448   -8.6329  -58.0754 H   0  0  0  0  0
   17.0010   -9.2387  -59.5877 H   0  0  0  0  0
   11.1593   -7.7464  -58.2917 H   0  0  0  0  0
   12.7677   -6.3985  -60.6656 H   0  0  0  0  0
   15.8942   -7.2153  -60.0094 H   0  0  0  0  0
   17.3881  -10.7053  -57.8125 H   0  0  0  0  0
   18.3992  -19.7616  -61.0622 H   0  0  0  0  0
   15.8437  -20.1759  -61.0377 H   0  0  0  0  0
   15.4579  -20.6478  -58.7367 H   0  0  0  0  0
   17.5152  -22.8870  -58.9357 H   0  0  0  0  0
   17.4866  -20.2353  -57.4646 H   0  0  0  0  0
   19.6480  -22.3652  -57.5813 H   0  0  0  0  0
   18.7122  -21.8917  -56.1640 H   0  0  0  0  0
   14.5826  -22.7843  -58.8122 H   0  0  0  0  0
   17.0992  -23.0114  -56.6706 H   0  0  0  0  0
   20.7514  -20.7744  -56.2876 H   0  0  0  0  0
   15.1709  -22.2814  -62.3538 H   0  0  0  0  0
   17.1150  -23.8587  -62.9519 H   0  0  0  0  0
   18.8186  -22.1475  -63.3775 H   0  0  0  0  0
   17.0394  -21.2757  -65.6895 H   0  0  0  0  0
   17.9562  -19.8464  -63.1894 H   0  0  0  0  0
   17.5053  -18.3251  -65.0959 H   0  0  0  0  0
   16.3461  -18.0905  -63.7889 H   0  0  0  0  0
   16.4709  -23.9615  -65.2153 H   0  0  0  0  0
   19.5340  -22.8375  -65.4583 H   0  0  0  0  0
   18.6949  -19.6724  -65.9181 H   0  0  0  0  0
   15.3044  -18.3183  -65.8606 H   0  0  0  0  0
  1  2  1  0  0  0
  1  7  1  0  0  0
  1 11  1  0  0  0
  2  3  1  0  0  0
  2  8  1  0  0  0
  3  4  1  0  0  0
  3  9  1  0  0  0
  4  5  1  0  0  0
  4 10  1  0  0  0
  5  6  1  0  0  0
  5 11  1  0  0  0
  6 12  1  0  0  0
  9 35  1  0  0  0
 12 13  1  0  0  0
 13 14  1  0  0  0
 13 22  1  0  0  0
 14 15  1  0  0  0
 14 19  1  0  0  0
 15 16  1  0  0  0
 15 20  1  0  0  0
 16 17  1  0  0  0
 16 21  1  0  0  0
 17 18  1  0  0  0
 17 22  1  0  0  0
 18 23  1  0  0  0
 19 24  1  0  0  0
 24 25  1  0  0  0
 24 33  1  0  0  0
 25 26  1  0  0  0
 25 30  1  0  0  0
 26 27  1  0  0  0
 26 31  1  0  0  0
 27 28  1  0  0  0
 27 32  1  0  0  0
 28 29  1  0  0  0
 28 33  1  0  0  0
 29 34  1  0  0  0
 35 36  1  0  0  0
 35 44  1  0  0  0
 36 37  1  0  0  0
 36 41  1  0  0  0
 37 38  1  0  0  0
 37 42  1  0  0  0
 38 39  1  0  0  0
 38 43  1  0  0  0
 39 40  1  0  0  0
 39 44  1  0  0  0
 40 45  1  0  0  0
 41 46  1  0  0  0
 46 47  1  0  0  0
 46 55  1  0  0  0
 47 48  1  0  0  0
 47 52  1  0  0  0
 48 49  1  0  0  0
 48 53  1  0  0  0
 49 50  1  0  0  0
 49 54  1  0  0  0
 50 51  1  0  0  0
 50 55  1  0  0  0
 51 56  1  0  0  0
  1 57  1  0  0  0
  2 58  1  0  0  0
  3 59  1  0  0  0
  4 60  1  0  0  0
  5 61  1  0  0  0
  6 62  1  0  0  0
  6 63  1  0  0  0
  7 64  1  0  0  0
  8 65  1  0  0  0
 10 66  1  0  0  0
 13 67  1  0  0  0
 14 68  1  0  0  0
 15 69  1  0  0  0
 16 70  1  0  0  0
 17 71  1  0  0  0
 18 72  1  0  0  0
 18 73  1  0  0  0
 20 74  1  0  0  0
 21 75  1  0  0  0
 23 76  1  0  0  0
 24 77  1  0  0  0
 25 78  1  0  0  0
 26 79  1  0  0  0
 27 80  1  0  0  0
 28 81  1  0  0  0
 29 82  1  0  0  0
 29 83  1  0  0  0
 30 84  1  0  0  0
 31 85  1  0  0  0
 32 86  1  0  0  0
 34 87  1  0  0  0
 35 88  1  0  0  0
 36 89  1  0  0  0
 37 90  1  0  0  0
 38 91  1  0  0  0
 39 92  1  0  0  0
 40 93  1  0  0  0
 40 94  1  0  0  0
 42 95  1  0  0  0
 43 96  1  0  0  0
 45 97  1  0  0  0
 46 98  1  0  0  0
 47 99  1  0  0  0
 48100  1  0  0  0
 49101  1  0  0  0
 50102  1  0  0  0
 51103  1  0  0  0
 51104  1  0  0  0
 52105  1  0  0  0
 53106  1  0  0  0
 54107  1  0  0  0
 56108  1  0  0  0
M  END
$$$$
