3kv2_ligand
  -I-interpret- 

 25 24  0  0  0  0  0  0  0  0999 V2000
   25.9850   -9.8980   -2.9660 N   0  3  0  0  0
   25.5890   -9.8810   -4.3640 C   0  0  0  0  0
   24.1130   -9.4890   -4.5470 C   0  0  0  0  0
   23.3360   -9.2110   -3.6570 O   0  0  0  0  0
   25.8450  -11.2720   -4.9030 C   0  0  0  0  0
   25.0820  -12.5130   -4.5800 C   0  0  0  0  0
   25.3350  -13.6680   -5.4720 N   0  0  0  0  0
   25.3700  -14.9930   -5.1650 C   0  0  0  0  0
   25.1380  -15.4010   -3.8210 N   0  0  0  0  0
   25.6130  -15.9740   -6.0600 N   0  0  0  0  0
   25.1690  -16.6460   -3.5170 O   0  0  0  0  0
   23.7530   -9.4850   -5.8500 O   0  0  0  0  0
   25.8293   -8.9760   -2.5585 H   0  0  0  0  0
   25.4290  -10.5908   -2.4648 H   0  0  0  0  0
   26.9737  -10.1391   -2.8968 H   0  0  0  0  0
   26.1646   -9.1300   -4.9051 H   0  0  0  0  0
   26.8198  -11.4971   -4.4703 H   0  0  0  0  0
   25.6119  -11.1421   -5.9598 H   0  0  0  0  0
   24.0261  -12.2644   -4.6863 H   0  0  0  0  0
   25.3944  -12.8181   -3.5813 H   0  0  0  0  0
   25.5066  -13.4385   -6.4509 H   0  0  0  0  0
   25.6233  -16.9484   -5.7585 H   0  0  0  0  0
   25.7863  -15.7409   -7.0378 H   0  0  0  0  0
   24.9939  -16.7496   -2.5788 H   0  0  0  0  0
   24.5075   -9.7314   -6.3900 H   0  0  0  0  0
  1  2  1  0  0  0
  2  3  1  0  0  0
  2  5  1  0  0  0
  3  4  2  0  0  0
  3 12  1  0  0  0
  5  6  1  0  0  0
  6  7  1  0  0  0
  7  8  1  0  0  0
  8  9  2  0  0  0
  8 10  1  0  0  0
  9 11  1  0  0  0
  1 13  1  0  0  0
  1 14  1  0  0  0
  1 15  1  0  0  0
  2 16  1  0  0  0
  5 17  1  0  0  0
  5 18  1  0  0  0
  6 19  1  0  0  0
  6 20  1  0  0  0
  7 21  1  0  0  0
 10 22  1  0  0  0
 10 23  1  0  0  0
 11 24  1  0  0  0
 12 25  1  0  0  0
M  END
$$$$
