2va7_ligand
  -I-interpret- 

 51 53  0  0  0  0  0  0  0  0999 V2000
   70.7570   46.1140    0.7280 C   0  0  0  0  0
   70.8660   46.8500    1.9530 O   0  0  0  0  0
   71.7430   46.3930    2.9030 C   0  0  0  0  0
   72.6030   45.3040    2.9600 C   0  0  0  0  0
   73.3800   45.0890    4.0740 C   0  0  0  0  0
   73.3040   45.9500    5.1480 C   0  0  0  0  0
   72.4450   47.0470    5.1190 C   0  0  0  0  0
   71.6730   47.2550    3.9800 C   0  0  0  0  0
   72.3680   47.9900    6.2730 C   0  0  0  0  0
   73.4870   48.2410    7.0660 C   0  0  0  0  0
   73.4010   49.0940    8.1500 C   0  0  0  0  0
   72.2130   49.7290    8.4410 C   0  0  0  0  0
   71.0800   49.4940    7.6690 C   0  0  0  0  0
   69.7800   50.1910    7.9790 C   0  0  0  0  0
   68.9200   49.4170    8.9590 C   0  0  0  0  0
   67.4550   49.9190    9.1190 C   0  0  0  0  0
   67.4330   51.4000    9.5280 C   0  0  0  0  0
   66.7620   49.0590   10.1800 C   0  0  0  0  0
   66.5340   47.6540    9.7110 C   0  0  0  0  0
   66.5570   46.7110   10.4760 O   0  0  0  0  0
   66.2730   47.4990    8.3750 N   0  0  0  0  0
   66.1580   46.1340    7.8410 C   0  0  0  0  0
   66.1720   48.6270    7.5270 C   0  0  0  0  0
   66.7210   49.7830    7.8310 N   0  0  0  0  0
   65.5550   48.4870    6.3540 N   0  0  0  0  0
   71.1710   48.6210    6.5930 C   0  0  0  0  0
   71.7271   46.0917    0.2314 H   0  0  0  0  0
   70.4350   45.0955    0.9450 H   0  0  0  0  0
   70.0263   46.5970    0.0792 H   0  0  0  0  0
   72.6624   44.6158    2.1169 H   0  0  0  0  0
   74.0576   44.2359    4.1079 H   0  0  0  0  0
   73.9216   45.7710    6.0281 H   0  0  0  0  0
   71.0017   48.1127    3.9370 H   0  0  0  0  0
   74.4365   47.7610    6.8293 H   0  0  0  0  0
   74.2760   49.2651    8.7771 H   0  0  0  0  0
   72.1608   50.4203    9.2821 H   0  0  0  0  0
   69.2218   50.2876    7.0478 H   0  0  0  0  0
   70.0163   51.1548    8.4299 H   0  0  0  0  0
   69.3913   49.5272    9.9356 H   0  0  0  0  0
   68.8561   48.3989    8.5748 H   0  0  0  0  0
   67.9543   51.5212   10.4775 H   0  0  0  0  0
   67.9292   51.9948    8.7611 H   0  0  0  0  0
   66.3999   51.7309    9.6345 H   0  0  0  0  0
   65.7915   49.5054   10.3969 H   0  0  0  0  0
   67.4051   49.0224   11.0593 H   0  0  0  0  0
   65.1825   46.0102    7.3706 H   0  0  0  0  0
   66.9425   45.9666    7.1030 H   0  0  0  0  0
   66.2640   45.4167    8.6549 H   0  0  0  0  0
   66.6449   50.5753    7.1931 H   0  0  0  0  0
   65.1688   47.5819    6.0857 H   0  0  0  0  0
   70.2862   48.4264    5.9869 H   0  0  0  0  0
  1  2  1  0  0  0
  2  3  1  0  0  0
  3  4  4  0  0  0
  3  8  4  0  0  0
  4  5  4  0  0  0
  5  6  4  0  0  0
  6  7  4  0  0  0
  7  8  4  0  0  0
  7  9  1  0  0  0
  9 10  4  0  0  0
  9 26  4  0  0  0
 10 11  4  0  0  0
 11 12  4  0  0  0
 12 13  4  0  0  0
 13 14  1  0  0  0
 13 26  4  0  0  0
 14 15  1  0  0  0
 15 16  1  0  0  0
 16 17  1  0  0  0
 16 18  1  0  0  0
 16 24  1  0  0  0
 18 19  1  0  0  0
 19 20  2  0  0  0
 19 21  1  0  0  0
 21 22  1  0  0  0
 21 23  4  0  0  0
 23 24  1  0  0  0
 23 25  2  0  0  0
  1 27  1  0  0  0
  1 28  1  0  0  0
  1 29  1  0  0  0
  4 30  1  0  0  0
  5 31  1  0  0  0
  6 32  1  0  0  0
  8 33  1  0  0  0
 10 34  1  0  0  0
 11 35  1  0  0  0
 12 36  1  0  0  0
 14 37  1  0  0  0
 14 38  1  0  0  0
 15 39  1  0  0  0
 15 40  1  0  0  0
 17 41  1  0  0  0
 17 42  1  0  0  0
 17 43  1  0  0  0
 18 44  1  0  0  0
 18 45  1  0  0  0
 22 46  1  0  0  0
 22 47  1  0  0  0
 22 48  1  0  0  0
 24 49  1  0  0  0
 25 50  1  0  0  0
 26 51  1  0  0  0
M  END
$$$$
