5kxc_ligand
  -I-interpret- 

 69 71  0  0  0  0  0  0  0  0999 V2000
    5.8930  -24.4340  -14.3000 C   0  0  0  0  0
    6.1310  -25.6860  -14.8700 C   0  0  0  0  0
    5.0920  -26.6190  -14.8700 C   0  0  0  0  0
    3.8470  -26.2800  -14.3000 C   0  0  0  0  0
    3.6290  -25.0260  -13.7350 C   0  0  0  0  0
    4.6610  -24.1110  -13.7360 C   0  0  0  0  0
    6.6750  -22.4210  -15.1930 C   0  0  0  0  0
    6.5460  -21.1250  -14.4650 C   0  0  0  0  0
    8.4110  -20.0920  -15.7750 C   0  0  0  0  0
    8.6160  -21.4460  -16.4380 C   0  0  0  0  0
   13.0390  -19.6310  -18.6280 C   0  0  0  0  0
   11.8200  -18.7560  -18.7570 C   0  0  0  0  0
   11.3800  -18.4640  -19.8770 O   0  0  0  0  0
   11.3430  -18.2720  -17.5860 N   0  0  0  0  0
   10.1560  -17.4050  -17.5070 C   0  0  0  0  0
   10.6000  -15.9870  -17.2220 C   0  0  0  0  0
   11.4060  -15.5740  -18.3210 O   0  0  0  0  0
    9.4170  -15.0950  -17.0310 C   0  0  0  0  0
    8.6790  -15.0880  -18.2230 O   0  0  0  0  0
    8.5600  -15.6770  -15.8940 C   0  0  0  0  0
    7.3410  -14.8310  -15.6860 C   0  0  0  0  0
    6.6930  -15.5040  -14.5920 O   0  0  0  0  0
    8.1470  -17.0410  -16.2230 O   0  0  0  0  0
    9.2810  -17.8820  -16.3630 C   0  0  0  0  0
    8.8520  -19.1550  -16.7940 O   0  0  0  0  0
    7.9600  -22.5440  -15.7720 O   0  0  0  0  0
   10.0840  -21.8310  -16.4300 C   0  0  0  0  0
   10.2360  -22.7260  -17.5270 O   0  0  0  0  0
    6.9150  -19.9610  -15.4340 C   0  0  0  0  0
    6.5650  -18.7080  -14.8300 O   0  0  0  0  0
    5.1670  -20.9320  -13.9940 N   0  0  0  0  0
    4.7870  -20.4630  -12.7700 C   0  0  0  0  0
    3.6000  -20.2940  -12.5260 O   0  0  0  0  0
    5.8020  -20.1460  -11.6280 C   0  0  0  0  0
    6.8460  -23.4940  -14.2570 O   0  0  0  0  0
    2.8270  -27.1310  -14.2880 N   0  0  0  0  0
    3.1100  -28.6160  -13.9440 O   0  0  0  0  0
    1.3480  -26.5370  -14.6400 O   0  0  0  0  0
    7.1013  -25.9286  -15.3032 H   0  0  0  0  0
    5.2424  -27.6054  -15.3087 H   0  0  0  0  0
    2.6620  -24.7726  -13.3006 H   0  0  0  0  0
    4.5113  -23.1270  -13.2918 H   0  0  0  0  0
    5.8147  -22.4516  -15.8616 H   0  0  0  0  0
    7.2160  -21.1352  -13.6053 H   0  0  0  0  0
    8.9533  -19.9293  -14.8436 H   0  0  0  0  0
    8.1988  -21.3077  -17.4355 H   0  0  0  0  0
   12.8422  -20.5970  -19.0930 H   0  0  0  0  0
   13.8826  -19.1522  -19.1251 H   0  0  0  0  0
   13.2714  -19.7749  -17.5728 H   0  0  0  0  0
   11.8264  -18.5185  -16.7223 H   0  0  0  0  0
    9.6034  -17.4408  -18.4459 H   0  0  0  0  0
   11.1763  -15.9314  -16.2985 H   0  0  0  0  0
   11.7076  -14.6744  -18.1749 H   0  0  0  0  0
    9.7223  -14.0790  -16.7809 H   0  0  0  0  0
    7.9127  -14.5190  -18.1203 H   0  0  0  0  0
    9.1558  -15.6886  -14.9813 H   0  0  0  0  0
    6.7150  -14.7499  -16.5746 H   0  0  0  0  0
    7.5712  -13.7867  -15.4749 H   0  0  0  0  0
    5.8829  -15.0405  -14.3673 H   0  0  0  0  0
    9.8049  -17.8868  -15.4072 H   0  0  0  0  0
   10.3751  -22.2943  -15.4873 H   0  0  0  0  0
   10.7309  -20.9591  -16.5272 H   0  0  0  0  0
   11.1509  -23.0118  -17.5809 H   0  0  0  0  0
    6.3564  -20.0086  -16.3688 H   0  0  0  0  0
    6.7925  -17.9916  -15.4272 H   0  0  0  0  0
    4.4205  -21.1723  -14.6463 H   0  0  0  0  0
    5.7093  -19.0984  -11.3417 H   0  0  0  0  0
    5.5880  -20.7795  -10.7672 H   0  0  0  0  0
    6.8152  -20.3394  -11.9802 H   0  0  0  0  0
  1  2  4  0  0  0
  1  6  4  0  0  0
 35  1  1  0  0  0
  2  3  4  0  0  0
  3  4  4  0  0  0
  5  4  4  0  0  0
  4 36  1  0  0  0
  6  5  4  0  0  0
  8  7  1  0  0  0
 26  7  1  0  0  0
  7 35  1  0  0  0
 29  8  1  0  0  0
  8 31  1  0  0  0
  9 10  1  0  0  0
 25  9  1  0  0  0
  9 29  1  0  0  0
 10 26  1  0  0  0
 10 27  1  0  0  0
 12 11  1  0  0  0
 12 13  2  0  0  0
 14 12  1  0  0  0
 15 14  1  0  0  0
 15 16  1  0  0  0
 24 15  1  0  0  0
 16 17  1  0  0  0
 16 18  1  0  0  0
 18 19  1  0  0  0
 20 18  1  0  0  0
 20 21  1  0  0  0
 23 20  1  0  0  0
 21 22  1  0  0  0
 24 23  1  0  0  0
 24 25  1  0  0  0
 27 28  1  0  0  0
 29 30  1  0  0  0
 31 32  1  0  0  0
 32 33  2  0  0  0
 32 34  1  0  0  0
 36 37  2  0  0  0
 36 38  2  0  0  0
  2 39  1  0  0  0
  3 40  1  0  0  0
  5 41  1  0  0  0
  6 42  1  0  0  0
  7 43  1  0  0  0
  8 44  1  0  0  0
  9 45  1  0  0  0
 10 46  1  0  0  0
 11 47  1  0  0  0
 11 48  1  0  0  0
 11 49  1  0  0  0
 14 50  1  0  0  0
 15 51  1  0  0  0
 16 52  1  0  0  0
 17 53  1  0  0  0
 18 54  1  0  0  0
 19 55  1  0  0  0
 20 56  1  0  0  0
 21 57  1  0  0  0
 21 58  1  0  0  0
 22 59  1  0  0  0
 24 60  1  0  0  0
 27 61  1  0  0  0
 27 62  1  0  0  0
 28 63  1  0  0  0
 29 64  1  0  0  0
 30 65  1  0  0  0
 31 66  1  0  0  0
 34 67  1  0  0  0
 34 68  1  0  0  0
 34 69  1  0  0  0
M  END
$$$$
