2c8w_ligand
  -I-interpret- 

 65 68  0  0  0  0  0  0  0  0999 V2000
   -2.1020   20.2510   46.9570 C   0  0  0  0  0
   -0.9950   20.6250   46.1340 O   0  0  0  0  0
    0.1910   19.9440   46.2300 C   0  0  0  0  0
    1.2140   20.3070   45.3690 C   0  0  0  0  0
    2.4180   19.6680   45.3990 C   0  0  0  0  0
    2.6180   18.6300   46.2900 C   0  0  0  0  0
    1.6100   18.2520   47.1550 C   0  0  0  0  0
    0.3970   18.9090   47.1250 C   0  0  0  0  0
    4.1370   17.7640   46.3570 S   0  0  0  0  0
    3.7730   16.3870   46.3860 O   0  0  0  0  0
    4.9800   18.3660   45.3880 O   0  0  0  0  0
    4.7350   18.0420   47.8820 N   0  0  0  0  0
    5.1500   19.4130   48.1900 C   0  0  0  0  0
    5.6600   19.4950   49.6350 C   0  0  0  0  0
    6.8090   18.6590   49.7470 O   0  0  0  0  0
    6.0740   20.9230   50.0290 C   0  0  0  0  0
    4.8800   21.8780   49.9980 C   0  0  0  0  0
    3.7730   21.4350   50.9140 C   0  0  0  0  0
    2.5280   21.1230   50.3970 C   0  0  0  0  0
    1.5150   20.7230   51.2440 C   0  0  0  0  0
    1.7340   20.6440   52.6080 C   0  0  0  0  0
    2.9840   20.9520   53.1260 C   0  0  0  0  0
    4.0050   21.3530   52.2760 C   0  0  0  0  0
    7.1370   21.4290   49.1310 N   0  3  0  0  0
    7.9150   22.5430   49.7880 C   0  0  0  0  0
    9.1040   22.8590   48.9060 C   0  0  0  0  0
    9.0730   23.9920   48.0940 C   0  0  0  0  0
   10.1390   24.2690   47.2440 C   0  0  0  0  0
   10.1100   25.6890   46.2370 Cl  0  0  0  0  0
   11.2230   23.4010   47.1980 C   0  0  0  0  0
   11.2500   22.2590   47.9870 C   0  0  0  0  0
   10.1850   21.9820   48.8350 C   0  0  0  0  0
   10.2560   20.8420   49.6640 N   0  0  0  0  0
   10.2230   19.5310   49.3420 C   0  0  0  0  0
   10.3510   18.8550   50.4580 N   0  0  0  0  0
   10.4790   19.6420   51.4640 N   0  0  0  0  0
   10.4160   20.8630   51.0630 N   0  0  0  0  0
   -2.3739   19.2160   46.7496 H   0  0  0  0  0
   -1.8236   20.3517   48.0060 H   0  0  0  0  0
   -2.9498   20.9011   46.7408 H   0  0  0  0  0
    1.0537   21.1161   44.6565 H   0  0  0  0  0
    3.2180   19.9736   44.7247 H   0  0  0  0  0
    1.7722   17.4365   47.8598 H   0  0  0  0  0
   -0.3998   18.6124   47.8071 H   0  0  0  0  0
    4.8097   17.2937   48.5711 H   0  0  0  0  0
    4.2967   20.0809   48.0725 H   0  0  0  0  0
    5.9498   19.7068   47.5102 H   0  0  0  0  0
    4.8516   19.1811   50.2954 H   0  0  0  0  0
    7.1442   18.6964   50.6458 H   0  0  0  0  0
    6.4574   20.8793   51.0484 H   0  0  0  0  0
    4.4896   21.8993   48.9805 H   0  0  0  0  0
    5.2218   22.8585   50.3293 H   0  0  0  0  0
    2.3482   21.1930   49.3242 H   0  0  0  0  0
    0.5368   20.4678   50.8364 H   0  0  0  0  0
    0.9264   20.3405   53.2742 H   0  0  0  0  0
    3.1636   20.8791   54.1986 H   0  0  0  0  0
    4.9863   21.6025   52.6796 H   0  0  0  0  0
    6.7033   21.7897   48.2812 H   0  0  0  0  0
    7.7772   20.6640   48.9182 H   0  0  0  0  0
    8.2496   22.2376   50.7794 H   0  0  0  0  0
    7.2861   23.4254   49.9062 H   0  0  0  0  0
    8.2131   24.6611   48.1252 H   0  0  0  0  0
   12.0608   23.6189   46.5356 H   0  0  0  0  0
   12.1034   21.5824   47.9413 H   0  0  0  0  0
   10.1109   19.1131   48.3416 H   0  0  0  0  0
  1  2  1  0  0  0
  2  3  1  0  0  0
  3  4  4  0  0  0
  3  8  4  0  0  0
  4  5  4  0  0  0
  5  6  4  0  0  0
  6  7  4  0  0  0
  6  9  1  0  0  0
  7  8  4  0  0  0
  9 10  2  0  0  0
  9 11  2  0  0  0
  9 12  1  0  0  0
 12 13  1  0  0  0
 13 14  1  0  0  0
 14 15  1  0  0  0
 14 16  1  0  0  0
 16 17  1  0  0  0
 16 24  1  0  0  0
 17 18  1  0  0  0
 18 19  4  0  0  0
 18 23  4  0  0  0
 19 20  4  0  0  0
 20 21  4  0  0  0
 21 22  4  0  0  0
 22 23  4  0  0  0
 24 25  1  0  0  0
 25 26  1  0  0  0
 26 27  4  0  0  0
 26 32  4  0  0  0
 27 28  4  0  0  0
 28 29  1  0  0  0
 28 30  4  0  0  0
 30 31  4  0  0  0
 31 32  4  0  0  0
 32 33  1  0  0  0
 33 34  4  0  0  0
 33 37  4  0  0  0
 34 35  4  0  0  0
 35 36  4  0  0  0
 36 37  4  0  0  0
  1 38  1  0  0  0
  1 39  1  0  0  0
  1 40  1  0  0  0
  4 41  1  0  0  0
  5 42  1  0  0  0
  7 43  1  0  0  0
  8 44  1  0  0  0
 12 45  1  0  0  0
 13 46  1  0  0  0
 13 47  1  0  0  0
 14 48  1  0  0  0
 15 49  1  0  0  0
 16 50  1  0  0  0
 17 51  1  0  0  0
 17 52  1  0  0  0
 19 53  1  0  0  0
 20 54  1  0  0  0
 21 55  1  0  0  0
 22 56  1  0  0  0
 23 57  1  0  0  0
 24 58  1  0  0  0
 24 59  1  0  0  0
 25 60  1  0  0  0
 25 61  1  0  0  0
 27 62  1  0  0  0
 30 63  1  0  0  0
 31 64  1  0  0  0
 34 65  1  0  0  0
M  END
$$$$
