6kdx_ligand
  -I-interpret- 

 42 45  0  0  0  0  0  0  0  0999 V2000
   26.4380    4.8870   54.7100 C   0  0  0  0  0
   26.4620    4.3560   55.9900 C   0  0  0  0  0
   25.2510    5.3490   54.1770 C   0  0  0  0  0
   22.8960    5.7510   54.3650 C   0  0  0  0  0
   25.2910    4.3040   56.7300 C   0  0  0  0  0
   21.7390    5.6890   55.1110 C   0  0  0  0  0
   24.0770    5.2910   54.9300 C   0  0  0  0  0
   24.0790    4.7720   56.2210 C   0  0  0  0  0
   21.8160    5.1510   56.3850 C   0  0  0  0  0
   18.6960    3.3110   59.4710 C   0  0  0  0  0
   18.4340    2.9580   61.5130 C   0  0  0  0  0
   16.3150    1.5790   62.7210 C   0  0  0  0  0
   16.3620    1.7350   61.4000 C   0  0  0  0  0
   17.4650    2.1970   63.4030 C   0  0  0  0  0
   15.3040    1.1970   60.4860 C   0  0  0  0  0
   17.4980    2.0600   64.8760 C   0  0  0  0  0
   19.2090    3.7530   58.1840 C   0  0  0  0  0
   20.6030    4.2950   58.2200 C   0  0  0  0  0
   22.9580    4.6900   56.9550 N   0  0  0  0  0
   19.2760    3.5580   60.6950 N   0  0  0  0  0
   17.5660    2.6100   59.4870 N   0  0  0  0  0
   18.4580    2.8450   62.8700 N   0  0  0  0  0
   17.4110    2.3890   60.8100 N   0  0  0  0  0
   20.5950    5.1340   57.0500 N   0  0  0  0  0
   27.3558    4.9399   54.1244 H   0  0  0  0  0
   27.3949    3.9820   56.4117 H   0  0  0  0  0
   25.2306    5.7594   53.1674 H   0  0  0  0  0
   22.8837    6.1531   53.3520 H   0  0  0  0  0
   25.3177    3.8863   57.7365 H   0  0  0  0  0
   20.7924    6.0522   54.7108 H   0  0  0  0  0
   15.5144    1.0524   63.2404 H   0  0  0  0  0
   15.2469    0.1141   60.5961 H   0  0  0  0  0
   14.3426    1.6409   60.7442 H   0  0  0  0  0
   15.5554    1.4459   59.4550 H   0  0  0  0  0
   16.6084    2.5232   65.3027 H   0  0  0  0  0
   17.5214    1.0029   65.1409 H   0  0  0  0  0
   18.3885    2.5533   65.2656 H   0  0  0  0  0
   18.5623    4.5625   57.8455 H   0  0  0  0  0
   19.2246    2.8799   57.5316 H   0  0  0  0  0
   21.3774    3.5280   58.2103 H   0  0  0  0  0
   20.8503    4.8217   59.1417 H   0  0  0  0  0
   19.7783    5.6612   56.7410 H   0  0  0  0  0
  2  1  4  0  0  0
  3  1  4  0  0  0
  5  2  4  0  0  0
  7  3  4  0  0  0
  6  4  4  0  0  0
  4  7  4  0  0  0
  8  5  4  0  0  0
  9  6  4  0  0  0
  8  7  4  0  0  0
 19  8  4  0  0  0
  9 19  4  0  0  0
 24  9  1  0  0  0
 17 10  1  0  0  0
 10 20  4  0  0  0
 10 21  4  0  0  0
 20 11  4  0  0  0
 11 22  4  0  0  0
 11 23  4  0  0  0
 13 12  4  0  0  0
 14 12  4  0  0  0
 13 15  1  0  0  0
 23 13  4  0  0  0
 14 16  1  0  0  0
 22 14  4  0  0  0
 18 17  1  0  0  0
 18 24  1  0  0  0
 21 23  4  0  0  0
  1 25  1  0  0  0
  2 26  1  0  0  0
  3 27  1  0  0  0
  4 28  1  0  0  0
  5 29  1  0  0  0
  6 30  1  0  0  0
 12 31  1  0  0  0
 15 32  1  0  0  0
 15 33  1  0  0  0
 15 34  1  0  0  0
 16 35  1  0  0  0
 16 36  1  0  0  0
 16 37  1  0  0  0
 17 38  1  0  0  0
 17 39  1  0  0  0
 18 40  1  0  0  0
 18 41  1  0  0  0
 24 42  1  0  0  0
M  END
$$$$
