3g72_ligand
  -I-interpret- 

 77 82  0  0  0  0  0  0  0  0999 V2000
    7.1870    5.3190    6.1650 C   0  0  0  0  0
   -2.2450    5.1660    3.8450 Cl  0  0  0  0  0
   -0.5760    5.3190    4.4240 C   0  0  0  0  0
    0.4240    5.2500    3.5040 C   0  0  0  0  0
    0.0580    4.9520    1.7810 Cl  0  0  0  0  0
   -0.3130    5.5370    5.7700 C   0  0  0  0  0
    1.0020    5.6510    6.1710 C   0  0  0  0  0
    2.0240    5.5680    5.2260 C   0  0  0  0  0
    1.7380    5.3490    3.8920 C   0  0  0  0  0
    2.7880    5.2340    2.7950 C   0  0  0  0  0
    4.1940    5.4940    3.0970 N   0  0  0  0  0
    4.6970    6.8420    2.6580 C   0  0  0  0  0
    3.8720    7.9590    3.2880 C   0  0  0  0  0
    5.2810    7.7450    3.7780 C   0  0  0  0  0
    4.9270    4.4760    3.6020 C   0  0  0  0  0
    4.4040    3.3870    3.8660 O   0  0  0  0  0
    6.3590    4.5190    3.8640 C   0  0  0  0  0
    6.8610    4.1420    5.2340 C   0  0  0  0  0
    8.0500    3.3150    4.9840 N   0  3  0  0  0
    9.1450    4.0800    4.3840 C   0  0  0  0  0
    8.7390    4.7210    3.0550 C   0  0  0  0  0
    8.4300    6.0140    5.7820 N   0  3  0  0  0
    9.5370    5.1810    5.3580 C   0  0  0  0  0
    7.2200    4.7560    2.8530 C   0  0  0  0  0
    6.8530    5.0520    1.4300 C   0  0  0  0  0
    6.0080    4.1720    0.7560 C   0  0  0  0  0
    5.6890    4.3660   -0.5790 C   0  0  0  0  0
    7.4330    6.1390    0.7380 C   0  0  0  0  0
    7.1170    6.3420   -0.6110 C   0  0  0  0  0
    6.2600    5.4380   -1.2760 C   0  0  0  0  0
    5.9110    5.6080   -2.7100 C   0  0  0  0  0
    5.2370    6.6920   -3.0800 C   0  0  0  0  0
    3.7780    6.6370   -2.7460 C   0  0  0  0  0
    3.1840    7.8770   -3.1070 O   0  0  0  0  0
    1.8410    7.8440   -2.8070 C   0  0  0  0  0
    1.3630    7.6550   -1.5140 C   0  0  0  0  0
    2.2120    7.4620   -0.4910 F   0  0  0  0  0
    0.9550    8.0440   -3.8350 C   0  0  0  0  0
    1.6670    8.3270   -5.4690 Cl  0  0  0  0  0
   -0.4080    8.0150   -3.5690 C   0  0  0  0  0
   -1.3030    8.2060   -4.5420 F   0  0  0  0  0
   -0.8930    7.8210   -2.2900 C   0  0  0  0  0
    0.0020    7.6480   -1.2600 C   0  0  0  0  0
    7.3189    4.9245    7.1725 H   0  0  0  0  0
    6.3678    6.0352    6.1014 H   0  0  0  0  0
   -1.1257    5.6161    6.4920 H   0  0  0  0  0
    1.2414    5.8055    7.2231 H   0  0  0  0  0
    3.0610    5.6772    5.5434 H   0  0  0  0  0
    2.5166    6.0076    2.0767 H   0  0  0  0  0
    2.7622    4.1842    2.5029 H   0  0  0  0  0
    5.0441    6.5514    1.6664 H   0  0  0  0  0
    2.8792    8.0789    3.7218 H   0  0  0  0  0
    3.2559    8.7923    2.9502 H   0  0  0  0  0
    6.1788    8.3316    3.9730 H   0  0  0  0  0
    5.8123    7.6375    4.7237 H   0  0  0  0  0
    6.0718    3.6214    5.7764 H   0  0  0  0  0
    7.7885    2.5744    4.3333 H   0  0  0  0  0
    8.3740    2.9488    5.8792 H   0  0  0  0  0
    9.9733    3.4000    4.1850 H   0  0  0  0  0
    9.1693    4.1241    2.2509 H   0  0  0  0  0
    9.0997    5.7496    3.0562 H   0  0  0  0  0
    8.7493    6.5007    6.6196 H   0  0  0  0  0
    8.1911    6.5944    4.9780 H   0  0  0  0  0
   10.2502    5.8269    4.8460 H   0  0  0  0  0
    9.9375    4.6972    6.2489 H   0  0  0  0  0
    5.5909    3.3167    1.2877 H   0  0  0  0  0
    4.9988    3.6891   -1.0825 H   0  0  0  0  0
    8.1200    6.8132    1.2495 H   0  0  0  0  0
    7.5317    7.1960   -1.1466 H   0  0  0  0  0
    5.2510    4.7720   -2.9414 H   0  0  0  0  0
    6.8678    5.6797   -3.2273 H   0  0  0  0  0
    5.3204    6.7735   -4.1637 H   0  0  0  0  0
    5.6626    7.5396   -2.5428 H   0  0  0  0  0
    3.6477    6.4595   -1.6785 H   0  0  0  0  0
    3.3019    5.8236   -3.2937 H   0  0  0  0  0
   -1.9663    7.8053   -2.1004 H   0  0  0  0  0
   -0.3608    7.5052   -0.2421 H   0  0  0  0  0
 18  1  1  0  0  0
  1 22  1  0  0  0
  3  2  1  0  0  0
  4  3  4  0  0  0
  3  6  4  0  0  0
  4  5  1  0  0  0
  9  4  4  0  0  0
  7  6  4  0  0  0
  8  7  4  0  0  0
  9  8  4  0  0  0
 10  9  1  0  0  0
 11 10  1  0  0  0
 11 12  1  0  0  0
 15 11  1  0  0  0
 12 13  1  0  0  0
 12 14  1  0  0  0
 14 13  1  0  0  0
 15 16  2  0  0  0
 17 15  1  0  0  0
 17 18  1  0  0  0
 17 24  2  0  0  0
 18 19  1  0  0  0
 19 20  1  0  0  0
 20 21  1  0  0  0
 20 23  1  0  0  0
 21 24  1  0  0  0
 22 23  1  0  0  0
 24 25  1  0  0  0
 25 26  4  0  0  0
 25 28  4  0  0  0
 26 27  4  0  0  0
 27 30  4  0  0  0
 28 29  4  0  0  0
 29 30  4  0  0  0
 30 31  1  0  0  0
 31 32  1  0  0  0
 32 33  1  0  0  0
 33 34  1  0  0  0
 34 35  1  0  0  0
 35 36  4  0  0  0
 35 38  4  0  0  0
 36 37  1  0  0  0
 36 43  4  0  0  0
 38 39  1  0  0  0
 38 40  4  0  0  0
 40 41  1  0  0  0
 40 42  4  0  0  0
 42 43  4  0  0  0
  1 44  1  0  0  0
  1 45  1  0  0  0
  6 46  1  0  0  0
  7 47  1  0  0  0
  8 48  1  0  0  0
 10 49  1  0  0  0
 10 50  1  0  0  0
 12 51  1  0  0  0
 13 52  1  0  0  0
 13 53  1  0  0  0
 14 54  1  0  0  0
 14 55  1  0  0  0
 18 56  1  0  0  0
 19 57  1  0  0  0
 19 58  1  0  0  0
 20 59  1  0  0  0
 21 60  1  0  0  0
 21 61  1  0  0  0
 22 62  1  0  0  0
 22 63  1  0  0  0
 23 64  1  0  0  0
 23 65  1  0  0  0
 26 66  1  0  0  0
 27 67  1  0  0  0
 28 68  1  0  0  0
 29 69  1  0  0  0
 31 70  1  0  0  0
 31 71  1  0  0  0
 32 72  1  0  0  0
 32 73  1  0  0  0
 33 74  1  0  0  0
 33 75  1  0  0  0
 42 76  1  0  0  0
 43 77  1  0  0  0
M  END
$$$$
