### 
### Created by X-TOOL on Mon Sep 10 21:12:45 2018
### 

@<TRIPOS>MOLECULE
1lhg_ligand
   62    63     1     0     0
SMALL
GAST_HUCK


@<TRIPOS>ATOM
      1 B1         14.8880  -10.4790   18.7170 B         1 DI5         0.7164
      2 C          14.6200  -11.4890   19.9120 C.3       1 DI5         0.0534
      3 C2         13.6290  -10.7770   20.8570 C.3       1 DI5        -0.0340
      4 C3         13.2030  -11.4530   22.1520 C.3       1 DI5        -0.0117
      5 C4         12.2630  -12.6450   21.9840 C.3       1 DI5        -0.0354
      6 C6         16.5330  -12.9830   20.6010 C.2       1 DI5         0.2010
      7 C5         17.9160  -13.0830   21.3250 C.3       1 DI5         0.1336
      8 C7         19.0650  -12.9950   20.2910 C.3       1 DI5        -0.0104
      9 C8         19.7670  -14.3580   20.2560 C.3       1 DI5        -0.0281
     10 C9         19.3660  -15.0820   21.5340 C.3       1 DI5         0.0369
     11 C10        17.3930  -14.8080   23.0500 C.2       1 DI5         0.2085
     12 C11        18.3180  -15.8480   25.2350 C.3       1 DI5         0.0214
     13 C12        17.6650  -16.1640   23.8280 C.3       1 DI5         0.1406
     14 C13        15.8550  -17.7690   23.2010 C.2       1 DI5         0.1752
     15 C14        14.4490  -18.3140   23.4510 C.3       1 DI5         0.0258
     16 C15        22.1240  -15.6250   24.5470 C.ar      1 DI5        -0.0686
     17 C16        22.4880  -14.5720   25.3720 C.ar      1 DI5        -0.0687
     18 C17        21.5220  -13.9200   26.1550 C.ar      1 DI5        -0.0686
     19 C18        20.1890  -14.3230   26.0870 C.ar      1 DI5        -0.0601
     20 C19        19.8020  -15.3890   25.2570 C.ar      1 DI5        -0.0386
     21 C20        20.7960  -16.0430   24.4940 C.ar      1 DI5        -0.0601
     22 N          15.9100  -11.7920   20.6190 N.am      1 DI5        -0.2918
     23 N1         11.2060  -12.5960   23.0310 N.4       1 DI5         0.2185
     24 N2         18.1880  -14.3690   22.0470 N.am      1 DI5        -0.2497
     25 N3         16.3270  -16.7940   24.0120 N.am      1 DI5        -0.2640
     26 O          13.6950  -10.2820   17.9260 O.3       1 DI5        -0.4967
     27 O1         15.9160  -10.9090   17.8120 O.3       1 DI5        -0.4967
     28 O2         16.0630  -13.9780   20.0480 O.2       1 DI5        -0.3946
     29 O3         16.4230  -14.1440   23.4190 O.2       1 DI5        -0.3940
     30 O4         16.5180  -18.2580   22.2730 O.2       1 DI5        -0.3972
     31 H1         14.1803  -12.4238   19.5341 H         1 DI5         0.0431
     32 H2         12.7125  -10.5921   20.2774 H         1 DI5         0.0277
     33 H3         14.0873   -9.8164   21.1346 H         1 DI5         0.0277
     34 H4         12.6941  -10.7035   22.7759 H         1 DI5         0.0317
     35 H5         14.1094  -11.8042   22.6668 H         1 DI5         0.0317
     36 H6         12.8346  -13.5795   22.0838 H         1 DI5         0.0813
     37 H7         11.7954  -12.6057   20.9891 H         1 DI5         0.0813
     38 H8         17.9823  -12.2496   22.0398 H         1 DI5         0.0802
     39 H9         19.7791  -12.2136   20.5901 H         1 DI5         0.0313
     40 H10        18.6572  -12.7582   19.2972 H         1 DI5         0.0313
     41 H11        20.8581  -14.2230   20.2218 H         1 DI5         0.0287
     42 H12        19.4407  -14.9314   19.3758 H         1 DI5         0.0287
     43 H13        20.1849  -15.0457   22.2676 H         1 DI5         0.0524
     44 H14        19.1143  -16.1306   21.3170 H         1 DI5         0.0524
     45 H15        18.2483  -16.7626   25.8421 H         1 DI5         0.0474
     46 H16        17.7210  -15.0511   25.7025 H         1 DI5         0.0474
     47 H17        18.3280  -16.8219   23.2470 H         1 DI5         0.0823
     48 H18        14.2211  -19.0942   22.7098 H         1 DI5         0.0467
     49 H19        13.7177  -17.4973   23.3604 H         1 DI5         0.0467
     50 H20        14.3964  -18.7428   24.4626 H         1 DI5         0.0467
     51 H21        22.8732  -16.1235   23.9427 H         1 DI5         0.0599
     52 H22        23.5225  -14.2508   25.4127 H         1 DI5         0.0559
     53 H23        21.8115  -13.1062   26.8100 H         1 DI5         0.0599
     54 H24        19.4426  -13.8082   26.6811 H         1 DI5         0.0557
     55 H25        20.5220  -16.8790   23.8606 H         1 DI5         0.0557
     56 H26        16.3367  -11.0537   21.1414 H         1 DI5         0.1840
     57 H27        10.5860  -13.3829   22.9196 H         1 DI5         0.1994
     58 H28        10.6819  -11.7398   22.9396 H         1 DI5         0.1994
     59 H29        11.6342  -12.6322   23.9428 H         1 DI5         0.1994
     60 H30        15.7523  -16.4823   24.7687 H         1 DI5         0.1884
     61 H31        13.8610   -9.6215   17.2637 H         1 DI5         0.1667
     62 H32        16.0544  -10.2407   17.1511 H         1 DI5         0.1667
@<TRIPOS>BOND
     1    2    1 1  
     2    1   26 1  
     3    1   27 1  
     4    2    3 1  
     5   22    2 1  
     6    3    4 1  
     7    4    5 1  
     8    5   23 1  
     9    7    6 1  
    10    6   22 am 
    11    6   28 2  
    12    7    8 1  
    13   24    7 1  
    14    9    8 1  
    15   10    9 1  
    16   24   10 1  
    17   13   11 1  
    18   11   24 am 
    19   11   29 2  
    20   12   13 1  
    21   20   12 1  
    22   13   25 1  
    23   14   15 1  
    24   25   14 am 
    25   14   30 2  
    26   17   16 ar 
    27   16   21 ar 
    28   18   17 ar 
    29   19   18 ar 
    30   19   20 ar 
    31   20   21 ar 
    32    2   31 1  
    33    3   32 1  
    34    3   33 1  
    35    4   34 1  
    36    4   35 1  
    37    5   36 1  
    38    5   37 1  
    39    7   38 1  
    40    8   39 1  
    41    8   40 1  
    42    9   41 1  
    43    9   42 1  
    44   10   43 1  
    45   10   44 1  
    46   12   45 1  
    47   12   46 1  
    48   13   47 1  
    49   15   48 1  
    50   15   49 1  
    51   15   50 1  
    52   16   51 1  
    53   17   52 1  
    54   18   53 1  
    55   19   54 1  
    56   21   55 1  
    57   22   56 1  
    58   23   57 1  
    59   23   58 1  
    60   23   59 1  
    61   25   60 1  
    62   26   61 1  
    63   27   62 1  
@<TRIPOS>SUBSTRUCTURE
     1 DI5         1

