1lhg_ligand
  -I-interpret- 

 62 63  0  0  0  0  0  0  0  0999 V2000
   14.8880  -10.4790   18.7170 B   0  0  0  0  0
   14.6200  -11.4890   19.9120 C   0  0  0  0  0
   13.6290  -10.7770   20.8570 C   0  0  0  0  0
   13.2030  -11.4530   22.1520 C   0  0  0  0  0
   12.2630  -12.6450   21.9840 C   0  0  0  0  0
   16.5330  -12.9830   20.6010 C   0  0  0  0  0
   17.9160  -13.0830   21.3250 C   0  0  0  0  0
   19.0650  -12.9950   20.2910 C   0  0  0  0  0
   19.7670  -14.3580   20.2560 C   0  0  0  0  0
   19.3660  -15.0820   21.5340 C   0  0  0  0  0
   17.3930  -14.8080   23.0500 C   0  0  0  0  0
   18.3180  -15.8480   25.2350 C   0  0  0  0  0
   17.6650  -16.1640   23.8280 C   0  0  0  0  0
   15.8550  -17.7690   23.2010 C   0  0  0  0  0
   14.4490  -18.3140   23.4510 C   0  0  0  0  0
   22.1240  -15.6250   24.5470 C   0  0  0  0  0
   22.4880  -14.5720   25.3720 C   0  0  0  0  0
   21.5220  -13.9200   26.1550 C   0  0  0  0  0
   20.1890  -14.3230   26.0870 C   0  0  0  0  0
   19.8020  -15.3890   25.2570 C   0  0  0  0  0
   20.7960  -16.0430   24.4940 C   0  0  0  0  0
   15.9100  -11.7920   20.6190 N   0  0  0  0  0
   11.2060  -12.5960   23.0310 N   0  3  0  0  0
   18.1880  -14.3690   22.0470 N   0  0  0  0  0
   16.3270  -16.7940   24.0120 N   0  0  0  0  0
   13.6950  -10.2820   17.9260 O   0  0  0  0  0
   15.9160  -10.9090   17.8120 O   0  0  0  0  0
   16.0630  -13.9780   20.0480 O   0  0  0  0  0
   16.4230  -14.1440   23.4190 O   0  0  0  0  0
   16.5180  -18.2580   22.2730 O   0  0  0  0  0
   14.2118  -12.4373   19.5624 H   0  0  0  0  0
   12.7102  -10.6906   20.2770 H   0  0  0  0  0
   14.1531   -9.8763   21.1767 H   0  0  0  0  0
   12.6608  -10.7059   22.7316 H   0  0  0  0  0
   14.1109  -11.8337   22.6199 H   0  0  0  0  0
   12.8296  -13.5709   22.0832 H   0  0  0  0  0
   11.7996  -12.6057   20.9982 H   0  0  0  0  0
   17.8723  -12.2659   22.0451 H   0  0  0  0  0
   19.7697  -12.2128   20.5731 H   0  0  0  0  0
   18.6702  -12.7465   19.3059 H   0  0  0  0  0
   20.8489  -14.2390   20.1973 H   0  0  0  0  0
   19.4711  -14.9275   19.3749 H   0  0  0  0  0
   20.1778  -15.0803   22.2614 H   0  0  0  0  0
   19.1410  -16.1309   21.3409 H   0  0  0  0  0
   18.2961  -16.7893   25.7842 H   0  0  0  0  0
   17.7483  -15.0112   25.6391 H   0  0  0  0  0
   18.3467  -16.8195   23.2861 H   0  0  0  0  0
   13.8391  -18.1646   22.5601 H   0  0  0  0  0
   14.5084  -19.3785   23.6779 H   0  0  0  0  0
   14.0005  -17.7862   24.2927 H   0  0  0  0  0
   22.8774  -16.1263   23.9393 H   0  0  0  0  0
   23.5282  -14.2490   25.4129 H   0  0  0  0  0
   21.8131  -13.1017   26.8136 H   0  0  0  0  0
   19.4385  -13.8054   26.6844 H   0  0  0  0  0
   20.5205  -16.8836   23.8571 H   0  0  0  0  0
   16.3452  -11.0389   21.1518 H   0  0  0  0  0
   10.5793  -13.3927   22.9173 H   0  0  0  0  0
   11.6405  -12.6326   23.9531 H   0  0  0  0  0
   10.6765  -11.7292   22.9375 H   0  0  0  0  0
   15.7408  -16.4760   24.7838 H   0  0  0  0  0
   12.9788   -9.9924   18.4959 H   0  0  0  0  0
   16.7305  -11.0521   18.2995 H   0  0  0  0  0
  2  1  1  0  0  0
  1 26  1  0  0  0
  1 27  1  0  0  0
  2  3  1  0  0  0
 22  2  1  0  0  0
  3  4  1  0  0  0
  4  5  1  0  0  0
  5 23  1  0  0  0
  7  6  1  0  0  0
  6 22  1  0  0  0
  6 28  2  0  0  0
  7  8  1  0  0  0
 24  7  1  0  0  0
  9  8  1  0  0  0
 10  9  1  0  0  0
 24 10  1  0  0  0
 13 11  1  0  0  0
 11 24  1  0  0  0
 11 29  2  0  0  0
 12 13  1  0  0  0
 20 12  1  0  0  0
 13 25  1  0  0  0
 14 15  1  0  0  0
 25 14  1  0  0  0
 14 30  2  0  0  0
 17 16  4  0  0  0
 16 21  4  0  0  0
 18 17  4  0  0  0
 19 18  4  0  0  0
 19 20  4  0  0  0
 20 21  4  0  0  0
  2 31  1  0  0  0
  3 32  1  0  0  0
  3 33  1  0  0  0
  4 34  1  0  0  0
  4 35  1  0  0  0
  5 36  1  0  0  0
  5 37  1  0  0  0
  7 38  1  0  0  0
  8 39  1  0  0  0
  8 40  1  0  0  0
  9 41  1  0  0  0
  9 42  1  0  0  0
 10 43  1  0  0  0
 10 44  1  0  0  0
 12 45  1  0  0  0
 12 46  1  0  0  0
 13 47  1  0  0  0
 15 48  1  0  0  0
 15 49  1  0  0  0
 15 50  1  0  0  0
 16 51  1  0  0  0
 17 52  1  0  0  0
 18 53  1  0  0  0
 19 54  1  0  0  0
 21 55  1  0  0  0
 22 56  1  0  0  0
 23 57  1  0  0  0
 23 58  1  0  0  0
 23 59  1  0  0  0
 25 60  1  0  0  0
 26 61  1  0  0  0
 27 62  1  0  0  0
M  END
$$$$
