5kdf_ligand
  -I-interpret- 

 43 45  0  0  0  0  0  0  0  0999 V2000
   34.6290   15.9930   25.0610 C   0  0  0  0  0
   32.3080   15.3460   25.8060 C   0  0  0  0  0
   30.5760   14.9200   24.1980 C   0  0  0  0  0
   30.0580   14.8470   22.7840 C   0  0  0  0  0
   28.9110   14.1850   22.3460 C   0  0  0  0  0
   28.7980   14.3660   20.9710 C   0  0  0  0  0
   29.8710   15.1360   20.5570 C   0  0  0  0  0
   31.6920   16.1060   21.7120 C   0  0  0  0  0
   32.9430   15.5740   21.3600 C   0  0  0  0  0
   34.1120   16.3310   21.4470 C   0  0  0  0  0
   34.0670   17.6510   21.9070 C   0  0  0  0  0
   32.8460   18.2050   22.2800 C   0  0  0  0  0
   29.7230   13.8850   28.8180 C   0  0  0  0  0
   29.2540   14.2780   27.4930 N   0  0  0  0  0
   27.8220   14.2650   27.1940 C   0  0  0  0  0
   30.1600   14.6410   26.4900 C   0  0  0  0  0
   31.4320   15.0160   26.7920 N   0  0  0  0  0
   33.6400   15.7470   26.1120 N   0  0  0  0  0
   34.1010   15.9520   27.4870 C   0  0  0  0  0
   29.7400   14.5940   25.2010 N   0  0  0  0  0
   31.8550   15.2910   24.5160 N   0  0  0  0  0
   30.5650   15.3830   21.6670 N   0  0  0  0  0
   31.6860   17.4330   22.1850 C   0  0  0  0  0
   34.9669   17.0278   25.1169 H   0  0  0  0  0
   35.4784   15.3241   25.1994 H   0  0  0  0  0
   34.1754   15.8097   24.0870 H   0  0  0  0  0
   28.2207   13.6218   22.9740 H   0  0  0  0  0
   28.0062   13.9719   20.3340 H   0  0  0  0  0
   30.0985   15.4678   19.5440 H   0  0  0  0  0
   33.0024   14.5435   21.0099 H   0  0  0  0  0
   35.0655   15.8911   21.1548 H   0  0  0  0  0
   34.9810   18.2412   21.9729 H   0  0  0  0  0
   32.7955   19.2316   22.6428 H   0  0  0  0  0
   29.2892   14.5476   29.5669 H   0  0  0  0  0
   29.4188   12.8580   29.0199 H   0  0  0  0  0
   30.8101   13.9569   28.8534 H   0  0  0  0  0
   27.4341   13.2547   27.3243 H   0  0  0  0  0
   27.3045   14.9444   27.8713 H   0  0  0  0  0
   27.6642   14.5862   26.1644 H   0  0  0  0  0
   33.5014   16.7312   27.9575 H   0  0  0  0  0
   33.9953   15.0226   28.0467 H   0  0  0  0  0
   35.1482   16.2542   27.4765 H   0  0  0  0  0
   30.7373   17.8753   22.4892 H   0  0  0  0  0
 18  1  1  0  0  0
 17  2  4  0  0  0
  2 18  1  0  0  0
  2 21  4  0  0  0
  3  4  1  0  0  0
  3 20  4  0  0  0
 21  3  4  0  0  0
  4  5  4  0  0  0
  4 22  4  0  0  0
  5  6  4  0  0  0
  7  6  4  0  0  0
 22  7  4  0  0  0
  8  9  4  0  0  0
 22  8  1  0  0  0
  8 23  4  0  0  0
  9 10  4  0  0  0
 10 11  4  0  0  0
 12 11  4  0  0  0
 23 12  4  0  0  0
 14 13  1  0  0  0
 14 15  1  0  0  0
 16 14  1  0  0  0
 16 17  4  0  0  0
 16 20  4  0  0  0
 18 19  1  0  0  0
  1 24  1  0  0  0
  1 25  1  0  0  0
  1 26  1  0  0  0
  5 27  1  0  0  0
  6 28  1  0  0  0
  7 29  1  0  0  0
  9 30  1  0  0  0
 10 31  1  0  0  0
 11 32  1  0  0  0
 12 33  1  0  0  0
 13 34  1  0  0  0
 13 35  1  0  0  0
 13 36  1  0  0  0
 15 37  1  0  0  0
 15 38  1  0  0  0
 15 39  1  0  0  0
 19 40  1  0  0  0
 19 41  1  0  0  0
 19 42  1  0  0  0
 23 43  1  0  0  0
M  END
$$$$
