4xoc_ligand
  -I-interpret- 

 45 45  0  0  0  0  0  0  0  0999 V2000
  -55.3110   -5.1020    5.3370 O   0  0  0  0  0
  -56.0580   -3.8860    5.3880 C   0  0  0  0  0
  -57.0020   -3.7830    4.1990 C   0  0  0  0  0
  -58.2710    2.3140    2.8620 C   0  0  0  0  0
  -56.1470   -3.6990    3.0820 O   0  0  0  0  0
  -57.9830   -4.9620    4.0850 C   0  0  0  0  0
  -58.9010   -4.9480    5.1500 O   0  0  0  0  0
  -58.7650   -4.8270    2.7540 C   0  0  0  0  0
  -59.5830   -5.9650    2.5750 O   0  0  0  0  0
  -57.7780   -4.6990    1.6060 C   0  0  0  0  0
  -56.9920   -5.8590    1.4490 O   0  0  0  0  0
  -56.8200   -3.5440    1.8500 C   0  0  0  0  0
  -57.6260   -2.3800    1.8270 O   0  0  0  0  0
  -56.8770   -1.1620    1.9940 C   0  0  0  0  0
  -57.8220    0.0320    2.0090 C   0  0  0  0  0
  -57.1790    1.2680    2.6560 C   0  0  0  0  0
  -58.9020    5.4790    4.9000 C   0  0  0  0  0
  -59.0270    4.4060    3.8320 C   0  0  0  0  0
  -58.0010    3.2840    3.9910 C   0  0  0  0  0
  -54.7229   -5.1470    6.0945 H   0  0  0  0  0
  -55.3645   -3.0455    5.3606 H   0  0  0  0  0
  -56.6455   -3.8721    6.3060 H   0  0  0  0  0
  -57.6594   -2.9188    4.2943 H   0  0  0  0  0
  -59.1856    1.7769    3.1132 H   0  0  0  0  0
  -58.3309    2.8993    1.9444 H   0  0  0  0  0
  -57.4212   -5.8956    4.1146 H   0  0  0  0  0
  -58.4270   -5.0311    5.9807 H   0  0  0  0  0
  -59.3969   -3.9392    2.7796 H   0  0  0  0  0
  -60.2004   -6.0323    3.3071 H   0  0  0  0  0
  -58.3769   -4.5351    0.7101 H   0  0  0  0  0
  -56.3846   -5.7358    0.7159 H   0  0  0  0  0
  -56.0355   -3.4925    1.0951 H   0  0  0  0  0
  -56.1767   -1.0550    1.1656 H   0  0  0  0  0
  -56.3337   -1.2015    2.9381 H   0  0  0  0  0
  -58.7026   -0.2381    2.5918 H   0  0  0  0  0
  -58.0740    0.2797    0.9779 H   0  0  0  0  0
  -56.7278    1.0012    3.6117 H   0  0  0  0  0
  -56.3940    1.6647    2.0123 H   0  0  0  0  0
  -59.0496    5.0308    5.8826 H   0  0  0  0  0
  -57.9096    5.9268    4.8489 H   0  0  0  0  0
  -59.6575    6.2466    4.7322 H   0  0  0  0  0
  -58.8559    4.8783    2.8647 H   0  0  0  0  0
  -60.0194    3.9638    3.9196 H   0  0  0  0  0
  -56.9824    3.6695    3.9469 H   0  0  0  0  0
  -58.0935    2.7974    4.9619 H   0  0  0  0  0
  2  1  1  0  0  0
  3  2  1  0  0  0
  5  3  1  0  0  0
  3  6  1  0  0  0
  4 16  1  0  0  0
 19  4  1  0  0  0
 12  5  1  0  0  0
  6  7  1  0  0  0
  8  6  1  0  0  0
  8  9  1  0  0  0
 10  8  1  0  0  0
 10 11  1  0  0  0
 12 10  1  0  0  0
 13 12  1  0  0  0
 14 13  1  0  0  0
 15 14  1  0  0  0
 16 15  1  0  0  0
 18 17  1  0  0  0
 18 19  1  0  0  0
  1 20  1  0  0  0
  2 21  1  0  0  0
  2 22  1  0  0  0
  3 23  1  0  0  0
  4 24  1  0  0  0
  4 25  1  0  0  0
  6 26  1  0  0  0
  7 27  1  0  0  0
  8 28  1  0  0  0
  9 29  1  0  0  0
 10 30  1  0  0  0
 11 31  1  0  0  0
 12 32  1  0  0  0
 14 33  1  0  0  0
 14 34  1  0  0  0
 15 35  1  0  0  0
 15 36  1  0  0  0
 16 37  1  0  0  0
 16 38  1  0  0  0
 17 39  1  0  0  0
 17 40  1  0  0  0
 17 41  1  0  0  0
 18 42  1  0  0  0
 18 43  1  0  0  0
 19 44  1  0  0  0
 19 45  1  0  0  0
M  END
$$$$
