1gfz_ligand
  -I-interpret- 

 24 25  0  0  0  0  0  0  0  0999 V2000
   38.9840   37.0340   29.9650 N   0  0  0  0  0
   38.4900   35.8800   29.0750 C   0  0  0  0  0
   39.9540   37.9900   29.3080 C   0  0  0  0  0
   38.6080   37.2070   31.3250 C   0  0  0  0  0
   37.6350   35.0650   29.7120 N   0  0  0  0  0
   38.8880   35.8200   27.9430 O   0  0  0  0  0
   37.0800   33.9050   28.9680 C   0  0  0  0  0
   37.2180   35.2060   31.0620 C   0  0  0  0  0
   37.6480   36.2440   31.8440 C   0  0  0  0  0
   36.3750   34.4240   31.7000 N   0  0  0  0  0
   39.0560   38.2000   32.0060 O   0  0  0  0  0
   37.0550   36.0650   33.0970 N   0  0  0  0  0
   36.2960   34.9680   32.9260 C   0  0  0  0  0
   37.2010   36.9290   34.3060 C   0  0  0  0  0
   39.5430   38.9991   29.3363 H   0  0  0  0  0
   40.9031   37.9677   29.8435 H   0  0  0  0  0
   40.1127   37.6899   28.2722 H   0  0  0  0  0
   37.3693   32.9814   29.4693 H   0  0  0  0  0
   35.9929   33.9795   28.9399 H   0  0  0  0  0
   37.4720   33.9061   27.9509 H   0  0  0  0  0
   35.6691   34.5547   33.7161 H   0  0  0  0  0
   38.2500   36.9661   34.5999 H   0  0  0  0  0
   36.8509   37.9353   34.0763 H   0  0  0  0  0
   36.6084   36.5140   35.1213 H   0  0  0  0  0
  1  2  1  0  0  0
  1  3  1  0  0  0
  1  4  1  0  0  0
  2  5  1  0  0  0
  2  6  2  0  0  0
  4  9  1  0  0  0
  4 11  2  0  0  0
  5  7  1  0  0  0
  5  8  1  0  0  0
  8  9  4  0  0  0
  8 10  4  0  0  0
  9 12  4  0  0  0
 10 13  4  0  0  0
 12 13  4  0  0  0
 12 14  1  0  0  0
  3 15  1  0  0  0
  3 16  1  0  0  0
  3 17  1  0  0  0
  7 18  1  0  0  0
  7 19  1  0  0  0
  7 20  1  0  0  0
 13 21  1  0  0  0
 14 22  1  0  0  0
 14 23  1  0  0  0
 14 24  1  0  0  0
M  END
$$$$
