### 
### Created by X-TOOL on Wed Jan  1 15:39:38 2020
### 

@<TRIPOS>MOLECULE
6fkz_ligand
  157   159     1     0     0
SMALL
GAST_HUCK


@<TRIPOS>ATOM
      1 O          31.9260   23.7010   10.1280 O.2       1 GZB        -0.3947
      2 C          30.8410   24.2800   10.0830 C.2       1 GZB         0.2007
      3 CA         30.5290   25.4720   10.9430 C.3       1 GZB         0.1197
      4 N          31.3700   25.3980   12.1660 N.am      1 GZB        -0.2676
      5 CAE        32.1730   26.3950   12.5650 C.2       1 GZB         0.2070
      6 OAF        32.3600   27.4450   11.9510 O.2       1 GZB        -0.3845
      7 CAG        32.7950   26.1420   13.7770 C.ar      1 GZB         0.0500
      8 CAH        33.8420   25.2390   13.8500 C.ar      1 GZB        -0.0419
      9 CAI        34.4450   24.9780   15.0670 C.ar      1 GZB        -0.0562
     10 CAJ        33.9880   25.6240   16.2060 C.ar      1 GZB        -0.0575
     11 CAK        32.9350   26.5240   16.1390 C.ar      1 GZB        -0.0562
     12 CAL        32.3320   26.7810   14.9190 C.ar      1 GZB        -0.0419
     13 N          29.8410   23.9000    9.3020 N.am      1 VAL        -0.2637
     14 CA         29.9070   22.7360    8.4470 C.3       1 VAL         0.1332
     15 C          30.6350   23.0370    7.1600 C.2       1 VAL         0.2041
     16 O          30.1930   23.8700    6.3790 O.2       1 VAL        -0.3944
     17 CB         28.4910   22.3050    8.0600 C.3       1 VAL        -0.0063
     18 CG1        28.0060   21.1990    8.9660 C.3       1 VAL        -0.0584
     19 CG2        27.5580   23.5010    8.1300 C.3       1 VAL        -0.0584
     20 N          31.7390   22.3480    6.9190 N.am      1 LEU        -0.2637
     21 CA         32.4560   22.5410    5.6710 C.3       1 LEU         0.1312
     22 C          31.6290   22.0470    4.4920 C.2       1 LEU         0.2039
     23 O          30.7360   21.2090    4.6450 O.2       1 LEU        -0.3944
     24 CB         33.8020   21.8240    5.7040 C.3       1 LEU        -0.0101
     25 CG         34.8290   22.5030    6.6050 C.3       1 LEU        -0.0425
     26 CD1        36.1940   21.8470    6.4660 C.3       1 LEU        -0.0625
     27 CD2        34.9030   23.9870    6.2790 C.3       1 LEU        -0.0625
     28 CA         31.2540   22.1920    2.0890 C.3       1 DQK         0.1310
     29 C          31.8150   20.8430    1.6160 C.2       1 DQK         0.2039
     30 N          31.9350   22.5800    3.3150 N.am      1 DQK        -0.2637
     31 O          32.9830   20.7360    1.2350 O.2       1 DQK        -0.3944
     32 CB         31.4570   23.2720    1.0190 C.3       1 DQK        -0.0123
     33 CAD        31.3430   22.6720   -0.3890 C.3       1 DQK        -0.0470
     34 CAE        31.1040   23.7880   -1.4090 C.3       1 DQK        -0.0325
     35 CAF        29.6170   23.8250   -1.7570 C.3       1 DQK         0.0309
     36 NAG        29.3740   24.8820   -2.7450 N.am      1 DQK        -0.2868
     37 CAJ        28.5870   24.6960   -3.8110 C.2       1 DQK         0.1789
     38 OAN        28.0200   23.6350   -4.0660 O.2       1 DQK        -0.3969
     39 CAK        28.4650   25.9080   -4.7450 C.3       1 DQK         0.0627
     40 CAL        29.4090   25.6770   -5.9250 C.3       1 DQK         0.0874
     41 CAM        29.9440   26.9900   -6.5130 C.2       1 DQK         0.0523
     42 OAP        29.5170   27.3240   -7.6390 O.co2     1 DQK        -0.5675
     43 OAO        30.8070   27.6030   -5.8480 O.co2     1 DQK        -0.5675
     44 SAQ        30.7770   24.7090   -5.3320 S.3       1 DQK        -0.0809
     45 CAR        30.9840   23.6940   -6.7080 C.ar      1 DQK         0.0175
     46 CAS        31.1180   22.3200   -6.5540 C.ar      1 DQK        -0.0497
     47 CAT        31.2870   21.5140   -7.6670 C.ar      1 DQK        -0.0678
     48 CAU        31.3070   22.0970   -8.9260 C.ar      1 DQK        -0.0687
     49 CAV        31.1580   23.4670   -9.0810 C.ar      1 DQK        -0.0678
     50 CAW        31.0030   24.2720   -7.9680 C.ar      1 DQK        -0.0497
     51 N          30.9690   19.8210    1.6630 N.am      1 GLU        -0.2636
     52 CA         31.3430   18.4690    1.2690 C.3       1 GLU         0.1325
     53 C          32.1040   17.8500    2.4370 C.2       1 GLU         0.2041
     54 O          32.8610   16.8930    2.2740 O.2       1 GLU        -0.3944
     55 CB         32.1750   18.4670   -0.0230 C.3       1 GLU        -0.0008
     56 CG         31.4010   18.8510   -1.2890 C.3       1 GLU         0.0044
     57 CD         30.6020   17.7020   -1.8970 C.2       1 GLU         0.0350
     58 OE1        29.6980   17.9690   -2.7180 O.co2     1 GLU        -0.5690
     59 OE2        30.8720   16.5290   -1.5630 O.co2     1 GLU        -0.5690
     60 N          31.8810   18.4180    3.6210 N.am      1 TYR        -0.2621
     61 CA         32.4810   17.9230    4.8530 C.3       1 TYR         0.1390
     62 C          33.9950   18.0400    4.8180 C.2       1 TYR         0.2055
     63 O          34.6950   17.3110    5.5200 O.2       1 TYR        -0.3942
     64 CB         32.1100   16.4600    5.0830 C.3       1 TYR         0.0163
     65 CG         30.6300   16.1700    5.0600 C.ar      1 TYR        -0.0493
     66 CD1        29.7720   16.7580    5.9730 C.ar      1 TYR        -0.0685
     67 CD2        30.0960   15.2850    4.1390 C.ar      1 TYR        -0.0685
     68 CE1        28.4190   16.4820    5.9600 C.ar      1 TYR        -0.0398
     69 CE2        28.7470   15.0020    4.1220 C.ar      1 TYR        -0.0398
     70 CZ         27.9130   15.6040    5.0320 C.ar      1 TYR         0.0805
     71 OH         26.5670   15.3190    5.0080 O.3       1 TYR        -0.3376
     72 N          34.5050   18.9470    3.9950 N.am      1 GLY        -0.2663
     73 CA         35.9450   19.1410    3.9010 C.3       1 GLY         0.1201
     74 C          36.5300   18.6750    2.5800 C.2       1 GLY         0.2002
     75 O          37.6100   19.1150    2.1900 O.2       1 GLY        -0.3947
     76 N          35.8250   17.7830    1.8890 N.am      1 VAL        -0.2695
     77 CA         36.2730   17.3150    0.5770 C.3       1 VAL         0.0966
     78 C          35.3760   17.8700   -0.5260 C.2       1 VAL         0.0603
     79 O          35.4380   17.4280   -1.6740 O.co2     1 VAL        -0.5666
     80 CB         36.2830   15.7760    0.4890 C.3       1 VAL        -0.0118
     81 CG1        37.1920   15.3140   -0.6440 C.3       1 VAL        -0.0590
     82 CG2        36.7260   15.1720    1.8140 C.3       1 VAL        -0.0590
     83 OXT        34.5710   18.7720   -0.2920 O.co2     1 VAL        -0.5666
     84 H1         29.4651   25.4611   11.2221 H         1 GZB         0.0763
     85 H2         30.7542   26.3972   10.3923 H         1 GZB         0.0763
     86 H3         31.3354   24.5648   12.7178 H         1 GZB         0.1874
     87 H4         34.1888   24.7370   12.9540 H         1 GZB         0.0669
     88 H5         35.2675   24.2748   15.1301 H         1 GZB         0.0629
     89 H6         34.4600   25.4228   17.1609 H         1 GZB         0.0653
     90 H7         32.5861   27.0231   17.0358 H         1 GZB         0.0629
     91 H8         31.5034   27.4770   14.8563 H         1 GZB         0.0669
     92 H9         29.0015   24.4434    9.3038 H         1 VAL         0.1883
     93 H10        30.4182   21.9222    8.9822 H         1 VAL         0.0802
     94 H11        28.5062   21.9289    7.0264 H         1 VAL         0.0343
     95 H12        26.9880   20.9039    8.6718 H         1 VAL         0.0234
     96 H13        27.9982   21.5545   10.0069 H         1 VAL         0.0234
     97 H14        28.6783   20.3327    8.8794 H         1 VAL         0.0234
     98 H15        27.9283   24.2943    7.4640 H         1 VAL         0.0234
     99 H16        27.5209   23.8772    9.1630 H         1 VAL         0.0234
    100 H17        26.5490   23.1980    7.8136 H         1 VAL         0.0234
    101 H18        32.0791   21.6950    7.5957 H         1 LEU         0.1883
    102 H19        32.6388   23.6178    5.5407 H         1 LEU         0.0800
    103 H20        34.2042   21.7904    4.6807 H         1 LEU         0.0315
    104 H21        33.6419   20.7987    6.0690 H         1 LEU         0.0315
    105 H22        34.5006   22.3933    7.6491 H         1 LEU         0.0298
    106 H23        36.9137   22.3549    7.1249 H         1 LEU         0.0232
    107 H24        36.5338   21.9250    5.4227 H         1 LEU         0.0232
    108 H25        36.1219   20.7867    6.7499 H         1 LEU         0.0232
    109 H26        33.9048   24.4363    6.3870 H         1 LEU         0.0232
    110 H27        35.2542   24.1182    5.2449 H         1 LEU         0.0232
    111 H28        35.6035   24.4796    6.9694 H         1 LEU         0.0232
    112 H29        30.1776   22.0848    2.2884 H         1 DQK         0.0800
    113 H30        32.6569   23.2705    3.2696 H         1 DQK         0.1883
    114 H31        32.4551   23.7178    1.1413 H         1 DQK         0.0312
    115 H32        30.6899   24.0507    1.1424 H         1 DQK         0.0312
    116 H33        30.5013   21.9644   -0.4177 H         1 DQK         0.0268
    117 H34        32.2751   22.1434   -0.6375 H         1 DQK         0.0268
    118 H35        31.6917   23.5908   -2.3177 H         1 DQK         0.0285
    119 H36        31.4073   24.7538   -0.9786 H         1 DQK         0.0285
    120 H37        29.0324   24.0307   -0.8482 H         1 DQK         0.0520
    121 H38        29.3139   22.8542   -2.1761 H         1 DQK         0.0520
    122 H39        29.8116   25.7721   -2.6173 H         1 DQK         0.1851
    123 H40        28.7513   26.8251   -4.2093 H         1 DQK         0.0533
    124 H41        27.4299   26.0017   -5.1052 H         1 DQK         0.0533
    125 H42        28.8746   25.1259   -6.7128 H         1 DQK         0.0630
    126 H43        31.0903   21.8795   -5.5639 H         1 DQK         0.0565
    127 H44        31.4022   20.4418   -7.5563 H         1 DQK         0.0600
    128 H45        31.4411   21.4721   -9.8016 H         1 DQK         0.0559
    129 H46        31.1631   23.9055  -10.0724 H         1 DQK         0.0600
    130 H47        30.8973   25.3451   -8.0793 H         1 DQK         0.0565
    131 H48        30.0358   19.9860    1.9822 H         1 GLU         0.1883
    132 H49        30.4297   17.8833    1.0879 H         1 GLU         0.0801
    133 H50        32.5828   17.4554   -0.1654 H         1 GLU         0.0330
    134 H51        33.0020   19.1815    0.1019 H         1 GLU         0.0330
    135 H52        32.1208   19.2080   -2.0403 H         1 GLU         0.0433
    136 H53        30.7028   19.6623   -1.0355 H         1 GLU         0.0433
    137 H54        31.2786   19.2149    3.6661 H         1 TYR         0.1885
    138 H55        32.0986   18.5241    5.6911 H         1 TYR         0.0821
    139 H56        32.5023   16.1582    6.0653 H         1 TYR         0.0453
    140 H57        32.5885   15.8582    4.2964 H         1 TYR         0.0453
    141 H58        30.1686   17.4465    6.7104 H         1 TYR         0.0530
    142 H59        30.7499   14.8064    3.4189 H         1 TYR         0.0530
    143 H60        27.7595   16.9556    6.6782 H         1 TYR         0.0525
    144 H61        28.3460   14.3070    3.3932 H         1 TYR         0.0525
    145 H62        26.1283   15.8095    5.6932 H         1 TYR         0.2458
    146 H63        33.8935   19.5038    3.4328 H         1 GLY         0.1881
    147 H64        36.4267   18.5778    4.7139 H         1 GLY         0.0763
    148 H65        36.1611   20.2130    4.0194 H         1 GLY         0.0763
    149 H66        34.9736   17.4260    2.2732 H         1 VAL         0.1875
    150 H67        37.2981   17.6796    0.4150 H         1 VAL         0.0729
    151 H68        35.2600   15.4326    0.2755 H         1 VAL         0.0336
    152 H69        37.1876   14.2151   -0.6927 H         1 VAL         0.0234
    153 H70        38.2168   15.6687   -0.4598 H         1 VAL         0.0234
    154 H71        36.8276   15.7247   -1.5972 H         1 VAL         0.0234
    155 H72        36.0577   15.5179    2.6163 H         1 VAL         0.0234
    156 H73        37.7567   15.4869    2.0342 H         1 VAL         0.0234
    157 H74        36.6837   14.0747    1.7492 H         1 VAL         0.0234
@<TRIPOS>BOND
     1    2    1 2  
     2    2    3 1  
     3   13    2 am 
     4    3    4 1  
     5    4    5 am 
     6    5    6 2  
     7    5    7 1  
     8    7    8 ar 
     9    7   12 ar 
    10    8    9 ar 
    11    9   10 ar 
    12   11   10 ar 
    13   12   11 ar 
    14   14   13 1  
    15   15   14 1  
    16   14   17 1  
    17   15   16 2  
    18   20   15 am 
    19   17   18 1  
    20   17   19 1  
    21   21   20 1  
    22   22   21 1  
    23   21   24 1  
    24   22   23 2  
    25   30   22 am 
    26   24   25 1  
    27   25   26 1  
    28   25   27 1  
    29   28   29 1  
    30   28   30 1  
    31   28   32 1  
    32   29   31 2  
    33   29   51 am 
    34   32   33 1  
    35   33   34 1  
    36   34   35 1  
    37   35   36 1  
    38   36   37 am 
    39   37   38 2  
    40   37   39 1  
    41   39   40 1  
    42   40   41 1  
    43   40   44 1  
    44   41   42 ar 
    45   41   43 ar 
    46   44   45 1  
    47   45   46 ar 
    48   45   50 ar 
    49   46   47 ar 
    50   47   48 ar 
    51   48   49 ar 
    52   49   50 ar 
    53   51   52 1  
    54   52   53 1  
    55   52   55 1  
    56   53   54 2  
    57   53   60 am 
    58   55   56 1  
    59   56   57 1  
    60   57   58 ar 
    61   57   59 ar 
    62   60   61 1  
    63   61   62 1  
    64   61   64 1  
    65   62   63 2  
    66   62   72 am 
    67   64   65 1  
    68   65   66 ar 
    69   65   67 ar 
    70   66   68 ar 
    71   67   69 ar 
    72   68   70 ar 
    73   69   70 ar 
    74   70   71 1  
    75   72   73 1  
    76   73   74 1  
    77   74   75 2  
    78   74   76 am 
    79   76   77 1  
    80   77   78 1  
    81   77   80 1  
    82   78   79 ar 
    83   78   83 ar 
    84   80   81 1  
    85   80   82 1  
    86    3   84 1  
    87    3   85 1  
    88    4   86 1  
    89    8   87 1  
    90    9   88 1  
    91   10   89 1  
    92   11   90 1  
    93   12   91 1  
    94   13   92 1  
    95   14   93 1  
    96   17   94 1  
    97   18   95 1  
    98   18   96 1  
    99   18   97 1  
   100   19   98 1  
   101   19   99 1  
   102   19  100 1  
   103   20  101 1  
   104   21  102 1  
   105   24  103 1  
   106   24  104 1  
   107   25  105 1  
   108   26  106 1  
   109   26  107 1  
   110   26  108 1  
   111   27  109 1  
   112   27  110 1  
   113   27  111 1  
   114   28  112 1  
   115   30  113 1  
   116   32  114 1  
   117   32  115 1  
   118   33  116 1  
   119   33  117 1  
   120   34  118 1  
   121   34  119 1  
   122   35  120 1  
   123   35  121 1  
   124   36  122 1  
   125   39  123 1  
   126   39  124 1  
   127   40  125 1  
   128   46  126 1  
   129   47  127 1  
   130   48  128 1  
   131   49  129 1  
   132   50  130 1  
   133   51  131 1  
   134   52  132 1  
   135   55  133 1  
   136   55  134 1  
   137   56  135 1  
   138   56  136 1  
   139   60  137 1  
   140   61  138 1  
   141   64  139 1  
   142   64  140 1  
   143   66  141 1  
   144   67  142 1  
   145   68  143 1  
   146   69  144 1  
   147   71  145 1  
   148   72  146 1  
   149   73  147 1  
   150   73  148 1  
   151   76  149 1  
   152   77  150 1  
   153   80  151 1  
   154   81  152 1  
   155   81  153 1  
   156   81  154 1  
   157   82  155 1  
   158   82  156 1  
   159   82  157 1  
@<TRIPOS>SUBSTRUCTURE
     1 GZB         1

