6fkz_ligand
  -I-interpret- 

160162  0  0  0  0  0  0  0  0999 V2000
   31.9260   23.7010   10.1280 O   0  0  0  0  0
   30.8410   24.2800   10.0830 C   0  0  0  0  0
   30.5290   25.4720   10.9430 C   0  0  0  0  0
   31.3700   25.3980   12.1660 N   0  0  0  0  0
   32.1730   26.3950   12.5650 C   0  0  0  0  0
   32.3600   27.4450   11.9510 O   0  0  0  0  0
   32.7950   26.1420   13.7770 C   0  0  0  0  0
   33.8420   25.2390   13.8500 C   0  0  0  0  0
   34.4450   24.9780   15.0670 C   0  0  0  0  0
   33.9880   25.6240   16.2060 C   0  0  0  0  0
   32.9350   26.5240   16.1390 C   0  0  0  0  0
   32.3320   26.7810   14.9190 C   0  0  0  0  0
   29.8410   23.9000    9.3020 N   0  0  0  0  0
   29.9070   22.7360    8.4470 C   0  0  0  0  0
   30.6350   23.0370    7.1600 C   0  0  0  0  0
   30.1930   23.8700    6.3790 O   0  0  0  0  0
   28.4910   22.3050    8.0600 C   0  0  0  0  0
   28.0060   21.1990    8.9660 C   0  0  0  0  0
   27.5580   23.5010    8.1300 C   0  0  0  0  0
   31.7390   22.3480    6.9190 N   0  0  0  0  0
   32.4560   22.5410    5.6710 C   0  0  0  0  0
   31.6290   22.0470    4.4920 C   0  0  0  0  0
   30.7360   21.2090    4.6450 O   0  0  0  0  0
   33.8020   21.8240    5.7040 C   0  0  0  0  0
   34.8290   22.5030    6.6050 C   0  0  0  0  0
   36.1940   21.8470    6.4660 C   0  0  0  0  0
   34.9030   23.9870    6.2790 C   0  0  0  0  0
   31.2540   22.1920    2.0890 C   0  0  0  0  0
   31.8150   20.8430    1.6160 C   0  0  0  0  0
   31.9350   22.5800    3.3150 N   0  0  0  0  0
   32.9830   20.7360    1.2350 O   0  0  0  0  0
   31.4570   23.2720    1.0190 C   0  0  0  0  0
   31.3430   22.6720   -0.3890 C   0  0  0  0  0
   31.1040   23.7880   -1.4090 C   0  0  0  0  0
   29.6170   23.8250   -1.7570 C   0  0  0  0  0
   29.3740   24.8820   -2.7450 N   0  0  0  0  0
   28.5870   24.6960   -3.8110 C   0  0  0  0  0
   28.0200   23.6350   -4.0660 O   0  0  0  0  0
   28.4650   25.9080   -4.7450 C   0  0  0  0  0
   29.4090   25.6770   -5.9250 C   0  0  0  0  0
   29.9440   26.9900   -6.5130 C   0  0  0  0  0
   29.5170   27.3240   -7.6390 O   0  0  0  0  0
   30.8070   27.6030   -5.8480 O   0  0  0  0  0
   30.7770   24.7090   -5.3320 S   0  0  0  0  0
   30.9840   23.6940   -6.7080 C   0  0  0  0  0
   31.1180   22.3200   -6.5540 C   0  0  0  0  0
   31.2870   21.5140   -7.6670 C   0  0  0  0  0
   31.3070   22.0970   -8.9260 C   0  0  0  0  0
   31.1580   23.4670   -9.0810 C   0  0  0  0  0
   31.0030   24.2720   -7.9680 C   0  0  0  0  0
   30.9690   19.8210    1.6630 N   0  0  0  0  0
   31.3430   18.4690    1.2690 C   0  0  0  0  0
   32.1040   17.8500    2.4370 C   0  0  0  0  0
   32.8610   16.8930    2.2740 O   0  0  0  0  0
   32.1750   18.4670   -0.0230 C   0  0  0  0  0
   31.4010   18.8510   -1.2890 C   0  0  0  0  0
   30.6020   17.7020   -1.8970 C   0  0  0  0  0
   29.6980   17.9690   -2.7180 O   0  0  0  0  0
   30.8720   16.5290   -1.5630 O   0  0  0  0  0
   31.8810   18.4180    3.6210 N   0  0  0  0  0
   32.4810   17.9230    4.8530 C   0  0  0  0  0
   33.9950   18.0400    4.8180 C   0  0  0  0  0
   34.6950   17.3110    5.5200 O   0  0  0  0  0
   32.1100   16.4600    5.0830 C   0  0  0  0  0
   30.6300   16.1700    5.0600 C   0  0  0  0  0
   29.7720   16.7580    5.9730 C   0  0  0  0  0
   30.0960   15.2850    4.1390 C   0  0  0  0  0
   28.4190   16.4820    5.9600 C   0  0  0  0  0
   28.7470   15.0020    4.1220 C   0  0  0  0  0
   27.9130   15.6040    5.0320 C   0  0  0  0  0
   26.5670   15.3190    5.0080 O   0  0  0  0  0
   34.5050   18.9470    3.9950 N   0  0  0  0  0
   35.9450   19.1410    3.9010 C   0  0  0  0  0
   36.5300   18.6750    2.5800 C   0  0  0  0  0
   37.6100   19.1150    2.1900 O   0  0  0  0  0
   35.8250   17.7830    1.8890 N   0  0  0  0  0
   36.2730   17.3150    0.5770 C   0  0  0  0  0
   35.3760   17.8700   -0.5260 C   0  0  0  0  0
   35.4380   17.4280   -1.6740 O   0  0  0  0  0
   36.2830   15.7760    0.4890 C   0  0  0  0  0
   37.1920   15.3140   -0.6440 C   0  0  0  0  0
   36.7260   15.1720    1.8140 C   0  0  0  0  0
   34.5710   18.7720   -0.2920 O   0  0  0  0  0
   29.4734   25.4711   11.2146 H   0  0  0  0  0
   30.7415   26.3919   10.3983 H   0  0  0  0  0
   31.3347   24.5481   12.7289 H   0  0  0  0  0
   34.1907   24.7342   12.9491 H   0  0  0  0  0
   35.2721   24.2709   15.1304 H   0  0  0  0  0
   34.4626   25.4217   17.1662 H   0  0  0  0  0
   32.5842   27.0259   17.0408 H   0  0  0  0  0
   31.4988   27.4809   14.8559 H   0  0  0  0  0
   28.9847   24.4542    9.3039 H   0  0  0  0  0
   30.4329   21.9582    9.0006 H   0  0  0  0  0
   28.5025   21.9227    7.0393 H   0  0  0  0  0
   28.6730   20.3413    8.8793 H   0  0  0  0  0
   27.9988   21.5525    9.9970 H   0  0  0  0  0
   26.9973   20.9075    8.6735 H   0  0  0  0  0
   27.5522   23.8967    9.1456 H   0  0  0  0  0
   27.9042   24.2711    7.4406 H   0  0  0  0  0
   26.5503   23.1907    7.8538 H   0  0  0  0  0
   32.0859   21.6820    7.6093 H   0  0  0  0  0
   32.6340   23.6093    5.5482 H   0  0  0  0  0
   34.2012   21.8283    4.6898 H   0  0  0  0  0
   33.6308   20.8223    6.0981 H   0  0  0  0  0
   34.5131   22.3883    7.6419 H   0  0  0  0  0
   36.1212   20.7965    6.7476 H   0  0  0  0  0
   36.5295   21.9249    5.4318 H   0  0  0  0  0
   36.9062   22.3511    7.1193 H   0  0  0  0  0
   35.1975   24.1146    5.2373 H   0  0  0  0  0
   33.9258   24.4422    6.4400 H   0  0  0  0  0
   35.6385   24.4638    6.9269 H   0  0  0  0  0
   30.1840   22.0897    2.2697 H   0  0  0  0  0
   32.6714   23.2843    3.2687 H   0  0  0  0  0
   32.4512   23.7026    1.1382 H   0  0  0  0  0
   30.6880   24.0351    1.1393 H   0  0  0  0  0
   30.5073   21.9728   -0.4167 H   0  0  0  0  0
   32.2679   22.1504   -0.6349 H   0  0  0  0  0
   31.6897   23.5985   -2.3085 H   0  0  0  0  0
   31.4091   24.7458   -0.9875 H   0  0  0  0  0
   29.0374   24.0282   -0.8565 H   0  0  0  0  0
   29.3162   22.8629   -2.1717 H   0  0  0  0  0
   29.8203   25.7899   -2.6148 H   0  0  0  0  0
   28.7319   26.8237   -4.2174 H   0  0  0  0  0
   27.4384   26.0176   -5.0944 H   0  0  0  0  0
   28.8595   25.1698   -6.7180 H   0  0  0  0  0
   30.9585   27.1417   -5.0198 H   0  0  0  0  0
   31.0901   21.8770   -5.5585 H   0  0  0  0  0
   31.4028   20.4359   -7.5557 H   0  0  0  0  0
   31.4419   21.4687   -9.8064 H   0  0  0  0  0
   31.1631   23.9079  -10.0778 H   0  0  0  0  0
   30.8967   25.3510   -8.0800 H   0  0  0  0  0
   30.0171   19.9893    1.9886 H   0  0  0  0  0
   30.4541   17.8783    1.0474 H   0  0  0  0  0
   32.5309   17.4470   -0.1677 H   0  0  0  0  0
   32.9597   19.2125    0.1056 H   0  0  0  0  0
   32.1323   19.1668   -2.0330 H   0  0  0  0  0
   30.6900   19.6290   -1.0110 H   0  0  0  0  0
   29.6481   18.9200   -2.8393 H   0  0  0  0  0
   31.2665   19.2308    3.6670 H   0  0  0  0  0
   32.0936   18.5365    5.6664 H   0  0  0  0  0
   32.4682   16.1959    6.0780 H   0  0  0  0  0
   32.5564   15.8891    4.2688 H   0  0  0  0  0
   30.1708   17.4503    6.7145 H   0  0  0  0  0
   30.7535   14.8038    3.4150 H   0  0  0  0  0
   27.7558   16.9582    6.6822 H   0  0  0  0  0
   28.3438   14.3031    3.3891 H   0  0  0  0  0
   26.3862   14.6925    4.3035 H   0  0  0  0  0
   33.8812   19.5149    3.4216 H   0  0  0  0  0
   36.4087   18.5518    4.6922 H   0  0  0  0  0
   36.1393   20.2100    3.9880 H   0  0  0  0  0
   34.9566   17.4188    2.2809 H   0  0  0  0  0
   37.2924   17.6767    0.4428 H   0  0  0  0  0
   36.1014   16.7352   -1.7136 H   0  0  0  0  0
   35.2703   15.4329    0.2771 H   0  0  0  0  0
   36.8299   15.7216   -1.5878 H   0  0  0  0  0
   38.2071   15.6661   -0.4603 H   0  0  0  0  0
   37.1868   14.2250   -0.6912 H   0  0  0  0  0
   37.7305   15.5212    2.0532 H   0  0  0  0  0
   36.0364   15.4789    2.6004 H   0  0  0  0  0
   36.7273   14.0849    1.7339 H   0  0  0  0  0
  2  1  2  0  0  0
  2  3  1  0  0  0
 13  2  1  0  0  0
  3  4  1  0  0  0
  4  5  1  0  0  0
  5  6  2  0  0  0
  5  7  1  0  0  0
  7  8  4  0  0  0
  7 12  4  0  0  0
  8  9  4  0  0  0
  9 10  4  0  0  0
 11 10  4  0  0  0
 12 11  4  0  0  0
 14 13  1  0  0  0
 15 14  1  0  0  0
 14 17  1  0  0  0
 15 16  2  0  0  0
 20 15  1  0  0  0
 17 18  1  0  0  0
 17 19  1  0  0  0
 21 20  1  0  0  0
 22 21  1  0  0  0
 21 24  1  0  0  0
 22 23  2  0  0  0
 30 22  1  0  0  0
 24 25  1  0  0  0
 25 26  1  0  0  0
 25 27  1  0  0  0
 28 29  1  0  0  0
 28 30  1  0  0  0
 28 32  1  0  0  0
 29 31  2  0  0  0
 29 51  1  0  0  0
 32 33  1  0  0  0
 33 34  1  0  0  0
 34 35  1  0  0  0
 35 36  1  0  0  0
 36 37  1  0  0  0
 37 38  2  0  0  0
 37 39  1  0  0  0
 39 40  1  0  0  0
 40 41  1  0  0  0
 40 44  1  0  0  0
 41 42  2  0  0  0
 41 43  1  0  0  0
 44 45  1  0  0  0
 45 46  4  0  0  0
 45 50  4  0  0  0
 46 47  4  0  0  0
 47 48  4  0  0  0
 48 49  4  0  0  0
 49 50  4  0  0  0
 51 52  1  0  0  0
 52 53  1  0  0  0
 52 55  1  0  0  0
 53 54  2  0  0  0
 53 60  1  0  0  0
 55 56  1  0  0  0
 56 57  1  0  0  0
 57 58  1  0  0  0
 57 59  2  0  0  0
 60 61  1  0  0  0
 61 62  1  0  0  0
 61 64  1  0  0  0
 62 63  2  0  0  0
 62 72  1  0  0  0
 64 65  1  0  0  0
 65 66  4  0  0  0
 65 67  4  0  0  0
 66 68  4  0  0  0
 67 69  4  0  0  0
 68 70  4  0  0  0
 69 70  4  0  0  0
 70 71  1  0  0  0
 72 73  1  0  0  0
 73 74  1  0  0  0
 74 75  2  0  0  0
 74 76  1  0  0  0
 76 77  1  0  0  0
 77 78  1  0  0  0
 77 80  1  0  0  0
 78 79  1  0  0  0
 78 83  2  0  0  0
 80 81  1  0  0  0
 80 82  1  0  0  0
  3 84  1  0  0  0
  3 85  1  0  0  0
  4 86  1  0  0  0
  8 87  1  0  0  0
  9 88  1  0  0  0
 10 89  1  0  0  0
 11 90  1  0  0  0
 12 91  1  0  0  0
 13 92  1  0  0  0
 14 93  1  0  0  0
 17 94  1  0  0  0
 18 95  1  0  0  0
 18 96  1  0  0  0
 18 97  1  0  0  0
 19 98  1  0  0  0
 19 99  1  0  0  0
 19100  1  0  0  0
 20101  1  0  0  0
 21102  1  0  0  0
 24103  1  0  0  0
 24104  1  0  0  0
 25105  1  0  0  0
 26106  1  0  0  0
 26107  1  0  0  0
 26108  1  0  0  0
 27109  1  0  0  0
 27110  1  0  0  0
 27111  1  0  0  0
 28112  1  0  0  0
 30113  1  0  0  0
 32114  1  0  0  0
 32115  1  0  0  0
 33116  1  0  0  0
 33117  1  0  0  0
 34118  1  0  0  0
 34119  1  0  0  0
 35120  1  0  0  0
 35121  1  0  0  0
 36122  1  0  0  0
 39123  1  0  0  0
 39124  1  0  0  0
 40125  1  0  0  0
 43126  1  0  0  0
 46127  1  0  0  0
 47128  1  0  0  0
 48129  1  0  0  0
 49130  1  0  0  0
 50131  1  0  0  0
 51132  1  0  0  0
 52133  1  0  0  0
 55134  1  0  0  0
 55135  1  0  0  0
 56136  1  0  0  0
 56137  1  0  0  0
 58138  1  0  0  0
 60139  1  0  0  0
 61140  1  0  0  0
 64141  1  0  0  0
 64142  1  0  0  0
 66143  1  0  0  0
 67144  1  0  0  0
 68145  1  0  0  0
 69146  1  0  0  0
 71147  1  0  0  0
 72148  1  0  0  0
 73149  1  0  0  0
 73150  1  0  0  0
 76151  1  0  0  0
 77152  1  0  0  0
 79153  1  0  0  0
 80154  1  0  0  0
 81155  1  0  0  0
 81156  1  0  0  0
 81157  1  0  0  0
 82158  1  0  0  0
 82159  1  0  0  0
 82160  1  0  0  0
M  END
$$$$
