3hvk_ligand
  -I-interpret- 

 66 70  0  0  0  0  0  0  0  0999 V2000
   -5.7990   21.6500   12.8170 N   0  0  0  0  0
   -4.7620   21.8080   13.8170 C   0  0  0  0  0
   -6.1870   22.5890   11.8910 C   0  0  0  0  0
   -7.0560   21.9490   11.0440 C   0  0  0  0  0
   -7.2440   20.6490   11.4360 N   0  0  0  0  0
   -5.1190   21.2230   15.1750 C   0  0  0  0  0
   -0.4730   13.9040   14.3510 C   0  0  0  0  0
   -6.4750   20.4790   12.4790 C   0  0  0  0  0
   -3.6530   21.0220   13.3530 O   0  0  0  0  0
   -3.7400   20.8630   15.7380 C   0  0  0  0  0
    0.7520   14.4490   13.8250 C   0  0  0  0  0
   -0.4610   12.7300   15.0470 C   0  0  0  0  0
   -3.1320   20.2690   14.4850 C   0  0  0  0  0
   -1.7510   14.5650   14.1870 C   0  0  0  0  0
   -5.7790   23.8410   11.7910 N   0  0  0  0  0
    0.7400   12.0060   15.3010 C   0  0  0  0  0
    1.9770   13.7300   14.0990 C   0  0  0  0  0
    1.9380   12.5040   14.8410 C   0  0  0  0  0
   -7.5590   22.7350   10.0010 C   0  0  0  0  0
   -7.1620   23.9880    9.8710 N   0  0  0  0  0
   -6.2880   24.5100   10.7730 C   0  0  0  0  0
    0.6970   10.7710   16.0690 C   0  0  0  0  0
   -3.5080   18.8290   14.3730 C   0  0  0  0  0
   -2.8190   13.9860   14.4690 O   0  0  0  0  0
   -5.8510   22.1920   15.9300 O   0  0  0  0  0
   -1.8060   15.8040   13.6620 N   0  0  0  0  0
   -2.7610   17.9590   13.7490 C   0  0  0  0  0
    1.5330    9.6890   15.7390 C   0  0  0  0  0
   -0.2330   10.6430   17.1200 C   0  0  0  0  0
   -2.9660   21.9620   16.1770 O   0  0  0  0  0
    0.8430   15.4950   13.0890 O   0  0  0  0  0
    3.0620   14.2400   13.6320 O   0  0  0  0  0
    0.5820    8.4480   17.4990 C   0  0  0  0  0
    1.5060    8.5270   16.4960 C   0  0  0  0  0
   -0.2680    9.4690   17.8630 C   0  0  0  0  0
    0.6080    7.2940   18.2360 F   0  0  0  0  0
   -3.0820   16.5250   13.6010 C   0  0  0  0  0
   -8.4850   22.3070    9.0560 N   0  0  0  0  0
   -9.1510   21.0030    9.0860 C   0  0  0  0  0
  -10.1970   20.9310   10.1770 C   0  0  0  0  0
  -11.3510   21.6530    9.8050 O   0  0  0  0  0
   -4.5793   22.8755   13.9404 H   0  0  0  0  0
   -5.7745   20.3521   15.1722 H   0  0  0  0  0
   -6.3747   19.5371   13.0183 H   0  0  0  0  0
   -3.7894   20.2381   16.6297 H   0  0  0  0  0
   -1.4038   12.3319   15.4220 H   0  0  0  0  0
   -2.0440   20.3285   14.5119 H   0  0  0  0  0
    2.8626   11.9629   15.0421 H   0  0  0  0  0
   -5.9878   25.5502   10.6469 H   0  0  0  0  0
   -4.4392   18.4918   14.8283 H   0  0  0  0  0
   -6.6967   22.3544   15.5056 H   0  0  0  0  0
   -0.9570   16.2428   13.3054 H   0  0  0  0  0
   -1.8324   18.3172   13.3047 H   0  0  0  0  0
    2.2053    9.7640   14.8843 H   0  0  0  0  0
   -0.9195   11.4583   17.3484 H   0  0  0  0  0
   -3.3588   22.3317   16.9711 H   0  0  0  0  0
    2.1965    7.7072   16.2979 H   0  0  0  0  0
   -0.9475    9.3595   18.7082 H   0  0  0  0  0
   -3.7562   16.1926   14.3903 H   0  0  0  0  0
   -3.5929   16.3349   12.6571 H   0  0  0  0  0
   -8.7154   22.9426    8.2922 H   0  0  0  0  0
   -8.3989   20.2387    9.2816 H   0  0  0  0  0
   -9.6453   20.8487    8.1269 H   0  0  0  0  0
   -9.7872   21.3646   11.0892 H   0  0  0  0  0
  -10.4690   19.8878   10.3380 H   0  0  0  0  0
  -12.0027   21.5965   10.5076 H   0  0  0  0  0
  2  1  1  0  0  0
  1  3  4  0  0  0
  1  8  4  0  0  0
  6  2  1  0  0  0
  9  2  1  0  0  0
  3  4  4  0  0  0
  3 15  4  0  0  0
  5  4  4  0  0  0
  4 19  4  0  0  0
  8  5  4  0  0  0
 10  6  1  0  0  0
  6 25  1  0  0  0
  7 11  1  0  0  0
  7 12  2  0  0  0
 14  7  1  0  0  0
 13  9  1  0  0  0
 13 10  1  0  0  0
 10 30  1  0  0  0
 11 17  1  0  0  0
 11 31  2  0  0  0
 12 16  1  0  0  0
 23 13  1  0  0  0
 14 24  2  0  0  0
 26 14  1  0  0  0
 15 21  4  0  0  0
 16 18  2  0  0  0
 16 22  1  0  0  0
 17 18  1  0  0  0
 17 32  2  0  0  0
 19 20  4  0  0  0
 19 38  1  0  0  0
 21 20  4  0  0  0
 22 28  4  0  0  0
 22 29  4  0  0  0
 27 23  2  0  0  0
 37 26  1  0  0  0
 27 37  1  0  0  0
 28 34  4  0  0  0
 29 35  4  0  0  0
 34 33  4  0  0  0
 33 35  4  0  0  0
 33 36  1  0  0  0
 38 39  1  0  0  0
 39 40  1  0  0  0
 40 41  1  0  0  0
  2 42  1  0  0  0
  6 43  1  0  0  0
  8 44  1  0  0  0
 10 45  1  0  0  0
 12 46  1  0  0  0
 13 47  1  0  0  0
 18 48  1  0  0  0
 21 49  1  0  0  0
 23 50  1  0  0  0
 25 51  1  0  0  0
 26 52  1  0  0  0
 27 53  1  0  0  0
 28 54  1  0  0  0
 29 55  1  0  0  0
 30 56  1  0  0  0
 34 57  1  0  0  0
 35 58  1  0  0  0
 37 59  1  0  0  0
 37 60  1  0  0  0
 38 61  1  0  0  0
 39 62  1  0  0  0
 39 63  1  0  0  0
 40 64  1  0  0  0
 40 65  1  0  0  0
 41 66  1  0  0  0
M  END
$$$$
