2v3e_ligand
  -I-interpret- 

 52 52  0  0  0  0  0  0  0  0999 V2000
   34.7260   34.3490   -1.1620 O   0  0  0  0  0
   33.9040   33.5170   -0.2920 C   0  0  0  0  0
   34.6920   32.3580    0.3880 C   0  0  0  0  0
   35.9070   32.8280    1.2120 C   0  0  0  0  0
   35.4740   33.8620    2.1000 O   0  0  0  0  0
   37.8040   32.0370    2.6250 O   0  0  0  0  0
   37.0430   30.5510    0.9240 C   0  0  0  0  0
   37.2110   29.3030    1.6290 O   0  0  0  0  0
   35.2970   31.5030   -0.6430 N   0  3  0  0  0
   34.4170   31.3610   -1.8130 C   0  0  0  0  0
   35.0870   30.4190   -2.7800 C   0  0  0  0  0
   35.9400   30.2900   -0.0960 C   0  0  0  0  0
   34.5410   30.7590   -4.1600 C   0  0  0  0  0
   35.1320   29.8940   -5.2710 C   0  0  0  0  0
   34.3960   30.3560   -6.5400 C   0  0  0  0  0
   35.2100   30.0240   -7.7850 C   0  0  0  0  0
   35.8160   31.2880   -8.3660 C   0  0  0  0  0
   38.1120   31.6660   -9.0960 C   0  0  0  0  0
   36.8370   30.9370   -9.4390 C   0  0  0  0  0
   36.6110   31.6420    1.9160 C   0  0  0  0  0
   34.1832   35.0405   -1.5478 H   0  0  0  0  0
   33.1271   33.0661   -0.9094 H   0  0  0  0  0
   33.5149   34.1567    0.5001 H   0  0  0  0  0
   33.9587   31.8644    1.0257 H   0  0  0  0  0
   36.6736   33.2470    0.5602 H   0  0  0  0  0
   35.0492   34.5591    1.5948 H   0  0  0  0  0
   37.5849   32.7218    3.2611 H   0  0  0  0  0
   37.9613   30.8880    0.4430 H   0  0  0  0  0
   37.8983   29.4013    2.2920 H   0  0  0  0  0
   36.1106   31.9780   -1.0339 H   0  0  0  0  0
   34.2510   32.3307   -2.2822 H   0  0  0  0  0
   33.4463   30.9673   -1.5115 H   0  0  0  0  0
   34.8788   29.3806   -2.5221 H   0  0  0  0  0
   36.1706   30.5327   -2.7493 H   0  0  0  0  0
   35.1621   29.7258    0.4185 H   0  0  0  0  0
   36.4036   29.7730   -0.9361 H   0  0  0  0  0
   34.8039   31.7951   -4.3730 H   0  0  0  0  0
   33.4653   30.5837   -4.1419 H   0  0  0  0  0
   34.9953   28.8295   -5.0805 H   0  0  0  0  0
   36.2121   30.0136   -5.3552 H   0  0  0  0  0
   34.2515   31.4352   -6.4906 H   0  0  0  0  0
   33.4368   29.8416   -6.5983 H   0  0  0  0  0
   34.5562   29.5672   -8.5279 H   0  0  0  0  0
   36.0107   29.3354   -7.5151 H   0  0  0  0  0
   36.3117   31.8441   -7.5703 H   0  0  0  0  0
   35.0244   31.8912   -8.8106 H   0  0  0  0  0
   37.9228   32.7394   -9.0821 H   0  0  0  0  0
   38.4601   31.3444   -8.1144 H   0  0  0  0  0
   38.8713   31.4393   -9.8445 H   0  0  0  0  0
   36.4772   31.2351  -10.4238 H   0  0  0  0  0
   37.0065   29.8607   -9.4705 H   0  0  0  0  0
   35.8629   31.2646    2.6132 H   0  0  0  0  0
  2  1  1  0  0  0
  3  2  1  0  0  0
  4  3  1  0  0  0
  3  9  1  0  0  0
  4  5  1  0  0  0
 20  4  1  0  0  0
 20  6  1  0  0  0
  7  8  1  0  0  0
  7 12  1  0  0  0
  7 20  1  0  0  0
  9 10  1  0  0  0
  9 12  1  0  0  0
 10 11  1  0  0  0
 11 13  1  0  0  0
 13 14  1  0  0  0
 14 15  1  0  0  0
 15 16  1  0  0  0
 16 17  1  0  0  0
 17 19  1  0  0  0
 19 18  1  0  0  0
  1 21  1  0  0  0
  2 22  1  0  0  0
  2 23  1  0  0  0
  3 24  1  0  0  0
  4 25  1  0  0  0
  5 26  1  0  0  0
  6 27  1  0  0  0
  7 28  1  0  0  0
  8 29  1  0  0  0
  9 30  1  0  0  0
 10 31  1  0  0  0
 10 32  1  0  0  0
 11 33  1  0  0  0
 11 34  1  0  0  0
 12 35  1  0  0  0
 12 36  1  0  0  0
 13 37  1  0  0  0
 13 38  1  0  0  0
 14 39  1  0  0  0
 14 40  1  0  0  0
 15 41  1  0  0  0
 15 42  1  0  0  0
 16 43  1  0  0  0
 16 44  1  0  0  0
 17 45  1  0  0  0
 17 46  1  0  0  0
 18 47  1  0  0  0
 18 48  1  0  0  0
 18 49  1  0  0  0
 19 50  1  0  0  0
 19 51  1  0  0  0
 20 52  1  0  0  0
M  END
$$$$
