4o5b_ligand
  -I-interpret- 

 58 61  0  0  0  0  0  0  0  0999 V2000
   37.7150  -32.5780  -27.5560 C   0  0  0  0  0
   36.9370  -31.4670  -27.8840 C   0  0  0  0  0
   35.6410  -31.6560  -28.2930 C   0  0  0  0  0
   35.1440  -32.9500  -28.3460 C   0  0  0  0  0
   35.9730  -34.0320  -28.0410 C   0  0  0  0  0
   37.2260  -33.8170  -27.6490 N   0  0  0  0  0
   34.7640  -30.4990  -28.6420 C   0  0  0  0  0
   34.1840  -29.6840  -27.6370 C   0  0  0  0  0
   33.3270  -28.6120  -27.9920 C   0  0  0  0  0
   33.0710  -28.3240  -29.3370 C   0  0  0  0  0
   33.6540  -29.1660  -30.3240 C   0  0  0  0  0
   34.4860  -30.2550  -29.9900 C   0  0  0  0  0
   37.5190  -30.0680  -27.8110 C   0  0  0  0  0
   35.5700  -35.4840  -28.0750 C   0  0  0  0  0
   33.7230  -33.1540  -28.7380 C   0  0  0  0  0
   33.5400  -33.6540  -30.1630 C   0  0  0  0  0
   33.1100  -34.0770  -27.7940 O   0  0  0  0  0
   34.3210  -33.1750  -31.0380 O   0  0  0  0  0
   32.6120  -34.5000  -30.3910 O   0  0  0  0  0
   32.4890  -33.6060  -26.5710 C   0  0  0  0  0
   33.5680  -33.3560  -25.5510 C   0  0  0  0  0
   31.5540  -34.6790  -25.9950 C   0  0  0  0  0
   31.7370  -32.3030  -26.7800 C   0  0  0  0  0
   39.1290  -32.4020  -27.1300 C   0  0  0  0  0
   40.1830  -32.6270  -27.8990 N   0  0  0  0  0
   41.2880  -32.3330  -27.1920 C   0  0  0  0  0
   40.8930  -31.9100  -25.9280 C   0  0  0  0  0
   39.5480  -31.9690  -25.9210 N   0  0  0  0  0
   42.6400  -32.3930  -27.5350 C   0  0  0  0  0
   41.8560  -31.5360  -24.9780 C   0  0  0  0  0
   43.6040  -32.0250  -26.5980 C   0  0  0  0  0
   43.2150  -31.5960  -25.3290 C   0  0  0  0  0
   44.5220  -31.1400  -24.1930 Cl  0  0  0  0  0
   34.3980  -29.8826  -26.5868 H   0  0  0  0  0
   32.8642  -28.0079  -27.2116 H   0  0  0  0  0
   32.4432  -27.4791  -29.6202 H   0  0  0  0  0
   33.4507  -28.9626  -31.3754 H   0  0  0  0  0
   34.9040  -30.8939  -30.7680 H   0  0  0  0  0
   37.8436  -29.8637  -26.7907 H   0  0  0  0  0
   38.3714  -29.9948  -28.4864 H   0  0  0  0  0
   36.7587  -29.3438  -28.1036 H   0  0  0  0  0
   34.7497  -35.6485  -27.3763 H   0  0  0  0  0
   35.2489  -35.7471  -29.0828 H   0  0  0  0  0
   36.4210  -36.1027  -27.7903 H   0  0  0  0  0
   33.2351  -32.1797  -28.7087 H   0  0  0  0  0
   32.1609  -34.7076  -29.5694 H   0  0  0  0  0
   34.1082  -34.2834  -25.3607 H   0  0  0  0  0
   34.2585  -32.6033  -25.9315 H   0  0  0  0  0
   33.1156  -33.0010  -24.6250 H   0  0  0  0  0
   30.7755  -34.9091  -26.7223 H   0  0  0  0  0
   32.1275  -35.5800  -25.7774 H   0  0  0  0  0
   31.0976  -34.3070  -25.0777 H   0  0  0  0  0
   32.4300  -31.5368  -27.1276 H   0  0  0  0  0
   30.9547  -32.4518  -27.5243 H   0  0  0  0  0
   31.2886  -31.9886  -25.8376 H   0  0  0  0  0
   42.9397  -32.7254  -28.5289 H   0  0  0  0  0
   41.5545  -31.2045  -23.9844 H   0  0  0  0  0
   44.6618  -32.0724  -26.8568 H   0  0  0  0  0
  1  2  4  0  0  0
  1  6  4  0  0  0
  1 24  1  0  0  0
  2  3  4  0  0  0
  2 13  1  0  0  0
  3  4  4  0  0  0
  3  7  1  0  0  0
  4  5  4  0  0  0
  4 15  1  0  0  0
  5  6  4  0  0  0
  5 14  1  0  0  0
  7  8  4  0  0  0
  7 12  4  0  0  0
  8  9  4  0  0  0
  9 10  4  0  0  0
 10 11  4  0  0  0
 11 12  4  0  0  0
 15 16  1  0  0  0
 15 17  1  0  0  0
 16 18  2  0  0  0
 16 19  1  0  0  0
 17 20  1  0  0  0
 20 21  1  0  0  0
 20 22  1  0  0  0
 20 23  1  0  0  0
 24 25  4  0  0  0
 24 28  4  0  0  0
 25 26  4  0  0  0
 26 27  4  0  0  0
 26 29  4  0  0  0
 27 28  4  0  0  0
 27 30  4  0  0  0
 29 31  4  0  0  0
 30 32  4  0  0  0
 31 32  4  0  0  0
 32 33  1  0  0  0
  8 34  1  0  0  0
  9 35  1  0  0  0
 10 36  1  0  0  0
 11 37  1  0  0  0
 12 38  1  0  0  0
 13 39  1  0  0  0
 13 40  1  0  0  0
 13 41  1  0  0  0
 14 42  1  0  0  0
 14 43  1  0  0  0
 14 44  1  0  0  0
 15 45  1  0  0  0
 19 46  1  0  0  0
 21 47  1  0  0  0
 21 48  1  0  0  0
 21 49  1  0  0  0
 22 50  1  0  0  0
 22 51  1  0  0  0
 22 52  1  0  0  0
 23 53  1  0  0  0
 23 54  1  0  0  0
 23 55  1  0  0  0
 29 56  1  0  0  0
 30 57  1  0  0  0
 31 58  1  0  0  0
M  END
$$$$
