5usf_ligand
  -I-interpret- 

 59 62  0  0  0  0  0  0  0  0999 V2000
  -33.7270  115.3160  -30.6300 C   0  0  0  0  0
  -34.3760  115.4460  -31.8410 C   0  0  0  0  0
  -35.1300  114.4030  -32.3320 C   0  0  0  0  0
  -35.8530  114.5510  -33.4800 O   0  0  0  0  0
  -35.2100  113.2300  -31.6160 C   0  0  0  0  0
  -34.5590  113.1180  -30.4050 C   0  0  0  0  0
  -33.8120  114.1550  -29.8960 C   0  0  0  0  0
  -33.0970  114.0150  -28.5780 C   0  0  0  0  0
  -34.0210  113.7570  -27.3940 C   0  0  0  0  0
  -34.5010  115.0210  -26.8370 N   0  3  0  0  0
  -33.4270  113.1730  -26.1450 C   0  0  0  0  0
  -34.1700  113.0530  -25.1930 O   0  0  0  0  0
  -32.1380  112.7740  -26.0490 N   0  0  0  0  0
  -31.6320  111.9820  -24.7710 S   0  0  0  0  0
  -30.2640  111.7010  -24.9310 O   0  0  0  0  0
  -32.1070  112.6640  -23.6350 O   0  0  0  0  0
  -32.3590  110.5680  -24.7610 O   0  0  0  0  0
  -32.1220  109.7220  -25.8970 C   0  0  0  0  0
  -33.2690  108.7600  -26.0650 C   0  0  0  0  0
  -33.2090  107.7340  -25.0640 O   0  0  0  0  0
  -34.6630  109.3360  -25.9690 C   0  0  0  0  0
  -35.5090  108.4910  -26.7190 O   0  0  0  0  0
  -35.0050  109.1050  -24.5170 C   0  0  0  0  0
  -36.3960  108.9330  -24.3480 O   0  0  0  0  0
  -34.3930  107.7460  -24.3070 C   0  0  0  0  0
  -34.0510  107.5060  -22.9200 N   0  0  0  0  0
  -33.4700  108.3850  -22.0510 C   0  0  0  0  0
  -33.3840  107.9410  -20.8240 N   0  0  0  0  0
  -33.9390  106.6750  -20.8950 C   0  0  0  0  0
  -34.3460  106.3920  -22.1810 C   0  0  0  0  0
  -34.9320  105.2760  -22.6050 N   0  0  0  0  0
  -35.0910  104.4170  -21.6050 C   0  0  0  0  0
  -34.7520  104.5500  -20.3280 N   0  0  0  0  0
  -34.1670  105.6880  -19.9270 C   0  0  0  0  0
  -33.8700  105.8270  -18.6410 N   0  0  0  0  0
  -33.1361  116.1484  -30.2478 H   0  0  0  0  0
  -34.2920  116.3730  -32.4083 H   0  0  0  0  0
  -36.3145  113.7319  -33.6740 H   0  0  0  0  0
  -35.7868  112.3911  -32.0053 H   0  0  0  0  0
  -34.6381  112.1892  -29.8401 H   0  0  0  0  0
  -32.5839  114.9576  -28.3875 H   0  0  0  0  0
  -32.4317  113.1556  -28.6614 H   0  0  0  0  0
  -34.7345  113.0743  -27.8556 H   0  0  0  0  0
  -35.1172  114.8307  -26.0467 H   0  0  0  0  0
  -33.7054  115.5768  -26.5232 H   0  0  0  0  0
  -35.0141  115.5340  -27.5539 H   0  0  0  0  0
  -31.4859  112.9841  -26.8047 H   0  0  0  0  0
  -31.2006  109.1607  -25.7423 H   0  0  0  0  0
  -32.0336  110.3373  -26.7924 H   0  0  0  0  0
  -33.1297  108.4038  -27.0857 H   0  0  0  0  0
  -34.7510  110.3696  -26.3039 H   0  0  0  0  0
  -36.4080  108.8256  -26.6820 H   0  0  0  0  0
  -34.6780  109.9145  -23.8644 H   0  0  0  0  0
  -36.5888  108.7880  -23.4188 H   0  0  0  0  0
  -35.1042  106.9748  -24.6027 H   0  0  0  0  0
  -33.1102  109.3685  -22.3532 H   0  0  0  0  0
  -35.5655  103.4718  -21.8689 H   0  0  0  0  0
  -33.4491  106.6934  -18.3055 H   0  0  0  0  0
  -34.0626  105.0674  -17.9881 H   0  0  0  0  0
  1  2  4  0  0  0
  1  7  4  0  0  0
  2  3  4  0  0  0
  3  4  1  0  0  0
  3  5  4  0  0  0
  5  6  4  0  0  0
  6  7  4  0  0  0
  7  8  1  0  0  0
  8  9  1  0  0  0
  9 10  1  0  0  0
  9 11  1  0  0  0
 11 12  2  0  0  0
 11 13  1  0  0  0
 13 14  1  0  0  0
 14 15  2  0  0  0
 14 16  2  0  0  0
 14 17  1  0  0  0
 17 18  1  0  0  0
 18 19  1  0  0  0
 19 20  1  0  0  0
 19 21  1  0  0  0
 20 25  1  0  0  0
 21 22  1  0  0  0
 21 23  1  0  0  0
 23 24  1  0  0  0
 23 25  1  0  0  0
 25 26  1  0  0  0
 26 27  4  0  0  0
 26 30  4  0  0  0
 27 28  4  0  0  0
 28 29  4  0  0  0
 29 30  4  0  0  0
 29 34  4  0  0  0
 30 31  4  0  0  0
 31 32  4  0  0  0
 32 33  4  0  0  0
 33 34  4  0  0  0
 34 35  1  0  0  0
  1 36  1  0  0  0
  2 37  1  0  0  0
  4 38  1  0  0  0
  5 39  1  0  0  0
  6 40  1  0  0  0
  8 41  1  0  0  0
  8 42  1  0  0  0
  9 43  1  0  0  0
 10 44  1  0  0  0
 10 45  1  0  0  0
 10 46  1  0  0  0
 13 47  1  0  0  0
 18 48  1  0  0  0
 18 49  1  0  0  0
 19 50  1  0  0  0
 21 51  1  0  0  0
 22 52  1  0  0  0
 23 53  1  0  0  0
 24 54  1  0  0  0
 25 55  1  0  0  0
 27 56  1  0  0  0
 32 57  1  0  0  0
 35 58  1  0  0  0
 35 59  1  0  0  0
M  END
$$$$
