4qmm_ligand
  -I-interpret- 

 50 54  0  0  0  0  0  0  0  0999 V2000
  124.8160    0.1160   77.4390 O   0  0  0  0  0
  125.3470    1.1450   76.9660 C   0  0  0  0  0
  125.2400    2.3460   77.5790 N   0  0  0  0  0
  125.4320    3.5960   76.9280 C   0  0  0  0  0
  126.8780    4.1060   76.7920 C   0  0  0  0  0
  125.9360    4.7290   77.8330 C   0  0  0  0  0
  126.0700    1.1360   75.8250 N   0  0  0  0  0
  126.3070    0.0930   74.9810 C   0  0  0  0  0
  125.9290   -1.2410   75.0930 C   0  0  0  0  0
  126.3960   -1.8730   74.0070 N   0  0  0  0  0
  127.0420   -1.0570   73.2280 N   0  0  0  0  0
  127.0320    0.1700   73.7810 C   0  0  0  0  0
  127.6330    1.3050   73.1790 C   0  0  0  0  0
  128.2850    1.3140   71.9940 N   0  0  0  0  0
  128.6930    2.5680   71.7470 C   0  0  0  0  0
  129.4100    3.1350   70.6750 C   0  0  0  0  0
  129.6960    4.5200   70.7060 C   0  0  0  0  0
  129.2860    5.3240   71.8090 C   0  0  0  0  0
  129.5760    6.7900   71.8180 C   0  0  0  0  0
  130.9990    7.2560   71.9700 N   0  3  0  0  0
  131.4160    7.3300   73.4030 C   0  0  0  0  0
  132.8760    7.8210   73.5350 C   0  0  0  0  0
  133.0330    9.1130   72.9110 O   0  0  0  0  0
  132.6680    9.1100   71.5120 C   0  0  0  0  0
  131.2280    8.5770   71.2890 C   0  0  0  0  0
  128.5620    4.7180   72.8730 C   0  0  0  0  0
  128.2780    3.3420   72.8240 C   0  0  0  0  0
  127.6200    2.5560   73.6930 N   0  0  0  0  0
  125.0066    2.3559   78.5719 H   0  0  0  0  0
  124.6068    3.4572   76.2295 H   0  0  0  0  0
  127.5604    4.4319   76.0070 H   0  0  0  0  0
  127.8880    3.6991   76.7419 H   0  0  0  0  0
  125.9451    4.9844   78.8926 H   0  0  0  0  0
  125.6162    5.7201   78.1547 H   0  0  0  0  0
  126.4935    2.0256   75.5610 H   0  0  0  0  0
  125.3609   -1.6876   75.9090 H   0  0  0  0  0
  129.7380    2.5185   69.8381 H   0  0  0  0  0
  130.2360    4.9774   69.8770 H   0  0  0  0  0
  129.0618    7.1709   72.7004 H   0  0  0  0  0
  129.2712    7.1409   70.8321 H   0  0  0  0  0
  131.5814    6.5555   71.5111 H   0  0  0  0  0
  131.3430    6.3336   73.8388 H   0  0  0  0  0
  130.7638    8.0342   73.9195 H   0  0  0  0  0
  133.5357    7.1070   73.0420 H   0  0  0  0  0
  133.1271    7.9055   74.5923 H   0  0  0  0  0
  133.3597    8.4566   70.9804 H   0  0  0  0  0
  132.7127   10.1356   71.1456 H   0  0  0  0  0
  130.5298    9.3007   71.7095 H   0  0  0  0  0
  131.0806    8.4364   70.2182 H   0  0  0  0  0
  128.2295    5.3167   73.7210 H   0  0  0  0  0
  1  2  2  0  0  0
  2  3  1  0  0  0
  2  7  1  0  0  0
  3  4  1  0  0  0
  4  5  1  0  0  0
  4  6  1  0  0  0
  5  6  1  0  0  0
  7  8  1  0  0  0
  8  9  4  0  0  0
  8 12  4  0  0  0
  9 10  4  0  0  0
 10 11  4  0  0  0
 11 12  4  0  0  0
 12 13  1  0  0  0
 13 14  4  0  0  0
 13 28  4  0  0  0
 14 15  4  0  0  0
 15 16  4  0  0  0
 15 27  4  0  0  0
 16 17  4  0  0  0
 17 18  4  0  0  0
 18 19  1  0  0  0
 18 26  4  0  0  0
 19 20  1  0  0  0
 20 21  1  0  0  0
 20 25  1  0  0  0
 21 22  1  0  0  0
 22 23  1  0  0  0
 23 24  1  0  0  0
 24 25  1  0  0  0
 26 27  4  0  0  0
 27 28  4  0  0  0
  3 29  1  0  0  0
  4 30  1  0  0  0
  5 31  1  0  0  0
  5 32  1  0  0  0
  6 33  1  0  0  0
  6 34  1  0  0  0
  7 35  1  0  0  0
  9 36  1  0  0  0
 16 37  1  0  0  0
 17 38  1  0  0  0
 19 39  1  0  0  0
 19 40  1  0  0  0
 20 41  1  0  0  0
 21 42  1  0  0  0
 21 43  1  0  0  0
 22 44  1  0  0  0
 22 45  1  0  0  0
 24 46  1  0  0  0
 24 47  1  0  0  0
 25 48  1  0  0  0
 25 49  1  0  0  0
 26 50  1  0  0  0
M  END
$$$$
