3hv7_ligand
  -I-interpret- 

 55 58  0  0  0  0  0  0  0  0999 V2000
   -3.7950   -2.0250  -17.2150 C   0  0  0  0  0
   -4.4310   -1.8120  -15.9790 C   0  0  0  0  0
   -5.5240   -0.9700  -15.9320 C   0  0  0  0  0
   -6.0270   -0.3810  -17.1030 C   0  0  0  0  0
   -5.4080   -0.5830  -18.3090 C   0  0  0  0  0
   -4.2820   -1.4030  -18.3790 C   0  0  0  0  0
   -3.6660   -1.5850  -19.6070 C   0  0  0  0  0
   -2.5350   -2.4050  -19.6630 C   0  0  0  0  0
   -2.0350   -3.0080  -18.5050 C   0  0  0  0  0
   -2.6680   -2.8250  -17.2650 C   0  0  0  0  0
   -2.2000   -3.4440  -16.1520 N   0  0  0  0  0
   -0.9550   -3.3050  -15.7190 C   0  0  0  0  0
   -0.1350   -2.5600  -16.2810 O   0  0  0  0  0
   -0.6520   -4.0450  -14.6440 N   0  0  0  0  0
    0.5220   -4.0250  -13.9850 C   0  0  0  0  0
    1.3380   -2.9740  -13.7940 C   0  0  0  0  0
    2.3360   -3.4650  -12.9980 C   0  0  0  0  0
    3.5940   -2.7060  -12.4840 C   0  0  0  0  0
    3.1400   -1.7040  -11.3760 C   0  0  0  0  0
    4.7110   -3.6360  -11.9670 C   0  0  0  0  0
    4.2600   -1.9790  -13.6320 C   0  0  0  0  0
    2.0940   -4.7520  -12.7310 N   0  0  0  0  0
    1.0090   -5.0680  -13.2880 N   0  0  0  0  0
    0.4680   -6.3200  -13.2110 C   0  0  0  0  0
    0.0370   -7.0650  -14.3420 C   0  0  0  0  0
    0.4130   -6.9230  -11.9520 C   0  0  0  0  0
   -0.1030   -8.2120  -11.7860 C   0  0  0  0  0
   -0.5300   -8.9420  -12.9030 C   0  0  0  0  0
   -0.4730   -8.3730  -14.1700 C   0  0  0  0  0
   -0.9270   -9.0970  -15.1870 N   0  0  0  0  0
   -4.0680   -2.3022  -15.0756 H   0  0  0  0  0
   -6.0018   -0.7601  -14.9751 H   0  0  0  0  0
   -6.9190    0.2434  -17.0525 H   0  0  0  0  0
   -5.7940   -0.1050  -19.2093 H   0  0  0  0  0
   -4.0526   -1.1021  -20.5045 H   0  0  0  0  0
   -2.0385   -2.5757  -20.6182 H   0  0  0  0  0
   -1.1412   -3.6289  -18.5656 H   0  0  0  0  0
   -2.8349   -4.0434  -15.6247 H   0  0  0  0  0
   -1.3721   -4.6775  -14.2950 H   0  0  0  0  0
    1.2292   -1.9621  -14.1842 H   0  0  0  0  0
    2.4226   -0.9995  -11.7968 H   0  0  0  0  0
    2.6740   -2.2546  -10.5588 H   0  0  0  0  0
    4.0076   -1.1608  -11.0015 H   0  0  0  0  0
    4.3303   -4.2331  -11.1384 H   0  0  0  0  0
    5.0353   -4.2949  -12.7725 H   0  0  0  0  0
    5.5539   -3.0348  -11.6261 H   0  0  0  0  0
    4.5596   -2.7004  -14.3922 H   0  0  0  0  0
    3.5590   -1.2645  -14.0635 H   0  0  0  0  0
    5.1394   -1.4503  -13.2643 H   0  0  0  0  0
    0.0993   -6.6295  -15.3393 H   0  0  0  0  0
    0.7795   -6.3780  -11.0821 H   0  0  0  0  0
   -0.1729   -8.6480  -10.7895 H   0  0  0  0  0
   -0.9072   -9.9570  -12.7784 H   0  0  0  0  0
   -0.9153   -8.7129  -16.1318 H   0  0  0  0  0
   -1.2873  -10.0371  -15.0231 H   0  0  0  0  0
  1  2  4  0  0  0
  1  6  4  0  0  0
  1 10  4  0  0  0
  2  3  4  0  0  0
  3  4  4  0  0  0
  4  5  4  0  0  0
  5  6  4  0  0  0
  6  7  4  0  0  0
  7  8  4  0  0  0
  8  9  4  0  0  0
  9 10  4  0  0  0
 10 11  1  0  0  0
 11 12  1  0  0  0
 12 13  2  0  0  0
 12 14  1  0  0  0
 14 15  1  0  0  0
 15 16  4  0  0  0
 15 23  4  0  0  0
 16 17  4  0  0  0
 17 18  1  0  0  0
 17 22  4  0  0  0
 18 19  1  0  0  0
 18 20  1  0  0  0
 18 21  1  0  0  0
 22 23  4  0  0  0
 23 24  1  0  0  0
 24 25  4  0  0  0
 24 26  4  0  0  0
 25 29  4  0  0  0
 26 27  4  0  0  0
 27 28  4  0  0  0
 28 29  4  0  0  0
 29 30  1  0  0  0
  2 31  1  0  0  0
  3 32  1  0  0  0
  4 33  1  0  0  0
  5 34  1  0  0  0
  7 35  1  0  0  0
  8 36  1  0  0  0
  9 37  1  0  0  0
 11 38  1  0  0  0
 14 39  1  0  0  0
 16 40  1  0  0  0
 19 41  1  0  0  0
 19 42  1  0  0  0
 19 43  1  0  0  0
 20 44  1  0  0  0
 20 45  1  0  0  0
 20 46  1  0  0  0
 21 47  1  0  0  0
 21 48  1  0  0  0
 21 49  1  0  0  0
 25 50  1  0  0  0
 26 51  1  0  0  0
 27 52  1  0  0  0
 28 53  1  0  0  0
 30 54  1  0  0  0
 30 55  1  0  0  0
M  END
$$$$
