3fi3_ligand
  -I-interpret- 

 63 67  0  0  0  0  0  0  0  0999 V2000
  -29.1090  -34.4500  -11.5340 C   0  0  0  0  0
  -31.2930  -35.5830   -8.9320 C   0  0  0  0  0
  -36.8610  -36.1110  -14.9630 C   0  0  0  0  0
  -33.3090  -34.0270  -12.5320 C   0  0  0  0  0
  -35.0510  -33.8380  -14.2330 C   0  0  0  0  0
  -27.7630  -35.7560  -10.0170 C   0  0  0  0  0
  -37.1160  -35.2540  -13.7750 C   0  0  0  0  0
  -26.2300  -37.4530   -8.6090 C   0  0  0  0  0
  -30.0920  -35.4870   -9.5420 C   0  0  0  0  0
  -30.2270  -34.7160  -10.6870 C   0  0  0  0  0
  -24.2980  -36.2220   -7.7080 F   0  0  0  0  0
  -25.1330  -37.2990   -7.6430 C   0  0  0  0  0
  -24.9510  -38.2560   -6.7010 C   0  0  0  0  0
  -25.8270  -39.3590   -6.6540 C   0  0  0  0  0
  -27.1030  -38.5160   -8.5500 C   0  0  0  0  0
  -26.9140  -39.4950   -7.5680 C   0  0  0  0  0
  -26.5760  -36.4090   -9.5350 N   0  0  0  0  0
  -27.8890  -34.9570  -11.2350 C   0  0  0  0  0
  -28.8270  -36.0060   -9.2150 C   0  0  0  0  0
  -31.5100  -34.3530  -10.7610 N   0  0  0  0  0
  -32.1900  -34.8750   -9.6820 N   0  0  0  0  0
  -32.0680  -33.5720  -11.8420 C   0  0  0  0  0
  -31.4150  -32.4640  -12.2790 C   0  0  0  0  0
  -31.9370  -31.7160  -13.3660 C   0  0  0  0  0
  -33.8070  -33.2890  -13.5690 C   0  0  0  0  0
  -33.1510  -32.1330  -14.0230 C   0  0  0  0  0
  -35.1270  -33.9320  -15.4050 O   0  0  0  0  0
  -36.0530  -34.0000  -13.3410 N   0  0  0  0  0
  -38.2400  -35.4400  -13.0210 C   0  0  0  0  0
  -39.1920  -36.4130  -13.4160 C   0  0  0  0  0
  -40.3470  -36.5940  -12.6540 O   0  0  0  0  0
  -40.2900  -36.2520  -11.2990 C   0  0  0  0  0
  -38.9540  -37.2320  -14.5800 C   0  0  0  0  0
  -39.8680  -38.2160  -14.9430 O   0  0  0  0  0
  -39.7450  -39.4790  -14.3560 C   0  0  0  0  0
  -37.7770  -37.0600  -15.3330 C   0  0  0  0  0
  -37.5470  -37.8430  -16.4630 O   0  0  0  0  0
  -38.4350  -37.7620  -17.5380 C   0  0  0  0  0
  -29.2377  -33.8361  -12.4254 H   0  0  0  0  0
  -31.5076  -36.1252   -8.0111 H   0  0  0  0  0
  -35.9448  -35.9841  -15.5397 H   0  0  0  0  0
  -33.8138  -34.9388  -12.2127 H   0  0  0  0  0
  -24.1333  -38.1733   -5.9851 H   0  0  0  0  0
  -25.6698  -40.1291   -5.8988 H   0  0  0  0  0
  -27.9287  -38.5939   -9.2573 H   0  0  0  0  0
  -27.5877  -40.3493   -7.5024 H   0  0  0  0  0
  -25.7419  -36.0210   -9.9755 H   0  0  0  0  0
  -27.0299  -34.7754  -11.8808 H   0  0  0  0  0
  -28.7017  -36.6097   -8.3162 H   0  0  0  0  0
  -30.4904  -32.1496  -11.7949 H   0  0  0  0  0
  -31.4170  -30.8206  -13.7065 H   0  0  0  0  0
  -33.5532  -31.5602  -14.8586 H   0  0  0  0  0
  -36.1599  -33.4326  -12.5001 H   0  0  0  0  0
  -38.4034  -34.8448  -12.1226 H   0  0  0  0  0
  -39.5237  -36.8505  -10.8064 H   0  0  0  0  0
  -40.0445  -35.1944  -11.2025 H   0  0  0  0  0
  -41.2575  -36.4455  -10.8357 H   0  0  0  0  0
  -38.7682  -39.8974  -14.5985 H   0  0  0  0  0
  -39.8438  -39.3867  -13.2744 H   0  0  0  0  0
  -40.5275  -40.1340  -14.7390 H   0  0  0  0  0
  -39.4328  -38.0486  -17.2058 H   0  0  0  0  0
  -38.4557  -36.7392  -17.9142 H   0  0  0  0  0
  -38.1071  -38.4352  -18.3300 H   0  0  0  0  0
 10  1  4  0  0  0
  1 18  4  0  0  0
  2  9  4  0  0  0
 21  2  4  0  0  0
  7  3  4  0  0  0
  3 36  4  0  0  0
 22  4  4  0  0  0
  4 25  4  0  0  0
 25  5  1  0  0  0
  5 27  2  0  0  0
  5 28  1  0  0  0
  6 17  1  0  0  0
 18  6  4  0  0  0
 19  6  4  0  0  0
 28  7  1  0  0  0
  7 29  4  0  0  0
  8 12  4  0  0  0
  8 15  4  0  0  0
 17  8  1  0  0  0
 10  9  4  0  0  0
  9 19  4  0  0  0
 20 10  4  0  0  0
 12 11  1  0  0  0
 12 13  4  0  0  0
 13 14  4  0  0  0
 16 14  4  0  0  0
 15 16  4  0  0  0
 20 21  4  0  0  0
 20 22  1  0  0  0
 22 23  4  0  0  0
 23 24  4  0  0  0
 24 26  4  0  0  0
 25 26  4  0  0  0
 29 30  4  0  0  0
 30 31  1  0  0  0
 30 33  4  0  0  0
 31 32  1  0  0  0
 33 34  1  0  0  0
 33 36  4  0  0  0
 34 35  1  0  0  0
 36 37  1  0  0  0
 37 38  1  0  0  0
  1 39  1  0  0  0
  2 40  1  0  0  0
  3 41  1  0  0  0
  4 42  1  0  0  0
 13 43  1  0  0  0
 14 44  1  0  0  0
 15 45  1  0  0  0
 16 46  1  0  0  0
 17 47  1  0  0  0
 18 48  1  0  0  0
 19 49  1  0  0  0
 23 50  1  0  0  0
 24 51  1  0  0  0
 26 52  1  0  0  0
 28 53  1  0  0  0
 29 54  1  0  0  0
 32 55  1  0  0  0
 32 56  1  0  0  0
 32 57  1  0  0  0
 35 58  1  0  0  0
 35 59  1  0  0  0
 35 60  1  0  0  0
 38 61  1  0  0  0
 38 62  1  0  0  0
 38 63  1  0  0  0
M  END
$$$$
