3w2r_ligand
  -I-interpret- 

 73 77  0  0  0  0  0  0  0  0999 V2000
    5.4560   16.1160   46.4940 C   0  0  0  0  0
    4.5280   16.9110   45.8490 C   0  0  0  0  0
    4.6750   10.7990   46.8950 C   0  0  0  0  0
    5.7160   14.8610   45.9700 C   0  0  0  0  0
    4.5450   11.9180   46.1060 C   0  0  0  0  0
    8.1300    5.2950   49.6710 C   0  0  0  0  0
    4.1270   15.2310   44.1940 C   0  0  0  0  0
    6.5170   10.0600   45.5680 C   0  0  0  0  0
    6.7800    5.0150   49.6240 C   0  0  0  0  0
    9.3050    8.3340   48.1570 C   0  0  0  0  0
    8.3420    6.5280   49.0090 C   0  0  0  0  0
    7.1150    6.9990   48.5740 C   0  0  0  0  0
    3.8620   16.4740   44.7190 C   0  0  0  0  0
    5.6630    9.8700   46.6410 C   0  0  0  0  0
    5.0560   14.4370   44.8300 C   0  0  0  0  0
    5.4080   12.1030   45.0460 C   0  0  0  0  0
    6.3930   11.1810   44.7670 C   0  0  0  0  0
    7.0290    8.1880   47.8800 C   0  0  0  0  0
    2.1950   17.1610   42.9610 C   0  0  0  0  0
   -0.7060   19.6670   39.2140 C   0  0  0  0  0
   -1.4180   19.3690   40.5060 C   0  0  0  0  0
    0.4580   18.6950   39.0020 C   0  0  0  0  0
   -0.4180   19.4270   41.6450 C   0  0  0  0  0
    1.4260   18.7470   40.1680 C   0  0  0  0  0
    0.6770   18.4010   41.4380 C   0  0  0  0  0
    4.7550    6.0500   48.7010 C   0  0  0  0  0
    3.9410    6.6060   49.8330 C   0  0  0  0  0
    2.3010    9.6130   49.5660 C   0  0  0  0  0
    3.0480    8.6650   50.4530 C   0  0  0  0  0
    9.4960    7.1960   48.8190 N   0  0  0  0  0
    8.1730    8.8550   47.6800 N   0  0  0  0  0
    6.1830    6.0500   48.9590 N   0  0  0  0  0
    5.7890    8.7040   47.4220 N   0  0  0  0  0
    2.9300   17.3440   44.1180 N   0  0  0  0  0
    1.5540   18.3230   42.5940 N   0  0  0  0  0
    2.0300   16.1120   42.3630 O   0  0  0  0  0
    1.5420    8.8190   48.6810 O   0  0  0  0  0
    5.3030   13.2140   44.2270 O   0  0  0  0  0
    4.0050    8.0080   49.6250 O   0  0  0  0  0
    7.4610   11.4160   43.4250 Cl  0  0  0  0  0
    5.9687   16.4668   47.3897 H   0  0  0  0  0
    4.3160   17.9060   46.2403 H   0  0  0  0  0
    3.9907   10.6445   47.7293 H   0  0  0  0  0
    6.4405   14.2071   46.4554 H   0  0  0  0  0
    3.7671   12.6520   46.3164 H   0  0  0  0  0
    8.8976    4.6762   50.1357 H   0  0  0  0  0
    3.6149   14.8826   43.2971 H   0  0  0  0  0
    7.2907    9.3228   45.3534 H   0  0  0  0  0
    6.2842    4.1369   50.0377 H   0  0  0  0  0
   10.2026    8.9261   47.9785 H   0  0  0  0  0
   -0.3141   20.6833   39.2535 H   0  0  0  0  0
   -1.4108   19.5584   38.3897 H   0  0  0  0  0
   -1.8648   18.3759   40.4591 H   0  0  0  0  0
   -2.2054   20.1046   40.6701 H   0  0  0  0  0
    0.9890   18.9772   38.0929 H   0  0  0  0  0
    0.0597   17.6835   38.9220 H   0  0  0  0  0
   -0.9332   19.2128   42.5814 H   0  0  0  0  0
    0.0279   20.4212   41.6761 H   0  0  0  0  0
    1.8522   19.7468   40.2506 H   0  0  0  0  0
    2.2347   18.0336   40.0095 H   0  0  0  0  0
    0.2399   17.4084   41.3290 H   0  0  0  0  0
    4.5797    6.6822   47.8305 H   0  0  0  0  0
    4.4487    5.0141   48.5557 H   0  0  0  0  0
    4.3236    6.3093   50.8096 H   0  0  0  0  0
    2.9182    6.2293   49.8382 H   0  0  0  0  0
    2.9876   10.2595   49.0194 H   0  0  0  0  0
    1.6573   10.2699   50.1509 H   0  0  0  0  0
    2.3713    7.9460   50.9148 H   0  0  0  0  0
    3.5367    9.1963   51.2697 H   0  0  0  0  0
    4.9381    8.2008   47.6732 H   0  0  0  0  0
    2.7769   18.2286   44.6022 H   0  0  0  0  0
    1.7005   19.1618   43.1555 H   0  0  0  0  0
    1.0436    9.3879   48.0898 H   0  0  0  0  0
  1  2  4  0  0  0
  4  1  4  0  0  0
 13  2  4  0  0  0
  3  5  4  0  0  0
 14  3  4  0  0  0
 15  4  4  0  0  0
  5 16  4  0  0  0
  9  6  4  0  0  0
 11  6  4  0  0  0
  7 13  4  0  0  0
 15  7  4  0  0  0
 14  8  4  0  0  0
  8 17  4  0  0  0
 32  9  4  0  0  0
 30 10  4  0  0  0
 31 10  4  0  0  0
 12 11  4  0  0  0
 11 30  4  0  0  0
 12 18  4  0  0  0
 32 12  4  0  0  0
 13 34  1  0  0  0
 33 14  1  0  0  0
 38 15  1  0  0  0
 17 16  4  0  0  0
 16 38  1  0  0  0
 17 40  1  0  0  0
 18 31  4  0  0  0
 18 33  1  0  0  0
 34 19  1  0  0  0
 19 35  1  0  0  0
 19 36  2  0  0  0
 21 20  1  0  0  0
 22 20  1  0  0  0
 23 21  1  0  0  0
 24 22  1  0  0  0
 25 23  1  0  0  0
 25 24  1  0  0  0
 35 25  1  0  0  0
 27 26  1  0  0  0
 26 32  1  0  0  0
 39 27  1  0  0  0
 29 28  1  0  0  0
 28 37  1  0  0  0
 29 39  1  0  0  0
  1 41  1  0  0  0
  2 42  1  0  0  0
  3 43  1  0  0  0
  4 44  1  0  0  0
  5 45  1  0  0  0
  6 46  1  0  0  0
  7 47  1  0  0  0
  8 48  1  0  0  0
  9 49  1  0  0  0
 10 50  1  0  0  0
 20 51  1  0  0  0
 20 52  1  0  0  0
 21 53  1  0  0  0
 21 54  1  0  0  0
 22 55  1  0  0  0
 22 56  1  0  0  0
 23 57  1  0  0  0
 23 58  1  0  0  0
 24 59  1  0  0  0
 24 60  1  0  0  0
 25 61  1  0  0  0
 26 62  1  0  0  0
 26 63  1  0  0  0
 27 64  1  0  0  0
 27 65  1  0  0  0
 28 66  1  0  0  0
 28 67  1  0  0  0
 29 68  1  0  0  0
 29 69  1  0  0  0
 33 70  1  0  0  0
 34 71  1  0  0  0
 35 72  1  0  0  0
 37 73  1  0  0  0
M  END
$$$$
