5i9z_ligand
  -I-interpret- 

 63 67  0  0  0  0  0  0  0  0999 V2000
 -102.0340  -16.2260   47.2230 N   0  0  0  0  0
 -102.6900  -15.3280   43.7690 N   0  0  0  0  0
 -100.5900  -15.1880   44.0200 C   0  0  0  0  0
 -101.6350  -15.0250   43.1930 N   0  0  0  0  0
  -99.3400  -14.8820   43.5460 N   0  0  0  0  0
  -98.2090  -15.1270   44.2660 C   0  0  0  0  0
  -96.9650  -14.7470   43.7250 C   0  0  0  0  0
  -98.2030  -15.6460   45.3780 O   0  0  0  0  0
  -96.7840  -14.2660   42.4310 C   0  0  0  0  0
  -95.5150  -13.9020   41.9630 C   0  0  0  0  0
  -94.5720  -14.5140   44.0800 C   0  0  0  0  0
  -95.8410  -14.8700   44.5400 C   0  0  0  0  0
 -102.4240  -15.7210   45.0260 C   0  0  0  0  0
 -101.0960  -15.6280   45.1960 C   0  0  0  0  0
 -100.7760  -16.0270   46.5270 C   0  0  0  0  0
 -103.0690  -16.1880   46.1890 C   0  0  0  0  0
  -93.1780  -13.6800   42.3380 N   0  0  0  0  0
  -92.1560  -13.8550   43.3900 C   0  0  0  0  0
  -90.7720  -13.4290   42.9110 C   0  0  0  0  0
  -90.8010  -12.0240   42.4790 N   0  3  0  0  0
  -91.7650  -11.8900   41.3720 C   0  0  0  0  0
  -93.1570  -12.2870   41.8570 C   0  0  0  0  0
  -89.4620  -11.5800   42.0660 C   0  0  0  0  0
  -94.3990  -14.0190   42.7900 C   0  0  0  0  0
 -102.2840  -16.4680   48.5240 C   0  0  0  0  0
 -103.4190  -16.6580   48.9760 O   0  0  0  0  0
 -100.6410  -15.1650   49.7290 C   0  0  0  0  0
  -99.3000  -14.7990   49.6050 C   0  0  0  0  0
 -101.5670  -14.1930   50.1160 C   0  0  0  0  0
  -98.8860  -13.4920   49.8560 C   0  0  0  0  0
 -101.1500  -12.8810   50.3760 C   0  0  0  0  0
 -101.0560  -16.4860   49.4590 C   0  0  0  0  0
  -99.8070  -12.5280   50.2490 C   0  0  0  0  0
 -100.3750  -17.3350   51.5970 C   0  0  0  0  0
 -101.4590  -17.1570   50.6660 O   0  0  0  0  0
  -99.2538  -14.4565   42.6230 H   0  0  0  0  0
  -97.6456  -14.1710   41.7701 H   0  0  0  0  0
  -95.3995  -13.5252   40.9467 H   0  0  0  0  0
  -93.7089  -14.6245   44.7364 H   0  0  0  0  0
  -95.9549  -15.2510   45.5549 H   0  0  0  0  0
  -99.7769  -16.1577   46.9426 H   0  0  0  0  0
 -104.1183  -16.4631   46.2958 H   0  0  0  0  0
  -92.1163  -14.9110   43.6570 H   0  0  0  0  0
  -92.4306  -13.2325   44.2416 H   0  0  0  0  0
  -90.4738  -14.0567   42.0713 H   0  0  0  0  0
  -90.0596  -13.5385   43.7287 H   0  0  0  0  0
  -91.0924  -11.4314   43.2564 H   0  0  0  0  0
  -91.4673  -12.5418   40.5506 H   0  0  0  0  0
  -91.7817  -10.8557   41.0285 H   0  0  0  0  0
  -93.4383  -11.6307   42.6806 H   0  0  0  0  0
  -93.8541  -12.1965   41.0240 H   0  0  0  0  0
  -88.7735  -11.6771   42.9054 H   0  0  0  0  0
  -89.1156  -12.1971   41.2370 H   0  0  0  0  0
  -89.5075  -10.5377   41.7504 H   0  0  0  0  0
  -98.5650  -15.5468   49.3073 H   0  0  0  0  0
 -102.6198  -14.4569   50.2162 H   0  0  0  0  0
  -97.8353  -13.2246   49.7436 H   0  0  0  0  0
 -101.8804  -12.1310   50.6796 H   0  0  0  0  0
 -100.2138  -17.0050   49.0014 H   0  0  0  0  0
  -99.4832  -11.5079   50.4555 H   0  0  0  0  0
  -99.5913  -17.9319   51.1304 H   0  0  0  0  0
  -99.9738  -16.3607   51.8762 H   0  0  0  0  0
 -100.7422  -17.8467   52.4867 H   0  0  0  0  0
  1 15  4  0  0  0
  1 16  4  0  0  0
 25  1  1  0  0  0
  2  4  4  0  0  0
 13  2  4  0  0  0
  3  4  4  0  0  0
  3  5  1  0  0  0
 14  3  4  0  0  0
  5  6  1  0  0  0
  6  7  1  0  0  0
  6  8  2  0  0  0
  7  9  4  0  0  0
  7 12  4  0  0  0
  9 10  4  0  0  0
 10 24  4  0  0  0
 12 11  4  0  0  0
 11 24  4  0  0  0
 13 14  4  0  0  0
 16 13  4  0  0  0
 15 14  4  0  0  0
 17 18  1  0  0  0
 17 22  1  0  0  0
 24 17  1  0  0  0
 18 19  1  0  0  0
 19 20  1  0  0  0
 21 20  1  0  0  0
 20 23  1  0  0  0
 22 21  1  0  0  0
 25 26  2  0  0  0
 32 25  1  0  0  0
 27 28  4  0  0  0
 27 29  4  0  0  0
 27 32  1  0  0  0
 28 30  4  0  0  0
 29 31  4  0  0  0
 30 33  4  0  0  0
 31 33  4  0  0  0
 32 35  1  0  0  0
 35 34  1  0  0  0
  5 36  1  0  0  0
  9 37  1  0  0  0
 10 38  1  0  0  0
 11 39  1  0  0  0
 12 40  1  0  0  0
 15 41  1  0  0  0
 16 42  1  0  0  0
 18 43  1  0  0  0
 18 44  1  0  0  0
 19 45  1  0  0  0
 19 46  1  0  0  0
 20 47  1  0  0  0
 21 48  1  0  0  0
 21 49  1  0  0  0
 22 50  1  0  0  0
 22 51  1  0  0  0
 23 52  1  0  0  0
 23 53  1  0  0  0
 23 54  1  0  0  0
 28 55  1  0  0  0
 29 56  1  0  0  0
 30 57  1  0  0  0
 31 58  1  0  0  0
 32 59  1  0  0  0
 33 60  1  0  0  0
 34 61  1  0  0  0
 34 62  1  0  0  0
 34 63  1  0  0  0
M  END
$$$$
