2ica_ligand
  -I-interpret- 

 58 62  0  0  0  0  0  0  0  0999 V2000
   -5.9170   -0.3460   28.3750 C   0  0  0  0  0
   -5.3870   -0.1250   29.6500 C   0  0  0  0  0
   -7.8190    1.1030   28.8260 C   0  0  0  0  0
   -7.1200    0.2360   27.9440 C   0  0  0  0  0
  -10.1350    1.7020   29.1900 C   0  0  0  0  0
  -10.7030    2.5370   27.0990 C   0  0  0  0  0
  -10.9490    3.9460   26.5410 C   0  0  0  0  0
  -11.7360    3.7710   25.2940 N   0  3  0  0  0
  -11.4780    2.4260   24.8100 C   0  0  0  0  0
  -11.3600    1.6130   26.0770 C   0  0  0  0  0
  -10.8010    0.2210   25.9750 C   0  0  0  0  0
  -10.8020   -2.0610   26.8730 C   0  0  0  0  0
   -9.1710   -1.4240   25.1750 C   0  0  0  0  0
   -9.7220   -0.1330   25.1160 C   0  0  0  0  0
   -9.1980   -3.7090   26.0550 C   0  0  0  0  0
   -5.0550   -1.4000   27.3100 Cl  0  0  0  0  0
   -6.1080    0.7090   30.5060 C   0  0  0  0  0
   -7.2970    1.3340   30.1120 C   0  0  0  0  0
   -8.9920    1.6820   28.4480 N   0  0  0  0  0
  -11.1120    2.2600   28.4660 N   0  0  0  0  0
  -11.3580   -0.7730   26.8130 C   0  0  0  0  0
   -9.7150   -2.3790   26.0470 C   0  0  0  0  0
   -8.8040   -4.7980   26.0330 N   0  0  0  0  0
  -11.4910    4.6370   24.1370 C   0  0  0  0  0
  -12.1830    5.9530   24.2900 C   0  0  0  0  0
  -11.3500    7.2220   25.1550 S   0  0  0  0  0
  -12.7530    8.2560   25.0140 C   0  0  0  0  0
  -13.6670    7.7260   24.1900 C   0  0  0  0  0
  -13.3550    6.3550   23.7660 C   0  0  0  0  0
  -14.8570    8.4870   23.7440 C   0  0  0  0  0
  -15.6030    7.9730   22.8830 O   0  0  0  0  0
  -15.0660    9.6200   24.2290 O   0  0  0  0  0
   -9.2020    2.2330   27.2230 C   0  0  0  0  0
   -8.3850    2.4670   26.3330 O   0  0  0  0  0
  -12.4870    2.4400   28.9310 C   0  0  0  0  0
  -10.2820    1.2740   30.3330 O   0  0  0  0  0
   -5.5300    0.9450   32.1050 Cl  0  0  0  0  0
   -4.4495   -0.5850   29.9625 H   0  0  0  0  0
   -7.5113    0.0259   26.9486 H   0  0  0  0  0
  -10.0075    4.4576   26.3410 H   0  0  0  0  0
  -11.4874    4.5632   27.2602 H   0  0  0  0  0
  -12.6805    4.0057   25.5993 H   0  0  0  0  0
  -10.5822    2.3688   24.1916 H   0  0  0  0  0
  -12.2653    2.0607   24.1506 H   0  0  0  0  0
  -12.3558    1.3133   26.4034 H   0  0  0  0  0
  -11.2115   -2.8061   27.5550 H   0  0  0  0  0
   -8.3213   -1.6835   24.5436 H   0  0  0  0  0
   -9.3234    0.5979   24.4124 H   0  0  0  0  0
   -7.8179    1.9990   30.8008 H   0  0  0  0  0
  -12.2312   -0.5358   27.4208 H   0  0  0  0  0
  -11.8765    4.1430   23.2451 H   0  0  0  0  0
  -10.4187    4.8152   24.0570 H   0  0  0  0  0
  -12.8691    9.2091   25.5300 H   0  0  0  0  0
  -13.9855    5.7475   23.1168 H   0  0  0  0  0
  -14.3798    9.8247   24.8685 H   0  0  0  0  0
  -12.7791    3.4823   28.8027 H   0  0  0  0  0
  -13.1522    1.8008   28.3504 H   0  0  0  0  0
  -12.5509    2.1706   29.9852 H   0  0  0  0  0
  1  2  4  0  0  0
  4  1  4  0  0  0
  1 16  1  0  0  0
  2 17  4  0  0  0
  3  4  4  0  0  0
  3 18  4  0  0  0
 19  3  1  0  0  0
  5 19  1  0  0  0
 20  5  1  0  0  0
  5 36  2  0  0  0
  6  7  1  0  0  0
  6 10  1  0  0  0
  6 20  1  0  0  0
  6 33  1  0  0  0
  7  8  1  0  0  0
  8  9  1  0  0  0
  8 24  1  0  0  0
  9 10  1  0  0  0
 10 11  1  0  0  0
 11 14  4  0  0  0
 11 21  4  0  0  0
 21 12  4  0  0  0
 12 22  4  0  0  0
 14 13  4  0  0  0
 13 22  4  0  0  0
 22 15  1  0  0  0
 15 23  3  0  0  0
 17 18  4  0  0  0
 17 37  1  0  0  0
 19 33  1  0  0  0
 20 35  1  0  0  0
 24 25  1  0  0  0
 25 26  4  0  0  0
 25 29  4  0  0  0
 26 27  4  0  0  0
 27 28  4  0  0  0
 28 29  4  0  0  0
 28 30  1  0  0  0
 30 31  2  0  0  0
 30 32  1  0  0  0
 33 34  2  0  0  0
  2 38  1  0  0  0
  4 39  1  0  0  0
  7 40  1  0  0  0
  7 41  1  0  0  0
  8 42  1  0  0  0
  9 43  1  0  0  0
  9 44  1  0  0  0
 10 45  1  0  0  0
 12 46  1  0  0  0
 13 47  1  0  0  0
 14 48  1  0  0  0
 18 49  1  0  0  0
 21 50  1  0  0  0
 24 51  1  0  0  0
 24 52  1  0  0  0
 27 53  1  0  0  0
 29 54  1  0  0  0
 32 55  1  0  0  0
 35 56  1  0  0  0
 35 57  1  0  0  0
 35 58  1  0  0  0
M  END
$$$$
