6hx1_ligand
  -I-interpret- 

 38 42  0  0  0  0  0  0  0  0999 V2000
   -5.8870   -7.6770   28.1670 C   0  0  0  0  0
   -5.0680   -7.4220   27.0510 C   0  0  0  0  0
   -4.5000   -8.4760   26.3370 C   0  0  0  0  0
   -3.1680   -7.0300   24.7420 C   0  0  0  0  0
   -4.2540   -6.2610   23.9870 C   0  0  0  0  0
   -3.9630   -5.8010   22.5550 C   0  0  0  0  0
   -4.9410  -11.9290   27.0780 C   0  0  0  0  0
   -6.7760  -11.3740   30.3210 C   0  0  0  0  0
   -7.5290  -12.0460   31.3080 C   0  0  0  0  0
   -7.9720  -11.7180   32.5730 C   0  0  0  0  0
   -7.6870  -14.0160   29.8010 C   0  0  0  0  0
   -6.6130   -6.4010   29.0890 Cl  0  0  0  0  0
   -3.6820   -8.3240   25.2130 N   0  0  0  0  0
   -4.9440   -6.9530   22.8110 C   0  0  0  0  0
   -4.7840   -9.7960   26.7710 C   0  0  0  0  0
   -4.4090  -10.9780   26.3190 N   0  0  0  0  0
   -5.7000  -11.3340   28.0640 C   0  0  0  0  0
   -6.4850  -12.0150   29.1230 C   0  0  0  0  0
   -8.6470  -12.7700   33.0490 N   0  0  0  0  0
   -8.6600  -13.8060   32.1130 N   0  0  0  0  0
   -8.0000  -13.4170   31.0420 C   0  0  0  0  0
   -6.9570  -13.3290   28.8850 C   0  0  0  0  0
   -5.5920   -9.9860   27.8620 N   0  0  0  0  0
   -6.1340   -8.8970   28.5430 N   0  0  0  0  0
   -4.8767   -6.3940   26.7432 H   0  0  0  0  0
   -2.8524   -6.4410   25.6032 H   0  0  0  0  0
   -2.3287   -7.2073   24.0695 H   0  0  0  0  0
   -4.5917   -5.7678   24.8985 H   0  0  0  0  0
   -3.1014   -5.5840   21.9236 H   0  0  0  0  0
   -3.9208   -4.8725   21.9857 H   0  0  0  0  0
   -4.8011  -13.0016   26.9440 H   0  0  0  0  0
   -6.4246  -10.3574   30.4978 H   0  0  0  0  0
   -7.8027  -10.7736   33.0902 H   0  0  0  0  0
   -8.0305  -15.0265   29.5797 H   0  0  0  0  0
   -3.4268   -9.1610   24.6888 H   0  0  0  0  0
   -5.9492   -7.2520   22.5139 H   0  0  0  0  0
   -5.1275   -7.9656   22.4516 H   0  0  0  0  0
   -6.7260  -13.8059   27.9325 H   0  0  0  0  0
  2  1  4  0  0  0
  1 12  1  0  0  0
  1 24  4  0  0  0
  3  2  4  0  0  0
  3 13  1  0  0  0
 15  3  4  0  0  0
  4  5  1  0  0  0
 13  4  1  0  0  0
  5  6  1  0  0  0
  5 14  1  0  0  0
 14  6  1  0  0  0
  7 16  4  0  0  0
 17  7  4  0  0  0
  8  9  4  0  0  0
 18  8  4  0  0  0
  9 10  4  0  0  0
  9 21  4  0  0  0
 10 19  4  0  0  0
 21 11  4  0  0  0
 11 22  4  0  0  0
 16 15  4  0  0  0
 15 23  4  0  0  0
 17 18  1  0  0  0
 17 23  4  0  0  0
 18 22  4  0  0  0
 19 20  4  0  0  0
 20 21  4  0  0  0
 23 24  4  0  0  0
  2 25  1  0  0  0
  4 26  1  0  0  0
  4 27  1  0  0  0
  5 28  1  0  0  0
  6 29  1  0  0  0
  6 30  1  0  0  0
  7 31  1  0  0  0
  8 32  1  0  0  0
 10 33  1  0  0  0
 11 34  1  0  0  0
 13 35  1  0  0  0
 14 36  1  0  0  0
 14 37  1  0  0  0
 22 38  1  0  0  0
M  END
$$$$
