5nvc_ligand
  -I-interpret- 

 28 30  0  0  0  0  0  0  0  0999 V2000
    5.9190   37.2170    9.6880 C   0  0  0  0  0
    5.8380   37.6730    8.3750 C   0  0  0  0  0
    5.2380   36.9210    7.4110 O   0  0  0  0  0
    6.4110   38.8830    8.0220 C   0  0  0  0  0
    7.0430   39.6390    8.9850 C   0  0  0  0  0
    7.1130   39.1980   10.3050 C   0  0  0  0  0
    6.5700   37.9730   10.6600 C   0  0  0  0  0
    6.6170   37.5420   11.9940 C   0  0  0  0  0
    5.8010   36.5710   12.4010 N   0  0  0  0  0
    5.8130   36.1480   13.6800 C   0  0  0  0  0
    4.9320   35.1410   14.0440 C   0  0  0  0  0
    4.8980   34.6930   15.3510 C   0  0  0  0  0
    5.7370   35.2590   16.3080 C   0  0  0  0  0
    6.6140   36.2810   15.9450 C   0  0  0  0  0
    6.6370   36.7300   14.6380 C   0  0  0  0  0
    7.5200   37.7450   14.2430 C   0  0  0  0  0
    8.3190   38.2700   15.0290 O   0  0  0  0  0
    7.4880   38.1360   12.9080 N   0  0  0  0  0
    5.4696   36.2612    9.9573 H   0  0  0  0  0
    5.2741   37.3885    6.5733 H   0  0  0  0  0
    6.3625   39.2344    6.9913 H   0  0  0  0  0
    7.4934   40.5931    8.7112 H   0  0  0  0  0
    7.5960   39.8179   11.0603 H   0  0  0  0  0
    4.2667   34.7030   13.2999 H   0  0  0  0  0
    4.2124   33.8942   15.6338 H   0  0  0  0  0
    5.7083   34.9041   17.3382 H   0  0  0  0  0
    7.2777   36.7232   16.6880 H   0  0  0  0  0
    8.1160   38.8742   12.5901 H   0  0  0  0  0
  1  2  4  0  0  0
  1  7  4  0  0  0
  2  3  1  0  0  0
  2  4  4  0  0  0
  4  5  4  0  0  0
  5  6  4  0  0  0
  6  7  4  0  0  0
  7  8  1  0  0  0
  8  9  2  0  0  0
  8 18  1  0  0  0
  9 10  1  0  0  0
 10 11  4  0  0  0
 10 15  4  0  0  0
 11 12  4  0  0  0
 12 13  4  0  0  0
 13 14  4  0  0  0
 14 15  4  0  0  0
 15 16  1  0  0  0
 16 17  2  0  0  0
 16 18  1  0  0  0
  1 19  1  0  0  0
  3 20  1  0  0  0
  4 21  1  0  0  0
  5 22  1  0  0  0
  6 23  1  0  0  0
 11 24  1  0  0  0
 12 25  1  0  0  0
 13 26  1  0  0  0
 14 27  1  0  0  0
 18 28  1  0  0  0
M  END
$$$$
