5kmf_ligand
  -I-interpret- 

 58 59  0  0  0  0  0  0  0  0999 V2000
   -4.4110  134.5270   18.2580 C   0  0  0  0  0
   -5.3080  134.2870   17.0730 C   0  0  0  0  0
   -7.7010  131.3520   16.6250 C   0  0  0  0  0
  -12.1650  131.6240   10.5350 C   0  0  0  0  0
  -10.8970  131.0110   10.5940 O   0  0  0  0  0
   -9.8070  131.7810   11.1180 C   0  0  0  0  0
   -9.8120  131.8570   12.6660 C   0  0  0  0  0
   -8.4910  132.1060   13.1660 O   0  0  0  0  0
   -8.5190  132.8680   14.3140 C   0  0  0  0  0
   -9.6190  133.1450   14.8330 O   0  0  0  0  0
   -7.2330  133.2480   15.0780 C   0  0  0  0  0
   -7.0600  132.6000   16.3580 C   0  0  0  0  0
   -5.8610  132.9280   17.1280 N   0  0  0  0  0
   -5.4780  135.0960   15.8890 C   0  0  0  0  0
   -6.5060  134.5880   14.7860 C   0  0  0  0  0
   -5.7920  134.5460   13.2600 C   0  0  0  0  0
   -5.5590  135.6870   12.5580 C   0  0  0  0  0
   -4.8640  135.6630   11.2920 C   0  0  0  0  0
   -4.4720  134.4250   10.7990 C   0  0  0  0  0
   -4.7320  133.2550   11.5400 C   0  0  0  0  0
   -5.3650  133.3520   12.7790 C   0  0  0  0  0
   -4.5540  136.8830   10.4460 N   0  0  0  0  0
   -5.2150  138.1170   10.8070 O   0  0  0  0  0
   -3.7830  136.9200    9.4630 O   0  0  0  0  0
   -5.0690  136.6590   15.8010 C   0  0  0  0  0
   -5.5590  137.2690   14.9080 O   0  0  0  0  0
   -4.3690  137.4400   16.7750 O   0  0  0  0  0
   -3.9720  138.8640   16.6420 C   0  0  0  0  0
   -4.5010  139.8050   17.7670 C   0  0  0  0  0
   -2.4510  138.9200   16.7980 C   0  0  0  0  0
   -4.9858  134.4103   19.1767 H   0  0  0  0  0
   -3.5936  133.8060   18.2452 H   0  0  0  0  0
   -4.0064  135.5378   18.2070 H   0  0  0  0  0
   -5.7896  135.2646   17.0509 H   0  0  0  0  0
   -8.3235  130.8848   15.8619 H   0  0  0  0  0
   -7.5678  130.8667   17.5919 H   0  0  0  0  0
  -12.4749  131.9123   11.5395 H   0  0  0  0  0
  -12.1098  132.5098    9.9022 H   0  0  0  0  0
  -12.8873  130.9223   10.1179 H   0  0  0  0  0
   -9.9021  132.7968   10.7344 H   0  0  0  0  0
   -8.8797  131.2971   10.8113 H   0  0  0  0  0
  -10.1659  130.9060   13.0642 H   0  0  0  0  0
  -10.4656  132.6722   12.9765 H   0  0  0  0  0
   -6.4907  132.7374   14.4645 H   0  0  0  0  0
   -5.4103  132.2150   17.7015 H   0  0  0  0  0
   -4.4691  134.7795   15.6244 H   0  0  0  0  0
   -7.2975  135.3367   14.8177 H   0  0  0  0  0
   -5.9040  136.6400   12.9591 H   0  0  0  0  0
   -3.9626  134.3585    9.8377 H   0  0  0  0  0
   -4.4404  132.2808   11.1476 H   0  0  0  0  0
   -5.5195  132.4507   13.3722 H   0  0  0  0  0
   -4.3772  139.1980   15.6868 H   0  0  0  0  0
   -5.5908  139.7840   17.7739 H   0  0  0  0  0
   -4.1236  139.4643   18.7312 H   0  0  0  0  0
   -4.1571  140.8222   17.5796 H   0  0  0  0  0
   -2.1730  138.5317   17.7778 H   0  0  0  0  0
   -1.9848  138.3150   16.0203 H   0  0  0  0  0
   -2.1155  139.9530   16.7066 H   0  0  0  0  0
  2  1  1  0  0  0
 13  2  1  0  0  0
  2 14  1  0  0  0
 12  3  2  0  0  0
  5  4  1  0  0  0
  6  5  1  0  0  0
  7  6  1  0  0  0
  8  7  1  0  0  0
  9  8  1  0  0  0
  9 10  2  0  0  0
 11  9  1  0  0  0
 12 11  1  0  0  0
 11 15  1  0  0  0
 12 13  1  0  0  0
 14 15  1  0  0  0
 14 25  1  0  0  0
 15 16  1  0  0  0
 16 17  4  0  0  0
 16 21  4  0  0  0
 17 18  4  0  0  0
 18 19  4  0  0  0
 18 22  1  0  0  0
 19 20  4  0  0  0
 20 21  4  0  0  0
 22 23  2  0  0  0
 22 24  2  0  0  0
 25 26  2  0  0  0
 25 27  1  0  0  0
 27 28  1  0  0  0
 28 29  1  0  0  0
 28 30  1  0  0  0
  1 31  1  0  0  0
  1 32  1  0  0  0
  1 33  1  0  0  0
  2 34  1  0  0  0
  3 35  1  0  0  0
  3 36  1  0  0  0
  4 37  1  0  0  0
  4 38  1  0  0  0
  4 39  1  0  0  0
  6 40  1  0  0  0
  6 41  1  0  0  0
  7 42  1  0  0  0
  7 43  1  0  0  0
 11 44  1  0  0  0
 13 45  1  0  0  0
 14 46  1  0  0  0
 15 47  1  0  0  0
 17 48  1  0  0  0
 19 49  1  0  0  0
 20 50  1  0  0  0
 21 51  1  0  0  0
 28 52  1  0  0  0
 29 53  1  0  0  0
 29 54  1  0  0  0
 29 55  1  0  0  0
 30 56  1  0  0  0
 30 57  1  0  0  0
 30 58  1  0  0  0
M  END
$$$$
