4dpy_ligand
  -I-interpret- 

 33 33  0  0  0  0  0  0  0  0999 V2000
  -15.9740  -27.4680  -18.1890 C   0  0  0  0  0
  -14.4210  -28.0620  -20.0300 N   0  0  0  0  0
  -16.3070  -27.3750  -16.9450 O   0  0  0  0  0
  -14.5360  -27.8650  -18.5930 C   0  0  0  0  0
  -13.5500  -26.8410  -18.1960 C   0  0  0  0  0
  -13.6730  -26.9580  -20.5800 C   0  0  0  0  0
  -12.8260  -26.4270  -19.4530 C   0  0  0  0  0
  -14.7860  -29.2100  -22.0180 O   0  0  0  0  0
  -17.4520  -34.8890  -18.4740 O   0  0  0  0  0
  -18.0110  -32.6750  -22.1720 O   0  0  0  0  0
  -15.9250  -35.9850  -20.0520 O   0  0  0  0  0
  -18.1860  -35.2930  -20.8280 O   0  0  0  0  0
  -18.2510  -31.9100  -19.7870 O   0  0  0  0  0
  -15.7160  -30.2730  -20.1640 C   0  0  0  0  0
  -16.3210  -31.0950  -21.1950 O   0  0  0  0  0
  -16.4060  -33.5550  -20.4020 O   0  0  0  0  0
  -14.9630  -29.1850  -20.8100 C   0  0  0  0  0
  -17.0040  -34.9460  -19.9320 P   0  0  0  0  0
  -17.2790  -32.3280  -20.8740 P   0  0  0  0  0
  -16.8650  -27.2190  -19.0730 O   0  0  0  0  0
  -15.5490  -27.5868  -16.3953 H   0  0  0  0  0
  -14.3262  -28.7979  -18.0698 H   0  0  0  0  0
  -12.8524  -27.2384  -17.4587 H   0  0  0  0  0
  -14.0425  -25.9865  -17.7319 H   0  0  0  0  0
  -14.3372  -26.1874  -20.9713 H   0  0  0  0  0
  -13.0564  -27.2786  -21.4197 H   0  0  0  0  0
  -11.8119  -26.8252  -19.4861 H   0  0  0  0  0
  -12.7042  -25.3455  -19.5127 H   0  0  0  0  0
  -18.1426  -34.2291  -18.3782 H   0  0  0  0  0
  -17.3714  -32.9350  -22.8391 H   0  0  0  0  0
  -18.8634  -34.6188  -20.7375 H   0  0  0  0  0
  -15.0442  -30.8777  -19.5548 H   0  0  0  0  0
  -16.4907  -29.8562  -19.5204 H   0  0  0  0  0
  1  3  1  0  0  0
  4  1  1  0  0  0
  1 20  2  0  0  0
  2  4  1  0  0  0
  2  6  1  0  0  0
 17  2  1  0  0  0
  4  5  1  0  0  0
  7  5  1  0  0  0
  6  7  1  0  0  0
 17  8  2  0  0  0
 18  9  1  0  0  0
 19 10  1  0  0  0
 18 11  2  0  0  0
 18 12  1  0  0  0
 19 13  2  0  0  0
 15 14  1  0  0  0
 14 17  1  0  0  0
 19 15  1  0  0  0
 16 18  1  0  0  0
 16 19  1  0  0  0
  3 21  1  0  0  0
  4 22  1  0  0  0
  5 23  1  0  0  0
  5 24  1  0  0  0
  6 25  1  0  0  0
  6 26  1  0  0  0
  7 27  1  0  0  0
  7 28  1  0  0  0
  9 29  1  0  0  0
 10 30  1  0  0  0
 12 31  1  0  0  0
 14 32  1  0  0  0
 14 33  1  0  0  0
M  END
$$$$
