### 
### Created by X-TOOL on Mon Sep 10 21:13:09 2018
### 

@<TRIPOS>MOLECULE
4dpy_ligand
   29    29     1     0     0
SMALL
GAST_HUCK


@<TRIPOS>ATOM
      1 C         -15.9740  -27.4680  -18.1890 C.2       1 2P0         0.0603
      2 N         -14.4210  -28.0620  -20.0300 N.am      1 2P0        -0.2553
      3 O         -16.3070  -27.3750  -16.9450 O.co2     1 2P0        -0.5666
      4 CA        -14.5360  -27.8650  -18.5930 C.3       1 2P0         0.0972
      5 CB        -13.5500  -26.8410  -18.1960 C.3       1 2P0        -0.0159
      6 CD        -13.6730  -26.9580  -20.5800 C.3       1 2P0         0.0362
      7 CG        -12.8260  -26.4270  -19.4530 C.3       1 2P0        -0.0288
      8 OAB       -14.7860  -29.2100  -22.0180 O.2       1 2P0        -0.3938
      9 OAC       -17.4520  -34.8890  -18.4740 O.co2     1 2P0        -0.5891
     10 OAD       -18.0110  -32.6750  -22.1720 O.co2     1 2P0        -0.5555
     11 OAF       -15.9250  -35.9850  -20.0520 O.co2     1 2P0        -0.5891
     12 OAG       -18.1860  -35.2930  -20.8280 O.co2     1 2P0        -0.5891
     13 OAH       -18.2510  -31.9100  -19.7870 O.co2     1 2P0        -0.5555
     14 CAK       -15.7160  -30.2730  -20.1640 C.3       1 2P0         0.1732
     15 OAM       -16.3210  -31.0950  -21.1950 O.3       1 2P0        -0.2250
     16 OAN       -16.4060  -33.5550  -20.4020 O.3       1 2P0        -0.1547
     17 CAP       -14.9630  -29.1850  -20.8100 C.2       1 2P0         0.2119
     18 PAS       -17.0040  -34.9460  -19.9320 P.3       1 2P0         0.2070
     19 PAT       -17.2790  -32.3280  -20.8740 P.3       1 2P0         0.3298
     20 OXT       -16.8650  -27.2190  -19.0730 O.co2     1 2P0        -0.5666
     21 H1        -14.2885  -28.8088  -18.0850 H         1 2P0         0.0728
     22 H2        -12.8387  -27.2609  -17.4696 H         1 2P0         0.0306
     23 H3        -14.0612  -25.9750  -17.7502 H         1 2P0         0.0306
     24 H4        -14.3566  -26.1773  -20.9447 H         1 2P0         0.0524
     25 H5        -13.0354  -27.3029  -21.4074 H         1 2P0         0.0524
     26 H6        -11.8194  -26.8695  -19.4836 H         1 2P0         0.0286
     27 H7        -12.7469  -25.3314  -19.5112 H         1 2P0         0.0286
     28 H8        -15.0339  -30.8848  -19.5554 H         1 2P0         0.0866
     29 H9        -16.5009  -29.8488  -19.5206 H         1 2P0         0.0866
@<TRIPOS>BOND
     1    1    3 ar 
     2    4    1 1  
     3    1   20 ar 
     4    2    4 1  
     5    2    6 1  
     6   17    2 am 
     7    4    5 1  
     8    7    5 1  
     9    6    7 1  
    10   17    8 2  
    11   18    9 ar 
    12   19   10 ar 
    13   18   11 ar 
    14   18   12 ar 
    15   19   13 ar 
    16   15   14 1  
    17   14   17 1  
    18   19   15 1  
    19   16   18 1  
    20   16   19 1  
    21    4   21 1  
    22    5   22 1  
    23    5   23 1  
    24    6   24 1  
    25    6   25 1  
    26    7   26 1  
    27    7   27 1  
    28   14   28 1  
    29   14   29 1  
@<TRIPOS>SUBSTRUCTURE
     1 2P0         1

