### 
### Created by X-TOOL on Mon Sep 10 21:12:50 2018
### 

@<TRIPOS>MOLECULE
1ol1_ligand
  105   105     1     0     0
SMALL
GAST_HUCK


@<TRIPOS>ATOM
      1 C1         37.8950   21.4840   -0.0820 C.2       1 CIR         0.2267
      2 O1         37.6060   22.6550   -0.2140 O.2       1 CIR        -0.3907
      3 C2         37.4010   20.5650   -1.1670 C.3       1 CIR         0.0651
      4 N2         36.0780   19.9830   -0.9450 N.4       1 CIR         0.2379
      5 C3         37.3790   21.3260   -2.4640 C.3       1 CIR         0.0097
      6 C4         38.5060   21.4140   -3.1960 C.3       1 CIR        -0.0257
      7 C5         38.4590   21.3880   -4.5460 C.3       1 CIR         0.0316
      8 N6         39.0650   22.3230   -5.2860 N.am      1 CIR        -0.2733
      9 C7         40.3910   22.2990   -5.3970 C.2       1 CIR         0.2548
     10 O7         40.9960   21.2480   -5.5600 O.2       1 CIR        -0.4010
     11 N8         41.0180   23.4750   -5.3010 N.am      1 CIR        -0.2870
     12 C1         40.2540   22.5420    1.1150 C.2       1 CIR         0.2039
     13 O1         41.0380   21.8020    0.5530 O.2       1 CIR        -0.3944
     14 C2         39.1760   21.9110    1.9100 C.3       1 CIR         0.1312
     15 N2         38.5470   20.9940    0.9870 N.am      1 CIR        -0.2610
     16 C3         39.7470   21.2580    3.1430 C.3       1 CIR        -0.0106
     17 C4         40.6430   22.0980    4.0350 C.3       1 CIR        -0.0288
     18 C5         41.1510   21.3290    5.2610 C.3       1 CIR         0.0314
     19 N6         39.9750   20.9440    6.0360 N.am      1 CIR        -0.2733
     20 C7         39.3850   21.7520    6.9320 C.2       1 CIR         0.2548
     21 O7         38.5060   21.3370    7.7000 O.2       1 CIR        -0.4010
     22 N8         39.7850   23.0270    6.9570 N.am      1 CIR        -0.2870
     23 N          40.2790   23.8620    1.0630 N.am      1 LEU        -0.2637
     24 CA         41.4660   24.5470    0.5840 C.3       1 LEU         0.1312
     25 C          42.4910   24.6770    1.6570 C.2       1 LEU         0.2039
     26 O          42.1880   25.4010    2.5940 O.2       1 LEU        -0.3944
     27 CB         40.9690   25.9160    0.1310 C.3       1 LEU        -0.0101
     28 CG         39.8530   25.7640   -0.9060 C.3       1 LEU        -0.0425
     29 CD1        39.1160   27.0800   -1.0860 C.3       1 LEU        -0.0625
     30 CD2        40.3190   25.2990   -2.2860 C.3       1 LEU        -0.0625
     31 N          43.6340   23.9740    1.5450 N.am      1 ILE        -0.2635
     32 CA         44.7330   24.2110    2.4860 C.3       1 ILE         0.1335
     33 C          45.5980   25.2740    1.9190 C.2       1 ILE         0.2037
     34 O          45.7650   25.2490    0.7270 O.2       1 ILE        -0.3944
     35 CB         45.5620   22.9460    2.7450 C.3       1 ILE        -0.0037
     36 CG1        44.8170   21.6890    2.2980 C.3       1 ILE        -0.0491
     37 CG2        45.9760   22.8340    4.2230 C.3       1 ILE        -0.0582
     38 CD1        44.1170   21.0120    3.4710 C.3       1 ILE        -0.0648
     39 N          46.0660   26.1870    2.7630 N.am      1 PFF        -0.2678
     40 CA         46.6780   27.4100    2.2860 C.3       1 PFF         0.1034
     41 C          48.0900   27.5090    2.7880 C.2       1 PFF         0.0620
     42 O          49.0040   27.7110    1.9920 O.co2     1 PFF        -0.5664
     43 CB         45.7820   28.5180    2.8500 C.3       1 PFF         0.0141
     44 CG         44.5860   28.7860    1.9560 C.ar      1 PFF        -0.0430
     45 CD1        43.3010   28.7210    2.4920 C.ar      1 PFF        -0.0618
     46 CD2        44.7640   29.1350    0.6140 C.ar      1 PFF        -0.0618
     47 CE1        42.1780   28.9780    1.6960 C.ar      1 PFF        -0.0349
     48 CE2        43.6480   29.3900   -0.1910 C.ar      1 PFF        -0.0349
     49 CZ         42.3540   29.3220    0.3540 C.ar      1 PFF         0.1248
     50 F          41.2630   29.5220   -0.4170 F         1 PFF        -0.1893
     51 O2         48.3358   27.3857    4.0176 O.co2     1 PFF        -0.5664
     52 H1         38.1184   19.7354   -1.2516 H         1 CIR         0.1098
     53 H2         35.8386   19.3869   -1.7218 H         1 CIR         0.2015
     54 H3         35.3956   20.7205   -0.8647 H         1 CIR         0.2015
     55 H4         36.0878   19.4404   -0.0956 H         1 CIR         0.2015
     56 H5         37.0691   22.3545   -2.2273 H         1 CIR         0.0346
     57 H6         36.6186   20.8514   -3.1016 H         1 CIR         0.0346
     58 H7         39.1460   20.5739   -2.8884 H         1 CIR         0.0288
     59 H8         38.9875   22.3629   -2.9174 H         1 CIR         0.0288
     60 H9         37.3940   21.4182   -4.8197 H         1 CIR         0.0517
     61 H10        38.8892   20.4232   -4.8526 H         1 CIR         0.0517
     62 H11        38.5297   23.0295   -5.7489 H         1 CIR         0.1845
     63 H12        42.0142   23.5181   -5.3767 H         1 CIR         0.1808
     64 H13        40.4911   24.3120   -5.1534 H         1 CIR         0.1808
     65 H14        38.4447   22.6683    2.2290 H         1 CIR         0.0800
     66 H15        38.5960   20.0072    1.1414 H         1 CIR         0.1884
     67 H16        40.3344   20.3887    2.8124 H         1 CIR         0.0313
     68 H17        38.9000   20.9165    3.7562 H         1 CIR         0.0313
     69 H18        40.0736   22.9734    4.3805 H         1 CIR         0.0287
     70 H19        41.5098   22.4332    3.4466 H         1 CIR         0.0287
     71 H20        41.8086   21.9715    5.8650 H         1 CIR         0.0517
     72 H21        41.7047   20.4332    4.9432 H         1 CIR         0.0517
     73 H22        39.5894   20.0326    5.8924 H         1 CIR         0.1845
     74 H23        39.3750   23.6670    7.6069 H         1 CIR         0.1808
     75 H24        40.4943   23.3410    6.3258 H         1 CIR         0.1808
     76 H25        39.4804   24.3891    1.3535 H         1 LEU         0.1883
     77 H26        41.9038   24.0004   -0.2643 H         1 LEU         0.0800
     78 H27        41.8045   26.4751   -0.3155 H         1 LEU         0.0315
     79 H28        40.5823   26.4670    1.0010 H         1 LEU         0.0315
     80 H29        39.1470   25.0144   -0.5192 H         1 LEU         0.0298
     81 H30        38.3185   26.9544   -1.8331 H         1 LEU         0.0232
     82 H31        39.8213   27.8514   -1.4288 H         1 LEU         0.0232
     83 H32        38.6744   27.3872   -0.1265 H         1 LEU         0.0232
     84 H33        40.8580   24.3450   -2.1888 H         1 LEU         0.0232
     85 H34        40.9884   26.0556   -2.7212 H         1 LEU         0.0232
     86 H35        39.4459   25.1617   -2.9409 H         1 LEU         0.0232
     87 H36        43.7331   23.2913    0.8211 H         1 ILE         0.1883
     88 H37        44.3135   24.5545    3.4431 H         1 ILE         0.0803
     89 H38        46.4807   23.0225    2.1449 H         1 ILE         0.0345
     90 H39        45.5366   20.9845    1.8555 H         1 ILE         0.0267
     91 H40        44.0653   21.9671    1.5446 H         1 ILE         0.0267
     92 H41        46.5099   23.7473    4.5244 H         1 ILE         0.0235
     93 H42        46.6356   21.9636    4.3541 H         1 ILE         0.0235
     94 H43        45.0784   22.7112    4.8469 H         1 ILE         0.0235
     95 H44        43.5919   20.1132    3.1154 H         1 ILE         0.0230
     96 H45        43.3914   21.7084    3.9165 H         1 ILE         0.0230
     97 H46        44.8626   20.7258    4.2274 H         1 ILE         0.0230
     98 H47        45.9943   26.0266    3.7475 H         1 PFF         0.1877
     99 H48        46.6818   27.4429    1.1865 H         1 PFF         0.0748
    100 H49        46.3725   29.4416    2.9408 H         1 PFF         0.0459
    101 H50        45.4223   28.2135    3.8439 H         1 PFF         0.0459
    102 H51        43.1694   28.4684    3.5379 H         1 PFF         0.0547
    103 H52        45.7626   29.2078    0.1986 H         1 PFF         0.0547
    104 H53        41.1816   28.9106    2.1174 H         1 PFF         0.0587
    105 H54        43.7817   29.6405   -1.2371 H         1 PFF         0.0587
@<TRIPOS>BOND
     1    1    2 2  
     2    1    3 1  
     3   15    1 am 
     4    3    4 1  
     5    3    5 1  
     6    5    6 1  
     7    6    7 1  
     8    7    8 1  
     9    8    9 am 
    10    9   10 2  
    11    9   11 am 
    12   12   13 2  
    13   14   12 1  
    14   12   23 am 
    15   14   15 1  
    16   14   16 1  
    17   16   17 1  
    18   17   18 1  
    19   18   19 1  
    20   19   20 am 
    21   20   21 2  
    22   20   22 am 
    23   23   24 1  
    24   24   25 1  
    25   24   27 1  
    26   25   26 2  
    27   25   31 am 
    28   27   28 1  
    29   28   29 1  
    30   28   30 1  
    31   31   32 1  
    32   32   33 1  
    33   32   35 1  
    34   33   34 2  
    35   33   39 am 
    36   35   36 1  
    37   35   37 1  
    38   36   38 1  
    39   39   40 1  
    40   40   41 1  
    41   40   43 1  
    42   41   42 ar 
    43   43   44 1  
    44   44   45 ar 
    45   44   46 ar 
    46   45   47 ar 
    47   46   48 ar 
    48   47   49 ar 
    49   48   49 ar 
    50   49   50 1  
    51   41   51 ar 
    52    3   52 1  
    53    4   53 1  
    54    4   54 1  
    55    4   55 1  
    56    5   56 1  
    57    5   57 1  
    58    6   58 1  
    59    6   59 1  
    60    7   60 1  
    61    7   61 1  
    62    8   62 1  
    63   11   63 1  
    64   11   64 1  
    65   14   65 1  
    66   15   66 1  
    67   16   67 1  
    68   16   68 1  
    69   17   69 1  
    70   17   70 1  
    71   18   71 1  
    72   18   72 1  
    73   19   73 1  
    74   22   74 1  
    75   22   75 1  
    76   23   76 1  
    77   24   77 1  
    78   27   78 1  
    79   27   79 1  
    80   28   80 1  
    81   29   81 1  
    82   29   82 1  
    83   29   83 1  
    84   30   84 1  
    85   30   85 1  
    86   30   86 1  
    87   31   87 1  
    88   32   88 1  
    89   35   89 1  
    90   36   90 1  
    91   36   91 1  
    92   37   92 1  
    93   37   93 1  
    94   37   94 1  
    95   38   95 1  
    96   38   96 1  
    97   38   97 1  
    98   39   98 1  
    99   40   99 1  
   100   43  100 1  
   101   43  101 1  
   102   45  102 1  
   103   46  103 1  
   104   47  104 1  
   105   48  105 1  
@<TRIPOS>SUBSTRUCTURE
     1 CIR         1

