1ol1_ligand
  -I-interpret- 

106106  0  0  0  0  0  0  0  0999 V2000
   37.8950   21.4840   -0.0820 C   0  0  0  0  0
   37.6060   22.6550   -0.2140 O   0  0  0  0  0
   37.4010   20.5650   -1.1670 C   0  0  0  0  0
   36.0780   19.9830   -0.9450 N   0  3  0  0  0
   37.3790   21.3260   -2.4640 C   0  0  0  0  0
   38.5060   21.4140   -3.1960 C   0  0  0  0  0
   38.4590   21.3880   -4.5460 C   0  0  0  0  0
   39.0650   22.3230   -5.2860 N   0  0  0  0  0
   40.3910   22.2990   -5.3970 C   0  0  0  0  0
   40.9960   21.2480   -5.5600 O   0  0  0  0  0
   41.0180   23.4750   -5.3010 N   0  0  0  0  0
   40.2540   22.5420    1.1150 C   0  0  0  0  0
   41.0380   21.8020    0.5530 O   0  0  0  0  0
   39.1760   21.9110    1.9100 C   0  0  0  0  0
   38.5470   20.9940    0.9870 N   0  0  0  0  0
   39.7470   21.2580    3.1430 C   0  0  0  0  0
   40.6430   22.0980    4.0350 C   0  0  0  0  0
   41.1510   21.3290    5.2610 C   0  0  0  0  0
   39.9750   20.9440    6.0360 N   0  0  0  0  0
   39.3850   21.7520    6.9320 C   0  0  0  0  0
   38.5060   21.3370    7.7000 O   0  0  0  0  0
   39.7850   23.0270    6.9570 N   0  0  0  0  0
   40.2790   23.8620    1.0630 N   0  0  0  0  0
   41.4660   24.5470    0.5840 C   0  0  0  0  0
   42.4910   24.6770    1.6570 C   0  0  0  0  0
   42.1880   25.4010    2.5940 O   0  0  0  0  0
   40.9690   25.9160    0.1310 C   0  0  0  0  0
   39.8530   25.7640   -0.9060 C   0  0  0  0  0
   39.1160   27.0800   -1.0860 C   0  0  0  0  0
   40.3190   25.2990   -2.2860 C   0  0  0  0  0
   43.6340   23.9740    1.5450 N   0  0  0  0  0
   44.7330   24.2110    2.4860 C   0  0  0  0  0
   45.5980   25.2740    1.9190 C   0  0  0  0  0
   45.7650   25.2490    0.7270 O   0  0  0  0  0
   45.5620   22.9460    2.7450 C   0  0  0  0  0
   44.8170   21.6890    2.2980 C   0  0  0  0  0
   45.9760   22.8340    4.2230 C   0  0  0  0  0
   44.1170   21.0120    3.4710 C   0  0  0  0  0
   46.0660   26.1870    2.7630 N   0  0  0  0  0
   46.6780   27.4100    2.2860 C   0  0  0  0  0
   48.0900   27.5090    2.7880 C   0  0  0  0  0
   49.0040   27.7110    1.9920 O   0  0  0  0  0
   45.7820   28.5180    2.8500 C   0  0  0  0  0
   44.5860   28.7860    1.9560 C   0  0  0  0  0
   43.3010   28.7210    2.4920 C   0  0  0  0  0
   44.7640   29.1350    0.6140 C   0  0  0  0  0
   42.1780   28.9780    1.6960 C   0  0  0  0  0
   43.6480   29.3900   -0.1910 C   0  0  0  0  0
   42.3540   29.3220    0.3540 C   0  0  0  0  0
   41.2630   29.5220   -0.4170 F   0  0  0  0  0
   48.3358   27.3857    4.0176 O   0  0  0  0  0
   38.0935   19.7233   -1.1790 H   0  0  0  0  0
   36.0794   19.4634   -0.0673 H   0  0  0  0  0
   35.3833   20.7284   -0.8991 H   0  0  0  0  0
   35.8517   19.3526   -1.7143 H   0  0  0  0  0
   37.1509   22.3533   -2.1799 H   0  0  0  0  0
   36.6790   20.7790   -3.0956 H   0  0  0  0  0
   39.0647   20.5160   -2.9324 H   0  0  0  0  0
   38.8974   22.4042   -2.9629 H   0  0  0  0  0
   37.4013   21.5236   -4.7716 H   0  0  0  0  0
   38.9850   20.4695   -4.8065 H   0  0  0  0  0
   38.5190   23.0436   -5.7582 H   0  0  0  0  0
   42.0352   23.5172   -5.3635 H   0  0  0  0  0
   40.4794   24.3305   -5.1653 H   0  0  0  0  0
   38.4405   22.6136    2.3018 H   0  0  0  0  0
   38.5970   19.9875    1.1445 H   0  0  0  0  0
   40.3765   20.4463    2.7784 H   0  0  0  0  0
   38.8869   20.9944    3.7585 H   0  0  0  0  0
   40.0582   22.9459    4.3917 H   0  0  0  0  0
   41.5101   22.3998    3.4476 H   0  0  0  0  0
   41.8211   21.9490    5.8565 H   0  0  0  0  0
   41.7198   20.4499    4.9582 H   0  0  0  0  0
   39.5816   20.0144    5.8895 H   0  0  0  0  0
   39.3648   23.6805    7.6179 H   0  0  0  0  0
   40.5105   23.3466    6.3152 H   0  0  0  0  0
   39.4645   24.3997    1.3594 H   0  0  0  0  0
   41.9532   23.9982   -0.2219 H   0  0  0  0  0
   41.7979   26.4633   -0.3179 H   0  0  0  0  0
   40.5795   26.4553    0.9945 H   0  0  0  0  0
   39.2070   24.9850   -0.5012 H   0  0  0  0  0
   38.6790   27.3833   -0.1346 H   0  0  0  0  0
   39.8159   27.8434   -1.4256 H   0  0  0  0  0
   38.3261   26.9542   -1.8265 H   0  0  0  0  0
   41.0286   26.0206   -2.6907 H   0  0  0  0  0
   40.8003   24.3251   -2.1965 H   0  0  0  0  0
   39.4591   25.2209   -2.9512 H   0  0  0  0  0
   43.7351   23.2776    0.8066 H   0  0  0  0  0
   44.3135   24.5132    3.4456 H   0  0  0  0  0
   46.4699   23.0310    2.1479 H   0  0  0  0  0
   45.5388   20.9903    1.8751 H   0  0  0  0  0
   44.0642   21.9751    1.5634 H   0  0  0  0  0
   46.5756   23.7018    4.4978 H   0  0  0  0  0
   45.0832   22.7953    4.8471 H   0  0  0  0  0
   46.5614   21.9259    4.3672 H   0  0  0  0  0
   44.8569   20.7290    4.2198 H   0  0  0  0  0
   43.3983   21.7030    3.9115 H   0  0  0  0  0
   43.5971   20.1216    3.1174 H   0  0  0  0  0
   45.9929   26.0234    3.7671 H   0  0  0  0  0
   46.7486   27.4684    1.1999 H   0  0  0  0  0
   46.3705   29.4329    2.9179 H   0  0  0  0  0
   45.4155   28.1986    3.8256 H   0  0  0  0  0
   43.1686   28.4670    3.5437 H   0  0  0  0  0
   45.7681   29.2082    0.1963 H   0  0  0  0  0
   41.1760   28.9102    2.1198 H   0  0  0  0  0
   43.7824   29.6419   -1.2429 H   0  0  0  0  0
   47.5158   27.2338    4.4931 H   0  0  0  0  0
  1  2  2  0  0  0
  1  3  1  0  0  0
 15  1  1  0  0  0
  3  4  1  0  0  0
  3  5  1  0  0  0
  5  6  1  0  0  0
  6  7  1  0  0  0
  7  8  1  0  0  0
  8  9  1  0  0  0
  9 10  2  0  0  0
  9 11  1  0  0  0
 12 13  2  0  0  0
 14 12  1  0  0  0
 12 23  1  0  0  0
 14 15  1  0  0  0
 14 16  1  0  0  0
 16 17  1  0  0  0
 17 18  1  0  0  0
 18 19  1  0  0  0
 19 20  1  0  0  0
 20 21  2  0  0  0
 20 22  1  0  0  0
 23 24  1  0  0  0
 24 25  1  0  0  0
 24 27  1  0  0  0
 25 26  2  0  0  0
 25 31  1  0  0  0
 27 28  1  0  0  0
 28 29  1  0  0  0
 28 30  1  0  0  0
 31 32  1  0  0  0
 32 33  1  0  0  0
 32 35  1  0  0  0
 33 34  2  0  0  0
 33 39  1  0  0  0
 35 36  1  0  0  0
 35 37  1  0  0  0
 36 38  1  0  0  0
 39 40  1  0  0  0
 40 41  1  0  0  0
 40 43  1  0  0  0
 41 42  2  0  0  0
 43 44  1  0  0  0
 44 45  4  0  0  0
 44 46  4  0  0  0
 45 47  4  0  0  0
 46 48  4  0  0  0
 47 49  4  0  0  0
 48 49  4  0  0  0
 49 50  1  0  0  0
 41 51  1  0  0  0
  3 52  1  0  0  0
  4 53  1  0  0  0
  4 54  1  0  0  0
  4 55  1  0  0  0
  5 56  1  0  0  0
  5 57  1  0  0  0
  6 58  1  0  0  0
  6 59  1  0  0  0
  7 60  1  0  0  0
  7 61  1  0  0  0
  8 62  1  0  0  0
 11 63  1  0  0  0
 11 64  1  0  0  0
 14 65  1  0  0  0
 15 66  1  0  0  0
 16 67  1  0  0  0
 16 68  1  0  0  0
 17 69  1  0  0  0
 17 70  1  0  0  0
 18 71  1  0  0  0
 18 72  1  0  0  0
 19 73  1  0  0  0
 22 74  1  0  0  0
 22 75  1  0  0  0
 23 76  1  0  0  0
 24 77  1  0  0  0
 27 78  1  0  0  0
 27 79  1  0  0  0
 28 80  1  0  0  0
 29 81  1  0  0  0
 29 82  1  0  0  0
 29 83  1  0  0  0
 30 84  1  0  0  0
 30 85  1  0  0  0
 30 86  1  0  0  0
 31 87  1  0  0  0
 32 88  1  0  0  0
 35 89  1  0  0  0
 36 90  1  0  0  0
 36 91  1  0  0  0
 37 92  1  0  0  0
 37 93  1  0  0  0
 37 94  1  0  0  0
 38 95  1  0  0  0
 38 96  1  0  0  0
 38 97  1  0  0  0
 39 98  1  0  0  0
 40 99  1  0  0  0
 43100  1  0  0  0
 43101  1  0  0  0
 45102  1  0  0  0
 46103  1  0  0  0
 47104  1  0  0  0
 48105  1  0  0  0
 51106  1  0  0  0
M  END
$$$$
