4cwr_ligand
  -I-interpret- 

 37 41  0  0  0  0  0  0  0  0999 V2000
   -1.1270    9.2920   28.2430 F   0  0  0  0  0
    0.1510    8.9800   28.0170 C   0  0  0  0  0
    0.7970    8.1990   28.9730 C   0  0  0  0  0
    2.1420    7.8710   28.7920 C   0  0  0  0  0
    2.8150    8.3000   27.6560 C   0  0  0  0  0
    2.1670    9.0740   26.6900 C   0  0  0  0  0
    0.8260    9.4170   26.8700 C   0  0  0  0  0
    2.8540    9.4860   25.5840 N   0  0  0  0  0
    2.2470   10.2400   24.6290 C   0  0  0  0  0
    0.9530   10.6010   24.7880 N   0  0  0  0  0
    0.2110   11.3470   23.8890 N   0  0  0  0  0
   -0.9630   11.3520   24.5490 C   0  0  0  0  0
   -2.0420   12.0010   24.0230 N   0  0  0  0  0
   -1.0170   10.6770   25.7320 N   0  0  0  0  0
    0.2470   10.1950   25.8540 C   0  0  0  0  0
    3.0660   10.6820   23.4370 C   0  0  0  0  0
    3.9680   11.8410   23.8480 C   0  0  0  0  0
    5.3640   11.7370   23.6920 C   0  0  0  0  0
    6.2180   12.7920   24.0440 C   0  0  0  0  0
    5.6310   13.9480   24.5650 C   0  0  0  0  0
    4.2820   14.0430   24.7360 C   0  0  0  0  0
    3.4050   13.0120   24.3860 C   0  0  0  0  0
    6.2370   15.1100   25.0020 O   0  0  0  0  0
    5.2130   15.9850   25.5030 C   0  0  0  0  0
    3.9930   15.2600   25.2670 O   0  0  0  0  0
    0.2580    7.8478   29.8529 H   0  0  0  0  0
    2.6639    7.2778   29.5429 H   0  0  0  0  0
    3.8616    8.0297   27.5160 H   0  0  0  0  0
   -1.9604   12.4837   23.1282 H   0  0  0  0  0
   -2.9301   12.0034   24.5247 H   0  0  0  0  0
    2.4006   11.0035   22.6358 H   0  0  0  0  0
    3.6770    9.8507   23.0853 H   0  0  0  0  0
    5.7892   10.8176   23.2894 H   0  0  0  0  0
    7.2976   12.7134   23.9162 H   0  0  0  0  0
    2.3285   13.1118   24.5245 H   0  0  0  0  0
    5.2198   16.9563   25.0083 H   0  0  0  0  0
    5.3539   16.2267   26.5565 H   0  0  0  0  0
  1  2  1  0  0  0
  2  3  4  0  0  0
  2  7  4  0  0  0
  3  4  4  0  0  0
  4  5  4  0  0  0
  5  6  4  0  0  0
  6  7  4  0  0  0
  6  8  4  0  0  0
  7 15  4  0  0  0
  8  9  4  0  0  0
  9 10  4  0  0  0
  9 16  1  0  0  0
 10 11  4  0  0  0
 10 15  4  0  0  0
 11 12  4  0  0  0
 12 13  1  0  0  0
 12 14  4  0  0  0
 14 15  4  0  0  0
 16 17  1  0  0  0
 17 18  4  0  0  0
 17 22  4  0  0  0
 18 19  4  0  0  0
 19 20  4  0  0  0
 20 21  4  0  0  0
 20 23  1  0  0  0
 21 22  4  0  0  0
 21 25  1  0  0  0
 23 24  1  0  0  0
 24 25  1  0  0  0
  3 26  1  0  0  0
  4 27  1  0  0  0
  5 28  1  0  0  0
 13 29  1  0  0  0
 13 30  1  0  0  0
 16 31  1  0  0  0
 16 32  1  0  0  0
 18 33  1  0  0  0
 19 34  1  0  0  0
 22 35  1  0  0  0
 24 36  1  0  0  0
 24 37  1  0  0  0
M  END
$$$$
