3hfj_ligand
  -I-interpret- 

 37 40  0  0  0  0  0  0  0  0999 V2000
   13.6590  -18.3420   -9.1010 C   0  0  0  0  0
   12.6090  -19.1360   -9.5640 C   0  0  0  0  0
   12.6710  -20.4740   -9.4420 F   0  0  0  0  0
   11.4870  -18.5560  -10.1510 C   0  0  0  0  0
   11.4150  -17.1720  -10.2810 C   0  0  0  0  0
   12.4670  -16.3780   -9.8190 C   0  0  0  0  0
   13.5910  -16.9500   -9.2190 C   0  0  0  0  0
   14.5750  -16.1270   -8.8170 N   0  0  0  0  0
   15.8240  -16.4530   -8.4380 C   0  0  0  0  0
   16.2830  -17.5940   -8.3710 O   0  0  0  0  0
   16.7070  -15.2440   -8.0760 C   0  0  0  0  0
   18.0970  -15.2440   -7.9610 C   0  0  0  0  0
   18.8290  -16.3400   -8.1380 N   0  0  0  0  0
   16.1730  -13.6700   -7.7810 S   0  0  0  0  0
   17.7000  -12.9690   -7.4910 C   0  0  0  0  0
   18.0620  -11.7050   -7.1770 N   0  0  0  0  0
   18.6640  -13.9910   -7.6350 C   0  0  0  0  0
   20.0030  -13.6540   -7.4380 C   0  0  0  0  0
   20.3520  -12.3440   -7.1160 C   0  0  0  0  0
   19.3570  -11.3670   -6.9970 C   0  0  0  0  0
   19.7060  -10.0610   -6.6430 C   0  0  0  0  0
   20.8880   -9.4390   -6.7070 C   0  0  0  0  0
   20.8850   -8.1610   -6.2500 C   0  0  0  0  0
   19.7290   -7.6880   -5.7780 C   0  0  0  0  0
   18.6310   -8.9600   -5.9410 S   0  0  0  0  0
   14.5337  -18.8074   -8.6466 H   0  0  0  0  0
   10.6693  -19.1828  -10.5068 H   0  0  0  0  0
   10.5416  -16.7100  -10.7413 H   0  0  0  0  0
   12.4099  -15.2950   -9.9284 H   0  0  0  0  0
   14.3465  -15.1331   -8.7969 H   0  0  0  0  0
   18.3757  -17.2245   -8.3672 H   0  0  0  0  0
   19.8438  -16.2961   -8.0445 H   0  0  0  0  0
   20.7766  -14.4156   -7.5360 H   0  0  0  0  0
   21.3977  -12.0807   -6.9571 H   0  0  0  0  0
   21.7848   -9.9212   -7.0962 H   0  0  0  0  0
   21.7862   -7.5481   -6.2675 H   0  0  0  0  0
   19.5358   -6.6942   -5.3742 H   0  0  0  0  0
  1  2  4  0  0  0
  1  7  4  0  0  0
  2  3  1  0  0  0
  2  4  4  0  0  0
  4  5  4  0  0  0
  5  6  4  0  0  0
  6  7  4  0  0  0
  7  8  1  0  0  0
  8  9  1  0  0  0
  9 10  2  0  0  0
  9 11  1  0  0  0
 11 12  4  0  0  0
 11 14  4  0  0  0
 12 13  1  0  0  0
 12 17  4  0  0  0
 14 15  4  0  0  0
 15 16  4  0  0  0
 15 17  4  0  0  0
 16 20  4  0  0  0
 17 18  4  0  0  0
 18 19  4  0  0  0
 19 20  4  0  0  0
 20 21  1  0  0  0
 21 22  4  0  0  0
 21 25  4  0  0  0
 22 23  4  0  0  0
 23 24  4  0  0  0
 24 25  4  0  0  0
  1 26  1  0  0  0
  4 27  1  0  0  0
  5 28  1  0  0  0
  6 29  1  0  0  0
  8 30  1  0  0  0
 13 31  1  0  0  0
 13 32  1  0  0  0
 18 33  1  0  0  0
 19 34  1  0  0  0
 22 35  1  0  0  0
 23 36  1  0  0  0
 24 37  1  0  0  0
M  END
$$$$
