1ca8_ligand
  -I-interpret- 

 71 73  0  0  0  0  0  0  0  0999 V2000
   18.6280  -17.1000   26.1640 C   0  0  0  0  0
   19.8580  -16.2600   26.0600 C   0  0  0  0  0
   19.7060  -14.8910   26.2070 C   0  0  0  0  0
   20.8440  -14.0810   26.0400 C   0  0  0  0  0
   21.9840  -14.5750   25.4250 C   0  0  0  0  0
   22.0460  -15.9360   25.1200 C   0  0  0  0  0
   21.0700  -16.7860   25.6380 C   0  0  0  0  0
   17.9370  -17.6440   24.6120 S   0  0  0  0  0
   16.6770  -18.1960   24.9690 O   0  0  0  0  0
   18.9040  -18.2950   23.7880 O   0  0  0  0  0
   17.5900  -16.3240   23.6630 N   0  0  0  0  0
   18.5400  -15.6440   22.8780 C   0  0  0  0  0
   19.1600  -16.4120   21.7510 C   0  0  0  0  0
   20.2190  -15.5760   21.0750 C   0  0  0  0  0
   17.9390  -14.3150   22.3400 C   0  0  0  0  0
   19.8340  -14.1580   20.7280 C   0  0  0  0  0
   16.9630  -13.9360   22.9870 O   0  0  0  0  0
   18.6590  -13.6550   21.4610 N   0  0  0  0  0
   18.0200  -12.3710   21.1560 C   0  0  0  0  0
   16.6930  -12.8930   20.5090 C   0  0  0  0  0
   16.8310  -13.7370   19.5700 O   0  0  0  0  0
   12.3450  -14.4110   22.1290 C   0  0  0  0  0
   12.6940  -13.8550   23.5410 C   0  0  0  0  0
   15.9810  -11.6610   20.5400 N   0  0  0  0  0
   14.7790  -11.5250   19.6560 C   0  0  0  0  0
   14.9020  -10.9010   18.2600 C   0  0  0  0  0
   15.8910  -11.0530   17.5180 O   0  0  0  0  0
   13.5360  -11.0010   20.4130 C   0  0  0  0  0
   11.1630  -12.0680   24.7230 C   0  0  0  0  0
   12.1640  -12.4480   23.7400 N   0  0  0  0  0
   12.5240  -13.3060   21.0250 C   0  0  0  0  0
   13.2930  -12.0500   21.5230 C   0  0  0  0  0
   12.8270  -11.4250   22.8560 C   0  0  0  0  0
   10.4650  -12.9970   25.3010 N   0  0  0  0  0
   10.9140  -10.8080   24.9300 N   0  0  0  0  0
   17.8687  -16.4811   26.6421 H   0  0  0  0  0
   18.9116  -17.9997   26.7101 H   0  0  0  0  0
   18.7355  -14.4552   26.4445 H   0  0  0  0  0
   20.8292  -13.0518   26.3987 H   0  0  0  0  0
   22.8161  -13.9134   25.1842 H   0  0  0  0  0
   22.8434  -16.3270   24.4881 H   0  0  0  0  0
   21.2582  -17.8572   25.7109 H   0  0  0  0  0
   16.6279  -15.9855   23.6487 H   0  0  0  0  0
   19.3654  -15.4644   23.5669 H   0  0  0  0  0
   18.3883  -16.6675   21.0249 H   0  0  0  0  0
   19.6179  -17.3191   22.1454 H   0  0  0  0  0
   20.4371  -16.0708   20.1286 H   0  0  0  0  0
   21.0438  -15.5011   21.7837 H   0  0  0  0  0
   19.5822  -14.1433   19.6676 H   0  0  0  0  0
   20.6771  -13.5211   20.9956 H   0  0  0  0  0
   18.6077  -11.7089   20.5201 H   0  0  0  0  0
   17.8810  -11.7153   22.0155 H   0  0  0  0  0
   11.3050  -14.7375   22.1301 H   0  0  0  0  0
   13.0166  -15.2398   21.9049 H   0  0  0  0  0
   13.7792  -13.8292   23.6401 H   0  0  0  0  0
   12.2340  -14.5028   24.2873 H   0  0  0  0  0
   16.2794  -10.8955   21.1444 H   0  0  0  0  0
   14.6527  -12.5731   19.3848 H   0  0  0  0  0
   14.9217   -9.8323   18.4736 H   0  0  0  0  0
   14.1043  -11.3933   17.7038 H   0  0  0  0  0
   15.7505  -10.5748   16.6975 H   0  0  0  0  0
   12.6726  -10.8909   19.7568 H   0  0  0  0  0
   13.6948  -10.0025   20.8202 H   0  0  0  0  0
   11.5285  -12.9816   20.7220 H   0  0  0  0  0
   13.1044  -13.7449   20.2135 H   0  0  0  0  0
   14.2640  -12.4679   21.7886 H   0  0  0  0  0
   13.6993  -11.0304   23.3770 H   0  0  0  0  0
   12.1057  -10.6380   22.6360 H   0  0  0  0  0
   10.6230  -13.9762   25.0631 H   0  0  0  0  0
   10.1576  -10.5339   25.5570 H   0  0  0  0  0
   11.4752  -10.0942   24.4653 H   0  0  0  0  0
  1  2  1  0  0  0
  8  1  1  0  0  0
  2  3  4  0  0  0
  2  7  4  0  0  0
  3  4  4  0  0  0
  4  5  4  0  0  0
  6  5  4  0  0  0
  7  6  4  0  0  0
  8  9  2  0  0  0
  8 10  2  0  0  0
 11  8  1  0  0  0
 12 11  1  0  0  0
 12 13  1  0  0  0
 15 12  1  0  0  0
 14 13  1  0  0  0
 16 14  1  0  0  0
 15 17  2  0  0  0
 18 15  1  0  0  0
 18 16  1  0  0  0
 19 18  1  0  0  0
 20 19  1  0  0  0
 20 21  2  0  0  0
 24 20  1  0  0  0
 22 23  1  0  0  0
 31 22  1  0  0  0
 23 30  1  0  0  0
 25 24  1  0  0  0
 25 26  1  0  0  0
 28 25  1  0  0  0
 26 27  1  0  0  0
 32 28  1  0  0  0
 30 29  1  0  0  0
 29 34  2  0  0  0
 29 35  1  0  0  0
 30 33  1  0  0  0
 31 32  1  0  0  0
 32 33  1  0  0  0
  1 36  1  0  0  0
  1 37  1  0  0  0
  3 38  1  0  0  0
  4 39  1  0  0  0
  5 40  1  0  0  0
  6 41  1  0  0  0
  7 42  1  0  0  0
 11 43  1  0  0  0
 12 44  1  0  0  0
 13 45  1  0  0  0
 13 46  1  0  0  0
 14 47  1  0  0  0
 14 48  1  0  0  0
 16 49  1  0  0  0
 16 50  1  0  0  0
 19 51  1  0  0  0
 19 52  1  0  0  0
 22 53  1  0  0  0
 22 54  1  0  0  0
 23 55  1  0  0  0
 23 56  1  0  0  0
 24 57  1  0  0  0
 25 58  1  0  0  0
 26 59  1  0  0  0
 26 60  1  0  0  0
 27 61  1  0  0  0
 28 62  1  0  0  0
 28 63  1  0  0  0
 31 64  1  0  0  0
 31 65  1  0  0  0
 32 66  1  0  0  0
 33 67  1  0  0  0
 33 68  1  0  0  0
 34 69  1  0  0  0
 35 70  1  0  0  0
 35 71  1  0  0  0
M  END
$$$$
