6p3p_ligand
  -I-interpret- 

 56 58  0  0  0  0  0  0  0  0999 V2000
   -9.9670   23.3040  -22.1490 C   0  0  0  0  0
  -11.9830   22.9800  -20.7220 C   0  0  0  0  0
  -12.4540   22.4740  -19.4000 C   0  0  0  0  0
  -12.0520   24.6220  -18.2540 C   0  0  0  0  0
  -11.0460   24.3600  -17.3220 C   0  0  0  0  0
  -10.1500   25.3630  -16.9600 C   0  0  0  0  0
  -10.2440   26.6360  -17.5220 C   0  0  0  0  0
  -11.2490   26.9030  -18.4480 C   0  0  0  0  0
  -12.1410   25.8960  -18.8190 C   0  0  0  0  0
  -13.1230   20.2170  -20.1010 C   0  0  0  0  0
  -16.1650   17.9330  -19.9230 C   0  0  0  0  0
  -15.3440   17.0040  -20.5320 C   0  0  0  0  0
  -15.5390   14.4770  -18.3530 C   0  0  0  0  0
  -14.1520   14.4790  -18.5420 C   0  0  0  0  0
  -13.2940   14.2660  -17.4620 C   0  0  0  0  0
  -13.8330   14.0500  -16.1940 C   0  0  0  0  0
  -15.2110   14.0550  -16.0120 C   0  0  0  0  0
  -11.2860   15.3790  -17.2500 F   0  0  0  0  0
  -11.8240   14.2530  -17.6590 C   0  0  0  0  0
  -11.5050   14.0770  -18.9240 F   0  0  0  0  0
  -11.2980   13.2610  -16.9710 F   0  0  0  0  0
  -16.0560   14.2760  -17.0970 C   0  0  0  0  0
  -17.7310   14.2800  -16.8480 Cl  0  0  0  0  0
  -16.4620   14.7600  -19.4530 N   0  0  0  0  0
  -15.8810   15.4810  -20.9160 S   0  0  0  0  0
  -14.8160   14.7630  -21.5340 O   0  0  0  0  0
  -17.0430   15.6310  -21.7580 O   0  0  0  0  0
  -17.6090   17.8820  -19.4690 C   0  0  0  0  0
  -15.5190   19.1510  -19.6940 C   0  0  0  0  0
  -13.8190   17.6740  -20.7830 S   0  0  0  0  0
  -14.1960   19.1660  -20.1370 C   0  0  0  0  0
  -12.0020   19.9710  -20.5230 O   0  0  0  0  0
  -13.4170   21.4040  -19.5730 N   0  0  0  0  0
  -12.7490   23.1880  -21.6500 O   0  0  0  0  0
  -10.5710   23.1920  -20.8690 O   0  0  0  0  0
  -13.0280   23.5540  -18.6300 C   0  0  0  0  0
  -10.1414   22.3878  -22.7131 H   0  0  0  0  0
  -10.4027   24.1490  -22.6822 H   0  0  0  0  0
   -8.8948   23.4610  -22.0309 H   0  0  0  0  0
  -11.5977   22.0738  -18.8571 H   0  0  0  0  0
  -10.9617   23.3686  -16.8768 H   0  0  0  0  0
   -9.3681   25.1511  -16.2307 H   0  0  0  0  0
   -9.5366   27.4154  -17.2387 H   0  0  0  0  0
  -11.3390   27.8984  -18.8830 H   0  0  0  0  0
  -12.9150   26.1059  -19.5572 H   0  0  0  0  0
  -13.7402   14.6477  -19.5370 H   0  0  0  0  0
  -13.1726   13.8770  -15.3443 H   0  0  0  0  0
  -15.6304   13.8860  -15.0202 H   0  0  0  0  0
  -17.4515   14.5316  -19.3574 H   0  0  0  0  0
  -18.2509   17.6773  -20.3258 H   0  0  0  0  0
  -17.7277   17.0919  -18.7275 H   0  0  0  0  0
  -17.8840   18.8402  -19.0281 H   0  0  0  0  0
  -16.0008   20.0044  -19.2168 H   0  0  0  0  0
  -14.3774   21.5702  -19.2723 H   0  0  0  0  0
  -13.4072   23.1231  -17.7033 H   0  0  0  0  0
  -13.7934   24.0206  -19.2501 H   0  0  0  0  0
 35  1  1  0  0  0
  3  2  1  0  0  0
  2 34  2  0  0  0
  2 35  1  0  0  0
 33  3  1  0  0  0
  3 36  1  0  0  0
  4  5  4  0  0  0
  4  9  4  0  0  0
 36  4  1  0  0  0
  5  6  4  0  0  0
  6  7  4  0  0  0
  8  7  4  0  0  0
  9  8  4  0  0  0
 31 10  1  0  0  0
 10 32  2  0  0  0
 10 33  1  0  0  0
 11 12  4  0  0  0
 11 28  1  0  0  0
 29 11  4  0  0  0
 12 25  1  0  0  0
 12 30  4  0  0  0
 13 14  4  0  0  0
 13 22  4  0  0  0
 24 13  1  0  0  0
 14 15  4  0  0  0
 15 16  4  0  0  0
 15 19  1  0  0  0
 17 16  4  0  0  0
 22 17  4  0  0  0
 19 18  1  0  0  0
 19 20  1  0  0  0
 19 21  1  0  0  0
 22 23  1  0  0  0
 25 24  1  0  0  0
 25 26  2  0  0  0
 25 27  2  0  0  0
 29 31  4  0  0  0
 30 31  4  0  0  0
  1 37  1  0  0  0
  1 38  1  0  0  0
  1 39  1  0  0  0
  3 40  1  0  0  0
  5 41  1  0  0  0
  6 42  1  0  0  0
  7 43  1  0  0  0
  8 44  1  0  0  0
  9 45  1  0  0  0
 14 46  1  0  0  0
 16 47  1  0  0  0
 17 48  1  0  0  0
 24 49  1  0  0  0
 28 50  1  0  0  0
 28 51  1  0  0  0
 28 52  1  0  0  0
 29 53  1  0  0  0
 33 54  1  0  0  0
 36 55  1  0  0  0
 36 56  1  0  0  0
M  END
$$$$
