5tpc_ligand
  -I-interpret- 

146150  0  0  0  0  0  0  0  0999 V2000
   -5.6640   -3.8380   15.6370 C   0  0  0  0  0
   -5.4050   -2.4320   15.1140 C   0  0  0  0  0
   -4.7160   -2.4720   13.7530 C   0  0  0  0  0
   -3.5130   -3.4070   13.7770 C   0  0  0  0  0
   -3.8850   -4.7540   14.3810 C   0  0  0  0  0
   -2.6660   -5.6630   14.4750 C   0  0  0  0  0
   -6.2240   -3.7630   16.9550 O   0  0  0  0  0
   -6.6500   -1.7310   14.9990 O   0  0  0  0  0
   -4.2850   -1.1550   13.3980 O   0  0  0  0  0
   -2.4590   -2.8150   14.5460 O   0  0  0  0  0
   -4.4340   -4.5580   15.6850 O   0  0  0  0  0
   -3.0600   -6.9330   15.0030 O   0  0  0  0  0
   -4.2590    0.5550   12.2180 C   0  0  0  0  0
   -4.7590   -0.8240   11.9810 C   0  0  0  0  0
   -6.2200   -0.8260   11.5620 C   0  0  0  0  0
   -6.4100   -0.0470   10.2530 C   0  0  0  0  0
   -5.5590   -0.6530    9.1710 C   0  0  0  0  0
   -4.1170   -0.6510    9.6400 C   0  0  0  0  0
   -3.2280   -1.3660    8.6260 C   0  0  0  0  0
   -1.7610   -1.0080    8.8360 C   0  0  0  0  0
   -0.9400   -1.3120    7.5870 C   0  0  0  0  0
   -6.2470   -0.4110    6.8540 C   0  0  0  0  0
   -6.2790    0.4800    5.6480 C   0  0  0  0  0
   -5.6880    0.1100    7.9440 N   0  0  0  0  0
   -3.0260    0.7600   12.1710 O   0  0  0  0  0
   -5.0890    1.4590   12.4570 O   0  0  0  0  0
   -7.7890   -0.0920    9.8620 O   0  0  0  0  0
   -3.9460   -1.2640   10.9180 O   0  0  0  0  0
   -3.3980   -2.7790    8.7590 O   0  0  0  0  0
   -1.6500    0.3810    9.1540 O   0  0  0  0  0
   -1.2120   -0.3270    6.5840 O   0  0  0  0  0
   -6.7040   -1.5400    6.8360 O   0  0  0  0  0
   -1.1740   -2.3000   13.8350 C   0  0  0  0  0
   -0.7080   -1.0320   14.5760 C   0  0  0  0  0
    0.6400   -0.4850   14.0750 C   0  0  0  0  0
    1.6380   -1.6140   13.8160 C   0  0  0  0  0
    0.9810   -2.6760   12.9310 C   0  0  0  0  0
    1.9320   -3.7830   12.4850 C   0  0  0  0  0
   -2.1660    0.6680   15.5340 C   0  0  0  0  0
   -3.1790    1.7340   15.2420 C   0  0  0  0  0
   -1.6970    0.0250   14.4680 N   0  0  0  0  0
    1.1400    0.4490   15.0510 O   0  0  0  0  0
    2.0430   -2.1640   15.0780 O   0  0  0  0  0
   -0.1060   -3.2350   13.6650 O   0  0  0  0  0
    2.1760   -4.6850   13.5710 O   0  0  0  0  0
   -1.8050    0.4110   16.6740 O   0  0  0  0  0
    2.0250    1.4180   14.4510 C   0  0  0  0  0
    1.8780    2.7610   15.1670 C   0  0  0  0  0
    2.9370    3.7670   14.6850 C   0  0  0  0  0
    4.3400    3.1700   14.7030 C   0  0  0  0  0
    4.3250    1.8550   13.9360 C   0  0  0  0  0
    5.7050    1.2090   13.9380 C   0  0  0  0  0
    0.5790    3.2670   14.9420 O   0  0  0  0  0
    2.9390    4.9610   15.4540 O   0  0  0  0  0
    4.7410    2.9340   16.0380 O   0  0  0  0  0
    3.3710    0.9740   14.5060 O   0  0  0  0  0
    5.5600   -0.1590   13.6560 O   0  0  0  0  0
    2.2740    6.7720   13.7030 C   0  0  0  0  0
    2.3200    6.0600   15.0330 C   0  0  0  0  0
    3.0940    6.8960   16.0460 C   0  0  0  0  0
    2.3410    8.1720   16.3960 C   0  0  0  0  0
    0.8930    7.8660   16.7630 C   0  0  0  0  0
    0.2360    7.0020   15.6930 C   0  0  0  0  0
   -1.1930    6.6420   16.0840 C   0  0  0  0  0
   -2.1530    6.8750   14.9220 C   0  0  0  0  0
   -2.5190    8.3470   14.8040 C   0  0  0  0  0
   -0.3290    9.4680   18.1110 C   0  0  0  0  0
   -0.9460   10.8330   18.1650 C   0  0  0  0  0
    0.1490    9.0980   16.9280 N   0  0  0  0  0
    1.1820    6.8330   13.0970 O   0  0  0  0  0
    3.3300    7.2730   13.2590 O   0  0  0  0  0
    2.9870    8.8190   17.4990 O   0  0  0  0  0
    0.9960    5.8100   15.5090 O   0  0  0  0  0
   -1.2470    5.2680   16.4770 O   0  0  0  0  0
   -1.5430    6.4370   13.7010 O   0  0  0  0  0
   -3.6750    8.4870   13.9660 O   0  0  0  0  0
   -0.2700    8.7440   19.0910 O   0  0  0  0  0
   -6.3621   -4.3500   14.9747 H   0  0  0  0  0
   -4.7491   -1.9173   15.8161 H   0  0  0  0  0
   -5.4292   -2.8438   13.0173 H   0  0  0  0  0
   -3.1798   -3.5657   12.7514 H   0  0  0  0  0
   -4.6230   -5.2295   13.7350 H   0  0  0  0  0
   -1.9238   -5.2099   15.1323 H   0  0  0  0  0
   -2.2358   -5.7989   13.4827 H   0  0  0  0  0
   -7.0520   -3.2783   16.9225 H   0  0  0  0  0
   -7.0825   -1.7065   15.8557 H   0  0  0  0  0
   -2.2919   -7.5059   15.0623 H   0  0  0  0  0
   -6.8116   -0.3503   12.3442 H   0  0  0  0  0
   -6.5413   -1.8563   11.4088 H   0  0  0  0  0
   -6.1105    0.9898   10.4064 H   0  0  0  0  0
   -5.8841   -1.6739    8.9703 H   0  0  0  0  0
   -3.8274    0.3958    9.7314 H   0  0  0  0  0
   -3.5196   -1.0471    7.6253 H   0  0  0  0  0
   -1.3733   -1.6100    9.6578 H   0  0  0  0  0
   -1.2071   -2.2986    7.2085 H   0  0  0  0  0
    0.1209   -1.2924    7.8365 H   0  0  0  0  0
   -5.7290    0.0076    4.8341 H   0  0  0  0  0
   -7.3133    0.6408    5.3440 H   0  0  0  0  0
   -5.8179    1.4369    5.8925 H   0  0  0  0  0
   -5.3419    1.0691    7.9158 H   0  0  0  0  0
   -2.5731   -0.0634   11.9749 H   0  0  0  0  0
   -7.9044    0.3959    9.0433 H   0  0  0  0  0
   -2.8389   -3.2289    8.1213 H   0  0  0  0  0
   -0.7259    0.6051    9.2860 H   0  0  0  0  0
   -0.6944   -0.5200    5.7989 H   0  0  0  0  0
   -1.4563   -2.0957   12.8022 H   0  0  0  0  0
   -0.5811   -1.3393   15.6141 H   0  0  0  0  0
    0.4986    0.0243   13.1218 H   0  0  0  0  0
    2.5205   -1.2403   13.2967 H   0  0  0  0  0
    0.6486   -2.1906   12.0134 H   0  0  0  0  0
    2.8758   -3.3393   12.1679 H   0  0  0  0  0
    1.4819   -4.3311   11.6573 H   0  0  0  0  0
   -4.1150    1.4916   15.7453 H   0  0  0  0  0
   -2.8089    2.6937   15.6027 H   0  0  0  0  0
   -3.3470    1.7889   14.1664 H   0  0  0  0  0
   -2.0438    0.2833   13.5442 H   0  0  0  0  0
    2.6707   -2.8750   14.9293 H   0  0  0  0  0
    2.7747   -5.3776   13.2819 H   0  0  0  0  0
    1.7529    1.5387   13.4024 H   0  0  0  0  0
    2.0316    2.6088   16.2353 H   0  0  0  0  0
    2.6611    4.0096   13.6588 H   0  0  0  0  0
    5.0410    3.8632   14.2381 H   0  0  0  0  0
    4.0482    2.0618   12.9022 H   0  0  0  0  0
    6.1741    1.3391   14.9132 H   0  0  0  0  0
    6.3356    1.6786   13.1831 H   0  0  0  0  0
    0.4833    4.1105   15.3903 H   0  0  0  0  0
    5.6244    2.5584   16.0439 H   0  0  0  0  0
    6.4239   -0.5776   13.6545 H   0  0  0  0  0
    4.0558    7.1676   15.6109 H   0  0  0  0  0
    3.2247    6.3085   16.9548 H   0  0  0  0  0
    2.3456    8.8272   15.5249 H   0  0  0  0  0
    0.8873    7.3161   17.7041 H   0  0  0  0  0
    0.2058    7.5690   14.7625 H   0  0  0  0  0
   -1.4946    7.2806   16.9143 H   0  0  0  0  0
   -3.0635    6.3057   15.1092 H   0  0  0  0  0
   -1.6845    8.8948   14.3662 H   0  0  0  0  0
   -2.7374    8.7475   15.7940 H   0  0  0  0  0
   -1.9899   10.7468   18.4667 H   0  0  0  0  0
   -0.4070   11.4456   18.8877 H   0  0  0  0  0
   -0.8882   11.2957   17.1798 H   0  0  0  0  0
   -0.0116    9.6953   16.1169 H   0  0  0  0  0
    0.5060    6.3867   13.6122 H   0  0  0  0  0
    2.5120    9.6236   17.7195 H   0  0  0  0  0
   -2.1469    5.0419   16.7231 H   0  0  0  0  0
   -2.1488    6.5845   12.9711 H   0  0  0  0  0
   -3.9048    9.4162   13.8924 H   0  0  0  0  0
  2  1  1  0  0  0
  1  7  1  0  0  0
 11  1  1  0  0  0
  3  2  1  0  0  0
  2  8  1  0  0  0
  4  3  1  0  0  0
  3  9  1  0  0  0
  4  5  1  0  0  0
 10  4  1  0  0  0
  5  6  1  0  0  0
  5 11  1  0  0  0
  6 12  1  0  0  0
  9 14  1  0  0  0
 33 10  1  0  0  0
 14 13  1  0  0  0
 13 25  1  0  0  0
 13 26  2  0  0  0
 14 15  1  0  0  0
 14 28  1  0  0  0
 15 16  1  0  0  0
 16 17  1  0  0  0
 16 27  1  0  0  0
 18 17  1  0  0  0
 17 24  1  0  0  0
 18 19  1  0  0  0
 28 18  1  0  0  0
 19 20  1  0  0  0
 19 29  1  0  0  0
 20 21  1  0  0  0
 20 30  1  0  0  0
 21 31  1  0  0  0
 22 23  1  0  0  0
 24 22  1  0  0  0
 22 32  2  0  0  0
 34 33  1  0  0  0
 33 44  1  0  0  0
 35 34  1  0  0  0
 34 41  1  0  0  0
 35 36  1  0  0  0
 42 35  1  0  0  0
 36 37  1  0  0  0
 36 43  1  0  0  0
 37 38  1  0  0  0
 37 44  1  0  0  0
 38 45  1  0  0  0
 39 40  1  0  0  0
 41 39  1  0  0  0
 39 46  2  0  0  0
 47 42  1  0  0  0
 48 47  1  0  0  0
 47 56  1  0  0  0
 49 48  1  0  0  0
 48 53  1  0  0  0
 49 50  1  0  0  0
 54 49  1  0  0  0
 50 51  1  0  0  0
 50 55  1  0  0  0
 51 52  1  0  0  0
 51 56  1  0  0  0
 52 57  1  0  0  0
 59 54  1  0  0  0
 59 58  1  0  0  0
 58 70  1  0  0  0
 58 71  2  0  0  0
 60 59  1  0  0  0
 73 59  1  0  0  0
 61 60  1  0  0  0
 62 61  1  0  0  0
 61 72  1  0  0  0
 62 63  1  0  0  0
 69 62  1  0  0  0
 63 64  1  0  0  0
 63 73  1  0  0  0
 64 65  1  0  0  0
 64 74  1  0  0  0
 65 66  1  0  0  0
 65 75  1  0  0  0
 66 76  1  0  0  0
 67 68  1  0  0  0
 67 69  1  0  0  0
 67 77  2  0  0  0
  1 78  1  0  0  0
  2 79  1  0  0  0
  3 80  1  0  0  0
  4 81  1  0  0  0
  5 82  1  0  0  0
  6 83  1  0  0  0
  6 84  1  0  0  0
  7 85  1  0  0  0
  8 86  1  0  0  0
 12 87  1  0  0  0
 15 88  1  0  0  0
 15 89  1  0  0  0
 16 90  1  0  0  0
 17 91  1  0  0  0
 18 92  1  0  0  0
 19 93  1  0  0  0
 20 94  1  0  0  0
 21 95  1  0  0  0
 21 96  1  0  0  0
 23 97  1  0  0  0
 23 98  1  0  0  0
 23 99  1  0  0  0
 24100  1  0  0  0
 25101  1  0  0  0
 27102  1  0  0  0
 29103  1  0  0  0
 30104  1  0  0  0
 31105  1  0  0  0
 33106  1  0  0  0
 34107  1  0  0  0
 35108  1  0  0  0
 36109  1  0  0  0
 37110  1  0  0  0
 38111  1  0  0  0
 38112  1  0  0  0
 40113  1  0  0  0
 40114  1  0  0  0
 40115  1  0  0  0
 41116  1  0  0  0
 43117  1  0  0  0
 45118  1  0  0  0
 47119  1  0  0  0
 48120  1  0  0  0
 49121  1  0  0  0
 50122  1  0  0  0
 51123  1  0  0  0
 52124  1  0  0  0
 52125  1  0  0  0
 53126  1  0  0  0
 55127  1  0  0  0
 57128  1  0  0  0
 60129  1  0  0  0
 60130  1  0  0  0
 61131  1  0  0  0
 62132  1  0  0  0
 63133  1  0  0  0
 64134  1  0  0  0
 65135  1  0  0  0
 66136  1  0  0  0
 66137  1  0  0  0
 68138  1  0  0  0
 68139  1  0  0  0
 68140  1  0  0  0
 69141  1  0  0  0
 70142  1  0  0  0
 72143  1  0  0  0
 74144  1  0  0  0
 75145  1  0  0  0
 76146  1  0  0  0
M  END
$$$$
