### 
### Created by X-TOOL on Mon Sep 10 21:13:33 2018
### 

@<TRIPOS>MOLECULE
5tpc_ligand
  144   148     1     0     0
SMALL
GAST_HUCK


@<TRIPOS>ATOM
      1 C1         -5.6640   -3.8380   15.6370 C.3       1 GAL         0.1854
      2 C2         -5.4050   -2.4320   15.1140 C.3       1 GAL         0.1342
      3 C3         -4.7160   -2.4720   13.7530 C.3       1 GAL         0.1200
      4 C4         -3.5130   -3.4070   13.7770 C.3       1 GAL         0.1186
      5 C5         -3.8850   -4.7540   14.3810 C.3       1 GAL         0.1134
      6 C6         -2.6660   -5.6630   14.4750 C.3       1 GAL         0.0730
      7 O1         -6.2240   -3.7630   16.9550 O.3       1 GAL        -0.3649
      8 O2         -6.6500   -1.7310   14.9990 O.3       1 GAL        -0.3841
      9 O3         -4.2850   -1.1550   13.3980 O.3       1 GAL        -0.3380
     10 O4         -2.4590   -2.8150   14.5460 O.3       1 GAL        -0.3404
     11 O5         -4.4340   -4.5580   15.6850 O.3       1 GAL        -0.3407
     12 O6         -3.0600   -6.9330   15.0030 O.3       1 GAL        -0.3924
     13 C1         -4.2590    0.5550   12.2180 C.2       1 SIA         0.1041
     14 C2         -4.7590   -0.8240   11.9810 C.3       1 SIA         0.2208
     15 C3         -6.2200   -0.8260   11.5620 C.3       1 SIA         0.0353
     16 C4         -6.4100   -0.0470   10.2530 C.3       1 SIA         0.0850
     17 C5         -5.5590   -0.6530    9.1710 C.3       1 SIA         0.0964
     18 C6         -4.1170   -0.6510    9.6400 C.3       1 SIA         0.1143
     19 C7         -3.2280   -1.3660    8.6260 C.3       1 SIA         0.1114
     20 C8         -1.7610   -1.0080    8.8360 C.3       1 SIA         0.1065
     21 C9         -0.9400   -1.3120    7.5870 C.3       1 SIA         0.0727
     22 C10        -6.2470   -0.4110    6.8540 C.2       1 SIA         0.1733
     23 C11        -6.2790    0.4800    5.6480 C.3       1 SIA         0.0257
     24 N5         -5.6880    0.1100    7.9440 N.am      1 SIA        -0.2790
     25 O1A        -3.0260    0.7600   12.1710 O.co2     1 SIA        -0.5426
     26 O1B        -5.0890    1.4590   12.4570 O.co2     1 SIA        -0.5426
     27 O4         -7.7890   -0.0920    9.8620 O.3       1 SIA        -0.3893
     28 O6         -3.9460   -1.2640   10.9180 O.3       1 SIA        -0.3384
     29 O7         -3.3980   -2.7790    8.7590 O.3       1 SIA        -0.3865
     30 O8         -1.6500    0.3810    9.1540 O.3       1 SIA        -0.3869
     31 O9         -1.2120   -0.3270    6.5840 O.3       1 SIA        -0.3924
     32 O10        -6.7040   -1.5400    6.8360 O.2       1 SIA        -0.3974
     33 C1         -1.1740   -2.3000   13.8350 C.3       1 NGA         0.1854
     34 C2         -0.7080   -1.0320   14.5760 C.3       1 NGA         0.1213
     35 C3          0.6400   -0.4850   14.0750 C.3       1 NGA         0.1176
     36 C4          1.6380   -1.6140   13.8160 C.3       1 NGA         0.1120
     37 C5          0.9810   -2.6760   12.9310 C.3       1 NGA         0.1130
     38 C6          1.9320   -3.7830   12.4850 C.3       1 NGA         0.0730
     39 C7         -2.1660    0.6680   15.5340 C.2       1 NGA         0.1733
     40 C8         -3.1790    1.7340   15.2420 C.3       1 NGA         0.0257
     41 N2         -1.6970    0.0250   14.4680 N.am      1 NGA        -0.2766
     42 O3          1.1400    0.4490   15.0510 O.3       1 NGA        -0.3403
     43 O4          2.0430   -2.1640   15.0780 O.3       1 NGA        -0.3865
     44 O5         -0.1060   -3.2350   13.6650 O.3       1 NGA        -0.3408
     45 O6          2.1760   -4.6850   13.5710 O.3       1 NGA        -0.3924
     46 O7         -1.8050    0.4110   16.6740 O.2       1 NGA        -0.3974
     47 C1          2.0250    1.4180   14.4510 C.3       1 GAL         0.1884
     48 C2          1.8780    2.7610   15.1670 C.3       1 GAL         0.1344
     49 C3          2.9370    3.7670   14.6850 C.3       1 GAL         0.1197
     50 C4          4.3400    3.1700   14.7030 C.3       1 GAL         0.1121
     51 C5          4.3250    1.8550   13.9360 C.3       1 GAL         0.1130
     52 C6          5.7050    1.2090   13.9380 C.3       1 GAL         0.0730
     53 O2          0.5790    3.2670   14.9420 O.3       1 GAL        -0.3841
     54 O3          2.9390    4.9610   15.4540 O.3       1 GAL        -0.3380
     55 O4          4.7410    2.9340   16.0380 O.3       1 GAL        -0.3865
     56 O5          3.3710    0.9740   14.5060 O.3       1 GAL        -0.3405
     57 O6          5.5600   -0.1590   13.6560 O.3       1 GAL        -0.3924
     58 C1          2.2740    6.7720   13.7030 C.2       1 SIA         0.1041
     59 C2          2.3200    6.0600   15.0330 C.3       1 SIA         0.2208
     60 C3          3.0940    6.8960   16.0460 C.3       1 SIA         0.0353
     61 C4          2.3410    8.1720   16.3960 C.3       1 SIA         0.0850
     62 C5          0.8930    7.8660   16.7630 C.3       1 SIA         0.0964
     63 C6          0.2360    7.0020   15.6930 C.3       1 SIA         0.1143
     64 C7         -1.1930    6.6420   16.0840 C.3       1 SIA         0.1114
     65 C8         -2.1530    6.8750   14.9220 C.3       1 SIA         0.1065
     66 C9         -2.5190    8.3470   14.8040 C.3       1 SIA         0.0727
     67 C10        -0.3290    9.4680   18.1110 C.2       1 SIA         0.1733
     68 C11        -0.9460   10.8330   18.1650 C.3       1 SIA         0.0257
     69 N5          0.1490    9.0980   16.9280 N.am      1 SIA        -0.2790
     70 O1A         1.1820    6.8330   13.0970 O.co2     1 SIA        -0.5426
     71 O1B         3.3300    7.2730   13.2590 O.co2     1 SIA        -0.5426
     72 O4          2.9870    8.8190   17.4990 O.3       1 SIA        -0.3893
     73 O6          0.9960    5.8100   15.5090 O.3       1 SIA        -0.3384
     74 O7         -1.2470    5.2680   16.4770 O.3       1 SIA        -0.3865
     75 O8         -1.5430    6.4370   13.7010 O.3       1 SIA        -0.3869
     76 O9         -3.6750    8.4870   13.9660 O.3       1 SIA        -0.3924
     77 O10        -0.2700    8.7440   19.0910 O.2       1 SIA        -0.3974
     78 H1         -6.3673   -4.3554   14.9679 H         1 GAL         0.0935
     79 H2         -4.7556   -1.9014   15.8258 H         1 GAL         0.0671
     80 H3         -5.4333   -2.8331   13.0013 H         1 GAL         0.0650
     81 H4         -3.1634   -3.5632   12.7458 H         1 GAL         0.0651
     82 H5         -4.6391   -5.2349   13.7406 H         1 GAL         0.0647
     83 H6         -1.9175   -5.2058   15.1389 H         1 GAL         0.0584
     84 H7         -2.2326   -5.8005   13.4734 H         1 GAL         0.0584
     85 H8         -7.0434   -3.2834   16.9229 H         1 GAL         0.2126
     86 H9         -7.0779   -1.7067   15.8467 H         1 GAL         0.2101
     87 H10        -3.4343   -6.8128   15.8678 H         1 GAL         0.2095
     88 H11        -6.8231   -0.3559   12.3527 H         1 GAL         0.0336
     89 H12        -6.5523   -1.8643   11.4157 H         1 GAL         0.0336
     90 H13        -6.1098    1.0000   10.4070 H         1 GAL         0.0618
     91 H14        -5.8830   -1.6879    8.9866 H         1 GAL         0.0608
     92 H15        -3.7897    0.3963    9.7170 H         1 GAL         0.0646
     93 H16        -3.5269   -1.0600    7.6126 H         1 GAL         0.0647
     94 H17        -1.3667   -1.6022    9.6735 H         1 GAL         0.0643
     95 H18        -1.2091   -2.3078    7.2050 H         1 GAL         0.0584
     96 H19         0.1307   -1.2927    7.8386 H         1 GAL         0.0584
     97 H20        -6.7598   -0.0505    4.8129 H         1 GAL         0.0467
     98 H21        -5.2513    0.7526    5.3661 H         1 GAL         0.0467
     99 H22        -6.8495    1.3913    5.8804 H         1 GAL         0.0467
    100 H23        -5.3487    1.0503    7.9163 H         1 GAL         0.1856
    101 H24        -8.3239    0.2913   10.5471 H         1 GAL         0.2099
    102 H25        -3.1271   -3.0489    9.6286 H         1 GAL         0.2100
    103 H26        -1.9760    0.8982    8.4268 H         1 GAL         0.2100
    104 H27        -0.9792    0.5326    6.9146 H         1 GAL         0.2095
    105 H28        -1.4751   -2.0016   12.8200 H         1 GAL         0.0935
    106 H29        -0.5932   -1.2947   15.6380 H         1 GAL         0.0633
    107 H30         0.4747    0.0492   13.1277 H         1 GAL         0.0649
    108 H31         2.5213   -1.2126   13.2976 H         1 GAL         0.0647
    109 H32         0.5909   -2.1820   12.0289 H         1 GAL         0.0647
    110 H33         2.8838   -3.3371   12.1607 H         1 GAL         0.0584
    111 H34         1.4813   -4.3350   11.6470 H         1 GAL         0.0584
    112 H35        -3.5010    2.2017   16.1841 H         1 GAL         0.0467
    113 H36        -4.0486    1.2857   14.7392 H         1 GAL         0.0467
    114 H37        -2.7306    2.4968   14.5885 H         1 GAL         0.0467
    115 H38        -2.0370    0.2782   13.5623 H         1 GAL         0.1857
    116 H39         2.6679   -2.8643   14.9311 H         1 GAL         0.2100
    117 H40         2.5663   -4.2092   14.2947 H         1 GAL         0.2095
    118 H41         1.7425    1.5469   13.3958 H         1 GAL         0.0938
    119 H42         2.0152    2.6018   16.2467 H         1 GAL         0.0671
    120 H43         2.6909    4.0315   13.6460 H         1 GAL         0.0650
    121 H44         5.0442    3.8679   14.2266 H         1 GAL         0.0647
    122 H45         4.0371    2.0604   12.8944 H         1 GAL         0.0647
    123 H46         6.1722    1.3362   14.9257 H         1 GAL         0.0584
    124 H47         6.3360    1.6807   13.1703 H         1 GAL         0.0584
    125 H48         0.4711    4.0821   15.4178 H         1 GAL         0.2101
    126 H49         4.1300    2.3341   16.4497 H         1 GAL         0.2100
    127 H50         5.0129   -0.5618   14.3200 H         1 GAL         0.2095
    128 H51         4.0722    7.1622   15.6191 H         1 GAL         0.0336
    129 H52         3.2422    6.3042   16.9613 H         1 GAL         0.0336
    130 H53         2.3535    8.8437   15.5250 H         1 GAL         0.0618
    131 H54         0.8814    7.3156   17.7153 H         1 GAL         0.0608
    132 H55         0.2140    7.5639   14.7476 H         1 GAL         0.0646
    133 H56        -1.4999    7.2728   16.9313 H         1 GAL         0.0647
    134 H57        -3.0700    6.2931   15.0965 H         1 GAL         0.0643
    135 H58        -1.6769    8.8999   14.3622 H         1 GAL         0.0584
    136 H59        -2.7393    8.7512   15.8030 H         1 GAL         0.0584
    137 H60        -1.3055   11.0327   19.1852 H         1 GAL         0.0467
    138 H61        -1.7910   10.8815   17.4624 H         1 GAL         0.0467
    139 H62        -0.1943   11.5865   17.8871 H         1 GAL         0.0467
    140 H63        -0.0085    9.6836   16.1328 H         1 GAL         0.1856
    141 H64         3.8889    9.0091   17.2691 H         1 GAL         0.2099
    142 H65        -0.9962    4.7197   15.7429 H         1 GAL         0.2100
    143 H66        -0.7584    6.9477   13.5393 H         1 GAL         0.2100
    144 H67        -3.9024    9.4065   13.8932 H         1 GAL         0.2095
@<TRIPOS>BOND
     1    2    1 1  
     2    1    7 1  
     3   11    1 1  
     4    3    2 1  
     5    2    8 1  
     6    4    3 1  
     7    3    9 1  
     8    4    5 1  
     9   10    4 1  
    10    5    6 1  
    11    5   11 1  
    12    6   12 1  
    13    9   14 1  
    14   33   10 1  
    15   14   13 1  
    16   13   25 ar 
    17   13   26 ar 
    18   14   15 1  
    19   14   28 1  
    20   15   16 1  
    21   16   17 1  
    22   16   27 1  
    23   18   17 1  
    24   17   24 1  
    25   18   19 1  
    26   28   18 1  
    27   19   20 1  
    28   19   29 1  
    29   20   21 1  
    30   20   30 1  
    31   21   31 1  
    32   22   23 1  
    33   24   22 am 
    34   22   32 2  
    35   34   33 1  
    36   33   44 1  
    37   35   34 1  
    38   34   41 1  
    39   35   36 1  
    40   42   35 1  
    41   36   37 1  
    42   36   43 1  
    43   37   38 1  
    44   37   44 1  
    45   38   45 1  
    46   39   40 1  
    47   41   39 am 
    48   39   46 2  
    49   47   42 1  
    50   48   47 1  
    51   47   56 1  
    52   49   48 1  
    53   48   53 1  
    54   49   50 1  
    55   54   49 1  
    56   50   51 1  
    57   50   55 1  
    58   51   52 1  
    59   51   56 1  
    60   52   57 1  
    61   59   54 1  
    62   59   58 1  
    63   58   70 ar 
    64   58   71 ar 
    65   60   59 1  
    66   73   59 1  
    67   61   60 1  
    68   62   61 1  
    69   61   72 1  
    70   62   63 1  
    71   69   62 1  
    72   63   64 1  
    73   63   73 1  
    74   64   65 1  
    75   64   74 1  
    76   65   66 1  
    77   65   75 1  
    78   66   76 1  
    79   67   68 1  
    80   67   69 am 
    81   67   77 2  
    82    1   78 1  
    83    2   79 1  
    84    3   80 1  
    85    4   81 1  
    86    5   82 1  
    87    6   83 1  
    88    6   84 1  
    89    7   85 1  
    90    8   86 1  
    91   12   87 1  
    92   15   88 1  
    93   15   89 1  
    94   16   90 1  
    95   17   91 1  
    96   18   92 1  
    97   19   93 1  
    98   20   94 1  
    99   21   95 1  
   100   21   96 1  
   101   23   97 1  
   102   23   98 1  
   103   23   99 1  
   104   24  100 1  
   105   27  101 1  
   106   29  102 1  
   107   30  103 1  
   108   31  104 1  
   109   33  105 1  
   110   34  106 1  
   111   35  107 1  
   112   36  108 1  
   113   37  109 1  
   114   38  110 1  
   115   38  111 1  
   116   40  112 1  
   117   40  113 1  
   118   40  114 1  
   119   41  115 1  
   120   43  116 1  
   121   45  117 1  
   122   47  118 1  
   123   48  119 1  
   124   49  120 1  
   125   50  121 1  
   126   51  122 1  
   127   52  123 1  
   128   52  124 1  
   129   53  125 1  
   130   55  126 1  
   131   57  127 1  
   132   60  128 1  
   133   60  129 1  
   134   61  130 1  
   135   62  131 1  
   136   63  132 1  
   137   64  133 1  
   138   65  134 1  
   139   66  135 1  
   140   66  136 1  
   141   68  137 1  
   142   68  138 1  
   143   68  139 1  
   144   69  140 1  
   145   72  141 1  
   146   74  142 1  
   147   75  143 1  
   148   76  144 1  
@<TRIPOS>SUBSTRUCTURE
     1 GAL         1

