4e3f_ligand
  -I-interpret- 

 17 17  0  0  0  0  0  0  0  0999 V2000
   16.8350    2.2560   16.0540 C   0  0  0  0  0
   17.9450    1.7340   16.0400 O   0  0  0  0  0
   15.9630    1.8420   16.8640 O   0  0  0  0  0
   16.5880    3.3400   15.1800 C   0  0  0  0  0
   15.2980    3.8710   15.1100 C   0  0  0  0  0
   15.0440    5.0110   14.3740 C   0  0  0  0  0
   15.9890    5.5990   13.5570 C   0  0  0  0  0
   17.3010    5.0710   13.6010 C   0  0  0  0  0
   17.5730    3.9560   14.4010 C   0  0  0  0  0
   14.3640    3.2860   15.9020 O   0  0  0  0  0
   18.8660    3.4670   14.4620 O   0  0  0  0  0
   15.1559    2.3492   16.7504 H   0  0  0  0  0
   14.0558    5.4661   14.4407 H   0  0  0  0  0
   15.7350    6.4350   12.9053 H   0  0  0  0  0
   18.0962    5.5309   13.0142 H   0  0  0  0  0
   13.5195    3.7250   15.7767 H   0  0  0  0  0
   19.4296    3.9823   13.8803 H   0  0  0  0  0
  1  2  2  0  0  0
  1  3  1  0  0  0
  1  4  1  0  0  0
  4  5  4  0  0  0
  4  9  4  0  0  0
  5  6  4  0  0  0
  5 10  1  0  0  0
  6  7  4  0  0  0
  7  8  4  0  0  0
  8  9  4  0  0  0
  9 11  1  0  0  0
  3 12  1  0  0  0
  6 13  1  0  0  0
  7 14  1  0  0  0
  8 15  1  0  0  0
 10 16  1  0  0  0
 11 17  1  0  0  0
M  END
$$$$
