2c8x_ligand
  -I-interpret- 

 69 71  0  0  0  0  0  0  0  0999 V2000
   -1.7230   19.9720   47.0770 C   0  0  0  0  0
   -0.6950   20.0550   46.0720 O   0  0  0  0  0
    0.4300   19.4260   46.5170 C   0  0  0  0  0
    0.4830   18.8900   47.7980 C   0  0  0  0  0
    1.6100   18.2390   48.2690 C   0  0  0  0  0
    1.5350   17.7120   49.6890 C   0  0  0  0  0
    2.7190   18.0800   47.4230 C   0  0  0  0  0
    2.6510   18.6150   46.1220 C   0  0  0  0  0
    3.8140   18.4690   45.1710 C   0  0  0  0  0
    1.5170   19.2870   45.6730 C   0  0  0  0  0
    1.4470   19.8460   44.2680 C   0  0  0  0  0
    4.2030   17.2300   47.9390 S   0  0  0  0  0
    4.0220   16.8710   49.3090 O   0  0  0  0  0
    4.5370   16.2980   46.9200 O   0  0  0  0  0
    5.4440   18.3200   47.9630 N   0  0  0  0  0
    5.3140   19.6270   48.6190 C   0  0  0  0  0
    6.1020   19.6390   49.9370 C   0  0  0  0  0
    7.2640   18.8160   49.7690 O   0  0  0  0  0
    6.5520   21.0670   50.2930 C   0  0  0  0  0
    5.3820   22.0650   50.2140 C   0  0  0  0  0
    4.1580   21.6180   50.9930 C   0  0  0  0  0
    2.9040   21.6460   50.3780 C   0  0  0  0  0
    1.7710   21.2450   51.0750 C   0  0  0  0  0
    1.8740   20.8340   52.3910 C   0  0  0  0  0
    3.1210   20.8140   53.0130 C   0  0  0  0  0
    4.2610   21.2030   52.3170 C   0  0  0  0  0
    7.5820   21.5040   49.3400 N   0  3  0  0  0
    8.5610   22.4730   49.9460 C   0  0  0  0  0
    9.4930   22.8240   48.8190 C   0  0  0  0  0
   10.5170   21.9390   48.4950 C   0  0  0  0  0
   11.3730   22.2060   47.4180 C   0  0  0  0  0
   11.1660   23.3680   46.6650 C   0  0  0  0  0
   10.1310   24.2570   46.9740 C   0  0  0  0  0
    9.9160   25.7210   46.0220 Cl  0  0  0  0  0
    9.2900   23.9830   48.0660 C   0  0  0  0  0
   -1.9481   18.9248   47.2790 H   0  0  0  0  0
   -1.3753   20.4531   47.9912 H   0  0  0  0  0
   -2.6210   20.4754   46.7188 H   0  0  0  0  0
   -0.3860   18.9848   48.4491 H   0  0  0  0  0
    1.3577   18.5411   50.3740 H   0  0  0  0  0
    0.7183   16.9943   49.7662 H   0  0  0  0  0
    2.4753   17.2231   49.9439 H   0  0  0  0  0
    4.6952   18.9452   45.6009 H   0  0  0  0  0
    4.0156   17.4107   45.0054 H   0  0  0  0  0
    3.5680   18.9461   44.2223 H   0  0  0  0  0
    0.6265   19.3713   43.7299 H   0  0  0  0  0
    1.2785   20.9219   44.3144 H   0  0  0  0  0
    2.3858   19.6459   43.7515 H   0  0  0  0  0
    6.3251   18.0783   47.5095 H   0  0  0  0  0
    4.2618   19.8172   48.8305 H   0  0  0  0  0
    5.7104   20.3986   47.9591 H   0  0  0  0  0
    5.4659   19.2657   50.7396 H   0  0  0  0  0
    7.7713   18.8104   50.5840 H   0  0  0  0  0
    6.9368   21.0478   51.3126 H   0  0  0  0  0
    5.0926   22.1512   49.1667 H   0  0  0  0  0
    5.7220   23.0062   50.6461 H   0  0  0  0  0
    2.8139   21.9843   49.3457 H   0  0  0  0  0
    0.7984   21.2545   50.5830 H   0  0  0  0  0
    0.9837   20.5269   52.9398 H   0  0  0  0  0
    3.2036   20.4917   54.0510 H   0  0  0  0  0
    5.2338   21.1827   52.8083 H   0  0  0  0  0
    7.1130   21.9754   48.5666 H   0  0  0  0  0
    8.1023   20.6791   49.0413 H   0  0  0  0  0
    9.0915   22.0401   50.7941 H   0  0  0  0  0
    8.0642   23.3534   50.3536 H   0  0  0  0  0
   10.6542   21.0316   49.0832 H   0  0  0  0  0
   12.1848   21.5218   47.1712 H   0  0  0  0  0
   11.8232   23.5839   45.8227 H   0  0  0  0  0
    8.4844   24.6705   48.3238 H   0  0  0  0  0
  1  2  1  0  0  0
  2  3  1  0  0  0
  3  4  4  0  0  0
  3 10  4  0  0  0
  4  5  4  0  0  0
  5  6  1  0  0  0
  5  7  4  0  0  0
  7  8  4  0  0  0
  7 12  1  0  0  0
  8  9  1  0  0  0
  8 10  4  0  0  0
 10 11  1  0  0  0
 12 13  2  0  0  0
 12 14  2  0  0  0
 12 15  1  0  0  0
 15 16  1  0  0  0
 16 17  1  0  0  0
 17 18  1  0  0  0
 17 19  1  0  0  0
 19 20  1  0  0  0
 19 27  1  0  0  0
 20 21  1  0  0  0
 21 22  4  0  0  0
 21 26  4  0  0  0
 22 23  4  0  0  0
 23 24  4  0  0  0
 24 25  4  0  0  0
 25 26  4  0  0  0
 27 28  1  0  0  0
 28 29  1  0  0  0
 29 30  4  0  0  0
 29 35  4  0  0  0
 30 31  4  0  0  0
 31 32  4  0  0  0
 32 33  4  0  0  0
 33 34  1  0  0  0
 33 35  4  0  0  0
  1 36  1  0  0  0
  1 37  1  0  0  0
  1 38  1  0  0  0
  4 39  1  0  0  0
  6 40  1  0  0  0
  6 41  1  0  0  0
  6 42  1  0  0  0
  9 43  1  0  0  0
  9 44  1  0  0  0
  9 45  1  0  0  0
 11 46  1  0  0  0
 11 47  1  0  0  0
 11 48  1  0  0  0
 15 49  1  0  0  0
 16 50  1  0  0  0
 16 51  1  0  0  0
 17 52  1  0  0  0
 18 53  1  0  0  0
 19 54  1  0  0  0
 20 55  1  0  0  0
 20 56  1  0  0  0
 22 57  1  0  0  0
 23 58  1  0  0  0
 24 59  1  0  0  0
 25 60  1  0  0  0
 26 61  1  0  0  0
 27 62  1  0  0  0
 27 63  1  0  0  0
 28 64  1  0  0  0
 28 65  1  0  0  0
 30 66  1  0  0  0
 31 67  1  0  0  0
 32 68  1  0  0  0
 35 69  1  0  0  0
M  END
$$$$
