5h3q_ligand
  -I-interpret- 

 68 71  0  0  0  0  0  0  0  0999 V2000
   55.6500   25.8720   -2.1640 C   0  0  0  0  0
   55.9120   27.1130   -1.5760 C   0  0  0  0  0
   55.2530   28.2670   -1.9660 F   0  0  0  0  0
   56.9080   27.2120   -0.6510 C   0  0  0  0  0
   57.1210   28.3350   -0.1080 F   0  0  0  0  0
   57.6680   26.0870   -0.2630 C   0  0  0  0  0
   57.3960   24.8490   -0.8450 C   0  0  0  0  0
   56.3690   24.7200   -1.8060 C   0  0  0  0  0
   56.0500   23.4540   -2.3910 C   0  0  0  0  0
   57.2210   22.4890   -2.2370 C   0  0  0  0  0
   56.9120   21.4840   -3.2830 N   0  3  0  0  0
   58.0340   20.4990   -3.4560 C   0  0  0  0  0
   57.6960   19.4360   -4.4730 C   0  0  0  0  0
   56.7330   18.5080   -4.0050 O   0  0  0  0  0
   56.1710   17.6390   -4.9680 C   0  0  0  0  0
   56.5360   22.2630   -4.4670 C   0  0  0  0  0
   55.8750   23.6230   -3.9210 C   0  0  0  0  0
   54.5140   23.6370   -4.4280 N   0  0  0  0  0
   54.1020   24.3230   -5.5120 C   0  0  0  0  0
   54.8590   25.1610   -6.0060 O   0  0  0  0  0
   52.8240   24.1190   -5.9130 N   0  0  0  0  0
   52.3690   24.5890   -7.0730 C   0  0  0  0  0
   51.2590   25.2390   -7.3990 C   0  0  0  0  0
   50.2350   25.8590   -6.4750 C   0  0  0  0  0
   51.2730   25.4520   -8.7310 C   0  0  0  0  0
   50.3660   26.1400   -9.4960 O   0  0  0  0  0
   50.8110   26.1100  -10.8960 C   0  0  0  0  0
   50.2650   27.3480  -11.6370 C   0  0  0  0  0
   52.3040   24.8140   -9.2630 N   0  0  0  0  0
   52.9830   24.2560   -8.2770 N   0  0  0  0  0
   54.1190   23.5490   -8.5300 C   0  0  0  0  0
   54.4220   22.3380   -7.9050 C   0  0  0  0  0
   55.5700   21.5900   -8.1350 C   0  0  0  0  0
   56.4760   22.0600   -9.0480 C   0  0  0  0  0
   56.1620   23.2260   -9.7460 C   0  0  0  0  0
   55.0080   23.9780   -9.4950 C   0  0  0  0  0
   54.8679   25.7966   -2.9194 H   0  0  0  0  0
   58.4575   26.1848    0.4821 H   0  0  0  0  0
   57.9800   23.9751   -0.5562 H   0  0  0  0  0
   55.1496   23.0834   -1.9010 H   0  0  0  0  0
   57.3102   22.0657   -1.2365 H   0  0  0  0  0
   58.1958   22.9613   -2.3587 H   0  0  0  0  0
   56.1354   20.8685   -3.0414 H   0  0  0  0  0
   58.2123   20.0114   -2.4976 H   0  0  0  0  0
   58.9135   21.0398   -3.8055 H   0  0  0  0  0
   58.6099   18.8839   -4.6924 H   0  0  0  0  0
   57.2789   19.9344   -5.3480 H   0  0  0  0  0
   55.6690   18.2265   -5.7367 H   0  0  0  0  0
   56.9619   17.0429   -5.4232 H   0  0  0  0  0
   55.4503   16.9799   -4.4841 H   0  0  0  0  0
   55.8356   21.7107   -5.0935 H   0  0  0  0  0
   57.4050   22.4723   -5.0908 H   0  0  0  0  0
   56.2941   24.5824   -4.2243 H   0  0  0  0  0
   53.8178   23.0861   -3.9257 H   0  0  0  0  0
   52.1931   23.5910   -5.3100 H   0  0  0  0  0
   49.8106   25.0861   -5.8342 H   0  0  0  0  0
   50.7160   26.6193   -5.8597 H   0  0  0  0  0
   49.4429   26.3169   -7.0675 H   0  0  0  0  0
   50.4375   25.2056  -11.3762 H   0  0  0  0  0
   51.9004   26.1174  -10.9308 H   0  0  0  0  0
   49.1756   27.3399  -11.6015 H   0  0  0  0  0
   50.6388   28.2519  -11.1560 H   0  0  0  0  0
   50.5962   27.3238  -12.6752 H   0  0  0  0  0
   53.7040   21.9502   -7.1823 H   0  0  0  0  0
   55.7447   20.6547   -7.6033 H   0  0  0  0  0
   57.4162   21.5375   -9.2243 H   0  0  0  0  0
   56.8465   23.5674  -10.5225 H   0  0  0  0  0
   54.8136   24.8924  -10.0555 H   0  0  0  0  0
  1  2  4  0  0  0
  1  8  4  0  0  0
  2  3  1  0  0  0
  2  4  4  0  0  0
  4  5  1  0  0  0
  4  6  4  0  0  0
  6  7  4  0  0  0
  7  8  4  0  0  0
  8  9  1  0  0  0
  9 10  1  0  0  0
  9 17  1  0  0  0
 10 11  1  0  0  0
 11 12  1  0  0  0
 11 16  1  0  0  0
 12 13  1  0  0  0
 13 14  1  0  0  0
 14 15  1  0  0  0
 16 17  1  0  0  0
 17 18  1  0  0  0
 18 19  1  0  0  0
 19 20  2  0  0  0
 19 21  1  0  0  0
 21 22  1  0  0  0
 22 23  4  0  0  0
 22 30  4  0  0  0
 23 24  1  0  0  0
 23 25  4  0  0  0
 25 26  1  0  0  0
 25 29  4  0  0  0
 26 27  1  0  0  0
 27 28  1  0  0  0
 29 30  4  0  0  0
 30 31  1  0  0  0
 31 32  4  0  0  0
 31 36  4  0  0  0
 32 33  4  0  0  0
 33 34  4  0  0  0
 34 35  4  0  0  0
 35 36  4  0  0  0
  1 37  1  0  0  0
  6 38  1  0  0  0
  7 39  1  0  0  0
  9 40  1  0  0  0
 10 41  1  0  0  0
 10 42  1  0  0  0
 11 43  1  0  0  0
 12 44  1  0  0  0
 12 45  1  0  0  0
 13 46  1  0  0  0
 13 47  1  0  0  0
 15 48  1  0  0  0
 15 49  1  0  0  0
 15 50  1  0  0  0
 16 51  1  0  0  0
 16 52  1  0  0  0
 17 53  1  0  0  0
 18 54  1  0  0  0
 21 55  1  0  0  0
 24 56  1  0  0  0
 24 57  1  0  0  0
 24 58  1  0  0  0
 27 59  1  0  0  0
 27 60  1  0  0  0
 28 61  1  0  0  0
 28 62  1  0  0  0
 28 63  1  0  0  0
 32 64  1  0  0  0
 33 65  1  0  0  0
 34 66  1  0  0  0
 35 67  1  0  0  0
 36 68  1  0  0  0
M  END
$$$$
