6bqd_ligand
  -I-interpret- 

 45 47  0  0  0  0  0  0  0  0999 V2000
    4.5580    7.3210   83.3820 C   0  0  0  0  0
    2.2320    7.2220   84.0160 C   0  0  0  0  0
    3.2040    9.3620   83.6650 C   0  0  0  0  0
    2.0230   10.0030   83.9210 C   0  0  0  0  0
    0.8380    9.1860   84.2620 C   0  0  0  0  0
   -0.5210    9.4530   84.5910 C   0  0  0  0  0
   -1.1590    8.2700   84.8060 C   0  0  0  0  0
    0.9760    7.7870   84.3080 C   0  0  0  0  0
    5.5730    7.4770   84.4500 C   0  0  0  0  0
    7.7690    8.2010   85.1760 C   0  0  0  0  0
    6.7110    8.0100   84.1220 C   0  0  0  0  0
    3.2960    7.9950   83.7150 N   0  0  0  0  0
   -0.2610    7.2580   84.6310 N   0  0  0  0  0
    2.3570    6.0120   84.0560 O   0  0  0  0  0
    1.9340   11.4980   83.8840 C   0  0  0  0  0
    0.8050   12.1760   83.3860 C   0  0  0  0  0
    0.7570   13.5710   83.3890 C   0  0  0  0  0
    1.8300   14.2920   83.9200 C   0  0  0  0  0
    2.9670   13.6290   84.4110 C   0  0  0  0  0
    3.0070   12.2310   84.4050 C   0  0  0  0  0
    4.1260   14.3570   84.9940 C   0  0  0  0  0
    4.3620   14.2680   86.1950 O   0  0  0  0  0
    4.9460   15.1230   84.2720 N   0  0  0  0  0
    6.0730   15.7630   84.9820 C   0  0  0  0  0
    4.7600   15.2680   82.8260 C   0  0  0  0  0
    4.3532    6.2573   83.2608 H   0  0  0  0  0
    4.9525    7.7698   82.4704 H   0  0  0  0  0
    4.0883    9.9489   83.4167 H   0  0  0  0  0
   -0.9755   10.4413   84.6594 H   0  0  0  0  0
   -2.2092    8.1514   85.0727 H   0  0  0  0  0
    5.3722    7.1566   85.4723 H   0  0  0  0  0
    7.3836    8.8499   85.9625 H   0  0  0  0  0
    8.0364    7.2332   85.6002 H   0  0  0  0  0
    8.6503    8.6578   84.7257 H   0  0  0  0  0
    6.8985    8.3163   83.0929 H   0  0  0  0  0
   -0.0384   11.6069   82.9949 H   0  0  0  0  0
   -0.1088   14.0928   82.9812 H   0  0  0  0  0
    1.7842   15.3805   83.9535 H   0  0  0  0  0
    3.8762   11.7106   84.8072 H   0  0  0  0  0
    5.6847   16.4112   85.7676 H   0  0  0  0  0
    6.7062   14.9937   85.4239 H   0  0  0  0  0
    6.6564   16.3545   84.2764 H   0  0  0  0  0
    4.8392   14.2902   82.3509 H   0  0  0  0  0
    3.7750   15.6908   82.6283 H   0  0  0  0  0
    5.5280   15.9305   82.4268 H   0  0  0  0  0
  1  9  1  0  0  0
 12  1  1  0  0  0
  2  8  1  0  0  0
 12  2  1  0  0  0
  2 14  2  0  0  0
  3  4  2  0  0  0
  3 12  1  0  0  0
  4  5  1  0  0  0
  4 15  1  0  0  0
  5  6  4  0  0  0
  5  8  4  0  0  0
  6  7  4  0  0  0
  7 13  4  0  0  0
  8 13  4  0  0  0
  9 11  2  0  0  0
 11 10  1  0  0  0
 15 16  4  0  0  0
 15 20  4  0  0  0
 16 17  4  0  0  0
 17 18  4  0  0  0
 18 19  4  0  0  0
 19 20  4  0  0  0
 19 21  1  0  0  0
 21 22  2  0  0  0
 21 23  1  0  0  0
 23 24  1  0  0  0
 23 25  1  0  0  0
  1 26  1  0  0  0
  1 27  1  0  0  0
  3 28  1  0  0  0
  6 29  1  0  0  0
  7 30  1  0  0  0
  9 31  1  0  0  0
 10 32  1  0  0  0
 10 33  1  0  0  0
 10 34  1  0  0  0
 11 35  1  0  0  0
 16 36  1  0  0  0
 17 37  1  0  0  0
 18 38  1  0  0  0
 20 39  1  0  0  0
 24 40  1  0  0  0
 24 41  1  0  0  0
 24 42  1  0  0  0
 25 43  1  0  0  0
 25 44  1  0  0  0
 25 45  1  0  0  0
M  END
$$$$
