2q70_ligand
  -I-interpret- 

 39 42  0  0  0  0  0  0  0  0999 V2000
   12.2810   50.2890   59.1620 C   0  0  0  0  0
   10.5620   51.6960   59.9340 C   0  0  0  0  0
   11.4110   52.1380   61.1760 C   0  0  0  0  0
   11.2730   51.1800   62.3790 C   0  0  0  0  0
   12.9320   52.1570   60.8180 C   0  0  0  0  0
   13.2840   51.0830   59.7740 C   0  0  0  0  0
    8.3050   50.5220   60.0900 C   0  0  0  0  0
    6.9350   50.5270   60.3570 C   0  0  0  0  0
    6.3100   51.7130   60.7780 C   0  0  0  0  0
    7.0620   52.9010   60.9240 C   0  0  0  0  0
   14.9850   49.9060   58.4410 C   0  0  0  0  0
   13.9750   49.1260   57.8400 C   0  0  0  0  0
   12.6390   49.3120   58.1980 C   0  0  0  0  0
   10.9470   50.3950   59.4550 O   0  0  0  0  0
   12.5430   51.4310   63.1950 C   0  0  0  0  0
   12.3120   52.4470   64.1220 F   0  0  0  0  0
   12.9280   50.2730   63.8650 F   0  0  0  0  0
   13.6470   51.8440   62.1880 C   0  0  0  0  0
   14.6420   50.8900   59.4060 C   0  0  0  0  0
    9.0630   51.7050   60.2350 C   0  0  0  0  0
    4.9970   51.7140   61.0400 O   0  0  0  0  0
    8.4330   52.8970   60.6540 C   0  0  0  0  0
   16.2800   49.7080   58.0850 O   0  0  0  0  0
   10.7659   52.4292   59.1537 H   0  0  0  0  0
   11.0316   53.1240   61.4441 H   0  0  0  0  0
   11.1773   50.1388   62.0709 H   0  0  0  0  0
   10.3666   51.3661   62.9552 H   0  0  0  0  0
   13.2364   53.1073   60.3794 H   0  0  0  0  0
    8.7919   49.6014   59.7683 H   0  0  0  0  0
    6.3518   49.6137   60.2393 H   0  0  0  0  0
    6.5726   53.8198   61.2471 H   0  0  0  0  0
   14.2386   48.3761   57.0941 H   0  0  0  0  0
   11.8646   48.7018   57.7332 H   0  0  0  0  0
   14.1882   52.7190   62.5481 H   0  0  0  0  0
   14.3763   51.0430   62.0670 H   0  0  0  0  0
   15.4220   51.4978   59.8647 H   0  0  0  0  0
    4.7271   52.5937   61.3137 H   0  0  0  0  0
    9.0147   53.8119   60.7666 H   0  0  0  0  0
   16.8419   50.3105   58.5778 H   0  0  0  0  0
  6  1  4  0  0  0
  1 13  4  0  0  0
  1 14  1  0  0  0
  3  2  1  0  0  0
 14  2  1  0  0  0
  2 20  1  0  0  0
  3  4  1  0  0  0
  5  3  1  0  0  0
  4 15  1  0  0  0
  6  5  1  0  0  0
  5 18  1  0  0  0
 19  6  4  0  0  0
  7  8  4  0  0  0
 20  7  4  0  0  0
  8  9  4  0  0  0
  9 10  4  0  0  0
  9 21  1  0  0  0
 10 22  4  0  0  0
 11 12  4  0  0  0
 11 19  4  0  0  0
 11 23  1  0  0  0
 12 13  4  0  0  0
 15 16  1  0  0  0
 15 17  1  0  0  0
 15 18  1  0  0  0
 20 22  4  0  0  0
  2 24  1  0  0  0
  3 25  1  0  0  0
  4 26  1  0  0  0
  4 27  1  0  0  0
  5 28  1  0  0  0
  7 29  1  0  0  0
  8 30  1  0  0  0
 10 31  1  0  0  0
 12 32  1  0  0  0
 13 33  1  0  0  0
 18 34  1  0  0  0
 18 35  1  0  0  0
 19 36  1  0  0  0
 21 37  1  0  0  0
 22 38  1  0  0  0
 23 39  1  0  0  0
M  END
$$$$
