2bmc_ligand
  -I-interpret- 

 74 78  0  0  0  0  0  0  0  0999 V2000
    5.4620   -7.6020    6.9100 N   0  0  0  0  0
    8.1790   -8.7080    4.8710 N   0  0  0  0  0
    9.1120   -7.2530    6.1380 C   0  0  0  0  0
    9.3510   -8.1150    5.1290 N   0  3  0  0  0
   10.1430   -6.4490    6.6550 N   0  0  0  0  0
   10.0480   -5.4990    7.7180 C   0  0  0  0  0
   11.3070   -4.7070    8.0580 C   0  0  0  0  0
    9.0180   -5.2850    8.3390 O   0  0  0  0  0
   11.2790   -3.7180    9.0940 C   0  0  0  0  0
   12.3990   -2.9450    9.4360 C   0  0  0  0  0
   13.6890   -4.1080    7.7170 C   0  0  0  0  0
   12.5510   -4.8780    7.3830 C   0  0  0  0  0
    7.2120   -8.2420    5.6810 C   0  0  0  0  0
    7.7380   -7.3110    6.5130 C   0  0  0  0  0
    6.6320   -6.8430    7.3690 C   0  0  0  0  0
    5.7850   -8.5470    5.8020 C   0  0  0  0  0
   14.8130   -2.3000    9.1090 N   0  0  0  0  0
   14.7080   -1.1640   10.1050 C   0  0  0  0  0
   16.0730   -0.5970   10.5860 C   0  0  0  0  0
   17.0130   -0.2890    9.4800 N   0  3  0  0  0
   17.0220   -1.2560    8.3150 C   0  0  0  0  0
   16.1730   -2.5450    8.5180 C   0  0  0  0  0
   18.3550   -0.0600   10.0250 C   0  0  0  0  0
   13.6520   -3.1050    8.7590 C   0  0  0  0  0
    4.1360   -7.2370    7.1000 C   0  0  0  0  0
    3.2230   -7.8020    6.5190 O   0  0  0  0  0
    2.6370   -5.5130    8.2760 C   0  0  0  0  0
    2.1730   -4.5180    7.3180 C   0  0  0  0  0
    1.8450   -5.8060    9.4510 C   0  0  0  0  0
    3.8780   -6.1680    7.9940 N   0  0  0  0  0
    0.9360   -3.8550    7.5820 C   0  0  0  0  0
    2.9270   -4.1330    6.0340 C   0  0  0  0  0
    0.6230   -5.1030    9.6410 C   0  0  0  0  0
    2.2040   -6.8200   10.5230 C   0  0  0  0  0
    0.1660   -4.1390    8.7280 C   0  0  0  0  0
    4.1550   -3.2670    6.3460 C   0  0  0  0  0
    3.1710   -6.2410   11.5630 C   0  0  0  0  0
    8.0379   -9.4198    4.1542 H   0  0  0  0  0
    9.4575   -6.5530    6.8988 H   0  0  0  0  0
    9.7118   -7.6323    4.3061 H   0  0  0  0  0
   10.0640   -8.7979    5.3853 H   0  0  0  0  0
   11.0609   -6.5558    6.2232 H   0  0  0  0  0
   10.3487   -3.5593    9.6394 H   0  0  0  0  0
   12.3142   -2.2070   10.2337 H   0  0  0  0  0
   14.6196   -4.2747    7.1745 H   0  0  0  0  0
   12.6268   -5.6212    6.5893 H   0  0  0  0  0
    6.6738   -6.0995    8.1649 H   0  0  0  0  0
    5.1548   -9.2468    5.2532 H   0  0  0  0  0
   14.1995   -1.5583   10.9848 H   0  0  0  0  0
   14.1838   -0.3497    9.6048 H   0  0  0  0  0
   16.5412   -1.3587   11.2095 H   0  0  0  0  0
   15.8715    0.3360   11.1123 H   0  0  0  0  0
   16.6572    0.5648    9.0500 H   0  0  0  0  0
   18.0548   -1.5786    8.1837 H   0  0  0  0  0
   16.5901   -0.7270    7.4655 H   0  0  0  0  0
   16.0210   -2.9883    7.5339 H   0  0  0  0  0
   16.7169   -3.1819    9.2156 H   0  0  0  0  0
   18.3251    0.7790   10.7202 H   0  0  0  0  0
   18.6909   -0.9553   10.5482 H   0  0  0  0  0
   19.0429    0.1659    9.2103 H   0  0  0  0  0
    4.6873   -5.8175    8.5065 H   0  0  0  0  0
    0.5764   -3.1066    6.8758 H   0  0  0  0  0
    2.2537   -3.5623    5.3944 H   0  0  0  0  0
    3.2625   -5.0459    5.5420 H   0  0  0  0  0
    0.0218   -5.3197   10.5240 H   0  0  0  0  0
    2.6908   -7.6675   10.0404 H   0  0  0  0  0
    1.2875   -7.1119   11.0359 H   0  0  0  0  0
   -0.7740   -3.6159    8.9036 H   0  0  0  0  0
    3.8358   -2.3537    6.8482 H   0  0  0  0  0
    4.8338   -3.8214    6.9941 H   0  0  0  0  0
    4.6645   -3.0130    5.4165 H   0  0  0  0  0
    4.0906   -5.9289   11.0681 H   0  0  0  0  0
    2.7085   -5.3817   12.0485 H   0  0  0  0  0
    3.3988   -7.0024   12.3090 H   0  0  0  0  0
  1 15  4  0  0  0
  1 16  4  0  0  0
 25  1  1  0  0  0
  2  4  1  0  0  0
 13  2  1  0  0  0
  3  4  1  0  0  0
  3  5  1  0  0  0
 14  3  1  0  0  0
  5  6  1  0  0  0
  6  7  1  0  0  0
  6  8  2  0  0  0
  7  9  4  0  0  0
  7 12  4  0  0  0
  9 10  4  0  0  0
 10 24  4  0  0  0
 12 11  4  0  0  0
 11 24  4  0  0  0
 13 14  4  0  0  0
 16 13  4  0  0  0
 15 14  4  0  0  0
 17 18  1  0  0  0
 17 22  1  0  0  0
 24 17  1  0  0  0
 18 19  1  0  0  0
 19 20  1  0  0  0
 21 20  1  0  0  0
 20 23  1  0  0  0
 22 21  1  0  0  0
 25 26  2  0  0  0
 30 25  1  0  0  0
 27 28  4  0  0  0
 27 29  4  0  0  0
 27 30  1  0  0  0
 28 31  4  0  0  0
 28 32  1  0  0  0
 29 33  4  0  0  0
 29 34  1  0  0  0
 31 35  4  0  0  0
 32 36  1  0  0  0
 33 35  4  0  0  0
 34 37  1  0  0  0
  2 38  1  0  0  0
  3 39  1  0  0  0
  4 40  1  0  0  0
  4 41  1  0  0  0
  5 42  1  0  0  0
  9 43  1  0  0  0
 10 44  1  0  0  0
 11 45  1  0  0  0
 12 46  1  0  0  0
 15 47  1  0  0  0
 16 48  1  0  0  0
 18 49  1  0  0  0
 18 50  1  0  0  0
 19 51  1  0  0  0
 19 52  1  0  0  0
 20 53  1  0  0  0
 21 54  1  0  0  0
 21 55  1  0  0  0
 22 56  1  0  0  0
 22 57  1  0  0  0
 23 58  1  0  0  0
 23 59  1  0  0  0
 23 60  1  0  0  0
 30 61  1  0  0  0
 31 62  1  0  0  0
 32 63  1  0  0  0
 32 64  1  0  0  0
 33 65  1  0  0  0
 34 66  1  0  0  0
 34 67  1  0  0  0
 35 68  1  0  0  0
 36 69  1  0  0  0
 36 70  1  0  0  0
 36 71  1  0  0  0
 37 72  1  0  0  0
 37 73  1  0  0  0
 37 74  1  0  0  0
M  END
$$$$
