1izi_ligand
  -I-interpret- 

 99101  0  0  0  0  0  0  0  0999 V2000
   -3.9530   14.6600   -7.6440 O   0  0  0  0  0
   -4.2930   15.8400   -7.7910 C   0  0  0  0  0
   -4.5600   16.3310   -9.0110 N   0  0  0  0  0
   -4.4850   16.8570   -6.6450 C   0  0  0  0  0
   -3.1780   17.3160   -5.9450 C   0  0  0  0  0
   -2.2930   16.2270   -5.3300 C   0  0  0  0  0
   -2.6210   15.5970   -4.1330 C   0  0  0  0  0
   -1.7590   14.6470   -3.5640 C   0  0  0  0  0
   -0.5510   14.3010   -4.1450 C   0  0  0  0  0
   -0.2120   14.9300   -5.3270 C   0  0  0  0  0
   -1.0550   15.8850   -5.9040 C   0  0  0  0  0
   -5.4320   16.3400   -5.6420 N   0  0  0  0  0
   -6.4340   17.0550   -5.0880 C   0  0  0  0  0
   -6.5610   18.2700   -5.3930 O   0  0  0  0  0
   -7.3090   16.1970   -4.0950 C   0  0  0  0  0
   -8.6100   15.6400   -4.6070 C   0  0  0  0  0
   -8.3160   14.7610   -5.7950 C   0  0  0  0  0
   -8.3420   15.6690   -6.9720 C   0  0  0  0  0
   -9.0380   16.6530   -6.9410 O   0  0  0  0  0
   -7.5680   15.3710   -8.0180 N   0  0  0  0  0
   -7.6550   16.9040   -2.8890 N   0  0  0  0  0
   -7.5570   16.3320   -1.7260 C   0  0  0  0  0
   -7.2820   15.1350   -1.6000 O   0  0  0  0  0
   -7.8610   17.2930   -0.6240 C   0  0  0  0  0
   -6.6180   17.7820    0.1270 C   0  0  0  0  0
   -5.3110   17.8050   -0.6420 C   0  0  0  0  0
   -4.3130   16.8700   -0.3330 C   0  0  0  0  0
   -3.1010   16.9150   -1.0320 C   0  0  0  0  0
   -2.8240   17.8960   -2.0090 C   0  0  0  0  0
   -3.8050   18.8320   -2.3110 C   0  0  0  0  0
   -5.0340   18.7910   -1.6150 C   0  0  0  0  0
   -8.7030   16.5880    0.3920 C   0  0  0  0  0
  -10.1200   16.5030   -0.0710 C   0  0  0  0  0
  -10.5440   17.8640    0.2220 O   0  0  0  0  0
  -10.7220   15.2360    0.5860 C   0  0  0  0  0
  -10.7880   15.4390    2.0550 N   0  0  0  0  0
   -9.9930   14.7200    2.8970 C   0  0  0  0  0
   -9.2790   13.8920    2.3210 O   0  0  0  0  0
  -10.0040   14.8980    4.3980 O   0  0  0  0  0
   -9.0380   14.9940    5.5250 C   0  0  0  0  0
   -7.8290   15.8470    5.2340 C   0  0  0  0  0
   -8.5770   13.6610    6.0520 C   0  0  0  0  0
   -9.6780   15.5550    6.7800 C   0  0  0  0  0
  -12.0860   14.7920    0.0020 C   0  0  0  0  0
  -12.6780   13.5780    0.7010 C   0  0  0  0  0
  -13.7160   13.7350    1.6590 C   0  0  0  0  0
  -14.2830   12.6480    2.3460 C   0  0  0  0  0
  -13.8400   11.3510    2.0920 C   0  0  0  0  0
  -12.8230   11.1770    1.1240 C   0  0  0  0  0
  -12.2460   12.2630    0.4180 C   0  0  0  0  0
   -4.4835   15.7291   -9.8309 H   0  0  0  0  0
   -4.8394   17.3061   -9.1184 H   0  0  0  0  0
   -4.8880   17.7459   -7.1303 H   0  0  0  0  0
   -3.4934   17.9456   -5.1130 H   0  0  0  0  0
   -2.5743   17.7835   -6.7229 H   0  0  0  0  0
   -3.5572   15.8441   -3.6323 H   0  0  0  0  0
   -2.0510   14.1643   -2.6313 H   0  0  0  0  0
    0.1065   13.5615   -3.6878 H   0  0  0  0  0
    0.7279   14.6779   -5.8181 H   0  0  0  0  0
   -0.7440   16.3785   -6.8248 H   0  0  0  0  0
   -5.3225   15.3706   -5.3443 H   0  0  0  0  0
   -6.6222   15.3668   -3.9297 H   0  0  0  0  0
   -9.2744   16.4530   -4.8998 H   0  0  0  0  0
   -9.1005   15.0595   -3.8257 H   0  0  0  0  0
   -9.0479   13.9590   -5.8912 H   0  0  0  0  0
   -7.3524   14.2614   -5.6953 H   0  0  0  0  0
   -7.5507   15.9863   -8.8314 H   0  0  0  0  0
   -6.9939   14.5280   -8.0039 H   0  0  0  0  0
   -7.9820   17.8683   -2.9484 H   0  0  0  0  0
   -8.3480   18.1503   -1.0888 H   0  0  0  0  0
   -6.4688   17.0770    0.9448 H   0  0  0  0  0
   -6.8223   18.8183    0.3961 H   0  0  0  0  0
   -4.4784   16.1194    0.4399 H   0  0  0  0  0
   -2.3419   16.1638   -0.8137 H   0  0  0  0  0
   -1.8595   17.9184   -2.5162 H   0  0  0  0  0
   -3.6289   19.5888   -3.0755 H   0  0  0  0  0
   -5.7915   19.5431   -1.8356 H   0  0  0  0  0
   -8.6692   17.1454    1.3281 H   0  0  0  0  0
   -8.3158   15.5790    0.5341 H   0  0  0  0  0
  -10.4165   16.3110   -1.1022 H   0  0  0  0  0
  -11.4646   17.9720   -0.0280 H   0  0  0  0  0
  -10.0554   14.4060    0.3519 H   0  0  0  0  0
  -11.4369   16.1257    2.4394 H   0  0  0  0  0
   -7.2884   15.4308    4.3839 H   0  0  0  0  0
   -8.1499   16.8622    5.0004 H   0  0  0  0  0
   -7.1779   15.8624    6.1080 H   0  0  0  0  0
   -9.4373   13.0969    6.4121 H   0  0  0  0  0
   -8.0857   13.1060    5.2528 H   0  0  0  0  0
   -7.8754   13.8185    6.8712 H   0  0  0  0  0
  -10.0614   16.5546    6.5751 H   0  0  0  0  0
  -10.4976   14.9064    7.0894 H   0  0  0  0  0
   -8.9334   15.6058    7.5744 H   0  0  0  0  0
  -11.9238   14.5227   -1.0417 H   0  0  0  0  0
  -12.7839   15.6189    0.1337 H   0  0  0  0  0
  -14.0870   14.7381    1.8692 H   0  0  0  0  0
  -15.0711   12.8196    3.0792 H   0  0  0  0  0
  -14.2636   10.4981    2.6222 H   0  0  0  0  0
  -12.4689   10.1680    0.9125 H   0  0  0  0  0
  -11.4778   12.0852   -0.3346 H   0  0  0  0  0
  1  2  2  0  0  0
  2  4  1  0  0  0
  2  3  1  0  0  0
  4 12  1  0  0  0
  4  5  1  0  0  0
  5  6  1  0  0  0
  6 11  4  0  0  0
  6  7  4  0  0  0
  7  8  4  0  0  0
  8  9  4  0  0  0
  9 10  4  0  0  0
 10 11  4  0  0  0
 12 13  1  0  0  0
 13 15  1  0  0  0
 13 14  2  0  0  0
 15 21  1  0  0  0
 15 16  1  0  0  0
 16 17  1  0  0  0
 17 18  1  0  0  0
 18 20  1  0  0  0
 18 19  2  0  0  0
 21 22  1  0  0  0
 22 24  1  0  0  0
 22 23  2  0  0  0
 24 32  1  0  0  0
 24 25  1  0  0  0
 25 26  1  0  0  0
 26 31  4  0  0  0
 26 27  4  0  0  0
 27 28  4  0  0  0
 28 29  4  0  0  0
 29 30  4  0  0  0
 30 31  4  0  0  0
 32 33  1  0  0  0
 33 35  1  0  0  0
 33 34  1  0  0  0
 35 44  1  0  0  0
 35 36  1  0  0  0
 36 37  1  0  0  0
 37 39  1  0  0  0
 37 38  2  0  0  0
 39 40  1  0  0  0
 40 43  1  0  0  0
 40 42  1  0  0  0
 40 41  1  0  0  0
 44 45  1  0  0  0
 45 50  4  0  0  0
 45 46  4  0  0  0
 46 47  4  0  0  0
 47 48  4  0  0  0
 48 49  4  0  0  0
 49 50  4  0  0  0
  3 51  1  0  0  0
  3 52  1  0  0  0
  4 53  1  0  0  0
  5 54  1  0  0  0
  5 55  1  0  0  0
  7 56  1  0  0  0
  8 57  1  0  0  0
  9 58  1  0  0  0
 10 59  1  0  0  0
 11 60  1  0  0  0
 12 61  1  0  0  0
 15 62  1  0  0  0
 16 63  1  0  0  0
 16 64  1  0  0  0
 17 65  1  0  0  0
 17 66  1  0  0  0
 20 67  1  0  0  0
 20 68  1  0  0  0
 21 69  1  0  0  0
 24 70  1  0  0  0
 25 71  1  0  0  0
 25 72  1  0  0  0
 27 73  1  0  0  0
 28 74  1  0  0  0
 29 75  1  0  0  0
 30 76  1  0  0  0
 31 77  1  0  0  0
 32 78  1  0  0  0
 32 79  1  0  0  0
 33 80  1  0  0  0
 34 81  1  0  0  0
 35 82  1  0  0  0
 36 83  1  0  0  0
 41 84  1  0  0  0
 41 85  1  0  0  0
 41 86  1  0  0  0
 42 87  1  0  0  0
 42 88  1  0  0  0
 42 89  1  0  0  0
 43 90  1  0  0  0
 43 91  1  0  0  0
 43 92  1  0  0  0
 44 93  1  0  0  0
 44 94  1  0  0  0
 46 95  1  0  0  0
 47 96  1  0  0  0
 48 97  1  0  0  0
 49 98  1  0  0  0
 50 99  1  0  0  0
M  END
$$$$
