1s17_ligand
  -I-interpret- 

 26 27  0  0  0  0  0  0  0  0999 V2000
   56.2630   52.2270   37.8260 O   0  0  0  0  0
   56.1400   51.3030   37.0290 C   0  0  0  0  0
   57.1640   50.9900   36.1660 N   0  0  0  0  0
   57.1510   50.0330   35.1640 C   0  0  0  0  0
   58.3470   49.7510   34.4790 C   0  0  0  0  0
   58.3850   48.7380   33.5020 C   0  0  0  0  0
   57.2300   47.9950   33.2020 C   0  0  0  0  0
   56.0280   48.2600   33.8790 C   0  0  0  0  0
   55.9940   49.2710   34.8450 C   0  0  0  0  0
   54.4320   49.7140   35.6280 S   0  0  0  0  0
   55.0030   50.2990   37.2470 C   0  0  0  0  0
   53.8700   50.8890   38.0840 C   0  0  0  0  0
   52.9440   49.7290   38.5140 C   0  0  0  0  0
   53.2490   48.9950   39.4450 O   0  0  0  0  0
   51.8630   49.5530   37.7590 N   0  0  0  0  0
   50.9930   48.5650   38.0470 O   0  0  0  0  0
   58.0281   51.5207   36.2756 H   0  0  0  0  0
   59.2488   50.3197   34.7058 H   0  0  0  0  0
   59.3158   48.5285   32.9749 H   0  0  0  0  0
   57.2671   47.2129   32.4437 H   0  0  0  0  0
   55.1308   47.6835   33.6538 H   0  0  0  0  0
   55.3745   49.4505   37.8216 H   0  0  0  0  0
   53.3118   51.6216   37.5011 H   0  0  0  0  0
   54.2727   51.3957   38.9610 H   0  0  0  0  0
   51.6926   50.1661   36.9618 H   0  0  0  0  0
   50.2751   48.5765   37.4098 H   0  0  0  0  0
  1  2  2  0  0  0
  2  3  1  0  0  0
  2 11  1  0  0  0
  3  4  1  0  0  0
  4  5  4  0  0  0
  4  9  4  0  0  0
  5  6  4  0  0  0
  6  7  4  0  0  0
  7  8  4  0  0  0
  8  9  4  0  0  0
  9 10  1  0  0  0
 10 11  1  0  0  0
 11 12  1  0  0  0
 12 13  1  0  0  0
 13 14  2  0  0  0
 13 15  1  0  0  0
 15 16  1  0  0  0
  3 17  1  0  0  0
  5 18  1  0  0  0
  6 19  1  0  0  0
  7 20  1  0  0  0
  8 21  1  0  0  0
 11 22  1  0  0  0
 12 23  1  0  0  0
 12 24  1  0  0  0
 15 25  1  0  0  0
 16 26  1  0  0  0
M  END
$$$$
