9hvp_ligand
  -I-interpret- 

106109  0  0  0  0  0  0  0  0999 V2000
  -12.0830   14.5940   33.2610 C   0  0  0  0  0
  -12.6000   15.6490   33.6620 O   0  0  0  0  0
  -12.6010   13.3120   33.6680 O   0  0  0  0  0
  -13.2990   13.0090   34.8480 C   0  0  0  0  0
  -12.8260   11.9560   35.9160 C   0  0  0  0  0
  -12.5480   10.6110   35.5570 C   0  0  0  0  0
  -12.2150    9.6550   36.5140 C   0  0  0  0  0
  -12.1380   10.0200   37.8370 C   0  0  0  0  0
  -12.3950   11.3240   38.2050 C   0  0  0  0  0
  -12.7360   12.3010   37.2760 C   0  0  0  0  0
  -10.9760   14.5410   32.5060 N   0  0  0  0  0
  -10.2250   15.6900   32.0200 C   0  0  0  0  0
  -10.1590   15.5510   30.5150 C   0  0  0  0  0
   -9.4670   14.6840   29.9680 O   0  0  0  0  0
   -8.7490   15.7380   32.5720 C   0  0  0  0  0
   -8.0760   17.0320   32.1460 C   0  0  0  0  0
   -8.6650   15.6460   34.0760 C   0  0  0  0  0
  -12.3970   16.2450   27.9550 C   0  0  0  0  0
  -10.9880   16.5300   28.4010 C   0  0  0  0  0
  -10.9200   16.4470   29.8780 N   0  0  0  0  0
  -10.3550   17.6980   27.6880 C   0  0  0  0  0
  -10.5550   18.7350   28.5720 O   0  0  0  0  0
   -8.8160   17.5400   27.4670 C   0  0  0  0  0
   -8.6210   17.4690   26.0050 N   0  0  0  0  0
   -7.9110   18.6430   28.0820 C   0  0  0  0  0
  -12.7300   14.8260   28.4350 C   0  0  0  0  0
  -12.1450   13.7400   27.7940 C   0  0  0  0  0
  -12.2950   12.4830   28.3300 C   0  0  0  0  0
  -13.0330   12.3000   29.4880 C   0  0  0  0  0
  -13.6280   13.3790   30.1080 C   0  0  0  0  0
  -13.4810   14.6450   29.5930 C   0  0  0  0  0
   -6.5470   18.7380   27.3950 C   0  0  0  0  0
   -6.3670   19.6140   26.3380 C   0  0  0  0  0
   -5.2410   19.5210   25.5490 C   0  0  0  0  0
   -4.2870   18.5470   25.8320 C   0  0  0  0  0
   -4.4380   17.6730   26.8960 C   0  0  0  0  0
   -5.5690   17.7770   27.6800 C   0  0  0  0  0
   -7.0430   16.7750   23.4060 N   0  0  0  0  0
   -8.4190   16.5220   23.8030 C   0  0  0  0  0
   -8.3660   16.3310   25.3210 C   0  0  0  0  0
   -7.9880   15.2560   25.8270 O   0  0  0  0  0
   -9.1210   15.3060   23.1670 C   0  0  0  0  0
  -10.5990   15.5070   23.4070 C   0  0  0  0  0
   -8.7550   15.1110   21.6910 C   0  0  0  0  0
   -6.7510   17.8020   22.6040 C   0  0  0  0  0
   -7.5630   18.4100   21.8750 O   0  0  0  0  0
   -5.4000   18.1330   22.5140 O   0  0  0  0  0
   -4.6830   18.4410   21.3980 C   0  0  0  0  0
   -3.2830   17.8450   21.4820 C   0  0  0  0  0
   -2.2080   18.6600   21.7690 C   0  0  0  0  0
   -0.9790   18.0670   21.9600 C   0  0  0  0  0
   -0.8230   16.6920   21.8730 C   0  0  0  0  0
   -1.9040   15.8970   21.5790 C   0  0  0  0  0
   -3.1380   16.4680   21.3740 C   0  0  0  0  0
  -14.2206   12.5658   34.4707 H   0  0  0  0  0
  -13.2471   13.9468   35.4011 H   0  0  0  0  0
  -12.5962   10.3194   34.5078 H   0  0  0  0  0
  -12.0170    8.6254   36.2160 H   0  0  0  0  0
  -11.8745    9.2807   38.5933 H   0  0  0  0  0
  -12.3287   11.5977   39.2580 H   0  0  0  0  0
  -12.9315   13.3236   37.5988 H   0  0  0  0  0
  -10.6302   13.6161   32.2501 H   0  0  0  0  0
  -10.7221   16.6011   32.3531 H   0  0  0  0  0
   -8.2471   14.8662   32.1522 H   0  0  0  0  0
   -8.0542   17.0875   31.0576 H   0  0  0  0  0
   -8.6355   17.8789   32.5432 H   0  0  0  0  0
   -7.0571   17.0545   32.5327 H   0  0  0  0  0
   -9.2075   16.4803   34.5206 H   0  0  0  0  0
   -9.1071   14.7061   34.4065 H   0  0  0  0  0
   -7.6200   15.6854   34.3833 H   0  0  0  0  0
  -12.4851   16.3201   26.8712 H   0  0  0  0  0
  -13.0928   16.9714   28.3749 H   0  0  0  0  0
  -10.2988   15.7545   28.0667 H   0  0  0  0  0
  -11.4757   17.0992   30.4313 H   0  0  0  0  0
  -10.7837   17.8235   26.6937 H   0  0  0  0  0
  -10.1822   19.5411   28.2075 H   0  0  0  0  0
   -8.4984   16.6433   27.9992 H   0  0  0  0  0
   -8.6829   18.3381   25.4748 H   0  0  0  0  0
   -7.7418   18.3920   29.1291 H   0  0  0  0  0
   -8.4169   19.6002   27.9557 H   0  0  0  0  0
  -11.5738   13.8835   26.8768 H   0  0  0  0  0
  -11.8310   11.6262   27.8415 H   0  0  0  0  0
  -13.1437   11.3012   29.9101 H   0  0  0  0  0
  -14.2182   13.2269   31.0116 H   0  0  0  0  0
  -13.9474   15.4979   30.0860 H   0  0  0  0  0
   -7.1164   20.3777   26.1298 H   0  0  0  0  0
   -5.0985   20.2035   24.7112 H   0  0  0  0  0
   -3.4010   18.4705   25.2018 H   0  0  0  0  0
   -3.6799   16.9194   27.1094 H   0  0  0  0  0
   -5.7022   17.1055   28.5282 H   0  0  0  0  0
   -6.2975   16.1652   23.7417 H   0  0  0  0  0
   -9.0171   17.3641   23.4547 H   0  0  0  0  0
   -8.7881   14.3748   23.6254 H   0  0  0  0  0
  -10.7883   15.5557   24.4793 H   0  0  0  0  0
  -10.9188   16.4374   22.9377 H   0  0  0  0  0
  -11.1525   14.6724   22.9766 H   0  0  0  0  0
   -9.0459   15.9964   21.1258 H   0  0  0  0  0
   -7.6794   14.9586   21.6018 H   0  0  0  0  0
   -9.2804   14.2398   21.2997 H   0  0  0  0  0
   -4.6022   19.5250   21.3168 H   0  0  0  0  0
   -5.1912   18.0299   20.5258 H   0  0  0  0  0
   -2.3271   19.7410   21.8425 H   0  0  0  0  0
   -0.1133   18.6904   22.1836 H   0  0  0  0  0
    0.1562   16.2424   22.0377 H   0  0  0  0  0
   -1.7838   14.8159   21.5084 H   0  0  0  0  0
   -3.9971   15.8437   21.1283 H   0  0  0  0  0
  1  2  2  0  0  0
  1  3  1  0  0  0
 11  1  1  0  0  0
  3  4  1  0  0  0
  4  5  1  0  0  0
  5  6  4  0  0  0
  5 10  4  0  0  0
  6  7  4  0  0  0
  7  8  4  0  0  0
  9  8  4  0  0  0
 10  9  4  0  0  0
 12 11  1  0  0  0
 13 12  1  0  0  0
 12 15  1  0  0  0
 13 14  2  0  0  0
 20 13  1  0  0  0
 15 16  1  0  0  0
 15 17  1  0  0  0
 19 18  1  0  0  0
 18 26  1  0  0  0
 19 20  1  0  0  0
 21 19  1  0  0  0
 21 22  1  0  0  0
 23 21  1  0  0  0
 24 23  1  0  0  0
 23 25  1  0  0  0
 40 24  1  0  0  0
 25 32  1  0  0  0
 26 27  4  0  0  0
 26 31  4  0  0  0
 27 28  4  0  0  0
 28 29  4  0  0  0
 30 29  4  0  0  0
 31 30  4  0  0  0
 32 33  4  0  0  0
 32 37  4  0  0  0
 33 34  4  0  0  0
 34 35  4  0  0  0
 36 35  4  0  0  0
 37 36  4  0  0  0
 39 38  1  0  0  0
 38 45  1  0  0  0
 39 40  1  0  0  0
 39 42  1  0  0  0
 40 41  2  0  0  0
 42 43  1  0  0  0
 42 44  1  0  0  0
 45 46  2  0  0  0
 45 47  1  0  0  0
 47 48  1  0  0  0
 48 49  1  0  0  0
 49 50  4  0  0  0
 49 54  4  0  0  0
 50 51  4  0  0  0
 51 52  4  0  0  0
 52 53  4  0  0  0
 53 54  4  0  0  0
  4 55  1  0  0  0
  4 56  1  0  0  0
  6 57  1  0  0  0
  7 58  1  0  0  0
  8 59  1  0  0  0
  9 60  1  0  0  0
 10 61  1  0  0  0
 11 62  1  0  0  0
 12 63  1  0  0  0
 15 64  1  0  0  0
 16 65  1  0  0  0
 16 66  1  0  0  0
 16 67  1  0  0  0
 17 68  1  0  0  0
 17 69  1  0  0  0
 17 70  1  0  0  0
 18 71  1  0  0  0
 18 72  1  0  0  0
 19 73  1  0  0  0
 20 74  1  0  0  0
 21 75  1  0  0  0
 22 76  1  0  0  0
 23 77  1  0  0  0
 24 78  1  0  0  0
 25 79  1  0  0  0
 25 80  1  0  0  0
 27 81  1  0  0  0
 28 82  1  0  0  0
 29 83  1  0  0  0
 30 84  1  0  0  0
 31 85  1  0  0  0
 33 86  1  0  0  0
 34 87  1  0  0  0
 35 88  1  0  0  0
 36 89  1  0  0  0
 37 90  1  0  0  0
 38 91  1  0  0  0
 39 92  1  0  0  0
 42 93  1  0  0  0
 43 94  1  0  0  0
 43 95  1  0  0  0
 43 96  1  0  0  0
 44 97  1  0  0  0
 44 98  1  0  0  0
 44 99  1  0  0  0
 48100  1  0  0  0
 48101  1  0  0  0
 50102  1  0  0  0
 51103  1  0  0  0
 52104  1  0  0  0
 53105  1  0  0  0
 54106  1  0  0  0
M  END
$$$$
