5b6c_ligand
  -I-interpret- 

169170  0  0  0  0  0  0  0  0999 V2000
  -17.2240   24.9660   24.4550 N   0  3  0  0  0
  -15.7720   25.2170   24.1820 C   0  0  0  0  0
  -15.3030   26.6820   24.3840 C   0  0  0  0  0
  -15.8930   27.6200   23.8250 O   0  0  0  0  0
  -15.4240   24.8020   22.7380 C   0  0  0  0  0
  -14.1470   25.3930   22.2500 C   0  0  0  0  0
  -14.1330   26.6660   21.6920 C   0  0  0  0  0
  -12.9560   24.7070   22.4100 C   0  0  0  0  0
  -12.9510   27.2470   21.2790 C   0  0  0  0  0
  -11.7740   25.2730   21.9970 C   0  0  0  0  0
  -11.7660   26.5520   21.4310 C   0  0  0  0  0
  -14.2470   26.8570   25.1830 N   0  0  0  0  0
  -13.2350   27.8970   24.9180 C   0  0  0  0  0
  -11.8360   27.3120   25.1850 C   0  0  0  0  0
  -11.7000   26.3030   25.8790 O   0  0  0  0  0
  -13.4710   29.1940   25.6990 C   0  0  0  0  0
  -14.5860   30.0880   25.1480 C   0  0  0  0  0
  -14.6720   30.2010   23.6180 C   0  0  0  0  0
  -13.3770   30.3010   22.9360 N   0  0  0  0  0
  -13.2020   30.7510   21.6930 C   0  0  0  0  0
  -14.2270   31.1830   20.9600 N   0  0  0  0  0
  -11.9750   30.7860   21.1800 N   0  0  0  0  0
  -10.8070   27.9400   24.6100 N   0  0  0  0  0
   -9.4920   27.2790   24.5200 C   0  0  0  0  0
   -8.9370   26.8540   25.8740 C   0  0  0  0  0
   -8.9360   27.6130   26.8270 O   0  0  0  0  0
   -8.4750   28.1250   23.7470 C   0  0  0  0  0
   -8.5220   25.5930   25.9670 N   0  0  0  0  0
   -7.9110   24.9960   27.1270 C   0  0  0  0  0
   -8.8380   24.8120   28.3350 C   0  0  0  0  0
   -8.3190   24.5840   29.4420 O   0  0  0  0  0
   -6.6370   25.7550   27.5260 C   0  0  0  0  0
   -5.7410   26.0690   26.3850 C   0  0  0  0  0
   -5.1590   25.0270   25.5940 C   0  0  0  0  0
   -5.4050   27.3900   26.0550 C   0  0  0  0  0
   -4.3190   25.3590   24.5480 C   0  0  0  0  0
   -4.5160   27.6730   25.0270 C   0  0  0  0  0
   -3.9640   26.6510   24.2890 C   0  0  0  0  0
  -10.1450   24.8370   28.0470 N   0  0  0  0  0
  -11.2260   24.4550   28.9690 C   0  0  0  0  0
  -11.0360   23.0310   29.4100 C   0  0  0  0  0
  -10.6960   22.1420   28.5880 O   0  0  0  0  0
  -12.6100   24.6020   28.3030 C   0  0  0  0  0
  -12.7450   23.7280   27.1880 O   0  0  0  0  0
  -11.2460   22.8160   30.7090 N   0  0  0  0  0
  -11.0700   21.5230   31.3170 C   0  0  0  0  0
   -9.6490   21.2690   31.7660 C   0  0  0  0  0
   -8.7790   22.1450   31.6900 O   0  0  0  0  0
   -9.4240   20.0550   32.2360 N   0  0  0  0  0
   -8.1490   19.6120   32.7300 C   0  0  0  0  0
   -7.2070   19.0250   31.6280 C   0  0  0  0  0
   -5.9720   18.8510   31.8400 O   0  0  0  0  0
   -8.3640   18.5530   33.7980 C   0  0  0  0  0
   -8.5540   17.2680   33.2300 O   0  0  0  0  0
   -7.7830   18.7060   30.4860 N   0  0  0  0  0
   -6.9750   18.0820   29.4460 C   0  0  0  0  0
   -6.5880   16.6860   29.7610 C   0  0  0  0  0
   -7.0400   16.0960   30.7270 O   0  0  0  0  0
   -5.6720   16.1730   28.9620 N   0  0  0  0  0
   -5.1810   14.8510   29.0380 C   0  0  0  0  0
   -3.6530   14.8690   28.9910 C   0  0  0  0  0
   -3.0490   15.6790   28.2310 O   0  0  0  0  0
   -5.6620   14.0970   27.7860 C   0  0  0  0  0
   -7.1970   14.0490   27.6490 C   0  0  0  0  0
   -7.8240   13.2120   28.2700 O   0  0  0  0  0
   -7.7780   14.9080   26.8330 N   0  0  0  0  0
   -3.0110   13.9510   29.6810 N   0  0  0  0  0
   -1.5750   13.8770   29.6930 C   0  0  0  0  0
   -1.1260   12.6750   28.9010 C   0  0  0  0  0
   -1.7260   11.5500   29.0020 O   0  0  0  0  0
   -1.0060   13.8020   31.1050 C   0  0  0  0  0
   -1.3220   15.0680   31.8640 C   0  0  0  0  0
   -0.6350   15.2860   33.2320 C   0  0  0  0  0
   -0.7370   16.7510   33.4310 N   0  0  0  0  0
   -1.6350   17.4120   34.1850 C   0  0  0  0  0
   -2.5060   16.7790   35.0220 N   0  0  0  0  0
   -1.6000   18.7430   34.1600 N   0  0  0  0  0
   -0.0330   12.8470   28.1660 N   0  0  0  0  0
    0.5810   11.7520   27.4490 C   0  0  0  0  0
    1.3040   10.7610   28.4060 C   0  0  0  0  0
    1.6430   11.1380   29.5470 O   0  0  0  0  0
    1.6050   12.2670   26.4050 C   0  0  0  0  0
    1.0270   13.0100   25.2010 C   0  0  0  0  0
    2.1990   13.6130   24.4190 C   0  0  0  0  0
    0.1430   12.1080   24.3550 C   0  0  0  0  0
    1.5630    9.5870   28.0680 O   0  0  0  0  0
  -17.4418   25.2440   25.4119 H   0  0  0  0  0
  -17.7901   25.5104   23.8042 H   0  0  0  0  0
  -17.4248   23.9733   24.3340 H   0  0  0  0  0
  -15.2480   24.6137   24.9234 H   0  0  0  0  0
  -16.2233   25.1604   22.0893 H   0  0  0  0  0
  -15.3134   23.7177   22.7232 H   0  0  0  0  0
  -15.0688   27.2133   21.5789 H   0  0  0  0  0
  -12.9555   23.7162   22.8643 H   0  0  0  0  0
  -12.9521   28.2436   20.8376 H   0  0  0  0  0
  -10.8396   24.7235   22.1108 H   0  0  0  0  0
  -10.8258   27.0004   21.1100 H   0  0  0  0  0
  -14.1373   26.2548   25.9990 H   0  0  0  0  0
  -13.3182   28.1866   23.8705 H   0  0  0  0  0
  -12.5475   29.7698   25.6389 H   0  0  0  0  0
  -13.7689   28.9046   26.7068 H   0  0  0  0  0
  -14.3799   31.0930   25.5161 H   0  0  0  0  0
  -15.5245   29.6390   25.4731 H   0  0  0  0  0
  -15.2176   31.1186   23.3982 H   0  0  0  0  0
  -15.1495   29.2892   23.2592 H   0  0  0  0  0
  -12.5483   30.0040   23.4513 H   0  0  0  0  0
  -14.0664   31.5356   20.0164 H   0  0  0  0  0
  -15.1724   31.1612   21.3423 H   0  0  0  0  0
  -11.1804   30.4706   21.7364 H   0  0  0  0  0
  -10.9311   28.8793   24.2322 H   0  0  0  0  0
   -9.6649   26.3631   23.9550 H   0  0  0  0  0
   -8.8407   28.2951   22.7344 H   0  0  0  0  0
   -8.3415   29.0817   24.2520 H   0  0  0  0  0
   -7.5218   27.5979   23.7066 H   0  0  0  0  0
   -8.6471   24.9988   25.1475 H   0  0  0  0  0
   -7.6555   23.9831   26.8159 H   0  0  0  0  0
   -6.0791   25.1148   28.2093 H   0  0  0  0  0
   -6.9486   26.7034   27.9637 H   0  0  0  0  0
   -5.3764   23.9819   25.8147 H   0  0  0  0  0
   -5.8507   28.2108   26.6168 H   0  0  0  0  0
   -3.9285   24.5654   23.9110 H   0  0  0  0  0
   -4.2545   28.7074   24.8038 H   0  0  0  0  0
   -3.2454   26.8728   23.5000 H   0  0  0  0  0
  -10.4132   25.1459   27.1126 H   0  0  0  0  0
  -11.1857   25.1222   29.8300 H   0  0  0  0  0
  -12.7186   25.6286   27.9533 H   0  0  0  0  0
  -13.3757   24.3486   29.0362 H   0  0  0  0  0
  -13.6139   23.8427   26.7963 H   0  0  0  0  0
  -11.5425   23.5971   31.2941 H   0  0  0  0  0
  -11.3222   20.7688   30.5716 H   0  0  0  0  0
  -11.7091   21.4814   32.1990 H   0  0  0  0  0
  -10.2003   19.3935   32.2491 H   0  0  0  0  0
   -7.6550   20.4974   33.1301 H   0  0  0  0  0
   -9.2573   18.8135   34.3656 H   0  0  0  0  0
   -7.4789   18.5207   34.4333 H   0  0  0  0  0
   -8.6864   16.6258   33.9312 H   0  0  0  0  0
   -8.7742   18.8921   30.3333 H   0  0  0  0  0
   -6.0583   18.6635   29.3483 H   0  0  0  0  0
   -7.5719   18.0602   28.5343 H   0  0  0  0  0
   -5.2895   16.7769   28.2344 H   0  0  0  0  0
   -5.5286   14.3819   29.9585 H   0  0  0  0  0
   -5.3079   13.0692   27.8662 H   0  0  0  0  0
   -5.2717   14.6245   26.9157 H   0  0  0  0  0
   -8.7896   14.8853   26.7047 H   0  0  0  0  0
   -7.2155   15.5947   26.3306 H   0  0  0  0  0
   -3.5469   13.2728   30.2226 H   0  0  0  0  0
   -1.1973   14.7936   29.2400 H   0  0  0  0  0
    0.0758   13.6819   31.0472 H   0  0  0  0  0
   -1.4527   12.9543   31.6245 H   0  0  0  0  0
   -2.3888   15.0156   32.0816 H   0  0  0  0  0
   -0.9677   15.8809   31.2301 H   0  0  0  0  0
    0.3950   14.9298   33.2473 H   0  0  0  0  0
   -1.1057   14.7184   34.0347 H   0  0  0  0  0
   -0.0490   17.3231   32.9413 H   0  0  0  0  0
   -3.1241   17.3247   35.6225 H   0  0  0  0  0
   -2.5394   15.7599   35.0475 H   0  0  0  0  0
   -0.9097   19.2243   33.5836 H   0  0  0  0  0
    0.3840   13.7759   28.1059 H   0  0  0  0  0
   -0.2297   11.2282   26.9425 H   0  0  0  0  0
    2.1033   11.3833   26.0064 H   0  0  0  0  0
    2.2389   12.9828   26.9284 H   0  0  0  0  0
    0.3686   13.8147   25.5282 H   0  0  0  0  0
    2.7476   14.3011   25.0622 H   0  0  0  0  0
    2.8633   12.8142   24.0891 H   0  0  0  0  0
    1.8168   14.1510   23.5515 H   0  0  0  0  0
    0.7300   11.2654   23.9895 H   0  0  0  0  0
   -0.6846   11.7401   24.9615 H   0  0  0  0  0
   -0.2480   12.6740   23.5095 H   0  0  0  0  0
    1.2484    9.4359   27.1737 H   0  0  0  0  0
  1  2  1  0  0  0
  2  3  1  0  0  0
  2  5  1  0  0  0
  3  4  2  0  0  0
  3 12  1  0  0  0
  5  6  1  0  0  0
  6  7  4  0  0  0
  6  8  4  0  0  0
  7  9  4  0  0  0
  8 10  4  0  0  0
  9 11  4  0  0  0
 10 11  4  0  0  0
 12 13  1  0  0  0
 13 14  1  0  0  0
 13 16  1  0  0  0
 14 15  2  0  0  0
 14 23  1  0  0  0
 16 17  1  0  0  0
 17 18  1  0  0  0
 18 19  1  0  0  0
 19 20  1  0  0  0
 20 21  1  0  0  0
 20 22  2  0  0  0
 23 24  1  0  0  0
 24 25  1  0  0  0
 24 27  1  0  0  0
 25 26  2  0  0  0
 25 28  1  0  0  0
 28 29  1  0  0  0
 29 30  1  0  0  0
 29 32  1  0  0  0
 30 31  2  0  0  0
 30 39  1  0  0  0
 32 33  1  0  0  0
 33 34  4  0  0  0
 33 35  4  0  0  0
 34 36  4  0  0  0
 35 37  4  0  0  0
 36 38  4  0  0  0
 37 38  4  0  0  0
 39 40  1  0  0  0
 40 41  1  0  0  0
 40 43  1  0  0  0
 41 42  2  0  0  0
 41 45  1  0  0  0
 43 44  1  0  0  0
 45 46  1  0  0  0
 46 47  1  0  0  0
 47 48  2  0  0  0
 47 49  1  0  0  0
 49 50  1  0  0  0
 50 51  1  0  0  0
 50 53  1  0  0  0
 51 52  2  0  0  0
 51 55  1  0  0  0
 53 54  1  0  0  0
 55 56  1  0  0  0
 56 57  1  0  0  0
 57 58  2  0  0  0
 57 59  1  0  0  0
 59 60  1  0  0  0
 60 61  1  0  0  0
 60 63  1  0  0  0
 61 62  2  0  0  0
 61 67  1  0  0  0
 63 64  1  0  0  0
 64 65  2  0  0  0
 64 66  1  0  0  0
 67 68  1  0  0  0
 68 69  1  0  0  0
 68 71  1  0  0  0
 69 70  2  0  0  0
 69 78  1  0  0  0
 71 72  1  0  0  0
 72 73  1  0  0  0
 73 74  1  0  0  0
 74 75  1  0  0  0
 75 76  1  0  0  0
 75 77  2  0  0  0
 78 79  1  0  0  0
 79 80  1  0  0  0
 79 82  1  0  0  0
 80 81  2  0  0  0
 80 86  1  0  0  0
 82 83  1  0  0  0
 83 84  1  0  0  0
 83 85  1  0  0  0
  1 87  1  0  0  0
  1 88  1  0  0  0
  1 89  1  0  0  0
  2 90  1  0  0  0
  5 91  1  0  0  0
  5 92  1  0  0  0
  7 93  1  0  0  0
  8 94  1  0  0  0
  9 95  1  0  0  0
 10 96  1  0  0  0
 11 97  1  0  0  0
 12 98  1  0  0  0
 13 99  1  0  0  0
 16100  1  0  0  0
 16101  1  0  0  0
 17102  1  0  0  0
 17103  1  0  0  0
 18104  1  0  0  0
 18105  1  0  0  0
 19106  1  0  0  0
 21107  1  0  0  0
 21108  1  0  0  0
 22109  1  0  0  0
 23110  1  0  0  0
 24111  1  0  0  0
 27112  1  0  0  0
 27113  1  0  0  0
 27114  1  0  0  0
 28115  1  0  0  0
 29116  1  0  0  0
 32117  1  0  0  0
 32118  1  0  0  0
 34119  1  0  0  0
 35120  1  0  0  0
 36121  1  0  0  0
 37122  1  0  0  0
 38123  1  0  0  0
 39124  1  0  0  0
 40125  1  0  0  0
 43126  1  0  0  0
 43127  1  0  0  0
 44128  1  0  0  0
 45129  1  0  0  0
 46130  1  0  0  0
 46131  1  0  0  0
 49132  1  0  0  0
 50133  1  0  0  0
 53134  1  0  0  0
 53135  1  0  0  0
 54136  1  0  0  0
 55137  1  0  0  0
 56138  1  0  0  0
 56139  1  0  0  0
 59140  1  0  0  0
 60141  1  0  0  0
 63142  1  0  0  0
 63143  1  0  0  0
 66144  1  0  0  0
 66145  1  0  0  0
 67146  1  0  0  0
 68147  1  0  0  0
 71148  1  0  0  0
 71149  1  0  0  0
 72150  1  0  0  0
 72151  1  0  0  0
 73152  1  0  0  0
 73153  1  0  0  0
 74154  1  0  0  0
 76155  1  0  0  0
 76156  1  0  0  0
 77157  1  0  0  0
 78158  1  0  0  0
 79159  1  0  0  0
 82160  1  0  0  0
 82161  1  0  0  0
 83162  1  0  0  0
 84163  1  0  0  0
 84164  1  0  0  0
 84165  1  0  0  0
 85166  1  0  0  0
 85167  1  0  0  0
 85168  1  0  0  0
 86169  1  0  0  0
M  END
$$$$
