### 
### Created by X-TOOL on Mon Sep 10 21:13:31 2018
### 

@<TRIPOS>MOLECULE
5b6c_ligand
  170   171     1     0     0
SMALL
GAST_HUCK


@<TRIPOS>ATOM
      1 N         -17.2240   24.9660   24.4550 N.4       1 PHE         0.2394
      2 CA        -15.7720   25.2170   24.1820 C.3       1 PHE         0.0744
      3 C         -15.3030   26.6820   24.3840 C.2       1 PHE         0.2288
      4 O         -15.8930   27.6200   23.8250 O.2       1 PHE        -0.3905
      5 CB        -15.4240   24.8020   22.7380 C.3       1 PHE         0.0416
      6 CG        -14.1470   25.3930   22.2500 C.ar      1 PHE        -0.0353
      7 CD1       -14.1330   26.6660   21.6920 C.ar      1 PHE        -0.0600
      8 CD2       -12.9560   24.7070   22.4100 C.ar      1 PHE        -0.0600
      9 CE1       -12.9510   27.2470   21.2790 C.ar      1 PHE        -0.0686
     10 CE2       -11.7740   25.2730   21.9970 C.ar      1 PHE        -0.0686
     11 CZ        -11.7660   26.5520   21.4310 C.ar      1 PHE        -0.0687
     12 N         -14.2470   26.8570   25.1830 N.am      1 ARG        -0.2609
     13 CA        -13.2350   27.8970   24.9180 C.3       1 ARG         0.1312
     14 C         -11.8360   27.3120   25.1850 C.2       1 ARG         0.2039
     15 O         -11.7000   26.3030   25.8790 O.2       1 ARG        -0.3944
     16 CB        -13.4710   29.1940   25.6990 C.3       1 ARG        -0.0092
     17 CG        -14.5860   30.0880   25.1480 C.3       1 ARG        -0.0156
     18 CD        -14.6720   30.2010   23.6180 C.3       1 ARG         0.0627
     19 NE        -13.3770   30.3010   22.9360 N.pl3     1 ARG        -0.2723
     20 CZ        -13.2020   30.7510   21.6930 C.cat     1 ARG         0.2882
     21 NH1       -14.2270   31.1830   20.9600 N.pl3     1 ARG        -0.2849
     22 NH2       -11.9750   30.7860   21.1800 N.pl3     1 ARG        -0.2849
     23 N         -10.8070   27.9400   24.6100 N.am      1 ALA        -0.2640
     24 CA         -9.4920   27.2790   24.5200 C.3       1 ALA         0.1282
     25 C          -8.9370   26.8540   25.8740 C.2       1 ALA         0.2037
     26 O          -8.9360   27.6130   26.8270 O.2       1 ALA        -0.3944
     27 CB         -8.4750   28.1250   23.7470 C.3       1 ALA        -0.0244
     28 N          -8.5220   25.5930   25.9670 N.am      1 PHE        -0.2619
     29 CA         -7.9110   24.9960   27.1270 C.3       1 PHE         0.1404
     30 C          -8.8380   24.8120   28.3350 C.2       1 PHE         0.2060
     31 O          -8.3190   24.5840   29.4420 O.2       1 PHE        -0.3942
     32 CB         -6.6370   25.7550   27.5260 C.3       1 PHE         0.0214
     33 CG         -5.7410   26.0690   26.3850 C.ar      1 PHE        -0.0386
     34 CD1        -5.1590   25.0270   25.5940 C.ar      1 PHE        -0.0601
     35 CD2        -5.4050   27.3900   26.0550 C.ar      1 PHE        -0.0601
     36 CE1        -4.3190   25.3590   24.5480 C.ar      1 PHE        -0.0686
     37 CE2        -4.5160   27.6730   25.0270 C.ar      1 PHE        -0.0686
     38 CZ         -3.9640   26.6510   24.2890 C.ar      1 PHE        -0.0687
     39 N         -10.1450   24.8370   28.0470 N.am      1 SER        -0.2614
     40 CA        -11.2260   24.4550   28.9690 C.3       1 SER         0.1539
     41 C         -11.0360   23.0310   29.4100 C.2       1 SER         0.2060
     42 O         -10.6960   22.1420   28.5880 O.2       1 SER        -0.3943
     43 CB        -12.6100   24.6020   28.3030 C.3       1 SER         0.0843
     44 OG        -12.7450   23.7280   27.1880 O.3       1 SER        -0.3903
     45 N         -11.2460   22.8160   30.7090 N.am      1 GLY        -0.2663
     46 CA        -11.0700   21.5230   31.3170 C.3       1 GLY         0.1201
     47 C          -9.6490   21.2690   31.7660 C.2       1 GLY         0.2008
     48 O          -8.7790   22.1450   31.6900 O.2       1 GLY        -0.3947
     49 N          -9.4240   20.0550   32.2360 N.am      1 SER        -0.2618
     50 CA         -8.1490   19.6120   32.7300 C.3       1 SER         0.1539
     51 C          -7.2070   19.0250   31.6280 C.2       1 SER         0.2060
     52 O          -5.9720   18.8510   31.8400 O.2       1 SER        -0.3943
     53 CB         -8.3640   18.5530   33.7980 C.3       1 SER         0.0843
     54 OG         -8.5540   17.2680   33.2300 O.3       1 SER        -0.3903
     55 N          -7.7830   18.7060   30.4860 N.am      1 GLY        -0.2663
     56 CA         -6.9750   18.0820   29.4460 C.3       1 GLY         0.1201
     57 C          -6.5880   16.6860   29.7610 C.2       1 GLY         0.2009
     58 O          -7.0400   16.0960   30.7270 O.2       1 GLY        -0.3947
     59 N          -5.6720   16.1730   28.9620 N.am      1 ASN        -0.2618
     60 CA         -5.1810   14.8510   29.0380 C.3       1 ASN         0.1476
     61 C          -3.6530   14.8690   28.9910 C.2       1 ASN         0.2062
     62 O          -3.0490   15.6790   28.2310 O.2       1 ASN        -0.3942
     63 CB         -5.6620   14.0970   27.7860 C.3       1 ASN         0.0773
     64 CG         -7.1970   14.0490   27.6490 C.2       1 ASN         0.1780
     65 OD1        -7.8240   13.2120   28.2700 O.2       1 ASN        -0.3970
     66 ND2        -7.7780   14.9080   26.8330 N.am      1 ASN        -0.3007
     67 N          -3.0110   13.9510   29.6810 N.am      1 ARG        -0.2636
     68 CA         -1.5750   13.8770   29.6930 C.3       1 ARG         0.1311
     69 C          -1.1260   12.6750   28.9010 C.2       1 ARG         0.2033
     70 O          -1.7260   11.5500   29.0020 O.2       1 ARG        -0.3944
     71 CB         -1.0060   13.8020   31.1050 C.3       1 ARG        -0.0092
     72 CG         -1.3220   15.0680   31.8640 C.3       1 ARG        -0.0156
     73 CD         -0.6350   15.2860   33.2320 C.3       1 ARG         0.0627
     74 NE         -0.7370   16.7510   33.4310 N.pl3     1 ARG        -0.2723
     75 CZ         -1.6350   17.4120   34.1850 C.cat     1 ARG         0.2882
     76 NH1        -2.5060   16.7790   35.0220 N.pl3     1 ARG        -0.2849
     77 NH2        -1.6000   18.7430   34.1600 N.pl3     1 ARG        -0.2849
     78 N          -0.0330   12.8470   28.1660 N.am      1 LEU        -0.2695
     79 CA          0.5810   11.7520   27.4490 C.3       1 LEU         0.0946
     80 C           1.3040   10.7610   28.4060 C.2       1 LEU         0.0601
     81 O           1.6430   11.1380   29.5470 O.co2     1 LEU        -0.5666
     82 CB          1.6050   12.2670   26.4050 C.3       1 LEU        -0.0156
     83 CG          1.0270   13.0100   25.2010 C.3       1 LEU        -0.0431
     84 CD1         2.1990   13.6130   24.4190 C.3       1 LEU        -0.0625
     85 CD2         0.1430   12.1080   24.3550 C.3       1 LEU        -0.0625
     86 OXT         1.5630    9.5870   28.0680 O.co2     1 LEU        -0.5666
     87 H1        -17.4321   23.9924   24.2975 H         1 PHE         0.2017
     88 H2        -17.7847   25.5333   23.8388 H         1 PHE         0.2017
     89 H3        -17.4319   25.2034   25.4123 H         1 PHE         0.2017
     90 H4        -15.1978   24.5860   24.8764 H         1 PHE         0.1122
     91 H5        -16.2374   25.1301   22.0741 H         1 PHE         0.0507
     92 H6        -15.3391   23.7060   22.6999 H         1 PHE         0.0507
     93 H7        -15.0637   27.2103   21.5796 H         1 PHE         0.0557
     94 H8        -12.9555   23.7216   22.8618 H         1 PHE         0.0557
     95 H9        -12.9521   28.2381   20.8400 H         1 PHE         0.0599
     96 H10       -10.8447   24.7265   22.1102 H         1 PHE         0.0599
     97 H11       -10.8310   26.9979   21.1117 H         1 PHE         0.0559
     98 H12       -14.1395   26.2666   25.9830 H         1 ARG         0.1885
     99 H13       -13.2949   28.1517   23.8496 H         1 ARG         0.0800
    100 H14       -12.5351   29.7720   25.6913 H         1 ARG         0.0313
    101 H15       -13.7284   28.9267   26.7345 H         1 ARG         0.0313
    102 H16       -14.4346   31.1002   25.5511 H         1 ARG         0.0301
    103 H17       -15.5453   29.6891   25.5093 H         1 ARG         0.0301
    104 H18       -15.2581   31.0991   23.3733 H         1 ARG         0.0689
    105 H19       -15.1915   29.3092   23.2374 H         1 ARG         0.0689
    106 H20       -12.5402   30.0011   23.4563 H         1 ARG         0.2642
    107 H21       -14.0667   31.5260   20.0021 H         1 ARG         0.2615
    108 H22       -15.1798   31.1740   21.3511 H         1 ARG         0.2615
    109 H23       -11.1743   30.4548   21.7369 H         1 ARG         0.2615
    110 H24       -11.8257   31.1443   20.2259 H         1 ARG         0.2615
    111 H25       -10.9287   28.8609   24.2396 H         1 ALA         0.1883
    112 H26        -9.6463   26.3571   23.9401 H         1 ALA         0.0797
    113 H27        -7.5125   27.5941   23.7055 H         1 ALA         0.0277
    114 H28        -8.3393   29.0908   24.2557 H         1 ALA         0.0277
    115 H29        -8.8429   28.2974   22.7248 H         1 ALA         0.0277
    116 H30        -8.6447   25.0104   25.1635 H         1 PHE         0.1885
    117 H31        -7.6012   23.9853   26.8230 H         1 PHE         0.0823
    118 H32        -6.0780   25.1390   28.2458 H         1 PHE         0.0474
    119 H33        -6.9327   26.7004   28.0043 H         1 PHE         0.0474
    120 H34        -5.3752   23.9877   25.8135 H         1 PHE         0.0557
    121 H35        -5.8483   28.2063   26.6138 H         1 PHE         0.0557
    122 H36        -3.9306   24.5698   23.9145 H         1 PHE         0.0599
    123 H37        -4.2560   28.7017   24.8050 H         1 PHE         0.0599
    124 H38        -3.2494   26.8716   23.5043 H         1 PHE         0.0559
    125 H39       -10.4080   25.1399   27.1310 H         1 SER         0.1884
    126 H40       -11.1861   25.1125   29.8500 H         1 SER         0.0823
    127 H41       -12.7343   25.6401   27.9611 H         1 SER         0.0606
    128 H42       -13.3897   24.3633   29.0413 H         1 SER         0.0606
    129 H43       -12.6431   22.8290   27.4776 H         1 SER         0.2097
    130 H44       -11.5367   23.5818   31.2826 H         1 GLY         0.1881
    131 H45       -11.3495   20.7507   30.5853 H         1 GLY         0.0763
    132 H46       -11.7317   21.4547   32.1930 H         1 GLY         0.0763
    133 H47       -10.1851   19.4065   32.2488 H         1 SER         0.1884
    134 H48        -7.6437   20.4779   33.1827 H         1 SER         0.0823
    135 H49        -9.2538   18.8171   34.3882 H         1 SER         0.0606
    136 H50        -7.4827   18.5255   34.4556 H         1 SER         0.0606
    137 H51        -7.7868   17.0307   32.7225 H         1 SER         0.2097
    138 H52        -8.7548   18.8885   30.3363 H         1 GLY         0.1881
    139 H53        -6.0590   18.6762   29.3121 H         1 GLY         0.0763
    140 H54        -7.5518   18.0812   28.5094 H         1 GLY         0.0763
    141 H55        -5.2970   16.7650   28.2486 H         1 ASN         0.1885
    142 H56        -5.5360   14.3595   29.9558 H         1 ASN         0.0826
    143 H57        -5.2844   13.0650   27.8345 H         1 ASN         0.0551
    144 H58        -5.2487   14.5974   26.8979 H         1 ASN         0.0551
    145 H59        -8.7720   14.9002   26.7240 H         1 ASN         0.1814
    146 H60        -7.2243   15.5667   26.3236 H         1 ASN         0.1814
    147 H61        -3.5364   13.2861   30.2120 H         1 ARG         0.1883
    148 H62        -1.1806   14.7845   29.2125 H         1 ARG         0.0800
    149 H63         0.0852   13.6742   31.0504 H         1 ARG         0.0313
    150 H64        -1.4499   12.9435   31.6302 H         1 ARG         0.0313
    151 H65        -2.4081   15.0826   32.0377 H         1 ARG         0.0301
    152 H66        -1.0423   15.9142   31.2192 H         1 ARG         0.0301
    153 H67         0.4164   14.9642   33.2014 H         1 ARG         0.0689
    154 H68        -1.1620   14.7418   34.0295 H         1 ARG         0.0689
    155 H69        -0.0423   17.3287   32.9365 H         1 ARG         0.2642
    156 H70        -3.1756   17.3282   35.5796 H         1 ARG         0.2615
    157 H71        -2.4942   15.7518   35.0966 H         1 ARG         0.2615
    158 H72        -0.9453   19.2292   33.5309 H         1 ARG         0.2615
    159 H73        -2.2277   19.2862   34.7698 H         1 ARG         0.2615
    160 H74         0.3758   13.7577   28.1071 H         1 LEU         0.1875
    161 H75        -0.2142   11.2064   26.9199 H         1 LEU         0.0726
    162 H76         2.1637   11.3984   26.0264 H         1 LEU         0.0308
    163 H77         2.2953   12.9505   26.9211 H         1 LEU         0.0308
    164 H78         0.3990   13.8349   25.5687 H         1 LEU         0.0297
    165 H79         1.8145   14.1563   23.5432 H         1 LEU         0.0232
    166 H80         2.8702   12.8079   24.0854 H         1 LEU         0.0232
    167 H81         2.7535   14.3077   25.0670 H         1 LEU         0.0232
    168 H82        -0.6745   11.7104   24.9744 H         1 LEU         0.0232
    169 H83         0.7418   11.2745   23.9591 H         1 LEU         0.0232
    170 H84        -0.2780   12.6864   23.5194 H         1 LEU         0.0232
@<TRIPOS>BOND
     1    1    2 1  
     2    2    3 1  
     3    2    5 1  
     4    3    4 2  
     5    3   12 am 
     6    5    6 1  
     7    6    7 ar 
     8    6    8 ar 
     9    7    9 ar 
    10    8   10 ar 
    11    9   11 ar 
    12   10   11 ar 
    13   12   13 1  
    14   13   14 1  
    15   13   16 1  
    16   14   15 2  
    17   14   23 am 
    18   16   17 1  
    19   17   18 1  
    20   18   19 1  
    21   19   20 ar 
    22   20   21 ar 
    23   20   22 ar 
    24   23   24 1  
    25   24   25 1  
    26   24   27 1  
    27   25   26 2  
    28   25   28 am 
    29   28   29 1  
    30   29   30 1  
    31   29   32 1  
    32   30   31 2  
    33   30   39 am 
    34   32   33 1  
    35   33   34 ar 
    36   33   35 ar 
    37   34   36 ar 
    38   35   37 ar 
    39   36   38 ar 
    40   37   38 ar 
    41   39   40 1  
    42   40   41 1  
    43   40   43 1  
    44   41   42 2  
    45   41   45 am 
    46   43   44 1  
    47   45   46 1  
    48   46   47 1  
    49   47   48 2  
    50   47   49 am 
    51   49   50 1  
    52   50   51 1  
    53   50   53 1  
    54   51   52 2  
    55   51   55 am 
    56   53   54 1  
    57   55   56 1  
    58   56   57 1  
    59   57   58 2  
    60   57   59 am 
    61   59   60 1  
    62   60   61 1  
    63   60   63 1  
    64   61   62 2  
    65   61   67 am 
    66   63   64 1  
    67   64   65 2  
    68   64   66 am 
    69   67   68 1  
    70   68   69 1  
    71   68   71 1  
    72   69   70 2  
    73   69   78 am 
    74   71   72 1  
    75   72   73 1  
    76   73   74 1  
    77   74   75 ar 
    78   75   76 ar 
    79   75   77 ar 
    80   78   79 1  
    81   79   80 1  
    82   79   82 1  
    83   80   81 ar 
    84   80   86 ar 
    85   82   83 1  
    86   83   84 1  
    87   83   85 1  
    88    1   87 1  
    89    1   88 1  
    90    1   89 1  
    91    2   90 1  
    92    5   91 1  
    93    5   92 1  
    94    7   93 1  
    95    8   94 1  
    96    9   95 1  
    97   10   96 1  
    98   11   97 1  
    99   12   98 1  
   100   13   99 1  
   101   16  100 1  
   102   16  101 1  
   103   17  102 1  
   104   17  103 1  
   105   18  104 1  
   106   18  105 1  
   107   19  106 1  
   108   21  107 1  
   109   21  108 1  
   110   22  109 1  
   111   22  110 1  
   112   23  111 1  
   113   24  112 1  
   114   27  113 1  
   115   27  114 1  
   116   27  115 1  
   117   28  116 1  
   118   29  117 1  
   119   32  118 1  
   120   32  119 1  
   121   34  120 1  
   122   35  121 1  
   123   36  122 1  
   124   37  123 1  
   125   38  124 1  
   126   39  125 1  
   127   40  126 1  
   128   43  127 1  
   129   43  128 1  
   130   44  129 1  
   131   45  130 1  
   132   46  131 1  
   133   46  132 1  
   134   49  133 1  
   135   50  134 1  
   136   53  135 1  
   137   53  136 1  
   138   54  137 1  
   139   55  138 1  
   140   56  139 1  
   141   56  140 1  
   142   59  141 1  
   143   60  142 1  
   144   63  143 1  
   145   63  144 1  
   146   66  145 1  
   147   66  146 1  
   148   67  147 1  
   149   68  148 1  
   150   71  149 1  
   151   71  150 1  
   152   72  151 1  
   153   72  152 1  
   154   73  153 1  
   155   73  154 1  
   156   74  155 1  
   157   76  156 1  
   158   76  157 1  
   159   77  158 1  
   160   77  159 1  
   161   78  160 1  
   162   79  161 1  
   163   82  162 1  
   164   82  163 1  
   165   83  164 1  
   166   84  165 1  
   167   84  166 1  
   168   84  167 1  
   169   85  168 1  
   170   85  169 1  
   171   85  170 1  
@<TRIPOS>SUBSTRUCTURE
     1 PHE         1

