4gs8_ligand
  -I-interpret- 

 56 57  0  0  0  0  0  0  0  0999 V2000
 -111.6190   60.7990   27.4410 C   0  0  0  0  0
 -114.8110   57.2590   27.0600 N   0  0  0  0  0
 -113.9040   56.5430   26.3490 C   0  0  0  0  0
 -113.1190   55.3720   26.9510 C   0  0  0  0  0
 -113.0360   52.9420   27.5700 C   0  0  0  0  0
 -110.7460   50.0540   25.9580 C   0  0  0  0  0
 -110.9700   49.7030   24.6430 C   0  0  0  0  0
 -110.0170   48.8540   23.7830 C   0  0  0  0  0
 -108.3510   49.1150   25.6710 C   0  0  0  0  0
 -114.9490   53.8900   26.1270 C   0  0  0  0  0
 -117.4280   59.5240   25.7620 O   0  0  0  0  0
 -116.8960   58.5470   26.2630 C   0  0  0  0  0
 -117.6640   57.4570   26.4330 N   0  0  0  0  0
 -118.4630   56.8790   25.3530 C   0  0  0  0  0
 -115.4090   58.5800   26.6990 C   0  0  0  0  0
 -114.5670   59.4230   25.7050 C   0  0  0  0  0
 -113.2730   60.0570   26.2020 C   0  0  0  0  0
 -112.3330   60.6850   25.3740 C   0  0  0  0  0
 -111.3340   61.1340   26.1640 N   0  0  0  0  0
 -112.8000   60.1330   27.4760 N   0  0  0  0  0
 -113.6610   56.8170   25.1960 O   0  0  0  0  0
 -113.8860   54.1350   27.1610 N   0  3  0  0  0
 -114.6650   53.8160   24.6160 C   0  0  0  0  0
 -113.6300   53.2750   24.1090 O   0  0  0  0  0
 -115.5700   54.2930   23.8890 O   0  0  0  0  0
 -112.0290   52.2650   26.5990 C   0  0  0  0  0
 -111.8570   50.7340   26.7930 C   0  0  0  0  0
 -108.6290   48.7060   24.4110 C   0  0  0  0  0
 -109.3840   49.7500   26.6160 C   0  0  0  0  0
 -110.9978   61.0278   28.3069 H   0  0  0  0  0
 -115.1199   56.8488   27.9413 H   0  0  0  0  0
 -112.7818   55.6983   27.9349 H   0  0  0  0  0
 -112.3295   55.1300   26.2395 H   0  0  0  0  0
 -113.7715   52.1597   27.7575 H   0  0  0  0  0
 -112.3976   53.3441   28.3567 H   0  0  0  0  0
 -111.8914   50.0533   24.1779 H   0  0  0  0  0
 -110.2998   48.4066   22.8301 H   0  0  0  0  0
 -107.3327   48.9863   26.0380 H   0  0  0  0  0
 -115.5813   54.7737   26.2132 H   0  0  0  0  0
 -115.2887   52.8811   26.3609 H   0  0  0  0  0
 -117.6906   57.0153   27.3520 H   0  0  0  0  0
 -119.1778   57.6199   24.9950 H   0  0  0  0  0
 -117.8059   56.5817   24.5357 H   0  0  0  0  0
 -118.9987   56.0061   25.7262 H   0  0  0  0  0
 -115.3856   59.0919   27.6610 H   0  0  0  0  0
 -115.2070   60.2611   25.4294 H   0  0  0  0  0
 -114.2608   58.7237   24.9270 H   0  0  0  0  0
 -112.3965   60.7915   24.2911 H   0  0  0  0  0
 -114.4435   54.2937   28.0003 H   0  0  0  0  0
 -113.0526   52.9698   24.8126 H   0  0  0  0  0
 -111.0558   52.7173   26.7898 H   0  0  0  0  0
 -112.4166   52.4125   25.5910 H   0  0  0  0  0
 -111.5804   50.5909   27.8376 H   0  0  0  0  0
 -112.7955   50.2815   26.4729 H   0  0  0  0  0
 -107.8328   48.2533   23.8201 H   0  0  0  0  0
 -109.1720   49.9672   27.6629 H   0  0  0  0  0
  1 19  4  0  0  0
 20  1  4  0  0  0
  3  2  1  0  0  0
  2 15  1  0  0  0
  4  3  1  0  0  0
  3 21  2  0  0  0
 22  4  1  0  0  0
  5 22  1  0  0  0
 26  5  1  0  0  0
  6  7  4  0  0  0
 27  6  1  0  0  0
  6 29  4  0  0  0
  7  8  4  0  0  0
  8 28  4  0  0  0
  9 28  4  0  0  0
 29  9  4  0  0  0
 22 10  1  0  0  0
 10 23  1  0  0  0
 12 11  2  0  0  0
 12 13  1  0  0  0
 15 12  1  0  0  0
 13 14  1  0  0  0
 15 16  1  0  0  0
 16 17  1  0  0  0
 17 18  4  0  0  0
 17 20  4  0  0  0
 18 19  4  0  0  0
 23 24  1  0  0  0
 23 25  2  0  0  0
 26 27  1  0  0  0
  1 30  1  0  0  0
  2 31  1  0  0  0
  4 32  1  0  0  0
  4 33  1  0  0  0
  5 34  1  0  0  0
  5 35  1  0  0  0
  7 36  1  0  0  0
  8 37  1  0  0  0
  9 38  1  0  0  0
 10 39  1  0  0  0
 10 40  1  0  0  0
 13 41  1  0  0  0
 14 42  1  0  0  0
 14 43  1  0  0  0
 14 44  1  0  0  0
 15 45  1  0  0  0
 16 46  1  0  0  0
 16 47  1  0  0  0
 18 48  1  0  0  0
 22 49  1  0  0  0
 24 50  1  0  0  0
 26 51  1  0  0  0
 26 52  1  0  0  0
 27 53  1  0  0  0
 27 54  1  0  0  0
 28 55  1  0  0  0
 29 56  1  0  0  0
M  END
$$$$
