6beh_ligand
  -I-interpret- 

132137  0  0  0  0  0  0  0  0999 V2000
   91.5620  102.8950   41.7670 C   0  0  0  0  0
   92.4490  101.9970   42.2590 C   0  0  0  0  0
   93.3800  102.3630   43.2490 C   0  0  0  0  0
   93.3470  103.6710   43.7580 C   0  0  0  0  0
   92.3720  105.9560   43.6910 C   0  0  0  0  0
   91.4980  106.8330   43.0680 C   0  0  0  0  0
   90.6090  106.5050   42.0440 C   0  0  0  0  0
   90.6480  105.1760   41.6720 C   0  0  0  0  0
   91.5290  104.2100   42.2350 C   0  0  0  0  0
   92.4190  104.6030   43.2570 C   0  0  0  0  0
   93.0420  106.6660   44.6870 C   0  0  0  0  0
   92.5620  108.1060   44.6240 C   0  0  0  0  0
   91.9810  108.6130   45.9320 C   0  0  0  0  0
   89.7110  107.5450   41.4210 C   0  0  0  0  0
   91.9600   99.6410   42.6020 C   0  0  0  0  0
   92.2380   98.2490   42.1520 C   0  0  0  0  0
   93.4220   97.9040   41.6050 C   0  0  0  0  0
   94.5780   98.7450   41.4240 C   0  0  0  0  0
   95.5800   98.4770   40.5750 C   0  0  0  0  0
   96.8370   99.2800   40.3620 C   0  0  0  0  0
   96.5850  100.7730   40.0840 C   0  0  0  0  0
   97.8740  101.5660   39.7770 C   0  0  0  0  0
   97.6520  103.0760   39.7060 C   0  0  0  0  0
   96.5660  103.6340   40.6320 C   0  0  0  0  0
   96.4540  105.1390   40.4410 C   0  0  0  0  0
   95.2730  105.7870   41.2140 C   0  0  0  0  0
   95.3660  107.3460   41.1700 C   0  0  0  0  0
   94.3160  107.9930   42.0540 C   0  0  0  0  0
   94.5480  108.4140   43.3030 C   0  0  0  0  0
   91.0850   97.3010   42.3250 C   0  0  0  0  0
   97.7760   99.0890   41.5530 C   0  0  0  0  0
   98.5620  101.0430   38.5170 C   0  0  0  0  0
   96.8350  103.2840   42.0940 C   0  0  0  0  0
   93.9120  105.2810   40.7300 C   0  0  0  0  0
   98.7280  105.9430   40.1550 C   0  0  0  0  0
   99.8830  106.5660   40.9000 C   0  0  0  0  0
   96.1630  108.7690   39.4290 C   0  0  0  0  0
   94.5670   98.4710   48.9670 C   0  0  0  0  0
   95.3340  100.6370   48.0540 C   0  0  0  0  0
   95.1130  101.5520   46.8790 C   0  0  0  0  0
   95.2770   99.5120   45.4000 C   0  0  0  0  0
   95.4600   98.6970   46.6630 C   0  0  0  0  0
   94.3960  101.4060   43.6990 C   0  0  0  0  0
   94.7680   99.1660   50.3130 C   0  0  0  0  0
   95.4230   97.2130   49.0430 C   0  0  0  0  0
   94.9360   98.0280   51.3030 C   0  0  0  0  0
   95.2830   96.7710   50.4860 C   0  0  0  0  0
   92.4160  100.6530   41.8040 N   0  0  0  0  0
   95.3020  101.7380   44.5330 N   0  3  0  0  0
   95.5730  100.9280   45.6350 N   0  3  0  0  0
   94.7300   99.3260   47.7750 N   0  3  0  0  0
   90.6990  102.5130   40.8030 O   0  0  0  0  0
   89.7820  104.7820   40.7180 O   0  0  0  0  0
   91.5740  108.1050   43.5700 O   0  0  0  0  0
   93.8600  106.3200   45.5130 O   0  0  0  0  0
   93.6150  108.9750   44.1610 O   0  0  0  0  0
   95.2550  107.7430   39.7980 O   0  0  0  0  0
   97.6680  105.7230   40.9770 O   0  0  0  0  0
   98.6980  105.6680   38.9840 O   0  0  0  0  0
   97.3870  103.4660   38.3630 O   0  0  0  0  0
   95.6620  100.9160   39.0110 O   0  0  0  0  0
   91.3540   99.8420   43.6500 O   0  0  0  0  0
   94.1960  104.0570   44.7250 O   0  0  0  0  0
   91.1262  107.9971   46.2113 H   0  0  0  0  0
   92.7409  108.5572   46.7115 H   0  0  0  0  0
   91.6603  109.6475   45.8089 H   0  0  0  0  0
   89.0639  107.9708   42.1878 H   0  0  0  0  0
   90.3214  108.3331   40.9801 H   0  0  0  0  0
   89.1012  107.0798   40.6465 H   0  0  0  0  0
   93.5145   96.8737   41.2615 H   0  0  0  0  0
   94.6417   99.6582   42.0158 H   0  0  0  0  0
   95.4734   97.5764   39.9703 H   0  0  0  0  0
   97.3069   98.8979   39.4558 H   0  0  0  0  0
   96.1706  101.1947   40.9997 H   0  0  0  0  0
   98.5407  101.3993   40.6231 H   0  0  0  0  0
   98.5830  103.5109   40.0696 H   0  0  0  0  0
   95.6162  103.1703   40.3657 H   0  0  0  0  0
   96.2929  105.3202   39.3783 H   0  0  0  0  0
   95.3587  105.4777   42.2557 H   0  0  0  0  0
   96.3215  107.6853   41.5700 H   0  0  0  0  0
   93.3130  108.1226   41.6475 H   0  0  0  0  0
   95.5648  108.3057   43.6805 H   0  0  0  0  0
   90.7792   96.9211   41.3502 H   0  0  0  0  0
   91.3917   96.4701   42.9603 H   0  0  0  0  0
   90.2507   97.8266   42.7896 H   0  0  0  0  0
   97.2799   99.4265   42.4630 H   0  0  0  0  0
   98.0315   98.0335   41.6470 H   0  0  0  0  0
   98.6839   99.6712   41.3953 H   0  0  0  0  0
   98.8247   99.9944   38.6567 H   0  0  0  0  0
   97.8849  101.1393   37.6683 H   0  0  0  0  0
   99.4655  101.6235   38.3304 H   0  0  0  0  0
   96.8602  102.2003   42.2081 H   0  0  0  0  0
   97.7939  103.7049   42.3965 H   0  0  0  0  0
   96.0423  103.6979   42.7172 H   0  0  0  0  0
   93.7931  105.5171   39.6725 H   0  0  0  0  0
   93.8559  104.2016   40.8712 H   0  0  0  0  0
   93.1211  105.7652   41.3028 H   0  0  0  0  0
  100.7544  105.9154   40.8265 H   0  0  0  0  0
  100.1148  107.5368   40.4621 H   0  0  0  0  0
   99.6111  106.6942   41.9477 H   0  0  0  0  0
   95.9790  109.6525   40.0403 H   0  0  0  0  0
   97.1844  108.4226   39.5870 H   0  0  0  0  0
   96.0208  109.0173   38.3772 H   0  0  0  0  0
   93.5233   98.2005   48.8072 H   0  0  0  0  0
   94.8720  101.0682   48.9421 H   0  0  0  0  0
   96.4039  100.5154   48.2235 H   0  0  0  0  0
   95.6774  102.4706   47.0395 H   0  0  0  0  0
   94.0465  101.7599   46.7929 H   0  0  0  0  0
   94.2402   99.4226   45.0756 H   0  0  0  0  0
   95.9619   99.1349   44.6405 H   0  0  0  0  0
   96.5206   98.6500   46.9101 H   0  0  0  0  0
   95.0719   97.6913   46.5013 H   0  0  0  0  0
   94.9518  101.1708   42.7913 H   0  0  0  0  0
   93.8211  100.6462   44.2284 H   0  0  0  0  0
   93.9286   99.8121   50.5700 H   0  0  0  0  0
   95.6301   99.8329   50.3051 H   0  0  0  0  0
   96.4601   97.3978   48.7631 H   0  0  0  0  0
   95.0990   96.4460   48.3395 H   0  0  0  0  0
   94.0212   97.8761   51.8759 H   0  0  0  0  0
   95.7257   98.2530   52.0199 H   0  0  0  0  0
   96.2074   96.3182   50.8445 H   0  0  0  0  0
   94.5037   96.0156   50.5865 H   0  0  0  0  0
   92.7396  100.4375   40.8610 H   0  0  0  0  0
   94.9656  102.6117   44.9377 H   0  0  0  0  0
   96.1647  101.7223   43.9891 H   0  0  0  0  0
   96.5810  100.8705   45.7798 H   0  0  0  0  0
   93.7631   99.4656   47.4817 H   0  0  0  0  0
   90.1408  103.2559   40.5621 H   0  0  0  0  0
   89.9024  103.8454   40.5452 H   0  0  0  0  0
   97.2489  104.4154   38.3280 H   0  0  0  0  0
   95.5098  101.8489   38.8435 H   0  0  0  0  0
   94.0300  104.9761   44.9469 H   0  0  0  0  0
  2  1  4  0  0  0
  1  9  4  0  0  0
  1 52  1  0  0  0
  3  2  4  0  0  0
  2 48  1  0  0  0
  3  4  4  0  0  0
 43  3  1  0  0  0
  4 10  4  0  0  0
  4 63  1  0  0  0
  5  6  4  0  0  0
 10  5  4  0  0  0
  5 11  1  0  0  0
  6  7  4  0  0  0
  6 54  1  0  0  0
  8  7  4  0  0  0
  7 14  1  0  0  0
  9  8  4  0  0  0
  8 53  1  0  0  0
 10  9  4  0  0  0
 11 12  1  0  0  0
 11 55  2  0  0  0
 12 13  1  0  0  0
 12 54  1  0  0  0
 12 56  1  0  0  0
 15 16  1  0  0  0
 48 15  1  0  0  0
 15 62  2  0  0  0
 16 17  2  0  0  0
 16 30  1  0  0  0
 17 18  1  0  0  0
 18 19  2  0  0  0
 19 20  1  0  0  0
 20 21  1  0  0  0
 20 31  1  0  0  0
 21 22  1  0  0  0
 21 61  1  0  0  0
 22 23  1  0  0  0
 22 32  1  0  0  0
 23 24  1  0  0  0
 23 60  1  0  0  0
 25 24  1  0  0  0
 24 33  1  0  0  0
 26 25  1  0  0  0
 25 58  1  0  0  0
 27 26  1  0  0  0
 26 34  1  0  0  0
 28 27  1  0  0  0
 27 57  1  0  0  0
 29 28  2  0  0  0
 56 29  1  0  0  0
 35 36  1  0  0  0
 58 35  1  0  0  0
 35 59  2  0  0  0
 57 37  1  0  0  0
 38 44  1  0  0  0
 38 45  1  0  0  0
 51 38  1  0  0  0
 40 39  1  0  0  0
 39 51  1  0  0  0
 50 40  1  0  0  0
 41 42  1  0  0  0
 50 41  1  0  0  0
 42 51  1  0  0  0
 49 43  1  0  0  0
 44 46  1  0  0  0
 45 47  1  0  0  0
 47 46  1  0  0  0
 49 50  1  0  0  0
 13 64  1  0  0  0
 13 65  1  0  0  0
 13 66  1  0  0  0
 14 67  1  0  0  0
 14 68  1  0  0  0
 14 69  1  0  0  0
 17 70  1  0  0  0
 18 71  1  0  0  0
 19 72  1  0  0  0
 20 73  1  0  0  0
 21 74  1  0  0  0
 22 75  1  0  0  0
 23 76  1  0  0  0
 24 77  1  0  0  0
 25 78  1  0  0  0
 26 79  1  0  0  0
 27 80  1  0  0  0
 28 81  1  0  0  0
 29 82  1  0  0  0
 30 83  1  0  0  0
 30 84  1  0  0  0
 30 85  1  0  0  0
 31 86  1  0  0  0
 31 87  1  0  0  0
 31 88  1  0  0  0
 32 89  1  0  0  0
 32 90  1  0  0  0
 32 91  1  0  0  0
 33 92  1  0  0  0
 33 93  1  0  0  0
 33 94  1  0  0  0
 34 95  1  0  0  0
 34 96  1  0  0  0
 34 97  1  0  0  0
 36 98  1  0  0  0
 36 99  1  0  0  0
 36100  1  0  0  0
 37101  1  0  0  0
 37102  1  0  0  0
 37103  1  0  0  0
 38104  1  0  0  0
 39105  1  0  0  0
 39106  1  0  0  0
 40107  1  0  0  0
 40108  1  0  0  0
 41109  1  0  0  0
 41110  1  0  0  0
 42111  1  0  0  0
 42112  1  0  0  0
 43113  1  0  0  0
 43114  1  0  0  0
 44115  1  0  0  0
 44116  1  0  0  0
 45117  1  0  0  0
 45118  1  0  0  0
 46119  1  0  0  0
 46120  1  0  0  0
 47121  1  0  0  0
 47122  1  0  0  0
 48123  1  0  0  0
 49124  1  0  0  0
 49125  1  0  0  0
 50126  1  0  0  0
 51127  1  0  0  0
 52128  1  0  0  0
 53129  1  0  0  0
 60130  1  0  0  0
 61131  1  0  0  0
 63132  1  0  0  0
M  END
$$$$
