5xgh_ligand
  -I-interpret- 

 52 56  0  0  0  0  0  0  0  0999 V2000
   28.2500   45.8580   46.3810 O   0  0  0  0  0
   29.4550   46.6250   46.3510 C   0  0  0  0  0
   29.5750   47.3620   45.0210 C   0  0  0  0  0
   29.5860   46.3750   43.9390 N   0  0  0  0  0
   28.4080   45.4810   43.9740 C   0  0  0  0  0
   28.2320   44.8590   45.3550 C   0  0  0  0  0
   30.3660   46.4590   42.7750 C   0  0  0  0  0
   31.5050   47.2940   42.5010 C   0  0  0  0  0
   32.1380   47.2050   41.2470 C   0  0  0  0  0
   31.7280   46.3600   40.2690 N   0  0  0  0  0
   30.6690   45.5860   40.5510 C   0  0  0  0  0
   30.0140   45.6310   41.7270 N   0  0  0  0  0
   33.2540   48.0810   41.0900 C   0  0  0  0  0
   33.4800   48.8370   42.2070 C   0  0  0  0  0
   32.3530   48.4890   43.4300 S   0  0  0  0  0
   30.1810   44.6550   39.5040 C   0  0  0  0  0
   29.1430   43.7140   39.6890 C   0  0  0  0  0
   30.7650   44.6880   38.2200 C   0  0  0  0  0
   30.3900   43.8650   37.1420 C   0  0  0  0  0
   29.3490   42.9510   37.3720 C   0  0  0  0  0
   28.7400   42.8790   38.6350 C   0  0  0  0  0
   27.7300   41.9890   38.8800 O   0  0  0  0  0
   31.0730   44.0320   35.9400 N   0  0  0  0  0
   31.0320   45.2550   35.1620 C   0  0  0  0  0
   31.9290   46.4120   35.5980 C   0  0  0  0  0
   31.5090   47.3720   36.5560 C   0  0  0  0  0
   32.3390   48.4300   36.9530 C   0  0  0  0  0
   33.6050   48.5580   36.3800 C   0  0  0  0  0
   34.0460   47.6370   35.4220 C   0  0  0  0  0
   33.2120   46.5730   35.0320 C   0  0  0  0  0
   34.3970   49.5730   36.7540 F   0  0  0  0  0
   30.3076   45.9559   46.4671 H   0  0  0  0  0
   29.4360   47.3526   47.1624 H   0  0  0  0  0
   30.4961   47.9444   45.0013 H   0  0  0  0  0
   28.7314   48.0408   44.8955 H   0  0  0  0  0
   28.5549   44.6818   43.2476 H   0  0  0  0  0
   27.5189   46.0661   43.7390 H   0  0  0  0  0
   27.2700   44.3473   45.3854 H   0  0  0  0  0
   29.0545   44.1657   45.5310 H   0  0  0  0  0
   33.8569   48.1405   40.1839 H   0  0  0  0  0
   34.2814   49.5698   42.3008 H   0  0  0  0  0
   28.6510   43.6359   40.6585 H   0  0  0  0  0
   31.5677   45.4056   38.0502 H   0  0  0  0  0
   29.0130   42.2960   36.5682 H   0  0  0  0  0
   27.5516   41.4822   38.0844 H   0  0  0  0  0
   31.6310   43.2538   35.5887 H   0  0  0  0  0
   30.0120   45.6266   35.2606 H   0  0  0  0  0
   31.3811   44.9771   34.1675 H   0  0  0  0  0
   30.5150   47.2842   36.9945 H   0  0  0  0  0
   31.9988   49.1454   37.7017 H   0  0  0  0  0
   35.0358   47.7443   34.9782 H   0  0  0  0  0
   33.5616   45.8632   34.2823 H   0  0  0  0  0
  1  2  1  0  0  0
  1  6  1  0  0  0
  2  3  1  0  0  0
  3  4  1  0  0  0
  4  5  1  0  0  0
  4  7  1  0  0  0
  5  6  1  0  0  0
  7  8  4  0  0  0
  7 12  4  0  0  0
  8  9  4  0  0  0
  8 15  4  0  0  0
  9 10  4  0  0  0
  9 13  4  0  0  0
 10 11  4  0  0  0
 11 12  4  0  0  0
 11 16  1  0  0  0
 13 14  4  0  0  0
 14 15  4  0  0  0
 16 17  4  0  0  0
 16 18  4  0  0  0
 17 21  4  0  0  0
 18 19  4  0  0  0
 19 20  4  0  0  0
 19 23  1  0  0  0
 20 21  4  0  0  0
 21 22  1  0  0  0
 23 24  1  0  0  0
 24 25  1  0  0  0
 25 26  4  0  0  0
 25 30  4  0  0  0
 26 27  4  0  0  0
 27 28  4  0  0  0
 28 29  4  0  0  0
 28 31  1  0  0  0
 29 30  4  0  0  0
  2 32  1  0  0  0
  2 33  1  0  0  0
  3 34  1  0  0  0
  3 35  1  0  0  0
  5 36  1  0  0  0
  5 37  1  0  0  0
  6 38  1  0  0  0
  6 39  1  0  0  0
 13 40  1  0  0  0
 14 41  1  0  0  0
 17 42  1  0  0  0
 18 43  1  0  0  0
 20 44  1  0  0  0
 22 45  1  0  0  0
 23 46  1  0  0  0
 24 47  1  0  0  0
 24 48  1  0  0  0
 26 49  1  0  0  0
 27 50  1  0  0  0
 29 51  1  0  0  0
 30 52  1  0  0  0
M  END
$$$$
