### 
### Created by X-TOOL on Mon Aug  2 16:12:51 2021
### 

@<TRIPOS>MOLECULE
6d16_ligand
   27    28     1     0     0
SMALL
GAST_HUCK


@<TRIPOS>ATOM
      1 C01        25.3660   15.0260    5.9840 C.3       1 FUJ         0.0609
      2 C03        23.2710   16.1060    6.3750 C.ar      1 FUJ         0.0910
      3 C04        23.3580   16.1940    7.7260 C.ar      1 FUJ        -0.0348
      4 C05        22.3280   16.8150    8.4300 C.ar      1 FUJ        -0.0590
      5 C13        19.2580   18.5000    7.6000 C.2       1 FUJ         0.0083
      6 C17        21.1930   17.2160    6.3950 C.ar      1 FUJ         0.1350
      7 C18        22.1970   16.6200    5.7460 C.ar      1 FUJ         0.0085
      8 C06        21.2520   17.3490    7.7320 C.ar      1 FUJ         0.0246
      9 C07        20.2440   17.9790    8.3860 C.2       1 FUJ        -0.0120
     10 C08        20.3030   18.2170    9.8610 C.3       1 FUJ         0.0584
     11 C14        19.2630   18.3080    6.2590 C.2       1 FUJ         0.2448
     12 O02        24.2430   15.5500    5.4750 O.3       1 FUJ        -0.3192
     13 O10        19.1230   17.2280   11.9570 O.co2     1 FUJ        -0.5604
     14 O11        19.5450   15.6640   10.4000 O.co2     1 FUJ        -0.5604
     15 O12        17.6840   17.3650   10.1750 O.co2     1 FUJ        -0.5604
     16 O15        18.4530   18.7340    5.5870 O.2       1 FUJ        -0.3879
     17 O16        20.2370   17.6850    5.6710 O.3       1 FUJ        -0.2167
     18 P09        19.0550   17.0830   10.7030 P.3       1 FUJ         0.0731
     19 H1         25.9971   14.6472    5.1666 H         1 FUJ         0.0581
     20 H2         25.1100   14.1992    6.6629 H         1 FUJ         0.0581
     21 H3         25.9130   15.8013    6.5404 H         1 FUJ         0.0581
     22 H4         24.2156   15.7875    8.2499 H         1 FUJ         0.0493
     23 H5         22.3660   16.8807    9.5113 H         1 FUJ         0.0617
     24 H6         18.4561   19.0781    8.0568 H         1 FUJ         0.0410
     25 H7         22.1449   16.5469    4.6657 H         1 FUJ         0.0489
     26 H8         20.0549   19.2666   10.0773 H         1 FUJ         0.0655
     27 H9         21.3145   17.9953   10.2321 H         1 FUJ         0.0655
@<TRIPOS>BOND
     1   12    1 1  
     2    3    2 ar 
     3    7    2 ar 
     4    2   12 1  
     5    4    3 ar 
     6    8    4 ar 
     7    9    5 2  
     8    5   11 1  
     9    6    7 ar 
    10    8    6 ar 
    11    6   17 1  
    12    8    9 1  
    13    9   10 1  
    14   10   18 1  
    15   11   16 2  
    16   11   17 1  
    17   18   13 ar 
    18   18   14 ar 
    19   18   15 ar 
    20    1   19 1  
    21    1   20 1  
    22    1   21 1  
    23    3   22 1  
    24    4   23 1  
    25    5   24 1  
    26    7   25 1  
    27   10   26 1  
    28   10   27 1  
@<TRIPOS>SUBSTRUCTURE
     1 FUJ         1

