6d16_ligand
  -I-interpret- 

 29 30  0  0  0  0  0  0  0  0999 V2000
   25.3660   15.0260    5.9840 C   0  0  0  0  0
   23.2710   16.1060    6.3750 C   0  0  0  0  0
   23.3580   16.1940    7.7260 C   0  0  0  0  0
   22.3280   16.8150    8.4300 C   0  0  0  0  0
   19.2580   18.5000    7.6000 C   0  0  0  0  0
   21.1930   17.2160    6.3950 C   0  0  0  0  0
   22.1970   16.6200    5.7460 C   0  0  0  0  0
   21.2520   17.3490    7.7320 C   0  0  0  0  0
   20.2440   17.9790    8.3860 C   0  0  0  0  0
   20.3030   18.2170    9.8610 C   0  0  0  0  0
   19.2630   18.3080    6.2590 C   0  0  0  0  0
   24.2430   15.5500    5.4750 O   0  0  0  0  0
   19.1230   17.2280   11.9570 O   0  0  0  0  0
   19.5450   15.6640   10.4000 O   0  0  0  0  0
   17.6840   17.3650   10.1750 O   0  0  0  0  0
   18.4530   18.7340    5.5870 O   0  0  0  0  0
   20.2370   17.6850    5.6710 O   0  0  0  0  0
   19.0550   17.0830   10.7030 P   0  0  0  0  0
   25.9071   15.7952    6.5351 H   0  0  0  0  0
   25.1109   14.2070    6.6565 H   0  0  0  0  0
   25.9905   14.6510    5.1731 H   0  0  0  0  0
   24.2203   15.7853    8.2528 H   0  0  0  0  0
   22.3662   16.8811    9.5173 H   0  0  0  0  0
   18.4553   19.0786    8.0573 H   0  0  0  0  0
   22.1446   16.5465    4.6597 H   0  0  0  0  0
   20.0647   19.2581   10.0789 H   0  0  0  0  0
   21.3060   18.0052   10.2314 H   0  0  0  0  0
   19.5100   15.5099    9.4531 H   0  0  0  0  0
   17.6777   17.2433    9.2228 H   0  0  0  0  0
 12  1  1  0  0  0
  3  2  4  0  0  0
  7  2  4  0  0  0
  2 12  1  0  0  0
  4  3  4  0  0  0
  8  4  4  0  0  0
  9  5  2  0  0  0
  5 11  1  0  0  0
  6  7  4  0  0  0
  8  6  4  0  0  0
  6 17  1  0  0  0
  8  9  1  0  0  0
  9 10  1  0  0  0
 10 18  1  0  0  0
 11 16  2  0  0  0
 11 17  1  0  0  0
 18 13  2  0  0  0
 18 14  1  0  0  0
 18 15  1  0  0  0
  1 19  1  0  0  0
  1 20  1  0  0  0
  1 21  1  0  0  0
  3 22  1  0  0  0
  4 23  1  0  0  0
  5 24  1  0  0  0
  7 25  1  0  0  0
 10 26  1  0  0  0
 10 27  1  0  0  0
 14 28  1  0  0  0
 15 29  1  0  0  0
M  END
$$$$
