5hoa_ligand
  -I-interpret- 

 61 66  0  0  0  0  0  0  0  0999 V2000
   13.7630   -9.3780   59.1090 C   0  0  0  0  0
   15.4720  -11.0280   58.9360 C   0  0  0  0  0
   21.6910  -11.3790   57.4560 C   0  0  0  0  0
   12.9690  -10.2670   59.7990 C   0  0  0  0  0
   14.6860  -11.9290   59.6200 C   0  0  0  0  0
   20.9660  -10.8080   56.4330 C   0  0  0  0  0
   15.8660   -7.4670   58.2420 C   0  0  0  0  0
   16.7150   -6.5950   57.5910 C   0  0  0  0  0
   18.9790  -12.0410   56.9660 C   0  0  0  0  0
   15.0200   -9.7480   58.6700 C   0  0  0  0  0
   21.0340  -12.3040   58.2510 C   0  0  0  0  0
   13.4350  -11.5380   60.0480 C   0  0  0  0  0
   19.7050  -12.6090   57.9880 C   0  0  0  0  0
   19.6460  -11.1240   56.1880 C   0  0  0  0  0
   15.8750   -8.8170   57.9590 C   0  0  0  0  0
   17.5420   -7.2090   56.6780 C   0  0  0  0  0
   18.4290   -8.7700   55.5020 C   0  0  0  0  0
   20.6840  -13.7800   59.8510 C   0  0  0  0  0
   19.8550  -15.3150   61.5230 C   0  0  0  0  0
   16.1950  -17.2160   65.0560 C   0  0  0  0  0
   18.3700  -17.0250   66.3020 C   0  0  0  0  0
   15.7390  -18.1380   66.1670 C   0  0  0  0  0
   17.7980  -18.0720   67.2250 C   0  0  0  0  0
   19.4310  -16.8120   63.3940 C   0  0  0  0  0
   18.1590  -16.2540   63.9770 C   0  0  0  0  0
   21.5810  -12.9800   59.3140 N   0  0  0  0  0
   16.6920   -9.3600   57.0510 N   0  0  0  0  0
   19.0720   -7.6560   55.1160 N   0  0  0  0  0
   18.5040   -6.6840   55.8640 N   0  0  0  0  0
   17.4860   -8.5010   56.4670 N   0  0  0  0  0
   20.8860  -14.6080   60.9380 N   0  0  0  0  0
   20.1950  -15.7590   62.7770 N   0  0  0  0  0
   17.6870  -17.2160   64.9920 N   0  0  0  0  0
   18.7620  -15.5470   61.0190 O   0  0  0  0  0
   16.4140  -17.7630   67.3650 O   0  0  0  0  0
   12.6560  -12.4070   60.7140 F   0  0  0  0  0
   19.1350  -13.7760   59.1100 S   0  0  0  0  0
   18.7420  -10.3720   54.8610 S   0  0  0  0  0
   13.3960   -8.3717   58.9070 H   0  0  0  0  0
   16.4644  -11.3280   58.5995 H   0  0  0  0  0
   22.7338  -11.1150   57.6318 H   0  0  0  0  0
   11.9800   -9.9666   60.1450 H   0  0  0  0  0
   15.0481  -12.9374   59.8202 H   0  0  0  0  0
   21.4559  -10.0762   55.7907 H   0  0  0  0  0
   15.1762   -7.0820   58.9930 H   0  0  0  0  0
   16.7292   -5.5219   57.7818 H   0  0  0  0  0
   17.9366  -12.3026   56.7840 H   0  0  0  0  0
   15.8393  -16.2048   65.2533 H   0  0  0  0  0
   15.7900  -17.5635   64.1055 H   0  0  0  0  0
   19.4502  -17.1327   66.2037 H   0  0  0  0  0
   18.2029  -16.0209   66.6919 H   0  0  0  0  0
   15.9727  -19.1722   65.9142 H   0  0  0  0  0
   14.6608  -18.0543   66.3035 H   0  0  0  0  0
   18.3029  -18.0632   68.1910 H   0  0  0  0  0
   17.9385  -19.0737   66.8189 H   0  0  0  0  0
   19.1820  -17.5612   62.6425 H   0  0  0  0  0
   20.0221  -17.2637   64.1907 H   0  0  0  0  0
   17.4078  -16.1163   63.1993 H   0  0  0  0  0
   18.3384  -15.2776   64.4270 H   0  0  0  0  0
   21.8271  -14.6999   61.3206 H   0  0  0  0  0
   20.9860  -15.3444   63.2697 H   0  0  0  0  0
  1  4  4  0  0  0
 10  1  4  0  0  0
  2  5  4  0  0  0
 10  2  4  0  0  0
  3  6  4  0  0  0
 11  3  4  0  0  0
  4 12  4  0  0  0
  5 12  4  0  0  0
 14  6  4  0  0  0
  8  7  4  0  0  0
  7 15  4  0  0  0
 16  8  4  0  0  0
 13  9  4  0  0  0
  9 14  4  0  0  0
 15 10  1  0  0  0
 13 11  4  0  0  0
 26 11  4  0  0  0
 12 36  1  0  0  0
 37 13  4  0  0  0
 14 38  1  0  0  0
 15 27  4  0  0  0
 16 29  4  0  0  0
 30 16  4  0  0  0
 17 28  4  0  0  0
 17 30  4  0  0  0
 38 17  1  0  0  0
 18 26  4  0  0  0
 31 18  1  0  0  0
 18 37  4  0  0  0
 19 31  1  0  0  0
 32 19  1  0  0  0
 19 34  2  0  0  0
 20 22  1  0  0  0
 33 20  1  0  0  0
 21 23  1  0  0  0
 33 21  1  0  0  0
 22 35  1  0  0  0
 23 35  1  0  0  0
 25 24  1  0  0  0
 24 32  1  0  0  0
 25 33  1  0  0  0
 27 30  4  0  0  0
 28 29  4  0  0  0
  1 39  1  0  0  0
  2 40  1  0  0  0
  3 41  1  0  0  0
  4 42  1  0  0  0
  5 43  1  0  0  0
  6 44  1  0  0  0
  7 45  1  0  0  0
  8 46  1  0  0  0
  9 47  1  0  0  0
 20 48  1  0  0  0
 20 49  1  0  0  0
 21 50  1  0  0  0
 21 51  1  0  0  0
 22 52  1  0  0  0
 22 53  1  0  0  0
 23 54  1  0  0  0
 23 55  1  0  0  0
 24 56  1  0  0  0
 24 57  1  0  0  0
 25 58  1  0  0  0
 25 59  1  0  0  0
 31 60  1  0  0  0
 32 61  1  0  0  0
M  END
$$$$
