5qah_ligand
  -I-interpret- 

 33 34  0  0  0  0  0  0  0  0999 V2000
   95.8420  254.5260    5.1690 C   0  0  0  0  0
   97.0400  254.7870    5.4480 O   0  0  0  0  0
   95.3820  253.0990    5.3340 C   0  0  0  0  0
   97.6540  247.4690    4.8470 C   0  0  0  0  0
   96.6510  248.4070    5.0210 C   0  0  0  0  0
   94.5540  250.4570    5.5690 C   0  0  0  0  0
   93.6180  251.4690    5.4500 C   0  0  0  0  0
   94.0270  252.7840    5.3270 C   0  0  0  0  0
   96.3170  252.0770    5.4670 C   0  0  0  0  0
   95.9200  250.7430    5.5640 C   0  0  0  0  0
   96.9340  249.6580    5.5680 C   0  0  0  0  0
   98.2300  249.9030    6.0230 C   0  0  0  0  0
   99.2600  249.0020    5.7690 C   0  0  0  0  0
  100.6590  249.3510    6.1330 C   0  0  0  0  0
  102.0870  251.0080    7.0150 C   0  0  0  0  0
   98.9580  247.7720    5.1980 C   0  0  0  0  0
   95.0080  255.3660    4.7530 O   0  0  0  0  0
  100.7500  250.5580    6.6900 O   0  0  0  0  0
  101.6110  248.6350    5.9430 O   0  0  0  0  0
   97.4798  253.9870    5.7449 H   0  0  0  0  0
   97.4162  246.4893    4.4325 H   0  0  0  0  0
   95.6295  248.1652    4.7274 H   0  0  0  0  0
   94.2205  249.4240    5.6678 H   0  0  0  0  0
   92.5548  251.2288    5.4532 H   0  0  0  0  0
   93.2855  253.5763    5.2242 H   0  0  0  0  0
   97.3785  252.3230    5.4959 H   0  0  0  0  0
   96.3590  249.5376    6.4862 H   0  0  0  0  0
   98.1349  249.8972    7.1088 H   0  0  0  0  0
   98.5309  250.8058    5.4915 H   0  0  0  0  0
  102.5412  250.3131    7.7213 H   0  0  0  0  0
  102.6867  251.0477    6.1057 H   0  0  0  0  0
  102.0362  252.0009    7.4619 H   0  0  0  0  0
   99.7503  247.0435    5.0260 H   0  0  0  0  0
  1  2  1  0  0  0
  3  1  1  0  0  0
  1 17  2  0  0  0
  3  8  4  0  0  0
  9  3  4  0  0  0
  5  4  2  0  0  0
  4 16  1  0  0  0
 11  5  1  0  0  0
  6  7  4  0  0  0
 10  6  4  0  0  0
  7  8  4  0  0  0
 10  9  4  0  0  0
 10 11  1  0  0  0
 11 12  1  0  0  0
 12 13  1  0  0  0
 13 14  1  0  0  0
 13 16  2  0  0  0
 14 18  1  0  0  0
 14 19  2  0  0  0
 18 15  1  0  0  0
  2 20  1  0  0  0
  4 21  1  0  0  0
  5 22  1  0  0  0
  6 23  1  0  0  0
  7 24  1  0  0  0
  8 25  1  0  0  0
  9 26  1  0  0  0
 11 27  1  0  0  0
 12 28  1  0  0  0
 12 29  1  0  0  0
 15 30  1  0  0  0
 15 31  1  0  0  0
 15 32  1  0  0  0
 16 33  1  0  0  0
M  END
$$$$
