### 
### Created by X-TOOL on Mon Sep 10 21:13:04 2018
### 

@<TRIPOS>MOLECULE
3l16_ligand
   60    64     1     0     0
SMALL
GAST_HUCK


@<TRIPOS>ATOM
      1 C1         22.8870   62.1780   21.0220 C.ar      1 JZX         0.0854
      2 N1         22.6870   63.4650   20.6230 N.ar      1 JZX        -0.3067
      3 O1         18.0620   59.5570   24.0480 O.3       1 JZX        -0.3757
      4 S1         19.0840   64.2360   21.6360 S.3       1 JZX        -0.0167
      5 C2         20.6770   62.0060   21.8700 C.ar      1 JZX         0.1345
      6 N2         21.8990   61.4830   21.6420 N.ar      1 JZX        -0.2700
      7 O2         14.9580   66.2910   15.8760 O.2       1 JZX        -0.1556
      8 S2         16.1120   67.1480   15.8470 S.o2      1 JZX         0.0384
      9 C3         21.4770   64.0310   20.8530 C.ar      1 JZX         0.0259
     10 N3         18.3420   67.1750   19.5610 N.4       1 JZX         0.4131
     11 O3         16.8960   66.8800   14.6740 O.2       1 JZX        -0.1556
     12 C4         20.4820   63.3180   21.4770 C.ar      1 JZX         0.0980
     13 N4         19.7440   61.2270   22.5940 N.pl3     1 JZX        -0.2856
     14 C5         19.9090   65.4730   20.8620 C.2       1 JZX         0.0091
     15 N5         17.0450   66.8380   17.1220 N.am      1 JZX        -0.2426
     16 C6         21.1180   65.2320   20.5440 C.2       1 JZX        -0.0464
     17 N6         26.2730   61.3340   19.7140 N.ar      1 JZX        -0.2795
     18 C7         19.2530   66.8380   20.6730 C.3       1 JZX        -0.0535
     19 N7         27.8120   59.6690   20.1990 N.pl3     1 JZX        -0.3199
     20 C8         24.1920   61.4910   20.8130 C.ar      1 JZX         0.0245
     21 C9         17.1910   66.2560   19.4710 C.3       1 JZX        -0.0918
     22 C10        16.2620   66.7550   18.3760 C.3       1 JZX         0.0110
     23 C11        18.1300   67.8360   17.2340 C.3       1 JZX         0.0110
     24 C12        19.0900   67.3370   18.2990 C.3       1 JZX        -0.0918
     25 C13        20.1880   59.8460   22.8920 C.3       1 JZX         0.0548
     26 C14        19.4830   59.4210   24.1720 C.3       1 JZX         0.0681
     27 C15        17.6240   60.8390   23.5730 C.3       1 JZX         0.0681
     28 C16        18.3150   61.2450   22.2610 C.3       1 JZX         0.0548
     29 C17        25.1020   61.9600   19.8820 C.ar      1 JZX         0.0110
     30 C18        26.6170   60.2460   20.4270 C.ar      1 JZX         0.1129
     31 C19        24.5300   60.3630   21.5720 C.ar      1 JZX        -0.0402
     32 C20        25.7520   59.7330   21.3770 C.ar      1 JZX        -0.0122
     33 C21        15.5770   68.7290   15.8400 C.3       1 JZX         0.0734
     34 H          21.7755   65.9575   20.0651 H         1 JZX         0.0314
     35 H          18.6030   66.9128   21.5447 H         1 JZX         0.0255
     36 H          20.1071   67.4893   20.4872 H         1 JZX         0.0255
     37 H          28.4399   60.0573   19.4952 H         1 JZX         0.1783
     38 H          28.0894   58.8436   20.7301 H         1 JZX         0.1783
     39 H          16.6622   66.2266   20.4237 H         1 JZX         0.0037
     40 H          17.5357   65.2488   19.2370 H         1 JZX         0.0037
     41 H          15.4210   66.0726   18.2528 H         1 JZX         0.0458
     42 H          15.8605   67.7341   18.6372 H         1 JZX         0.0458
     43 H          17.7277   68.8117   17.5064 H         1 JZX         0.0458
     44 H          18.6430   67.9543   16.2796 H         1 JZX         0.0458
     45 H          19.5208   66.3828   17.9955 H         1 JZX         0.0037
     46 H          19.9009   68.0525   18.4351 H         1 JZX         0.0037
     47 H          21.2703   59.8061   23.0153 H         1 JZX         0.0547
     48 H          19.9375   59.1739   22.0713 H         1 JZX         0.0547
     49 H          19.7174   58.3748   24.3683 H         1 JZX         0.0580
     50 H          19.8246   60.0594   24.9868 H         1 JZX         0.0580
     51 H          17.8737   61.5825   24.3299 H         1 JZX         0.0580
     52 H          16.5518   60.7810   23.3856 H         1 JZX         0.0580
     53 H          18.0730   60.5703   21.4399 H         1 JZX         0.0547
     54 H          17.9855   62.2209   21.9046 H         1 JZX         0.0547
     55 H          24.8648   62.8404   19.2847 H         1 JZX         0.0823
     56 H          23.8327   59.9793   22.3167 H         1 JZX         0.0732
     57 H          26.0239   58.8531   21.9600 H         1 JZX         0.0620
     58 H          14.9586   68.8980   14.9585 H         1 JZX         0.0482
     59 H          14.9896   68.9164   16.7389 H         1 JZX         0.0482
     60 H          16.4346   69.4014   15.8181 H         1 JZX         0.0482
@<TRIPOS>BOND
     1    1    2 ar 
     2    6    1 ar 
     3    1   20 1  
     4    9    2 ar 
     5   26    3 1  
     6    3   27 1  
     7   12    4 1  
     8    4   14 1  
     9    5    6 ar 
    10    5   12 ar 
    11   13    5 1  
    12    8    7 2  
    13    8   11 2  
    14   15    8 am 
    15    8   33 1  
    16   12    9 ar 
    17    9   16 1  
    18   18   10 1  
    19   10   21 1  
    20   10   24 1  
    21   25   13 1  
    22   13   28 1  
    23   16   14 2  
    24   14   18 1  
    25   22   15 1  
    26   23   15 1  
    27   29   17 ar 
    28   17   30 ar 
    29   30   19 1  
    30   20   29 ar 
    31   20   31 ar 
    32   21   22 1  
    33   24   23 1  
    34   25   26 1  
    35   27   28 1  
    36   30   32 ar 
    37   31   32 ar 
    38   16   34 1  
    39   18   35 1  
    40   18   36 1  
    41   19   37 1  
    42   19   38 1  
    43   21   39 1  
    44   21   40 1  
    45   22   41 1  
    46   22   42 1  
    47   23   43 1  
    48   23   44 1  
    49   24   45 1  
    50   24   46 1  
    51   25   47 1  
    52   25   48 1  
    53   26   49 1  
    54   26   50 1  
    55   27   51 1  
    56   27   52 1  
    57   28   53 1  
    58   28   54 1  
    59   29   55 1  
    60   31   56 1  
    61   32   57 1  
    62   33   58 1  
    63   33   59 1  
    64   33   60 1  
@<TRIPOS>SUBSTRUCTURE
     1 JZX         1

