3l16_ligand
  -I-interpret- 

 61 65  0  0  0  0  0  0  0  0999 V2000
   22.8870   62.1780   21.0220 C   0  0  0  0  0
   22.6870   63.4650   20.6230 N   0  0  0  0  0
   18.0620   59.5570   24.0480 O   0  0  0  0  0
   19.0840   64.2360   21.6360 S   0  0  0  0  0
   20.6770   62.0060   21.8700 C   0  0  0  0  0
   21.8990   61.4830   21.6420 N   0  0  0  0  0
   14.9580   66.2910   15.8760 O   0  0  0  0  0
   16.1120   67.1480   15.8470 S   0  0  0  0  0
   21.4770   64.0310   20.8530 C   0  0  0  0  0
   18.3420   67.1750   19.5610 N   0  3  0  0  0
   16.8960   66.8800   14.6740 O   0  0  0  0  0
   20.4820   63.3180   21.4770 C   0  0  0  0  0
   19.7440   61.2270   22.5940 N   0  0  0  0  0
   19.9090   65.4730   20.8620 C   0  0  0  0  0
   17.0450   66.8380   17.1220 N   0  0  0  0  0
   21.1180   65.2320   20.5440 C   0  0  0  0  0
   26.2730   61.3340   19.7140 N   0  0  0  0  0
   19.2530   66.8380   20.6730 C   0  0  0  0  0
   27.8120   59.6690   20.1990 N   0  0  0  0  0
   24.1920   61.4910   20.8130 C   0  0  0  0  0
   17.1910   66.2560   19.4710 C   0  0  0  0  0
   16.2620   66.7550   18.3760 C   0  0  0  0  0
   18.1300   67.8360   17.2340 C   0  0  0  0  0
   19.0900   67.3370   18.2990 C   0  0  0  0  0
   20.1880   59.8460   22.8920 C   0  0  0  0  0
   19.4830   59.4210   24.1720 C   0  0  0  0  0
   17.6240   60.8390   23.5730 C   0  0  0  0  0
   18.3150   61.2450   22.2610 C   0  0  0  0  0
   25.1020   61.9600   19.8820 C   0  0  0  0  0
   26.6170   60.2460   20.4270 C   0  0  0  0  0
   24.5300   60.3630   21.5720 C   0  0  0  0  0
   25.7520   59.7330   21.3770 C   0  0  0  0  0
   15.5770   68.7290   15.8400 C   0  0  0  0  0
   17.9211   68.0825   19.7604 H   0  0  0  0  0
   21.7755   65.9575   20.0651 H   0  0  0  0  0
   18.6030   66.9128   21.5447 H   0  0  0  0  0
   20.1071   67.4893   20.4872 H   0  0  0  0  0
   28.4399   60.0573   19.4952 H   0  0  0  0  0
   28.0894   58.8436   20.7301 H   0  0  0  0  0
   16.6622   66.2266   20.4237 H   0  0  0  0  0
   17.5357   65.2488   19.2370 H   0  0  0  0  0
   15.4210   66.0726   18.2528 H   0  0  0  0  0
   15.8605   67.7341   18.6372 H   0  0  0  0  0
   17.7277   68.8117   17.5064 H   0  0  0  0  0
   18.6430   67.9543   16.2796 H   0  0  0  0  0
   19.5208   66.3828   17.9955 H   0  0  0  0  0
   19.9009   68.0525   18.4351 H   0  0  0  0  0
   21.2703   59.8061   23.0153 H   0  0  0  0  0
   19.9375   59.1739   22.0713 H   0  0  0  0  0
   19.7174   58.3748   24.3683 H   0  0  0  0  0
   19.8246   60.0594   24.9868 H   0  0  0  0  0
   17.8737   61.5825   24.3299 H   0  0  0  0  0
   16.5518   60.7810   23.3856 H   0  0  0  0  0
   18.0730   60.5703   21.4399 H   0  0  0  0  0
   17.9855   62.2209   21.9046 H   0  0  0  0  0
   24.8648   62.8404   19.2847 H   0  0  0  0  0
   23.8327   59.9793   22.3167 H   0  0  0  0  0
   26.0239   58.8531   21.9600 H   0  0  0  0  0
   14.9586   68.8980   14.9585 H   0  0  0  0  0
   14.9896   68.9164   16.7389 H   0  0  0  0  0
   16.4346   69.4014   15.8181 H   0  0  0  0  0
  1  2  4  0  0  0
  6  1  4  0  0  0
  1 20  1  0  0  0
  9  2  4  0  0  0
 26  3  1  0  0  0
  3 27  1  0  0  0
 12  4  4  0  0  0
  4 14  4  0  0  0
  5  6  4  0  0  0
  5 12  4  0  0  0
 13  5  1  0  0  0
  8  7  2  0  0  0
  8 11  2  0  0  0
 15  8  1  0  0  0
  8 33  1  0  0  0
 12  9  4  0  0  0
  9 16  4  0  0  0
 18 10  1  0  0  0
 10 21  1  0  0  0
 10 24  1  0  0  0
 25 13  1  0  0  0
 13 28  1  0  0  0
 16 14  4  0  0  0
 14 18  1  0  0  0
 22 15  1  0  0  0
 23 15  1  0  0  0
 29 17  4  0  0  0
 17 30  4  0  0  0
 30 19  1  0  0  0
 20 29  4  0  0  0
 20 31  4  0  0  0
 21 22  1  0  0  0
 24 23  1  0  0  0
 25 26  1  0  0  0
 27 28  1  0  0  0
 30 32  4  0  0  0
 31 32  4  0  0  0
 10 34  1  0  0  0
 16 35  1  0  0  0
 18 36  1  0  0  0
 18 37  1  0  0  0
 19 38  1  0  0  0
 19 39  1  0  0  0
 21 40  1  0  0  0
 21 41  1  0  0  0
 22 42  1  0  0  0
 22 43  1  0  0  0
 23 44  1  0  0  0
 23 45  1  0  0  0
 24 46  1  0  0  0
 24 47  1  0  0  0
 25 48  1  0  0  0
 25 49  1  0  0  0
 26 50  1  0  0  0
 26 51  1  0  0  0
 27 52  1  0  0  0
 27 53  1  0  0  0
 28 54  1  0  0  0
 28 55  1  0  0  0
 29 56  1  0  0  0
 31 57  1  0  0  0
 32 58  1  0  0  0
 33 59  1  0  0  0
 33 60  1  0  0  0
 33 61  1  0  0  0
M  END
$$$$
