1v0o_ligand
  -I-interpret- 

 34 37  0  0  0  0  0  0  0  0999 V2000
   24.5200    3.0550   37.4810 C   0  0  0  0  0
   24.7150    3.9990   36.5040 C   0  0  0  0  0
   25.6460    2.5550   38.1180 C   0  0  0  0  0
   23.1810    2.7430   37.6870 N   0  0  0  0  0
   25.9590    4.4770   36.1080 C   0  0  0  0  0
   23.3610    4.3460   36.0350 C   0  0  0  0  0
   27.0780    3.9640   36.7600 C   0  0  0  0  0
   26.9210    3.0010   37.7650 C   0  0  0  0  0
   23.0550    5.1830   35.1180 O   0  0  0  0  0
   22.4480    3.4940   36.8400 C   0  0  0  0  0
   21.0570    3.4010   36.8100 C   0  0  0  0  0
   20.2650    2.4990   37.6880 C   0  0  0  0  0
   20.0040    4.0580   36.0100 C   0  0  0  0  0
   20.7540    1.7050   38.5860 O   0  0  0  0  0
   18.9500    2.6010   37.4510 N   0  0  0  0  0
   18.8260    3.5160   36.4740 C   0  0  0  0  0
   20.0000    5.0530   34.9640 C   0  0  0  0  0
   18.7640    5.4550   34.4190 C   0  0  0  0  0
   17.5690    4.8890   34.8970 C   0  0  0  0  0
   18.7130    6.5590   33.2370 S   0  0  0  0  0
   17.5760    3.9310   35.9120 C   0  0  0  0  0
   18.9740    7.9090   33.8110 O   0  0  0  0  0
   17.3720    6.6050   32.6280 O   0  0  0  0  0
   19.7360    6.3050   32.2200 O   0  0  0  0  0
   25.5343    1.8062   38.9022 H   0  0  0  0  0
   22.8178    2.0668   38.3588 H   0  0  0  0  0
   26.0549    5.2231   35.3192 H   0  0  0  0  0
   28.0747    4.3116   36.4884 H   0  0  0  0  0
   27.7972    2.5985   38.2732 H   0  0  0  0  0
   18.1991    2.0904   37.9155 H   0  0  0  0  0
   20.9337    5.4845   34.6032 H   0  0  0  0  0
   16.6186    5.2045   34.4665 H   0  0  0  0  0
   16.6405    3.5035   36.2728 H   0  0  0  0  0
   19.8429    7.9194   34.2191 H   0  0  0  0  0
  1  2  4  0  0  0
  1  3  4  0  0  0
  1  4  1  0  0  0
  2  5  4  0  0  0
  2  6  1  0  0  0
  3  8  4  0  0  0
  4 10  1  0  0  0
  5  7  4  0  0  0
  6  9  2  0  0  0
  6 10  1  0  0  0
  7  8  4  0  0  0
 10 11  2  0  0  0
 11 12  1  0  0  0
 11 13  1  0  0  0
 12 14  2  0  0  0
 12 15  1  0  0  0
 13 16  4  0  0  0
 13 17  4  0  0  0
 15 16  1  0  0  0
 16 21  4  0  0  0
 17 18  4  0  0  0
 18 19  4  0  0  0
 18 20  1  0  0  0
 19 21  4  0  0  0
 20 22  1  0  0  0
 20 23  2  0  0  0
 20 24  2  0  0  0
  3 25  1  0  0  0
  4 26  1  0  0  0
  5 27  1  0  0  0
  7 28  1  0  0  0
  8 29  1  0  0  0
 15 30  1  0  0  0
 17 31  1  0  0  0
 19 32  1  0  0  0
 21 33  1  0  0  0
 22 34  1  0  0  0
M  END
$$$$
