1q6j_ligand
  -I-interpret- 

 69 73  0  0  0  0  0  0  0  0999 V2000
    0.4820   71.4830   69.2300 C   0  0  0  0  0
    1.3310   72.4560   68.3620 C   0  0  0  0  0
    0.6810   73.2000   67.3600 C   0  0  0  0  0
    2.7520   72.6320   68.5170 C   0  0  0  0  0
    1.3640   74.0790   66.5340 C   0  0  0  0  0
    3.4480   73.5260   67.6790 C   0  0  0  0  0
    2.7590   74.2570   66.6840 C   0  0  0  0  0
    3.4560   75.2230   65.7700 C   0  0  0  0  0
    4.5250   75.6610   66.4490 F   0  0  0  0  0
    2.6210   76.2410   65.5850 F   0  0  0  0  0
    3.9410   74.6300   64.2370 P   0  0  0  0  0
    2.7150   74.1080   63.4420 O   0  0  0  0  0
    4.8420   73.5320   64.4310 O   0  0  0  0  0
    4.5860   75.7480   63.4380 O   0  0  0  0  0
   -0.0220   72.0300   70.6650 C   0  0  0  0  0
   -0.8750   73.3690   70.5080 C   0  0  0  0  0
   -2.0620   73.3090   69.5600 C   0  0  0  0  0
   -2.2070   74.3620   68.5890 C   0  0  0  0  0
   -3.0570   72.2710   69.5830 C   0  0  0  0  0
   -3.2710   74.3890   67.6930 C   0  0  0  0  0
   -4.1520   72.2930   68.6580 C   0  0  0  0  0
   -4.2600   73.3680   67.7000 C   0  0  0  0  0
   -5.4340   73.4420   66.7040 C   0  0  0  0  0
   -6.1310   72.3100   66.7870 F   0  0  0  0  0
   -4.9840   73.5090   65.4310 F   0  0  0  0  0
   -6.4920   74.7070   67.0300 P   0  0  0  0  0
   -5.8660   76.0850   66.6980 O   0  0  0  0  0
   -6.8410   74.6890   68.4930 O   0  0  0  0  0
   -7.7320   74.5580   66.1800 O   0  0  0  0  0
    1.2510   72.3320   71.6180 C   0  0  0  0  0
    2.1790   71.2970   71.9600 C   0  0  0  0  0
    1.4730   73.6660   72.1620 C   0  0  0  0  0
    3.4780   72.9190   73.3360 C   0  0  0  0  0
    3.2830   71.5720   72.8050 C   0  0  0  0  0
    2.5660   73.9590   73.0050 C   0  0  0  0  0
   -0.8100   70.8030   71.1680 N   0  0  0  0  0
   -1.2360   69.6580   70.5090 N   0  0  0  0  0
   -1.8440   68.9850   71.4840 N   0  0  0  0  0
   -1.8960   69.5190   72.7480 C   0  0  0  0  0
   -1.1940   70.8120   72.6240 C   0  0  0  0  0
   -2.4300   69.1020   73.9920 C   0  0  0  0  0
   -1.0610   71.6540   73.8130 C   0  0  0  0  0
   -2.2860   69.9510   75.1510 C   0  0  0  0  0
   -1.5980   71.2350   75.0590 C   0  0  0  0  0
    1.1305   70.6339   69.4461 H   0  0  0  0  0
   -0.4213   71.2815   68.6542 H   0  0  0  0  0
   -0.3946   73.0813   67.2291 H   0  0  0  0  0
    3.2896   72.0733   69.2831 H   0  0  0  0  0
    0.8245   74.6345   65.7669 H   0  0  0  0  0
    4.5237   73.6547   67.7986 H   0  0  0  0  0
    2.0966   74.8285   63.3001 H   0  0  0  0  0
    3.9569   76.4647   63.3272 H   0  0  0  0  0
   -0.1950   74.1135   70.0940 H   0  0  0  0  0
   -1.2867   73.5823   71.4945 H   0  0  0  0  0
   -1.4639   75.1587   68.5549 H   0  0  0  0  0
   -2.9780   71.4617   70.3089 H   0  0  0  0  0
   -3.3474   75.2054   66.9748 H   0  0  0  0  0
   -4.9005   71.5009   68.6778 H   0  0  0  0  0
   -5.6364   76.1148   65.7663 H   0  0  0  0  0
   -7.4861   74.5721   65.2521 H   0  0  0  0  0
    2.0354   70.2902   71.5677 H   0  0  0  0  0
    0.7727   74.4622   71.9097 H   0  0  0  0  0
    4.3258   73.1278   73.9885 H   0  0  0  0  0
    3.9863   70.7789   73.0586 H   0  0  0  0  0
    2.7091   74.9662   73.3963 H   0  0  0  0  0
   -2.9466   68.1457   74.0738 H   0  0  0  0  0
   -0.5451   72.6115   73.7418 H   0  0  0  0  0
   -2.6967   69.6286   76.1078 H   0  0  0  0  0
   -1.4971   71.8679   75.9407 H   0  0  0  0  0
  1  2  1  0  0  0
  1 15  1  0  0  0
  2  3  4  0  0  0
  2  4  4  0  0  0
  3  5  4  0  0  0
  4  6  4  0  0  0
  5  7  4  0  0  0
  6  7  4  0  0  0
  7  8  1  0  0  0
  8  9  1  0  0  0
  8 10  1  0  0  0
  8 11  1  0  0  0
 11 12  1  0  0  0
 11 13  2  0  0  0
 11 14  1  0  0  0
 15 16  1  0  0  0
 15 30  1  0  0  0
 15 36  1  0  0  0
 16 17  1  0  0  0
 17 18  4  0  0  0
 17 19  4  0  0  0
 18 20  4  0  0  0
 19 21  4  0  0  0
 20 22  4  0  0  0
 21 22  4  0  0  0
 22 23  1  0  0  0
 23 24  1  0  0  0
 23 25  1  0  0  0
 23 26  1  0  0  0
 26 27  1  0  0  0
 26 28  2  0  0  0
 26 29  1  0  0  0
 30 31  4  0  0  0
 30 32  4  0  0  0
 31 34  4  0  0  0
 32 35  4  0  0  0
 36 37  4  0  0  0
 36 40  4  0  0  0
 37 38  4  0  0  0
 38 39  4  0  0  0
 39 40  4  0  0  0
 39 41  4  0  0  0
 40 42  4  0  0  0
 41 43  4  0  0  0
 42 44  4  0  0  0
 43 44  4  0  0  0
 35 33  4  0  0  0
 34 33  4  0  0  0
  1 45  1  0  0  0
  1 46  1  0  0  0
  3 47  1  0  0  0
  4 48  1  0  0  0
  5 49  1  0  0  0
  6 50  1  0  0  0
 12 51  1  0  0  0
 14 52  1  0  0  0
 16 53  1  0  0  0
 16 54  1  0  0  0
 18 55  1  0  0  0
 19 56  1  0  0  0
 20 57  1  0  0  0
 21 58  1  0  0  0
 27 59  1  0  0  0
 29 60  1  0  0  0
 31 61  1  0  0  0
 32 62  1  0  0  0
 33 63  1  0  0  0
 34 64  1  0  0  0
 35 65  1  0  0  0
 41 66  1  0  0  0
 42 67  1  0  0  0
 43 68  1  0  0  0
 44 69  1  0  0  0
M  END
$$$$
