### 
### Created by X-TOOL on Mon Sep 10 21:12:50 2018
### 

@<TRIPOS>MOLECULE
1q6j_ligand
   65    69     1     0     0
SMALL
GAST_HUCK


@<TRIPOS>ATOM
      1 C32         0.4820   71.4830   69.2300 C.3       1 335         0.0105
      2 C33         1.3310   72.4560   68.3620 C.ar      1 335        -0.0160
      3 C4A         0.6810   73.2000   67.3600 C.ar      1 335        -0.0289
      4 C4B         2.7520   72.6320   68.5170 C.ar      1 335        -0.0289
      5 C5A         1.3640   74.0790   66.5340 C.ar      1 335        -0.0385
      6 C5B         3.4480   73.5260   67.6790 C.ar      1 335        -0.0385
      7 C36         2.7590   74.2570   66.6840 C.ar      1 335         0.0219
      8 C37         3.4560   75.2230   65.7700 C.3       1 335         0.2931
      9 F38         4.5250   75.6610   66.4490 F         1 335        -0.2419
     10 F39         2.6210   76.2410   65.5850 F         1 335        -0.2419
     11 P40         3.9410   74.6300   64.2370 P.3       1 335         0.0966
     12 O41         2.7150   74.1080   63.4420 O.co2     1 335        -0.5668
     13 O42         4.8420   73.5320   64.4310 O.co2     1 335        -0.5668
     14 O43         4.5860   75.7480   63.4380 O.co2     1 335        -0.5668
     15 C1         -0.0220   72.0300   70.6650 C.3       1 335         0.1158
     16 C12        -0.8750   73.3690   70.5080 C.3       1 335         0.0105
     17 C13        -2.0620   73.3090   69.5600 C.ar      1 335        -0.0160
     18 C1A        -2.2070   74.3620   68.5890 C.ar      1 335        -0.0289
     19 C1B        -3.0570   72.2710   69.5830 C.ar      1 335        -0.0289
     20 C2A        -3.2710   74.3890   67.6930 C.ar      1 335        -0.0385
     21 C2B        -4.1520   72.2930   68.6580 C.ar      1 335        -0.0385
     22 C16        -4.2600   73.3680   67.7000 C.ar      1 335         0.0219
     23 C17        -5.4340   73.4420   66.7040 C.3       1 335         0.2931
     24 F18        -6.1310   72.3100   66.7870 F         1 335        -0.2419
     25 F19        -4.9840   73.5090   65.4310 F         1 335        -0.2419
     26 P20        -6.4920   74.7070   67.0300 P.3       1 335         0.0966
     27 O21        -5.8660   76.0850   66.6980 O.co2     1 335        -0.5668
     28 O22        -6.8410   74.6890   68.4930 O.co2     1 335        -0.5668
     29 O23        -7.7320   74.5580   66.1800 O.co2     1 335        -0.5668
     30 C51         1.2510   72.3320   71.6180 C.ar      1 335        -0.0102
     31 C6A         2.1790   71.2970   71.9600 C.ar      1 335        -0.0362
     32 C6B         1.4730   73.6660   72.1620 C.ar      1 335        -0.0362
     33 C55         3.4780   72.9190   73.3360 C.ar      1 335        -0.0340
     34 C53         3.2830   71.5720   72.8050 C.ar      1 335        -0.0323
     35 C54         2.5660   73.9590   73.0050 C.ar      1 335        -0.0323
     36 N61        -0.8100   70.8030   71.1680 N.pl3     1 335        -0.1785
     37 N62        -1.2360   69.6580   70.5090 N.2       1 335        -0.0826
     38 N63        -1.8440   68.9850   71.4840 N.2       1 335        -0.2001
     39 C7A        -1.8960   69.5190   72.7480 C.ar      1 335         0.0753
     40 C7B        -1.1940   70.8120   72.6240 C.ar      1 335         0.1061
     41 C8A        -2.4300   69.1020   73.9920 C.ar      1 335        -0.0506
     42 C8B        -1.0610   71.6540   73.8130 C.ar      1 335        -0.0323
     43 C9A        -2.2860   69.9510   75.1510 C.ar      1 335        -0.0707
     44 C9B        -1.5980   71.2350   75.0590 C.ar      1 335        -0.0695
     45 H1          1.0898   70.5845   69.4122 H         1 335         0.0439
     46 H2         -0.4100   71.2103   68.6469 H         1 335         0.0439
     47 H3         -0.3887   73.0819   67.2298 H         1 335         0.0652
     48 H4          3.2866   72.0763   69.2789 H         1 335         0.0652
     49 H5          0.8275   74.6314   65.7711 H         1 335         0.0835
     50 H6          4.5178   73.6540   67.7979 H         1 335         0.0835
     51 H7         -0.1976   74.1565   70.1461 H         1 335         0.0439
     52 H8         -1.2556   73.6416   71.5034 H         1 335         0.0439
     53 H9         -1.4680   75.1544   68.5551 H         1 335         0.0652
     54 H10        -2.9785   71.4662   70.3049 H         1 335         0.0652
     55 H11        -3.3470   75.2009   66.9788 H         1 335         0.0835
     56 H12        -4.8964   71.5053   68.6777 H         1 335         0.0835
     57 H13         2.0362   70.2958   71.5698 H         1 335         0.0851
     58 H14         0.7765   74.4579   71.9111 H         1 335         0.0851
     59 H15         4.3212   73.1266   73.9849 H         1 335         0.0856
     60 H16         3.9825   70.7832   73.0572 H         1 335         0.0698
     61 H17         2.7083   74.9607   73.3941 H         1 335         0.0698
     62 H18        -2.9438   68.1510   74.0734 H         1 335         0.0596
     63 H19        -0.5479   72.6063   73.7422 H         1 335         0.0566
     64 H20        -2.6945   69.6304   76.1025 H         1 335         0.0540
     65 H21        -1.4977   71.8644   75.9358 H         1 335         0.0580
@<TRIPOS>BOND
     1    1    2 1  
     2    1   15 1  
     3    2    3 ar 
     4    2    4 ar 
     5    3    5 ar 
     6    4    6 ar 
     7    5    7 ar 
     8    6    7 ar 
     9    7    8 1  
    10    8    9 1  
    11    8   10 1  
    12    8   11 1  
    13   11   12 ar 
    14   11   13 ar 
    15   11   14 ar 
    16   15   16 1  
    17   15   30 1  
    18   15   36 1  
    19   16   17 1  
    20   17   18 ar 
    21   17   19 ar 
    22   18   20 ar 
    23   19   21 ar 
    24   20   22 ar 
    25   21   22 ar 
    26   22   23 1  
    27   23   24 1  
    28   23   25 1  
    29   23   26 1  
    30   26   27 ar 
    31   26   28 ar 
    32   26   29 ar 
    33   30   31 ar 
    34   30   32 ar 
    35   31   34 ar 
    36   32   35 ar 
    37   36   37 1  
    38   36   40 1  
    39   37   38 2  
    40   38   39 1  
    41   39   40 ar 
    42   39   41 ar 
    43   40   42 ar 
    44   41   43 ar 
    45   42   44 ar 
    46   43   44 ar 
    47   35   33 ar 
    48   34   33 ar 
    49    1   45 1  
    50    1   46 1  
    51    3   47 1  
    52    4   48 1  
    53    5   49 1  
    54    6   50 1  
    55   16   51 1  
    56   16   52 1  
    57   18   53 1  
    58   19   54 1  
    59   20   55 1  
    60   21   56 1  
    61   31   57 1  
    62   32   58 1  
    63   33   59 1  
    64   34   60 1  
    65   35   61 1  
    66   41   62 1  
    67   42   63 1  
    68   43   64 1  
    69   44   65 1  
@<TRIPOS>SUBSTRUCTURE
     1 335         1

