4g17_ligand
  -I-interpret- 

 39 41  0  0  0  0  0  0  0  0999 V2000
   38.2090  -11.9990   26.8590 C   0  0  0  0  0
   37.7720  -13.3880   26.5570 C   0  0  0  0  0
   37.1810  -14.1170   27.6870 C   0  0  0  0  0
   37.0590  -13.4390   29.0340 C   0  0  0  0  0
   37.5080  -12.0470   29.2790 C   0  0  0  0  0
   38.0990  -11.3010   28.1680 C   0  0  0  0  0
   36.6610  -15.3770   27.8340 N   0  0  0  0  0
   36.2690  -15.4490   29.1190 C   0  0  0  0  0
   36.4700  -14.3710   29.8700 N   0  0  0  0  0
   35.6250  -16.6230   29.6770 N   0  0  0  0  0
   38.8110  -11.2910   25.8100 C   0  0  0  0  0
   39.2560  -10.7250   24.9180 N   0  0  0  0  0
   34.7080  -20.2060   27.9140 C   0  0  0  0  0
   36.0230  -19.5890   27.5820 C   0  0  0  0  0
   36.3530  -18.3500   28.1870 C   0  0  0  0  0
   35.3460  -17.7970   29.0910 C   0  0  0  0  0
   34.0410  -18.3510   29.4640 C   0  0  0  0  0
   33.7010  -19.6120   28.8540 C   0  0  0  0  0
   34.3590  -21.5640   27.2110 C   0  0  0  0  0
   32.8310  -21.6430   26.7810 C   0  0  0  0  0
   34.6910  -22.7100   28.1810 C   0  0  0  0  0
   35.1260  -21.8450   25.8660 C   0  0  0  0  0
   37.8823  -13.8331   25.5682 H   0  0  0  0  0
   37.4003  -11.5908   30.2630 H   0  0  0  0  0
   38.4448  -10.2751   28.2943 H   0  0  0  0  0
   35.3442  -16.5446   30.6545 H   0  0  0  0  0
   36.7124  -20.0768   26.8929 H   0  0  0  0  0
   37.2973  -17.8422   27.9906 H   0  0  0  0  0
   33.3713  -17.8424   30.1575 H   0  0  0  0  0
   32.7555  -20.1111   29.0660 H   0  0  0  0  0
   32.2007  -21.5472   27.6651 H   0  0  0  0  0
   32.6084  -20.8341   26.0851 H   0  0  0  0  0
   32.6396  -22.6017   26.2989 H   0  0  0  0  0
   35.7520  -22.6788   28.4287 H   0  0  0  0  0
   34.1008  -22.5970   29.0904 H   0  0  0  0  0
   34.4546  -23.6637   27.7091 H   0  0  0  0  0
   34.8976  -21.0577   25.1477 H   0  0  0  0  0
   36.1988  -21.8633   26.0580 H   0  0  0  0  0
   34.8110  -22.8079   25.4640 H   0  0  0  0  0
  2  1  4  0  0  0
  6  1  4  0  0  0
  1 11  1  0  0  0
  3  2  4  0  0  0
  4  3  4  0  0  0
  7  3  4  0  0  0
  4  5  4  0  0  0
  9  4  4  0  0  0
  5  6  4  0  0  0
  8  7  4  0  0  0
  8  9  4  0  0  0
 10  8  1  0  0  0
 16 10  1  0  0  0
 11 12  3  0  0  0
 14 13  4  0  0  0
 13 18  4  0  0  0
 13 19  1  0  0  0
 15 14  4  0  0  0
 15 16  4  0  0  0
 16 17  4  0  0  0
 17 18  4  0  0  0
 19 20  1  0  0  0
 19 21  1  0  0  0
 19 22  1  0  0  0
  2 23  1  0  0  0
  5 24  1  0  0  0
  6 25  1  0  0  0
 10 26  1  0  0  0
 14 27  1  0  0  0
 15 28  1  0  0  0
 17 29  1  0  0  0
 18 30  1  0  0  0
 20 31  1  0  0  0
 20 32  1  0  0  0
 20 33  1  0  0  0
 21 34  1  0  0  0
 21 35  1  0  0  0
 21 36  1  0  0  0
 22 37  1  0  0  0
 22 38  1  0  0  0
 22 39  1  0  0  0
M  END
$$$$
