4pms_ligand
  -I-interpret- 

 52 57  0  0  0  0  0  0  0  0999 V2000
   35.8410  -33.3440   -9.3300 C   0  0  0  0  0
   37.0470  -32.7140   -8.7720 C   0  0  0  0  0
   38.7270  -32.5690   -7.0410 C   0  0  0  0  0
   38.8770  -31.1490   -8.9650 C   0  0  0  0  0
   30.7630  -34.4680   -9.3230 C   0  0  0  0  0
   30.5200  -34.2060  -10.7770 C   0  0  0  0  0
   29.9360  -34.1850   -8.2810 C   0  0  0  0  0
   30.6240  -34.4390   -7.0390 C   0  0  0  0  0
   30.3680  -34.3440   -5.6350 C   0  0  0  0  0
   28.3480  -32.7530   -5.4650 C   0  0  0  0  0
   26.9120  -30.4320   -6.1800 C   0  0  0  0  0
   28.8810  -31.7850   -6.3680 C   0  0  0  0  0
   26.5010  -33.4270   -3.9890 C   0  0  0  0  0
   27.2030  -34.5350   -3.6190 C   0  0  0  0  0
   29.3330  -33.9800  -11.1210 O   0  0  0  0  0
   31.5110  -34.1730  -11.5420 O   0  0  0  0  0
   31.9010  -34.9040   -7.4220 C   0  0  0  0  0
   31.9670  -34.9490   -8.8170 N   0  0  0  0  0
   33.0710  -35.5230   -9.5770 C   0  0  0  0  0
   34.1960  -34.5460   -9.7710 C   0  0  0  0  0
   35.0760  -34.2290   -8.7750 N   0  0  0  0  0
   37.7130  -31.7050   -9.4720 C   0  0  0  0  0
   39.3890  -31.5820   -7.7520 C   0  0  0  0  0
   37.5620  -33.1300   -7.5410 C   0  0  0  0  0
   35.5050  -33.0810  -10.6030 O   0  0  0  0  0
   34.3870  -33.9140  -10.8880 N   0  0  0  0  0
   32.8630  -35.2320   -6.4740 C   0  0  0  0  0
   32.5030  -35.1000   -5.1420 C   0  0  0  0  0
   31.2980  -34.6730   -4.7180 N   0  0  0  0  0
   29.0520  -33.9500   -5.0650 C   0  0  0  0  0
   28.4580  -34.7940   -4.1500 C   0  0  0  0  0
   27.0470  -32.5020   -4.9180 C   0  0  0  0  0
   26.3540  -31.3200   -5.3000 C   0  0  0  0  0
   28.1720  -30.6660   -6.7140 C   0  0  0  0  0
   39.1239  -32.9064   -6.0835 H   0  0  0  0  0
   39.3923  -30.3673   -9.5231 H   0  0  0  0  0
   28.9120  -33.8224   -8.3706 H   0  0  0  0  0
   26.3627  -29.5342   -6.4636 H   0  0  0  0  0
   29.8735  -31.9398   -6.7912 H   0  0  0  0  0
   25.5114  -33.2492   -3.5680 H   0  0  0  0  0
   26.7722  -35.2273   -2.8957 H   0  0  0  0  0
   28.7577  -34.0665  -10.3573 H   0  0  0  0  0
   32.6947  -35.8060  -10.5600 H   0  0  0  0  0
   33.4566  -36.3778   -9.0214 H   0  0  0  0  0
   37.3145  -31.3526  -10.4234 H   0  0  0  0  0
   40.3085  -31.1477   -7.3595 H   0  0  0  0  0
   37.0441  -33.9008   -6.9702 H   0  0  0  0  0
   33.8552  -35.5772   -6.7647 H   0  0  0  0  0
   33.2450  -35.3592   -4.3868 H   0  0  0  0  0
   28.9906  -35.6912   -3.8348 H   0  0  0  0  0
   25.3657  -31.1186   -4.8867 H   0  0  0  0  0
   28.6013  -29.9513   -7.4161 H   0  0  0  0  0
  1  2  1  0  0  0
 21  1  4  0  0  0
  1 25  4  0  0  0
  2 22  4  0  0  0
  2 24  4  0  0  0
  3 23  4  0  0  0
 24  3  4  0  0  0
 22  4  4  0  0  0
  4 23  4  0  0  0
  5  6  1  0  0  0
  5  7  4  0  0  0
 18  5  4  0  0  0
  6 15  1  0  0  0
  6 16  2  0  0  0
  8  7  4  0  0  0
  8  9  4  0  0  0
 17  8  4  0  0  0
  9 29  4  0  0  0
  9 30  1  0  0  0
 10 12  4  0  0  0
 30 10  4  0  0  0
 10 32  4  0  0  0
 11 33  4  0  0  0
 34 11  4  0  0  0
 12 34  4  0  0  0
 13 14  4  0  0  0
 32 13  4  0  0  0
 14 31  4  0  0  0
 18 17  4  0  0  0
 17 27  4  0  0  0
 19 18  1  0  0  0
 20 19  1  0  0  0
 20 21  4  0  0  0
 20 26  4  0  0  0
 25 26  4  0  0  0
 27 28  4  0  0  0
 28 29  4  0  0  0
 30 31  4  0  0  0
 32 33  4  0  0  0
  3 35  1  0  0  0
  4 36  1  0  0  0
  7 37  1  0  0  0
 11 38  1  0  0  0
 12 39  1  0  0  0
 13 40  1  0  0  0
 14 41  1  0  0  0
 15 42  1  0  0  0
 19 43  1  0  0  0
 19 44  1  0  0  0
 22 45  1  0  0  0
 23 46  1  0  0  0
 24 47  1  0  0  0
 27 48  1  0  0  0
 28 49  1  0  0  0
 31 50  1  0  0  0
 33 51  1  0  0  0
 34 52  1  0  0  0
M  END
$$$$
