5epn_ligand
  -I-interpret- 

105110  0  0  0  0  0  0  0  0999 V2000
  -15.0800  -18.4960   17.1620 C   0  0  0  0  0
  -17.3610  -20.1650   16.1510 C   0  0  0  0  0
  -16.8030  -21.9480   17.9240 C   0  0  0  0  0
  -15.3780  -24.0000   17.4630 C   0  0  0  0  0
  -14.1910  -23.9640   14.6320 C   0  0  0  0  0
  -13.1040  -23.9870   13.6290 C   0  0  0  0  0
  -12.8070  -22.8200   12.7850 C   0  0  0  0  0
  -15.3750  -14.5170   12.5870 C   0  0  0  0  0
  -14.7640  -15.3740   13.5970 C   0  0  0  0  0
  -13.7910  -14.7690   14.5530 C   0  0  0  0  0
  -13.6480  -15.4010   15.7590 C   0  0  0  0  0
  -14.4450  -16.4770   16.0290 O   0  0  0  0  0
  -13.9550  -17.3900   16.9730 C   0  0  0  0  0
  -12.9150  -18.0410   16.5620 C   0  0  0  0  0
  -13.3870  -19.3620   15.8830 C   0  0  0  0  0
  -14.9160  -19.3460   16.1930 N   0  0  0  0  0
  -15.9280  -20.1970   15.6300 C   0  0  0  0  0
  -15.6660  -20.9350   14.8030 O   0  0  0  0  0
  -17.7900  -21.4660   16.8440 C   0  0  0  0  0
  -16.6590  -23.4470   18.0120 C   0  0  0  0  0
  -15.5980  -25.0140   16.3960 C   0  0  0  0  0
  -14.3920  -25.0480   15.4520 C   0  0  0  0  0
  -12.2970  -22.7610   14.2070 C   0  0  0  0  0
  -12.6000  -21.4010   14.5690 N   0  0  0  0  0
  -13.0920  -20.9040   15.7910 C   0  0  0  0  0
  -13.2790  -21.6880   16.6650 O   0  0  0  0  0
  -11.0000  -23.3500   14.8670 C   0  0  0  0  0
  -10.6810  -24.4240   14.6450 O   0  0  0  0  0
  -10.1720  -22.6380   15.7600 N   0  0  0  0  0
   -8.8960  -23.1480   16.4860 S   0  0  0  0  0
   -8.0700  -23.7250   15.6630 O   0  0  0  0  0
   -9.2400  -24.1090   17.3070 O   0  0  0  0  0
   -8.1430  -21.9170   17.5690 C   0  0  0  0  0
   -7.0650  -21.1800   16.8230 C   0  0  0  0  0
   -6.6980  -22.2190   17.7960 C   0  0  0  0  0
  -18.3110  -19.8080   15.2260 N   0  0  0  0  0
  -18.6350  -18.4860   14.9950 C   0  0  0  0  0
  -17.9180  -17.6440   15.3790 O   0  0  0  0  0
  -19.3110  -18.4400   13.7970 O   0  0  0  0  0
  -19.8980  -17.2870   13.2560 C   0  0  0  0  0
  -20.6340  -16.4870   14.3010 C   0  0  0  0  0
  -20.8820  -17.7200   12.1860 C   0  0  0  0  0
  -18.8110  -16.4450   12.6150 C   0  0  0  0  0
  -12.8140  -14.9270   16.6260 N   0  0  0  0  0
  -12.0920  -13.8240   16.2870 C   0  0  0  0  0
  -11.1860  -13.3070   17.2220 C   0  0  0  0  0
  -10.4120  -12.1840   16.9090 C   0  0  0  0  0
   -9.5030  -11.6220   17.7860 O   0  0  0  0  0
   -9.2230  -12.2500   18.9830 C   0  0  0  0  0
  -10.5680  -11.5760   15.6680 C   0  0  0  0  0
  -11.4730  -12.0790   14.7500 C   0  0  0  0  0
  -12.2360  -13.2090   15.0890 C   0  0  0  0  0
  -13.0940  -13.7190   14.2090 N   0  0  0  0  0
  -16.0758  -18.0537   17.1337 H   0  0  0  0  0
  -14.9935  -18.9839   18.1328 H   0  0  0  0  0
  -17.3194  -19.3661   16.8914 H   0  0  0  0  0
  -17.1883  -21.6067   18.8848 H   0  0  0  0  0
  -15.8233  -21.5472   17.6638 H   0  0  0  0  0
  -14.8465  -24.4862   18.2811 H   0  0  0  0  0
  -14.8171  -23.1732   17.0272 H   0  0  0  0  0
  -15.1049  -23.8954   14.0419 H   0  0  0  0  0
  -13.9186  -23.1557   15.3106 H   0  0  0  0  0
  -13.0900  -25.0319   13.3191 H   0  0  0  0  0
  -13.3745  -22.1625   12.1264 H   0  0  0  0  0
  -12.3871  -22.6551   11.7927 H   0  0  0  0  0
  -15.9286  -13.7167   13.0781 H   0  0  0  0  0
  -14.5960  -14.0880   11.9568 H   0  0  0  0  0
  -16.0554  -15.1082   11.9741 H   0  0  0  0  0
  -14.1898  -16.1106   13.0351 H   0  0  0  0  0
  -15.5924  -15.7197   14.2153 H   0  0  0  0  0
  -13.6941  -16.8271   17.8692 H   0  0  0  0  0
  -12.2651  -18.2709   17.4063 H   0  0  0  0  0
  -12.3587  -17.4356   15.8464 H   0  0  0  0  0
  -12.6901  -19.1874   15.0633 H   0  0  0  0  0
  -17.8399  -22.2411   16.0793 H   0  0  0  0  0
  -18.7431  -21.2735   17.3366 H   0  0  0  0  0
  -17.4649  -23.8739   17.4150 H   0  0  0  0  0
  -16.6803  -23.7013   19.0717 H   0  0  0  0  0
  -16.4910  -24.7511   15.8289 H   0  0  0  0  0
  -15.7242  -25.9953   16.8533 H   0  0  0  0  0
  -13.5162  -25.0898   16.0996 H   0  0  0  0  0
  -14.5691  -25.8903   14.7833 H   0  0  0  0  0
  -12.4363  -20.7038   13.8427 H   0  0  0  0  0
  -10.4430  -21.6736   15.9521 H   0  0  0  0  0
   -8.9909  -21.6530   18.2010 H   0  0  0  0  0
   -6.7939  -20.1507   16.5883 H   0  0  0  0  0
   -6.8269  -20.9048   15.7955 H   0  0  0  0  0
   -6.0514  -23.0954   17.8390 H   0  0  0  0  0
   -6.0180  -22.3334   18.6401 H   0  0  0  0  0
  -18.7889  -20.5373   14.6967 H   0  0  0  0  0
  -21.4230  -17.0999   14.7369 H   0  0  0  0  0
  -19.9365  -16.1817   15.0810 H   0  0  0  0  0
  -21.0727  -15.6032   13.8378 H   0  0  0  0  0
  -20.3529  -18.2733   11.4101 H   0  0  0  0  0
  -21.6451  -18.3576   12.6325 H   0  0  0  0  0
  -21.3527  -16.8392   11.7492 H   0  0  0  0  0
  -18.0751  -16.1680   13.3699 H   0  0  0  0  0
  -18.3256  -17.0198   11.8263 H   0  0  0  0  0
  -19.2540  -15.5444   12.1899 H   0  0  0  0  0
  -11.0835  -13.7817   18.1979 H   0  0  0  0  0
  -10.1380  -12.3368   19.5690 H   0  0  0  0  0
   -8.8210  -13.2437   18.7852 H   0  0  0  0  0
   -8.4897  -11.6636   19.5366 H   0  0  0  0  0
   -9.9735  -10.6976   15.4168 H   0  0  0  0  0
  -11.5925  -11.6045   13.7760 H   0  0  0  0  0
  1 13  1  0  0  0
 16  1  1  0  0  0
  2 17  1  0  0  0
 19  2  1  0  0  0
  2 36  1  0  0  0
  3 19  1  0  0  0
 20  3  1  0  0  0
  4 20  1  0  0  0
 21  4  1  0  0  0
  5  6  1  0  0  0
 22  5  1  0  0  0
  6  7  1  0  0  0
  6 23  1  0  0  0
 23  7  1  0  0  0
  9  8  1  0  0  0
 10  9  1  0  0  0
 11 10  4  0  0  0
 10 53  4  0  0  0
 12 11  1  0  0  0
 11 44  4  0  0  0
 13 12  1  0  0  0
 14 13  1  0  0  0
 15 14  1  0  0  0
 16 15  1  0  0  0
 15 25  1  0  0  0
 17 16  1  0  0  0
 17 18  2  0  0  0
 21 22  1  0  0  0
 23 24  1  0  0  0
 23 27  1  0  0  0
 24 25  1  0  0  0
 25 26  2  0  0  0
 27 28  2  0  0  0
 27 29  1  0  0  0
 29 30  1  0  0  0
 30 31  2  0  0  0
 30 32  2  0  0  0
 30 33  1  0  0  0
 33 34  1  0  0  0
 33 35  1  0  0  0
 34 35  1  0  0  0
 36 37  1  0  0  0
 37 38  2  0  0  0
 37 39  1  0  0  0
 39 40  1  0  0  0
 40 41  1  0  0  0
 40 42  1  0  0  0
 40 43  1  0  0  0
 44 45  4  0  0  0
 45 46  4  0  0  0
 45 52  4  0  0  0
 46 47  4  0  0  0
 47 48  1  0  0  0
 47 50  4  0  0  0
 48 49  1  0  0  0
 50 51  4  0  0  0
 51 52  4  0  0  0
 52 53  4  0  0  0
  1 54  1  0  0  0
  1 55  1  0  0  0
  2 56  1  0  0  0
  3 57  1  0  0  0
  3 58  1  0  0  0
  4 59  1  0  0  0
  4 60  1  0  0  0
  5 61  1  0  0  0
  5 62  1  0  0  0
  6 63  1  0  0  0
  7 64  1  0  0  0
  7 65  1  0  0  0
  8 66  1  0  0  0
  8 67  1  0  0  0
  8 68  1  0  0  0
  9 69  1  0  0  0
  9 70  1  0  0  0
 13 71  1  0  0  0
 14 72  1  0  0  0
 14 73  1  0  0  0
 15 74  1  0  0  0
 19 75  1  0  0  0
 19 76  1  0  0  0
 20 77  1  0  0  0
 20 78  1  0  0  0
 21 79  1  0  0  0
 21 80  1  0  0  0
 22 81  1  0  0  0
 22 82  1  0  0  0
 24 83  1  0  0  0
 29 84  1  0  0  0
 33 85  1  0  0  0
 34 86  1  0  0  0
 34 87  1  0  0  0
 35 88  1  0  0  0
 35 89  1  0  0  0
 36 90  1  0  0  0
 41 91  1  0  0  0
 41 92  1  0  0  0
 41 93  1  0  0  0
 42 94  1  0  0  0
 42 95  1  0  0  0
 42 96  1  0  0  0
 43 97  1  0  0  0
 43 98  1  0  0  0
 43 99  1  0  0  0
 46100  1  0  0  0
 49101  1  0  0  0
 49102  1  0  0  0
 49103  1  0  0  0
 50104  1  0  0  0
 51105  1  0  0  0
M  END
$$$$
