4cy1_ligand
  -I-interpret- 

213214  0  0  0  0  0  0  0  0999 V2000
   20.5600  -25.0320  -21.9820 N   0  3  0  0  0
   20.7130  -24.5290  -23.3790 C   0  0  0  0  0
   19.5700  -24.8250  -24.3400 C   0  0  0  0  0
   19.4800  -24.2050  -25.4000 O   0  0  0  0  0
   18.7010  -25.7710  -23.9910 N   0  0  0  0  0
   17.6000  -26.1650  -24.8680 C   0  0  0  0  0
   16.3630  -25.2770  -24.7380 C   0  0  0  0  0
   15.4570  -25.3610  -25.5660 O   0  0  0  0  0
   17.1660  -27.6190  -24.6010 C   0  0  0  0  0
   16.6540  -27.7370  -23.2680 O   0  0  0  0  0
   18.3370  -28.5780  -24.7940 C   0  0  0  0  0
   16.3110  -24.4360  -23.7080 N   0  0  0  0  0
   15.1210  -23.6190  -23.4650 C   0  0  0  0  0
   15.1660  -22.3170  -24.2670 C   0  0  0  0  0
   15.3170  -21.2250  -23.7130 O   0  0  0  0  0
   14.9460  -23.3540  -21.9690 C   0  0  0  0  0
   14.5780  -24.8530  -21.0300 S   0  0  0  0  0
   15.0090  -22.4620  -25.5810 N   0  0  0  0  0
   15.0890  -21.3500  -26.5260 C   0  0  0  0  0
   13.9180  -21.3990  -27.5050 C   0  0  0  0  0
   13.5130  -22.4770  -27.9420 O   0  0  0  0  0
   16.4220  -21.3650  -27.3140 C   0  0  0  0  0
   17.5900  -21.0760  -26.3830 C   0  0  0  0  0
   16.6420  -22.6930  -28.0330 C   0  0  0  0  0
   13.3810  -20.2290  -27.8400 N   0  0  0  0  0
   12.2850  -20.1140  -28.8010 C   0  0  0  0  0
   12.4050  -18.8050  -29.5680 C   0  0  0  0  0
   12.5680  -17.7430  -28.9690 O   0  0  0  0  0
   10.9460  -20.1900  -28.0940 C   0  0  0  0  0
   12.3030  -18.8840  -30.8920 N   0  0  0  0  0
   12.5500  -17.7320  -31.7560 C   0  0  0  0  0
   11.6760  -16.5230  -31.4190 C   0  0  0  0  0
   12.1590  -15.3920  -31.4380 O   0  0  0  0  0
   12.3800  -18.1230  -33.2150 C   0  0  0  0  0
   10.4040  -16.7500  -31.0920 N   0  0  0  0  0
    9.4930  -15.6310  -30.8180 C   0  0  0  0  0
    9.9030  -14.8170  -29.5880 C   0  0  0  0  0
    9.5810  -13.6330  -29.4980 O   0  0  0  0  0
    8.0430  -16.1010  -30.6630 C   0  0  0  0  0
    7.0340  -14.9560  -30.6870 C   0  0  0  0  0
    5.6090  -15.4330  -30.4920 C   0  0  0  0  0
    5.1500  -16.2830  -31.5880 N   0  0  0  0  0
    4.5530  -15.8580  -32.7010 C   0  0  0  0  0
    4.3280  -14.5630  -32.9150 N   0  0  0  0  0
    4.1790  -16.7450  -33.6150 N   0  0  0  0  0
   10.6160  -15.4420  -28.6520 N   0  0  0  0  0
   11.0010  -14.7680  -27.4070 C   0  0  0  0  0
   12.3200  -13.9950  -27.5240 C   0  0  0  0  0
   12.7490  -13.3600  -26.5580 O   0  0  0  0  0
   11.0800  -15.7660  -26.2300 C   0  0  0  0  0
   12.1080  -16.7330  -26.4760 O   0  0  0  0  0
    9.7400  -16.4740  -26.0350 C   0  0  0  0  0
   12.9450  -14.0410  -28.7020 N   0  0  0  0  0
   14.1580  -13.2770  -28.9960 C   0  0  0  0  0
   13.8280  -12.1380  -29.9610 C   0  0  0  0  0
   12.9870  -12.3050  -30.8420 O   0  0  0  0  0
   15.2100  -14.1830  -29.6360 C   0  0  0  0  0
   15.4950  -15.4660  -28.8690 C   0  0  0  0  0
   16.7310  -16.1750  -29.4070 C   0  0  0  0  0
   16.5030  -16.8380  -30.6950 N   0  0  0  0  0
   16.0050  -18.0670  -30.8490 C   0  0  0  0  0
   15.6430  -18.7980  -29.7970 N   0  0  0  0  0
   15.8540  -18.5690  -32.0710 N   0  0  0  0  0
   14.4980  -10.9800  -29.8130 N   0  0  0  0  0
   14.2120   -9.8330  -30.6770 C   0  0  0  0  0
   14.7630  -10.0120  -32.0910 C   0  0  0  0  0
   15.7020  -10.7840  -32.2900 O   0  0  0  0  0
   14.9340   -8.6840  -29.9720 C   0  0  0  0  0
   16.0850   -9.3380  -29.2900 C   0  0  0  0  0
   15.5950  -10.6960  -28.8680 C   0  0  0  0  0
   14.1800   -9.3100  -33.0600 N   0  0  0  0  0
   14.7070   -9.3310  -34.4280 C   0  0  0  0  0
   16.0960   -8.7010  -34.4540 C   0  0  0  0  0
   16.3620   -7.7360  -33.7360 O   0  0  0  0  0
   13.8030   -8.6040  -35.4550 C   0  0  0  0  0
   12.4510   -9.2920  -35.5690 C   0  0  0  0  0
   13.6480   -7.1230  -35.1270 C   0  0  0  0  0
   16.9740   -9.2610  -35.2820 N   0  0  0  0  0
   18.3450   -8.7840  -35.4000 C   0  0  0  0  0
   18.5450   -8.1330  -36.7660 C   0  0  0  0  0
   18.9580   -8.7860  -37.7270 O   0  0  0  0  0
   19.3290   -9.9410  -35.1890 C   0  0  0  0  0
   19.1330  -10.7690  -33.9120 C   0  0  0  0  0
   20.2050  -11.8410  -33.8060 C   0  0  0  0  0
   19.1420   -9.8930  -32.6690 C   0  0  0  0  0
   18.2290   -6.8420  -36.8410 N   0  0  0  0  0
   18.3820   -6.0640  -38.0690 C   0  0  0  0  0
   19.4610   -5.0020  -37.8800 C   0  0  0  0  0
   19.2930   -4.0700  -37.0930 O   0  0  0  0  0
   17.0570   -5.4030  -38.4520 C   0  0  0  0  0
   16.6070   -4.5290  -37.4320 O   0  0  0  0  0
   20.5660   -5.1540  -38.6050 N   0  0  0  0  0
   21.7060   -4.2470  -38.4950 C   0  0  0  0  0
   22.5830   -4.3490  -39.7360 C   0  0  0  0  0
   22.3720   -5.2190  -40.5810 O   0  0  0  0  0
   22.5310   -4.5800  -37.2500 C   0  0  0  0  0
   23.0450   -6.0030  -37.2290 C   0  0  0  0  0
   22.2480   -7.0430  -36.7580 C   0  0  0  0  0
   24.3220   -6.3120  -37.6880 C   0  0  0  0  0
   22.7090   -8.3470  -36.7420 C   0  0  0  0  0
   24.7910   -7.6160  -37.6770 C   0  0  0  0  0
   23.9810   -8.6280  -37.2010 C   0  0  0  0  0
   24.4390   -9.9240  -37.1870 O   0  0  0  0  0
   23.5240   -3.5770  -39.9160 O   0  0  0  0  0
   21.3828  -24.7743  -21.4371 H   0  0  0  0  0
   19.7286  -24.6168  -21.5616 H   0  0  0  0  0
   20.4644  -26.0474  -21.9961 H   0  0  0  0  0
   21.5876  -25.0357  -23.7869 H   0  0  0  0  0
   20.7685  -23.4431  -23.3032 H   0  0  0  0  0
   18.8062  -26.2331  -23.0878 H   0  0  0  0  0
   17.9972  -26.0555  -25.8771 H   0  0  0  0  0
   16.3842  -27.8821  -25.3135 H   0  0  0  0  0
   15.9181  -27.1311  -23.1543 H   0  0  0  0  0
   19.1257  -28.3342  -24.0823 H   0  0  0  0  0
   17.9987  -29.6007  -24.6272 H   0  0  0  0  0
   18.7201  -28.4818  -25.8099 H   0  0  0  0  0
   17.1108  -24.3597  -23.0796 H   0  0  0  0  0
   14.2501  -24.1767  -23.8095 H   0  0  0  0  0
   14.1063  -22.6697  -21.8474 H   0  0  0  0  0
   15.8829  -22.9451  -21.5908 H   0  0  0  0  0
   14.4398  -24.5456  -19.7434 H   0  0  0  0  0
   14.8236  -23.3960  -25.9466 H   0  0  0  0  0
   15.0439  -20.4273  -25.9474 H   0  0  0  0  0
   16.3624  -20.5833  -28.0713 H   0  0  0  0  0
   17.4562  -20.0945  -25.9282 H   0  0  0  0  0
   17.6285  -21.8369  -25.6035 H   0  0  0  0  0
   18.5192  -21.0903  -26.9527 H   0  0  0  0  0
   16.6676  -23.5008  -27.3016 H   0  0  0  0  0
   15.8267  -22.8634  -28.7361 H   0  0  0  0  0
   17.5883  -22.6599  -28.5730 H   0  0  0  0  0
   13.7477  -19.3798  -27.4102 H   0  0  0  0  0
   12.3472  -20.9443  -29.5044 H   0  0  0  0  0
   10.8638  -21.1455  -27.5760 H   0  0  0  0  0
   10.8709  -19.3765  -27.3724 H   0  0  0  0  0
   10.1441  -20.1024  -28.8270 H   0  0  0  0  0
   12.0448  -19.7749  -31.3164 H   0  0  0  0  0
   13.5800  -17.4236  -31.5770 H   0  0  0  0  0
   13.0882  -18.9136  -33.4628 H   0  0  0  0  0
   11.3631  -18.4801  -33.3780 H   0  0  0  0  0
   12.5671  -17.2547  -33.8467 H   0  0  0  0  0
   10.0605  -17.7085  -31.0316 H   0  0  0  0  0
    9.5637  -14.9796  -31.6891 H   0  0  0  0  0
    7.9579  -16.5961  -29.6957 H   0  0  0  0  0
    7.8171  -16.7580  -31.5029 H   0  0  0  0  0
    7.0963  -14.4736  -31.6625 H   0  0  0  0  0
    7.2761  -14.2776  -29.8689 H   0  0  0  0  0
    4.9628  -14.5561  -30.4525 H   0  0  0  0  0
    5.5727  -16.0188  -29.5735 H   0  0  0  0  0
    5.2992  -17.2876  -31.4932 H   0  0  0  0  0
    3.8718  -14.2600  -33.7755 H   0  0  0  0  0
    4.6119  -13.8741  -32.2184 H   0  0  0  0  0
    4.3495  -17.7388  -33.4610 H   0  0  0  0  0
   10.9003  -16.4097  -28.8042 H   0  0  0  0  0
   10.2146  -14.0396  -27.2093 H   0  0  0  0  0
   11.3171  -15.2112  -25.3222 H   0  0  0  0  0
   12.1497  -17.3482  -25.7402 H   0  0  0  0  0
    8.9678  -15.7350  -25.8212 H   0  0  0  0  0
    9.4824  -17.0181  -26.9437 H   0  0  0  0  0
    9.8173  -17.1722  -25.2015 H   0  0  0  0  0
   12.5584  -14.6378  -29.4333 H   0  0  0  0  0
   14.5497  -12.8709  -28.0634 H   0  0  0  0  0
   16.1411  -13.6170  -29.6650 H   0  0  0  0  0
   14.8248  -14.4759  -30.6127 H   0  0  0  0  0
   14.6392  -16.1319  -28.9799 H   0  0  0  0  0
   15.6704  -15.2117  -27.8237 H   0  0  0  0  0
   17.0112  -16.9427  -28.6857 H   0  0  0  0  0
   17.5048  -15.4219  -29.5559 H   0  0  0  0  0
   16.7439  -16.3193  -31.5396 H   0  0  0  0  0
   15.2551  -19.7314  -29.9337 H   0  0  0  0  0
   15.7536  -18.4247  -28.8542 H   0  0  0  0  0
   16.1183  -18.0155  -32.8860 H   0  0  0  0  0
   13.1411   -9.6776  -30.8080 H   0  0  0  0  0
   14.2849   -8.1595  -29.2708 H   0  0  0  0  0
   15.2552   -7.9108  -30.6699 H   0  0  0  0  0
   16.4214   -8.7544  -28.4331 H   0  0  0  0  0
   16.9462   -9.4162  -29.9536 H   0  0  0  0  0
   16.3803  -11.4511  -28.9028 H   0  0  0  0  0
   15.2650  -10.7152  -27.8293 H   0  0  0  0  0
   13.3547   -8.7494  -32.8478 H   0  0  0  0  0
   14.7448  -10.3794  -34.7240 H   0  0  0  0  0
   14.2949   -8.6642  -36.4258 H   0  0  0  0  0
   12.5953  -10.3221  -35.8949 H   0  0  0  0  0
   11.9570   -9.2828  -34.5974 H   0  0  0  0  0
   11.8354   -8.7624  -36.2961 H   0  0  0  0  0
   13.1989   -7.0159  -34.1396 H   0  0  0  0  0
   14.6279   -6.6458  -35.1355 H   0  0  0  0  0
   13.0068   -6.6523  -35.8722 H   0  0  0  0  0
   16.6767  -10.0516  -35.8538 H   0  0  0  0  0
   18.5371   -8.0373  -34.6296 H   0  0  0  0  0
   20.3184   -9.4902  -35.1118 H   0  0  0  0  0
   19.1783  -10.6261  -36.0233 H   0  0  0  0  0
   18.1555  -11.2470  -33.9760 H   0  0  0  0  0
   20.1434  -12.5014  -34.6710 H   0  0  0  0  0
   21.1872  -11.3692  -33.7767 H   0  0  0  0  0
   20.0506  -12.4186  -32.8946 H   0  0  0  0  0
   20.0976   -9.3733  -32.5992 H   0  0  0  0  0
   18.3344   -9.1639  -32.7340 H   0  0  0  0  0
   19.0005  -10.5161  -31.7859 H   0  0  0  0  0
   17.8658   -6.3774  -36.0088 H   0  0  0  0  0
   18.6795   -6.7362  -38.8738 H   0  0  0  0  0
   16.3088   -6.1821  -38.5978 H   0  0  0  0  0
   17.2072   -4.8253  -39.3640 H   0  0  0  0  0
   15.7759   -4.1292  -37.6984 H   0  0  0  0  0
   20.6193   -5.9325  -39.2619 H   0  0  0  0  0
   21.3293   -3.2278  -38.4089 H   0  0  0  0  0
   21.6144   -5.7451  -40.3148 H   0  0  0  0  0
   21.8819   -4.4534  -36.3835 H   0  0  0  0  0
   23.3975   -3.9187  -37.2448 H   0  0  0  0  0
   21.2432   -6.8258  -36.3956 H   0  0  0  0  0
   24.9642   -5.5148  -38.0625 H   0  0  0  0  0
   22.0717   -9.1488  -36.3690 H   0  0  0  0  0
   25.7931   -7.8414  -38.0418 H   0  0  0  0  0
   25.3332   -9.9500  -37.5354 H   0  0  0  0  0
  1  2  1  0  0  0
  2  3  1  0  0  0
  3  4  2  0  0  0
  3  5  1  0  0  0
  5  6  1  0  0  0
  6  7  1  0  0  0
  6  9  1  0  0  0
  7  8  2  0  0  0
  7 12  1  0  0  0
  9 10  1  0  0  0
  9 11  1  0  0  0
 12 13  1  0  0  0
 13 14  1  0  0  0
 13 16  1  0  0  0
 14 15  2  0  0  0
 14 18  1  0  0  0
 16 17  1  0  0  0
 18 19  1  0  0  0
 19 20  1  0  0  0
 19 22  1  0  0  0
 20 21  2  0  0  0
 20 25  1  0  0  0
 22 23  1  0  0  0
 22 24  1  0  0  0
 25 26  1  0  0  0
 26 27  1  0  0  0
 26 29  1  0  0  0
 27 28  2  0  0  0
 27 30  1  0  0  0
 30 31  1  0  0  0
 31 32  1  0  0  0
 31 34  1  0  0  0
 32 33  2  0  0  0
 32 35  1  0  0  0
 35 36  1  0  0  0
 36 37  1  0  0  0
 36 39  1  0  0  0
 37 38  2  0  0  0
 37 46  1  0  0  0
 39 40  1  0  0  0
 40 41  1  0  0  0
 41 42  1  0  0  0
 42 43  1  0  0  0
 43 44  1  0  0  0
 43 45  2  0  0  0
 46 47  1  0  0  0
 47 48  1  0  0  0
 47 50  1  0  0  0
 48 49  2  0  0  0
 48 53  1  0  0  0
 50 51  1  0  0  0
 50 52  1  0  0  0
 53 54  1  0  0  0
 54 55  1  0  0  0
 54 57  1  0  0  0
 55 56  2  0  0  0
 55 64  1  0  0  0
 57 58  1  0  0  0
 58 59  1  0  0  0
 59 60  1  0  0  0
 60 61  1  0  0  0
 61 62  1  0  0  0
 61 63  2  0  0  0
 64 65  1  0  0  0
 64 70  1  0  0  0
 65 66  1  0  0  0
 65 68  1  0  0  0
 66 67  2  0  0  0
 66 71  1  0  0  0
 68 69  1  0  0  0
 69 70  1  0  0  0
 71 72  1  0  0  0
 72 73  1  0  0  0
 72 75  1  0  0  0
 73 74  2  0  0  0
 73 78  1  0  0  0
 75 76  1  0  0  0
 75 77  1  0  0  0
 78 79  1  0  0  0
 79 80  1  0  0  0
 79 82  1  0  0  0
 80 81  2  0  0  0
 80 86  1  0  0  0
 82 83  1  0  0  0
 83 84  1  0  0  0
 83 85  1  0  0  0
 86 87  1  0  0  0
 87 88  1  0  0  0
 87 90  1  0  0  0
 88 89  2  0  0  0
 88 92  1  0  0  0
 90 91  1  0  0  0
 92 93  1  0  0  0
 93 94  1  0  0  0
 93 96  1  0  0  0
 94 95  1  0  0  0
 94104  2  0  0  0
 96 97  1  0  0  0
 97 98  4  0  0  0
 97 99  4  0  0  0
 98100  4  0  0  0
 99101  4  0  0  0
100102  4  0  0  0
101102  4  0  0  0
102103  1  0  0  0
  1105  1  0  0  0
  1106  1  0  0  0
  1107  1  0  0  0
  2108  1  0  0  0
  2109  1  0  0  0
  5110  1  0  0  0
  6111  1  0  0  0
  9112  1  0  0  0
 10113  1  0  0  0
 11114  1  0  0  0
 11115  1  0  0  0
 11116  1  0  0  0
 12117  1  0  0  0
 13118  1  0  0  0
 16119  1  0  0  0
 16120  1  0  0  0
 17121  1  0  0  0
 18122  1  0  0  0
 19123  1  0  0  0
 22124  1  0  0  0
 23125  1  0  0  0
 23126  1  0  0  0
 23127  1  0  0  0
 24128  1  0  0  0
 24129  1  0  0  0
 24130  1  0  0  0
 25131  1  0  0  0
 26132  1  0  0  0
 29133  1  0  0  0
 29134  1  0  0  0
 29135  1  0  0  0
 30136  1  0  0  0
 31137  1  0  0  0
 34138  1  0  0  0
 34139  1  0  0  0
 34140  1  0  0  0
 35141  1  0  0  0
 36142  1  0  0  0
 39143  1  0  0  0
 39144  1  0  0  0
 40145  1  0  0  0
 40146  1  0  0  0
 41147  1  0  0  0
 41148  1  0  0  0
 42149  1  0  0  0
 44150  1  0  0  0
 44151  1  0  0  0
 45152  1  0  0  0
 46153  1  0  0  0
 47154  1  0  0  0
 50155  1  0  0  0
 51156  1  0  0  0
 52157  1  0  0  0
 52158  1  0  0  0
 52159  1  0  0  0
 53160  1  0  0  0
 54161  1  0  0  0
 57162  1  0  0  0
 57163  1  0  0  0
 58164  1  0  0  0
 58165  1  0  0  0
 59166  1  0  0  0
 59167  1  0  0  0
 60168  1  0  0  0
 62169  1  0  0  0
 62170  1  0  0  0
 63171  1  0  0  0
 65172  1  0  0  0
 68173  1  0  0  0
 68174  1  0  0  0
 69175  1  0  0  0
 69176  1  0  0  0
 70177  1  0  0  0
 70178  1  0  0  0
 71179  1  0  0  0
 72180  1  0  0  0
 75181  1  0  0  0
 76182  1  0  0  0
 76183  1  0  0  0
 76184  1  0  0  0
 77185  1  0  0  0
 77186  1  0  0  0
 77187  1  0  0  0
 78188  1  0  0  0
 79189  1  0  0  0
 82190  1  0  0  0
 82191  1  0  0  0
 83192  1  0  0  0
 84193  1  0  0  0
 84194  1  0  0  0
 84195  1  0  0  0
 85196  1  0  0  0
 85197  1  0  0  0
 85198  1  0  0  0
 86199  1  0  0  0
 87200  1  0  0  0
 90201  1  0  0  0
 90202  1  0  0  0
 91203  1  0  0  0
 92204  1  0  0  0
 93205  1  0  0  0
 95206  1  0  0  0
 96207  1  0  0  0
 96208  1  0  0  0
 98209  1  0  0  0
 99210  1  0  0  0
100211  1  0  0  0
101212  1  0  0  0
103213  1  0  0  0
M  END
$$$$
