### 
### Created by X-TOOL on Mon Sep 10 21:13:17 2018
### 

@<TRIPOS>MOLECULE
4cy1_ligand
  214   215     1     0     0
SMALL
GAST_HUCK


@<TRIPOS>ATOM
      1 N          20.5600  -25.0320  -21.9820 N.4       1 GLY         0.2357
      2 CA         20.7130  -24.5290  -23.3790 C.3       1 GLY         0.0545
      3 C          19.5700  -24.8250  -24.3400 C.2       1 GLY         0.2237
      4 O          19.4800  -24.2050  -25.4000 O.2       1 GLY        -0.3910
      5 N          18.7010  -25.7710  -23.9910 N.am      1 THR        -0.2589
      6 CA         17.6000  -26.1650  -24.8680 C.3       1 THR         0.1566
      7 C          16.3630  -25.2770  -24.7380 C.2       1 THR         0.2065
      8 O          15.4570  -25.3610  -25.5660 O.2       1 THR        -0.3943
      9 CB         17.1660  -27.6190  -24.6010 C.3       1 THR         0.0924
     10 OG1        16.6540  -27.7370  -23.2680 O.3       1 THR        -0.3874
     11 CG2        18.3370  -28.5780  -24.7940 C.3       1 THR        -0.0346
     12 N          16.3110  -24.4360  -23.7080 N.am      1 CYS        -0.2628
     13 CA         15.1210  -23.6190  -23.4650 C.3       1 CYS         0.1396
     14 C          15.1660  -22.3170  -24.2670 C.2       1 CYS         0.2047
     15 O          15.3170  -21.2250  -23.7130 O.2       1 CYS        -0.3944
     16 CB         14.9460  -23.3540  -21.9690 C.3       1 CYS         0.0311
     17 SG         14.5780  -24.8530  -21.0300 S.3       1 CYS        -0.1735
     18 N          15.0090  -22.4620  -25.5810 N.am      1 VAL        -0.2634
     19 CA         15.0890  -21.3500  -26.5260 C.3       1 VAL         0.1332
     20 C          13.9180  -21.3990  -27.5050 C.2       1 VAL         0.2041
     21 O          13.5130  -22.4770  -27.9420 O.2       1 VAL        -0.3944
     22 CB         16.4220  -21.3650  -27.3140 C.3       1 VAL        -0.0063
     23 CG1        17.5900  -21.0760  -26.3830 C.3       1 VAL        -0.0584
     24 CG2        16.6420  -22.6930  -28.0330 C.3       1 VAL        -0.0584
     25 N          13.3810  -20.2290  -27.8400 N.am      1 ALA        -0.2640
     26 CA         12.2850  -20.1140  -28.8010 C.3       1 ALA         0.1282
     27 C          12.4050  -18.8050  -29.5680 C.2       1 ALA         0.2036
     28 O          12.5680  -17.7430  -28.9690 O.2       1 ALA        -0.3944
     29 CB         10.9460  -20.1900  -28.0940 C.3       1 ALA        -0.0244
     30 N          12.3030  -18.8840  -30.8920 N.am      1 ALA        -0.2640
     31 CA         12.5500  -17.7320  -31.7560 C.3       1 ALA         0.1282
     32 C          11.6760  -16.5230  -31.4190 C.2       1 ALA         0.2036
     33 O          12.1590  -15.3920  -31.4380 O.2       1 ALA        -0.3944
     34 CB         12.3800  -18.1230  -33.2150 C.3       1 ALA        -0.0244
     35 N          10.4040  -16.7500  -31.0920 N.am      1 ARG        -0.2637
     36 CA          9.4930  -15.6310  -30.8180 C.3       1 ARG         0.1311
     37 C           9.9030  -14.8170  -29.5880 C.2       1 ARG         0.2040
     38 O           9.5810  -13.6330  -29.4980 O.2       1 ARG        -0.3944
     39 CB          8.0430  -16.1010  -30.6630 C.3       1 ARG        -0.0092
     40 CG          7.0340  -14.9560  -30.6870 C.3       1 ARG        -0.0156
     41 CD          5.6090  -15.4330  -30.4920 C.3       1 ARG         0.0627
     42 NE          5.1500  -16.2830  -31.5880 N.pl3     1 ARG        -0.2723
     43 CZ          4.5530  -15.8580  -32.7010 C.cat     1 ARG         0.2882
     44 NH1         4.3280  -14.5630  -32.9150 N.pl3     1 ARG        -0.2849
     45 NH2         4.1790  -16.7450  -33.6150 N.pl3     1 ARG        -0.2849
     46 N          10.6160  -15.4420  -28.6520 N.am      1 THR        -0.2613
     47 CA         11.0010  -14.7680  -27.4070 C.3       1 THR         0.1565
     48 C          12.3200  -13.9950  -27.5240 C.2       1 THR         0.2065
     49 O          12.7490  -13.3600  -26.5580 O.2       1 THR        -0.3943
     50 CB         11.0800  -15.7660  -26.2300 C.3       1 THR         0.0924
     51 OG1        12.1080  -16.7330  -26.4760 O.3       1 THR        -0.3874
     52 CG2         9.7400  -16.4740  -26.0350 C.3       1 THR        -0.0346
     53 N          12.9450  -14.0410  -28.7020 N.am      1 ARG        -0.2636
     54 CA         14.1580  -13.2770  -28.9960 C.3       1 ARG         0.1313
     55 C          13.8280  -12.1380  -29.9610 C.2       1 ARG         0.2064
     56 O          12.9870  -12.3050  -30.8420 O.2       1 ARG        -0.3942
     57 CB         15.2100  -14.1830  -29.6360 C.3       1 ARG        -0.0092
     58 CG         15.4950  -15.4660  -28.8690 C.3       1 ARG        -0.0156
     59 CD         16.7310  -16.1750  -29.4070 C.3       1 ARG         0.0627
     60 NE         16.5030  -16.8380  -30.6950 N.pl3     1 ARG        -0.2723
     61 CZ         16.0050  -18.0670  -30.8490 C.cat     1 ARG         0.2882
     62 NH1        15.6430  -18.7980  -29.7970 N.pl3     1 ARG        -0.2849
     63 NH2        15.8540  -18.5690  -32.0710 N.pl3     1 ARG        -0.2849
     64 N          14.4980  -10.9800  -29.8130 N.am      1 PRO        -0.2498
     65 CA         14.2120   -9.8330  -30.6770 C.3       1 PRO         0.1338
     66 C          14.7630  -10.0120  -32.0910 C.2       1 PRO         0.2041
     67 O          15.7020  -10.7840  -32.2900 O.2       1 PRO        -0.3944
     68 CB         14.9340   -8.6840  -29.9720 C.3       1 PRO        -0.0104
     69 CG         16.0850   -9.3380  -29.2900 C.3       1 PRO        -0.0281
     70 CD         15.5950  -10.6960  -28.8680 C.3       1 PRO         0.0369
     71 N          14.1800   -9.3100  -33.0600 N.am      1 VAL        -0.2635
     72 CA         14.7070   -9.3310  -34.4280 C.3       1 VAL         0.1332
     73 C          16.0960   -8.7010  -34.4540 C.2       1 VAL         0.2041
     74 O          16.3620   -7.7360  -33.7360 O.2       1 VAL        -0.3944
     75 CB         13.8030   -8.6040  -35.4550 C.3       1 VAL        -0.0063
     76 CG1        12.4510   -9.2920  -35.5690 C.3       1 VAL        -0.0584
     77 CG2        13.6480   -7.1230  -35.1270 C.3       1 VAL        -0.0584
     78 N          16.9740   -9.2610  -35.2820 N.am      1 LEU        -0.2637
     79 CA         18.3450   -8.7840  -35.4000 C.3       1 LEU         0.1312
     80 C          18.5450   -8.1330  -36.7660 C.2       1 LEU         0.2040
     81 O          18.9580   -8.7860  -37.7270 O.2       1 LEU        -0.3944
     82 CB         19.3290   -9.9410  -35.1890 C.3       1 LEU        -0.0101
     83 CG         19.1330  -10.7690  -33.9120 C.3       1 LEU        -0.0425
     84 CD1        20.2050  -11.8410  -33.8060 C.3       1 LEU        -0.0625
     85 CD2        19.1420   -9.8930  -32.6690 C.3       1 LEU        -0.0625
     86 N          18.2290   -6.8420  -36.8410 N.am      1 SER        -0.2616
     87 CA         18.3820   -6.0640  -38.0690 C.3       1 SER         0.1539
     88 C          19.4610   -5.0020  -37.8800 C.2       1 SER         0.2057
     89 O          19.2930   -4.0700  -37.0930 O.2       1 SER        -0.3943
     90 CB         17.0570   -5.4030  -38.4520 C.3       1 SER         0.0843
     91 OG         16.6070   -4.5290  -37.4320 O.3       1 SER        -0.3903
     92 N          20.5660   -5.1540  -38.6050 N.am      1 TYR        -0.2678
     93 CA         21.7060   -4.2470  -38.4950 C.3       1 TYR         0.1025
     94 C          22.5830   -4.3490  -39.7360 C.2       1 TYR         0.0619
     95 O          22.3720   -5.2190  -40.5810 O.co2     1 TYR        -0.5665
     96 CB         22.5310   -4.5800  -37.2500 C.3       1 TYR         0.0108
     97 CG         23.0450   -6.0030  -37.2290 C.ar      1 TYR        -0.0499
     98 CD1        22.2480   -7.0430  -36.7580 C.ar      1 TYR        -0.0686
     99 CD2        24.3220   -6.3120  -37.6880 C.ar      1 TYR        -0.0686
    100 CE1        22.7090   -8.3470  -36.7420 C.ar      1 TYR        -0.0398
    101 CE2        24.7910   -7.6160  -37.6770 C.ar      1 TYR        -0.0398
    102 CZ         23.9810   -8.6280  -37.2010 C.ar      1 TYR         0.0805
    103 OH         24.4390   -9.9240  -37.1870 O.3       1 TYR        -0.3376
    104 OXT        23.5240   -3.5770  -39.9160 O.co2     1 TYR        -0.5665
    105 H          21.3727  -24.7779  -21.4425 H         1 GLY         0.2012
    106 H          20.4655  -26.0355  -21.9946 H         1 GLY         0.2012
    107 H          19.7386  -24.6223  -21.5654 H         1 GLY         0.2012
    108 H          21.6255  -24.9788  -23.7974 H         1 GLY         0.1061
    109 H          20.8323  -23.4366  -23.3290 H         1 GLY         0.1061
    110 H          18.8041  -26.2241  -23.1055 H         1 THR         0.1885
    111 H          17.9634  -26.0933  -25.9037 H         1 THR         0.0826
    112 H          16.3708  -27.8860  -25.3126 H         1 THR         0.0639
    113 H          16.3885  -28.6354  -23.1103 H         1 THR         0.2101
    114 H          18.0036  -29.6078  -24.5983 H         1 THR         0.0257
    115 H          19.1451  -28.3153  -24.0955 H         1 THR         0.0257
    116 H          18.7064  -28.5024  -25.8273 H         1 THR         0.0257
    117 H          17.0951  -24.3612  -23.0919 H         1 CYS         0.1884
    118 H          14.2458  -24.1902  -23.8082 H         1 CYS         0.0808
    119 H          14.1186  -22.6421  -21.8327 H         1 CYS         0.0422
    120 H          15.8759  -22.9145  -21.5789 H         1 CYS         0.0422
    121 H          14.4733  -24.6200  -20.0549 H         1 CYS         0.1019
    122 H          14.8272  -23.3777  -25.9394 H         1 VAL         0.1883
    123 H          15.0327  -20.4103  -25.9570 H         1 VAL         0.0802
    124 H          16.3780  -20.5695  -28.0724 H         1 VAL         0.0343
    125 H          18.5284  -21.0901  -26.9568 H         1 VAL         0.0234
    126 H          17.6300  -21.8433  -25.5958 H         1 VAL         0.0234
    127 H          17.4562  -20.0857  -25.9233 H         1 VAL         0.0234
    128 H          15.7926  -22.8923  -28.7030 H         1 VAL         0.0234
    129 H          16.7223  -23.5022  -27.2922 H         1 VAL         0.0234
    130 H          17.5695  -22.6418  -28.6221 H         1 VAL         0.0234
    131 H          13.7405  -19.3964  -27.4186 H         1 ALA         0.1883
    132 H          12.3527  -20.9487  -29.5142 H         1 ALA         0.0797
    133 H          10.1358  -20.1017  -28.8328 H         1 ALA         0.0277
    134 H          10.8689  -19.3695  -27.3655 H         1 ALA         0.0277
    135 H          10.8617  -21.1540  -27.5709 H         1 ALA         0.0277
    136 H          12.0499  -19.7574  -31.3081 H         1 ALA         0.1883
    137 H          13.5971  -17.4295  -31.6072 H         1 ALA         0.0797
    138 H          12.5686  -17.2474  -33.8536 H         1 ALA         0.0277
    139 H          11.3541  -18.4836  -33.3809 H         1 ALA         0.0277
    140 H          13.0943  -18.9209  -33.4664 H         1 ALA         0.0277
    141 H          10.0672  -17.6897  -31.0327 H         1 ARG         0.1883
    142 H           9.5358  -14.9596  -31.6883 H         1 ARG         0.0800
    143 H           7.9478  -16.6307  -29.7037 H         1 ARG         0.0313
    144 H           7.8089  -16.7905  -31.4875 H         1 ARG         0.0313
    145 H           7.1046  -14.4440  -31.6580 H         1 ARG         0.0301
    146 H           7.2828  -14.2498  -29.8812 H         1 ARG         0.0301
    147 H           4.9490  -14.5556  -30.4256 H         1 ARG         0.0689
    148 H           5.5535  -16.0054  -29.5543 H         1 ARG         0.0689
    149 H           5.3007  -17.2974  -31.4922 H         1 ARG         0.2642
    150 H           3.8649  -14.2573  -33.7827 H         1 ARG         0.2615
    151 H           4.6171  -13.8671  -32.2128 H         1 ARG         0.2615
    152 H           4.3488  -17.7488  -33.4583 H         1 ARG         0.2615
    153 H           3.7190  -16.4295  -34.4809 H         1 ARG         0.2615
    154 H          10.8947  -16.3907  -28.8012 H         1 THR         0.1884
    155 H          10.2111  -14.0382  -27.1759 H         1 THR         0.0826
    156 H          11.3245  -15.2115  -25.3120 H         1 THR         0.0639
    157 H          11.9108  -17.2067  -27.2756 H         1 THR         0.2101
    158 H           9.8167  -17.1789  -25.1940 H         1 THR         0.0257
    159 H           9.4789  -17.0236  -26.9514 H         1 THR         0.0257
    160 H           8.9598  -15.7293  -25.8191 H         1 THR         0.0257
    161 H          12.5660  -14.6261  -29.4189 H         1 ARG         0.1883
    162 H          14.5580  -12.8594  -28.0603 H         1 ARG         0.0800
    163 H          16.1489  -13.6153  -29.7151 H         1 ARG         0.0313
    164 H          14.8606  -14.4560  -30.6427 H         1 ARG         0.0313
    165 H          14.6289  -16.1378  -28.9617 H         1 ARG         0.0301
    166 H          15.6568  -15.2204  -27.8091 H         1 ARG         0.0301
    167 H          17.0455  -16.9331  -28.6747 H         1 ARG         0.0689
    168 H          17.5326  -15.4324  -29.5334 H         1 ARG         0.0689
    169 H          16.7462  -16.3143  -31.5479 H         1 ARG         0.2642
    170 H          15.2606  -19.7444  -29.9346 H         1 ARG         0.2615
    171 H          15.7453  -18.4172  -28.8455 H         1 ARG         0.2615
    172 H          16.1301  -18.0139  -32.8935 H         1 ARG         0.2615
    173 H          15.4610  -19.5129  -32.1950 H         1 ARG         0.2615
    174 H          13.1290   -9.6481  -30.7305 H         1 PRO         0.0802
    175 H          14.2720   -8.1981  -29.2401 H         1 PRO         0.0313
    176 H          15.2850   -7.9385  -30.7007 H         1 PRO         0.0313
    177 H          16.3927   -8.7520  -28.4114 H         1 PRO         0.0287
    178 H          16.9347   -9.4356  -29.9817 H         1 PRO         0.0287
    179 H          16.3941  -11.4467  -28.9572 H         1 PRO         0.0524
    180 H          15.2253  -10.6753  -27.8322 H         1 PRO         0.0524
    181 H          13.3709   -8.7604  -32.8520 H         1 VAL         0.1883
    182 H          14.7917  -10.3829  -34.7383 H         1 VAL         0.0802
    183 H          14.2951   -8.6735  -36.4363 H         1 VAL         0.0343
    184 H          11.8288   -8.7584  -36.3025 H         1 VAL         0.0234
    185 H          11.9514   -9.2833  -34.5891 H         1 VAL         0.0234
    186 H          12.5952  -10.3317  -35.8979 H         1 VAL         0.0234
    187 H          14.6421   -6.6581  -35.0521 H         1 VAL         0.0234
    188 H          13.1187   -7.0130  -34.1690 H         1 VAL         0.0234
    189 H          13.0715   -6.6295  -35.9232 H         1 VAL         0.0234
    190 H          16.6825  -10.0361  -35.8426 H         1 LEU         0.1883
    191 H          18.5248   -8.0278  -34.6217 H         1 LEU         0.0800
    192 H          20.3442   -9.5184  -35.1630 H         1 LEU         0.0315
    193 H          19.2369  -10.6216  -36.0483 H         1 LEU         0.0315
    194 H          18.1528  -11.2644  -33.9738 H         1 LEU         0.0298
    195 H          20.0502  -12.4246  -32.8865 H         1 LEU         0.0232
    196 H          21.1968  -11.3661  -33.7763 H         1 LEU         0.0232
    197 H          20.1439  -12.5082  -34.6784 H         1 LEU         0.0232
    198 H          18.3625   -9.1220  -32.7581 H         1 LEU         0.0232
    199 H          20.1252   -9.4102  -32.5677 H         1 LEU         0.0232
    200 H          18.9448  -10.5130  -31.7820 H         1 LEU         0.0232
    201 H          17.8729   -6.3865  -36.0251 H         1 SER         0.1884
    202 H          18.6872   -6.7404  -38.8810 H         1 SER         0.0823
    203 H          16.3000   -6.1843  -38.6147 H         1 SER         0.0606
    204 H          17.1972   -4.8293  -39.3800 H         1 SER         0.0606
    205 H          17.2555   -3.8494  -37.2900 H         1 SER         0.2097
    206 H          20.6182   -5.9172  -39.2490 H         1 TYR         0.1877
    207 H          21.3311   -3.2165  -38.4080 H         1 TYR         0.0747
    208 H          21.9000   -4.4247  -36.3625 H         1 TYR         0.0446
    209 H          23.3931   -3.8979  -37.2109 H         1 TYR         0.0446
    210 H          21.2488   -6.8270  -36.3976 H         1 TYR         0.0530
    211 H          24.9606   -5.5192  -38.0604 H         1 TYR         0.0530
    212 H          22.0752   -9.1444  -36.3711 H         1 TYR         0.0525
    213 H          25.7876   -7.8402  -38.0398 H         1 TYR         0.0525
    214 H          23.7657  -10.4928  -36.8326 H         1 TYR         0.2458
@<TRIPOS>BOND
     1    1    2 1  
     2    2    3 1  
     3    3    4 2  
     4    3    5 am 
     5    5    6 1  
     6    6    7 1  
     7    6    9 1  
     8    7    8 2  
     9    7   12 am 
    10    9   10 1  
    11    9   11 1  
    12   12   13 1  
    13   13   14 1  
    14   13   16 1  
    15   14   15 2  
    16   14   18 am 
    17   16   17 1  
    18   18   19 1  
    19   19   20 1  
    20   19   22 1  
    21   20   21 2  
    22   20   25 am 
    23   22   23 1  
    24   22   24 1  
    25   25   26 1  
    26   26   27 1  
    27   26   29 1  
    28   27   28 2  
    29   27   30 am 
    30   30   31 1  
    31   31   32 1  
    32   31   34 1  
    33   32   33 2  
    34   32   35 am 
    35   35   36 1  
    36   36   37 1  
    37   36   39 1  
    38   37   38 2  
    39   37   46 am 
    40   39   40 1  
    41   40   41 1  
    42   41   42 1  
    43   42   43 ar 
    44   43   44 ar 
    45   43   45 ar 
    46   46   47 1  
    47   47   48 1  
    48   47   50 1  
    49   48   49 2  
    50   48   53 am 
    51   50   51 1  
    52   50   52 1  
    53   53   54 1  
    54   54   55 1  
    55   54   57 1  
    56   55   56 2  
    57   55   64 am 
    58   57   58 1  
    59   58   59 1  
    60   59   60 1  
    61   60   61 ar 
    62   61   62 ar 
    63   61   63 ar 
    64   64   65 1  
    65   64   70 1  
    66   65   66 1  
    67   65   68 1  
    68   66   67 2  
    69   66   71 am 
    70   68   69 1  
    71   69   70 1  
    72   71   72 1  
    73   72   73 1  
    74   72   75 1  
    75   73   74 2  
    76   73   78 am 
    77   75   76 1  
    78   75   77 1  
    79   78   79 1  
    80   79   80 1  
    81   79   82 1  
    82   80   81 2  
    83   80   86 am 
    84   82   83 1  
    85   83   84 1  
    86   83   85 1  
    87   86   87 1  
    88   87   88 1  
    89   87   90 1  
    90   88   89 2  
    91   88   92 am 
    92   90   91 1  
    93   92   93 1  
    94   93   94 1  
    95   93   96 1  
    96   94   95 ar 
    97   94  104 ar 
    98   96   97 1  
    99   97   98 ar 
   100   97   99 ar 
   101   98  100 ar 
   102   99  101 ar 
   103  100  102 ar 
   104  101  102 ar 
   105  102  103 1  
   106    1  105 1  
   107    1  106 1  
   108    1  107 1  
   109    2  108 1  
   110    2  109 1  
   111    5  110 1  
   112    6  111 1  
   113    9  112 1  
   114   10  113 1  
   115   11  114 1  
   116   11  115 1  
   117   11  116 1  
   118   12  117 1  
   119   13  118 1  
   120   16  119 1  
   121   16  120 1  
   122   17  121 1  
   123   18  122 1  
   124   19  123 1  
   125   22  124 1  
   126   23  125 1  
   127   23  126 1  
   128   23  127 1  
   129   24  128 1  
   130   24  129 1  
   131   24  130 1  
   132   25  131 1  
   133   26  132 1  
   134   29  133 1  
   135   29  134 1  
   136   29  135 1  
   137   30  136 1  
   138   31  137 1  
   139   34  138 1  
   140   34  139 1  
   141   34  140 1  
   142   35  141 1  
   143   36  142 1  
   144   39  143 1  
   145   39  144 1  
   146   40  145 1  
   147   40  146 1  
   148   41  147 1  
   149   41  148 1  
   150   42  149 1  
   151   44  150 1  
   152   44  151 1  
   153   45  152 1  
   154   45  153 1  
   155   46  154 1  
   156   47  155 1  
   157   50  156 1  
   158   51  157 1  
   159   52  158 1  
   160   52  159 1  
   161   52  160 1  
   162   53  161 1  
   163   54  162 1  
   164   57  163 1  
   165   57  164 1  
   166   58  165 1  
   167   58  166 1  
   168   59  167 1  
   169   59  168 1  
   170   60  169 1  
   171   62  170 1  
   172   62  171 1  
   173   63  172 1  
   174   63  173 1  
   175   65  174 1  
   176   68  175 1  
   177   68  176 1  
   178   69  177 1  
   179   69  178 1  
   180   70  179 1  
   181   70  180 1  
   182   71  181 1  
   183   72  182 1  
   184   75  183 1  
   185   76  184 1  
   186   76  185 1  
   187   76  186 1  
   188   77  187 1  
   189   77  188 1  
   190   77  189 1  
   191   78  190 1  
   192   79  191 1  
   193   82  192 1  
   194   82  193 1  
   195   83  194 1  
   196   84  195 1  
   197   84  196 1  
   198   84  197 1  
   199   85  198 1  
   200   85  199 1  
   201   85  200 1  
   202   86  201 1  
   203   87  202 1  
   204   90  203 1  
   205   90  204 1  
   206   91  205 1  
   207   92  206 1  
   208   93  207 1  
   209   96  208 1  
   210   96  209 1  
   211   98  210 1  
   212   99  211 1  
   213  100  212 1  
   214  101  213 1  
   215  103  214 1  
@<TRIPOS>SUBSTRUCTURE
     1 GLY         1

