6ew7_ligand
  -I-interpret- 

 37 39  0  0  0  0  0  0  0  0999 V2000
    9.9950    3.2270    1.7040 C   0  0  0  0  0
   10.7830    2.9300    2.7920 C   0  0  0  0  0
   11.9030    2.1460    2.7070 C   0  0  0  0  0
   13.2530    0.7140   -2.7570 C   0  0  0  0  0
   14.5240    0.7260   -3.3070 C   0  0  0  0  0
   15.2810    1.9900   -1.5760 C   0  0  0  0  0
   16.3570    3.3610    0.2440 C   0  0  0  0  0
   16.9900    4.5950    0.3480 C   0  0  0  0  0
   17.0250    5.2590    1.5640 C   0  0  0  0  0
   16.4230    4.7160    2.7020 C   0  0  0  0  0
   15.7990    3.4720    2.5760 C   0  0  0  0  0
   15.7810    2.7890    1.3730 C   0  0  0  0  0
   16.5220    5.4850    3.9880 C   0  0  0  0  0
   10.4140    3.3980    4.0200 F   0  0  0  0  0
   12.2710    1.6570    1.4660 C   0  0  0  0  0
   11.4920    1.9170    0.3430 C   0  0  0  0  0
   10.3680    2.7260    0.4650 C   0  0  0  0  0
   11.8560    1.3800   -0.9090 N   0  0  0  0  0
   13.0670    1.3870   -1.5420 C   0  0  0  0  0
   14.0920    2.0240   -0.9540 N   0  0  0  0  0
   15.5500    1.3870   -2.7460 N   0  0  0  0  0
   11.9820   -0.1760   -3.5390 Cl  0  0  0  0  0
   16.3190    2.6500   -0.9780 N   0  0  0  0  0
   15.0590    2.6960    3.9370 Cl  0  0  0  0  0
   15.4630    5.4360    4.7540 O   0  0  0  0  0
   17.5400    6.1110    4.2910 O   0  0  0  0  0
    9.1005    3.8403    1.8126 H   0  0  0  0  0
   12.4901    1.9130    3.5953 H   0  0  0  0  0
   14.6988    0.1770   -4.2323 H   0  0  0  0  0
   17.4596    5.0409   -0.5288 H   0  0  0  0  0
   17.5311    6.2219    1.6338 H   0  0  0  0  0
   15.3165    1.8049    1.3103 H   0  0  0  0  0
   13.1794    1.0627    1.3674 H   0  0  0  0  0
    9.7763    2.9681   -0.4178 H   0  0  0  0  0
   11.1030    0.9173   -1.4181 H   0  0  0  0  0
   17.1999    2.6257   -1.4916 H   0  0  0  0  0
   14.7889    4.8982    4.3321 H   0  0  0  0  0
  1  2  4  0  0  0
 17  1  4  0  0  0
  3  2  4  0  0  0
  2 14  1  0  0  0
 15  3  4  0  0  0
  4  5  4  0  0  0
 19  4  4  0  0  0
  4 22  1  0  0  0
  5 21  4  0  0  0
  6 20  4  0  0  0
 21  6  4  0  0  0
  6 23  1  0  0  0
  7  8  4  0  0  0
  7 12  4  0  0  0
 23  7  1  0  0  0
  8  9  4  0  0  0
  9 10  4  0  0  0
 11 10  4  0  0  0
 10 13  1  0  0  0
 12 11  4  0  0  0
 11 24  1  0  0  0
 13 25  1  0  0  0
 13 26  2  0  0  0
 16 15  4  0  0  0
 16 17  4  0  0  0
 18 16  1  0  0  0
 18 19  1  0  0  0
 19 20  4  0  0  0
  1 27  1  0  0  0
  3 28  1  0  0  0
  5 29  1  0  0  0
  8 30  1  0  0  0
  9 31  1  0  0  0
 12 32  1  0  0  0
 15 33  1  0  0  0
 17 34  1  0  0  0
 18 35  1  0  0  0
 23 36  1  0  0  0
 25 37  1  0  0  0
M  END
$$$$
