### 
### Created by X-TOOL on Mon Sep 10 21:13:24 2018
### 

@<TRIPOS>MOLECULE
4wrq_ligand
  101   100     1     0     0
SMALL
GAST_HUCK


@<TRIPOS>ATOM
      1 N          30.0960  -10.2750   41.4990 N.4       1 SER         0.2396
      2 CA         28.9810  -11.2190   41.4620 C.3       1 SER         0.0885
      3 C          27.6470  -10.4720   41.4630 C.2       1 SER         0.2290
      4 O          27.1440  -10.0360   42.5100 O.2       1 SER        -0.3906
      5 CB         29.0520  -12.1920   42.6400 C.3       1 SER         0.1041
      6 OG         28.1460  -13.2800   42.4730 O.3       1 SER        -0.3870
      7 N          27.0630  -10.3500   40.2790 N.am      1 ALA        -0.2612
      8 CA         25.9530   -9.4420   40.0800 C.3       1 ALA         0.1283
      9 C          24.5660  -10.1060   40.0390 C.2       1 ALA         0.2037
     10 O          24.3550  -11.0700   39.3050 O.2       1 ALA        -0.3944
     11 CB         26.1930   -8.6460   38.8070 C.3       1 ALA        -0.0244
     12 N          23.6250   -9.5640   40.8120 N.am      1 SEP        -0.2613
     13 CA         22.2310   -9.9070   40.6750 C.3       1 SEP         0.1586
     14 CB         21.5710  -10.0910   42.0020 C.3       1 SEP         0.1184
     15 OG         21.6220   -8.9420   42.7620 O.3       1 SEP        -0.2714
     16 C          21.5280   -8.8660   39.8370 C.2       1 SEP         0.2065
     17 O          22.1970   -7.9610   39.2660 O.2       1 SEP        -0.3943
     18 P          21.1270   -8.9410   44.2420 P.3       1 SEP         0.2010
     19 O1P        19.6920   -9.4220   44.3500 O.co2     1 SEP        -0.5537
     20 O2P        21.2020   -7.5040   44.7470 O.co2     1 SEP        -0.5537
     21 O3P        21.9960   -9.7990   45.1360 O.co2     1 SEP        -0.5537
     22 N          20.2050   -8.9790   39.7110 N.am      1 LEU        -0.2636
     23 CA         19.4130   -8.0800   38.8740 C.3       1 LEU         0.1312
     24 C          19.4680   -6.6130   39.3690 C.2       1 LEU         0.2040
     25 O          19.2840   -5.6740   38.5860 O.2       1 LEU        -0.3944
     26 CB         17.9610   -8.5810   38.7700 C.3       1 LEU        -0.0101
     27 CG         17.0620   -7.9290   37.7080 C.3       1 LEU        -0.0425
     28 CD1        17.6460   -8.0990   36.3140 C.3       1 LEU        -0.0625
     29 CD2        15.6460   -8.4770   37.7560 C.3       1 LEU        -0.0625
     30 N          19.7210   -6.4390   40.6650 N.am      1 SER        -0.2616
     31 CA         19.9160   -5.1220   41.2870 C.3       1 SER         0.1539
     32 C          20.7360   -4.1570   40.4360 C.2       1 SER         0.2063
     33 O          20.5500   -2.9500   40.5060 O.2       1 SER        -0.3943
     34 CB         20.5840   -5.2640   42.6630 C.3       1 SER         0.0843
     35 OG         19.6160   -5.5190   43.6650 O.3       1 SER        -0.3903
     36 N          21.6440   -4.7000   39.6390 N.am      1 ASN        -0.2615
     37 CA         22.3990   -3.9050   38.6790 C.3       1 ASN         0.1475
     38 C          21.6290   -3.6360   37.3700 C.2       1 ASN         0.2057
     39 O          21.6040   -4.4750   36.4720 O.2       1 ASN        -0.3942
     40 CB         23.7310   -4.5980   38.3940 C.3       1 ASN         0.0773
     41 CG         24.6340   -4.6290   39.6110 C.2       1 ASN         0.1780
     42 OD1        25.3630   -3.6690   39.8780 O.2       1 ASN        -0.3970
     43 ND2        24.5840   -5.7220   40.3630 N.am      1 ASN        -0.3007
     44 N          20.9900   -2.4700   37.2740 N.am      1 LEU        -0.2693
     45 CA         20.2540   -2.0970   36.0590 C.3       1 LEU         0.0946
     46 C          20.0540   -0.5830   35.9320 C.2       1 LEU         0.0601
     47 O          19.9420   -0.0480   34.8270 O.co2     1 LEU        -0.5666
     48 CB         18.9100   -2.8600   35.9450 C.3       1 LEU        -0.0156
     49 CG         17.7450   -2.7200   36.9510 C.3       1 LEU        -0.0431
     50 CD1        16.9310   -1.4000   36.7870 C.3       1 LEU        -0.0625
     51 CD2        16.8170   -3.9670   36.9010 C.3       1 LEU        -0.0625
     52 OXT        20.0000    0.1360   36.9320 O.co2     1 LEU        -0.5666
     53 H1         30.9666  -10.7831   41.4979 H         1 SER         0.2016
     54 H2         30.0348   -9.7153   42.3351 H         1 SER         0.2016
     55 H3         30.0558   -9.6756   40.6896 H         1 SER         0.2016
     56 H4         29.0516  -11.7998   40.5305 H         1 SER         0.1122
     57 H5         28.7974  -11.6533   43.5647 H         1 SER         0.0640
     58 H6         30.0756  -12.5875   42.7160 H         1 SER         0.0640
     59 H7         28.2139  -13.8645   43.2188 H         1 SER         0.2099
     60 H8         27.3953  -10.8951   39.5093 H         1 ALA         0.1884
     61 H9         25.9486   -8.7414   40.9280 H         1 ALA         0.0797
     62 H10        25.3551   -7.9519   38.6452 H         1 ALA         0.0277
     63 H11        26.2688   -9.3347   37.9527 H         1 ALA         0.0277
     64 H12        27.1286   -8.0755   38.9022 H         1 ALA         0.0277
     65 H13        23.8941   -8.8989   41.5086 H         1 SEP         0.1884
     66 H14        22.1708  -10.8667   40.1408 H         1 SEP         0.0827
     67 H15        22.0818  -10.9000   42.5448 H         1 SEP         0.0662
     68 H16        20.5179  -10.3652   41.8411 H         1 SEP         0.0662
     69 H17        19.7361   -9.7082   40.2093 H         1 LEU         0.1883
     70 H18        19.8470   -8.1011   37.8635 H         1 LEU         0.0800
     71 H19        17.4855   -8.4198   39.7487 H         1 LEU         0.0315
     72 H20        17.9986   -9.6588   38.5537 H         1 LEU         0.0315
     73 H21        17.0142   -6.8520   37.9266 H         1 LEU         0.0298
     74 H22        16.9817   -7.6231   35.5776 H         1 LEU         0.0232
     75 H23        17.7403   -9.1706   36.0841 H         1 LEU         0.0232
     76 H24        18.6383   -7.6262   36.2720 H         1 LEU         0.0232
     77 H25        15.2369   -8.3475   38.7688 H         1 LEU         0.0232
     78 H26        15.6578   -9.5466   37.4994 H         1 LEU         0.0232
     79 H27        15.0179   -7.9338   37.0346 H         1 LEU         0.0232
     80 H28        19.7816   -7.2498   41.2472 H         1 SER         0.1884
     81 H29        18.9204   -4.6771   41.4312 H         1 SER         0.0823
     82 H30        21.1163   -4.3321   42.9040 H         1 SER         0.0606
     83 H31        21.3004   -6.0981   42.6324 H         1 SER         0.0606
     84 H32        20.0480   -5.6035   44.5069 H         1 SER         0.2097
     85 H33        21.8163   -5.6833   39.6977 H         1 ASN         0.1885
     86 H34        22.6102   -2.9303   39.1430 H         1 ASN         0.0826
     87 H35        24.2452   -4.0578   37.5855 H         1 ASN         0.0551
     88 H36        23.5312   -5.6316   38.0752 H         1 ASN         0.0551
     89 H37        25.1590   -5.7950   41.1779 H         1 ASN         0.1814
     90 H38        23.9713   -6.4723   40.1146 H         1 ASN         0.1814
     91 H39        21.0123   -1.8352   38.0464 H         1 LEU         0.1875
     92 H40        20.8733   -2.4085   35.2050 H         1 LEU         0.0726
     93 H41        19.1735   -3.9279   35.9419 H         1 LEU         0.0308
     94 H42        18.4925   -2.5825   34.9659 H         1 LEU         0.0308
     95 H43        18.1950   -2.6898   37.9543 H         1 LEU         0.0297
     96 H44        16.1235   -1.3721   37.5334 H         1 LEU         0.0232
     97 H45        16.4980   -1.3593   35.7766 H         1 LEU         0.0232
     98 H46        17.5973   -0.5375   36.9354 H         1 LEU         0.0232
     99 H47        17.4211   -4.8786   37.0193 H         1 LEU         0.0232
    100 H48        16.2943   -3.9966   35.9336 H         1 LEU         0.0232
    101 H49        16.0792   -3.9079   37.7147 H         1 LEU         0.0232
@<TRIPOS>BOND
     1    1    2 1  
     2    2    3 1  
     3    2    5 1  
     4    3    4 2  
     5    3    7 am 
     6    5    6 1  
     7    7    8 1  
     8    8    9 1  
     9    8   11 1  
    10    9   10 2  
    11    9   12 am 
    12   12   13 1  
    13   13   14 1  
    14   13   16 1  
    15   14   15 1  
    16   15   18 1  
    17   16   17 2  
    18   16   22 am 
    19   18   19 ar 
    20   18   20 ar 
    21   18   21 ar 
    22   22   23 1  
    23   23   24 1  
    24   23   26 1  
    25   24   25 2  
    26   24   30 am 
    27   26   27 1  
    28   27   28 1  
    29   27   29 1  
    30   30   31 1  
    31   31   32 1  
    32   31   34 1  
    33   32   33 2  
    34   32   36 am 
    35   34   35 1  
    36   36   37 1  
    37   37   38 1  
    38   37   40 1  
    39   38   39 2  
    40   38   44 am 
    41   40   41 1  
    42   41   42 2  
    43   41   43 am 
    44   44   45 1  
    45   45   46 1  
    46   45   48 1  
    47   46   47 ar 
    48   46   52 ar 
    49   48   49 1  
    50   49   50 1  
    51   49   51 1  
    52    1   53 1  
    53    1   54 1  
    54    1   55 1  
    55    2   56 1  
    56    5   57 1  
    57    5   58 1  
    58    6   59 1  
    59    7   60 1  
    60    8   61 1  
    61   11   62 1  
    62   11   63 1  
    63   11   64 1  
    64   12   65 1  
    65   13   66 1  
    66   14   67 1  
    67   14   68 1  
    68   22   69 1  
    69   23   70 1  
    70   26   71 1  
    71   26   72 1  
    72   27   73 1  
    73   28   74 1  
    74   28   75 1  
    75   28   76 1  
    76   29   77 1  
    77   29   78 1  
    78   29   79 1  
    79   30   80 1  
    80   31   81 1  
    81   34   82 1  
    82   34   83 1  
    83   35   84 1  
    84   36   85 1  
    85   37   86 1  
    86   40   87 1  
    87   40   88 1  
    88   43   89 1  
    89   43   90 1  
    90   44   91 1  
    91   45   92 1  
    92   48   93 1  
    93   48   94 1  
    94   49   95 1  
    95   50   96 1  
    96   50   97 1  
    97   50   98 1  
    98   51   99 1  
    99   51  100 1  
   100   51  101 1  
@<TRIPOS>SUBSTRUCTURE
     1 SER         1

