4wrq_ligand
  -I-interpret- 

104103  0  0  0  0  0  0  0  0999 V2000
   30.0960  -10.2750   41.4990 N   0  3  0  0  0
   28.9810  -11.2190   41.4620 C   0  0  0  0  0
   27.6470  -10.4720   41.4630 C   0  0  0  0  0
   27.1440  -10.0360   42.5100 O   0  0  0  0  0
   29.0520  -12.1920   42.6400 C   0  0  0  0  0
   28.1460  -13.2800   42.4730 O   0  0  0  0  0
   27.0630  -10.3500   40.2790 N   0  0  0  0  0
   25.9530   -9.4420   40.0800 C   0  0  0  0  0
   24.5660  -10.1060   40.0390 C   0  0  0  0  0
   24.3550  -11.0700   39.3050 O   0  0  0  0  0
   26.1930   -8.6460   38.8070 C   0  0  0  0  0
   23.6250   -9.5640   40.8120 N   0  0  0  0  0
   22.2310   -9.9070   40.6750 C   0  0  0  0  0
   21.5710  -10.0910   42.0020 C   0  0  0  0  0
   21.6220   -8.9420   42.7620 O   0  0  0  0  0
   21.5280   -8.8660   39.8370 C   0  0  0  0  0
   22.1970   -7.9610   39.2660 O   0  0  0  0  0
   21.1270   -8.9410   44.2420 P   0  0  0  0  0
   19.6920   -9.4220   44.3500 O   0  0  0  0  0
   21.2020   -7.5040   44.7470 O   0  0  0  0  0
   21.9960   -9.7990   45.1360 O   0  0  0  0  0
   20.2050   -8.9790   39.7110 N   0  0  0  0  0
   19.4130   -8.0800   38.8740 C   0  0  0  0  0
   19.4680   -6.6130   39.3690 C   0  0  0  0  0
   19.2840   -5.6740   38.5860 O   0  0  0  0  0
   17.9610   -8.5810   38.7700 C   0  0  0  0  0
   17.0620   -7.9290   37.7080 C   0  0  0  0  0
   17.6460   -8.0990   36.3140 C   0  0  0  0  0
   15.6460   -8.4770   37.7560 C   0  0  0  0  0
   19.7210   -6.4390   40.6650 N   0  0  0  0  0
   19.9160   -5.1220   41.2870 C   0  0  0  0  0
   20.7360   -4.1570   40.4360 C   0  0  0  0  0
   20.5500   -2.9500   40.5060 O   0  0  0  0  0
   20.5840   -5.2640   42.6630 C   0  0  0  0  0
   19.6160   -5.5190   43.6650 O   0  0  0  0  0
   21.6440   -4.7000   39.6390 N   0  0  0  0  0
   22.3990   -3.9050   38.6790 C   0  0  0  0  0
   21.6290   -3.6360   37.3700 C   0  0  0  0  0
   21.6040   -4.4750   36.4720 O   0  0  0  0  0
   23.7310   -4.5980   38.3940 C   0  0  0  0  0
   24.6340   -4.6290   39.6110 C   0  0  0  0  0
   25.3630   -3.6690   39.8780 O   0  0  0  0  0
   24.5840   -5.7220   40.3630 N   0  0  0  0  0
   20.9900   -2.4700   37.2740 N   0  0  0  0  0
   20.2540   -2.0970   36.0590 C   0  0  0  0  0
   20.0540   -0.5830   35.9320 C   0  0  0  0  0
   19.9420   -0.0480   34.8270 O   0  0  0  0  0
   18.9100   -2.8600   35.9450 C   0  0  0  0  0
   17.7450   -2.7200   36.9510 C   0  0  0  0  0
   16.9310   -1.4000   36.7870 C   0  0  0  0  0
   16.8170   -3.9670   36.9010 C   0  0  0  0  0
   20.0000    0.1360   36.9320 O   0  0  0  0  0
   30.0271   -9.6380   40.7054 H   0  0  0  0  0
   30.0603   -9.7424   42.3682 H   0  0  0  0  0
   30.9761  -10.7881   41.4492 H   0  0  0  0  0
   29.0541  -11.7961   40.5402 H   0  0  0  0  0
   28.7827  -11.6544   43.5491 H   0  0  0  0  0
   30.0646  -12.5912   42.6980 H   0  0  0  0  0
   28.2147  -13.8707   43.2266 H   0  0  0  0  0
   27.4019  -10.9060   39.4939 H   0  0  0  0  0
   25.9254   -8.7956   40.9572 H   0  0  0  0  0
   27.1203   -8.0812   38.9026 H   0  0  0  0  0
   26.2679   -9.3295   37.9613 H   0  0  0  0  0
   25.3622   -7.9586   38.6478 H   0  0  0  0  0
   23.8994   -8.8856   41.5225 H   0  0  0  0  0
   22.1604  -10.8669   40.1634 H   0  0  0  0  0
   22.0956  -10.8811   42.5393 H   0  0  0  0  0
   20.5244  -10.3437   41.8323 H   0  0  0  0  0
   19.1319   -8.8836   43.7860 H   0  0  0  0  0
   20.6562   -6.9421   44.1920 H   0  0  0  0  0
   19.7267   -9.7228   40.2193 H   0  0  0  0  0
   19.8549   -8.0877   37.8776 H   0  0  0  0  0
   17.4998   -8.3471   39.7295 H   0  0  0  0  0
   18.0319   -9.6321   38.4902 H   0  0  0  0  0
   17.0182   -6.8645   37.9381 H   0  0  0  0  0
   18.6292   -7.6302   36.2737 H   0  0  0  0  0
   17.7389   -9.1611   36.0874 H   0  0  0  0  0
   16.9869   -7.6271   35.5853 H   0  0  0  0  0
   15.6673   -9.5517   37.5750 H   0  0  0  0  0
   15.2151   -8.2811   38.7379 H   0  0  0  0  0
   15.0431   -7.9900   36.9895 H   0  0  0  0  0
   19.7828   -7.2660   41.2589 H   0  0  0  0  0
   18.9169   -4.6982   41.3885 H   0  0  0  0  0
   21.1016   -4.3348   42.9012 H   0  0  0  0  0
   21.2853   -6.0977   42.6300 H   0  0  0  0  0
   20.0525   -5.6043   44.5157 H   0  0  0  0  0
   21.8197   -5.7030   39.6989 H   0  0  0  0  0
   22.5721   -2.9260   39.1259 H   0  0  0  0  0
   24.2411   -4.0410   37.6080 H   0  0  0  0  0
   23.5216   -5.6269   38.1015 H   0  0  0  0  0
   25.1631   -5.7923   41.1997 H   0  0  0  0  0
   23.9665   -6.4914   40.1040 H   0  0  0  0  0
   21.0127   -1.8225   38.0618 H   0  0  0  0  0
   20.8770   -2.4001   35.2175 H   0  0  0  0  0
   19.2133   -3.8991   36.0734 H   0  0  0  0  0
   18.4830   -2.4563   35.0269 H   0  0  0  0  0
   18.2023   -2.6624   37.9387 H   0  0  0  0  0
   17.5923   -0.5462   36.9342 H   0  0  0  0  0
   16.5025   -1.3609   35.7855 H   0  0  0  0  0
   16.1312   -1.3735   37.5271 H   0  0  0  0  0
   16.4042   -4.0711   35.8976 H   0  0  0  0  0
   17.3932   -4.8574   37.1524 H   0  0  0  0  0
   16.0055   -3.8434   37.6181 H   0  0  0  0  0
   20.1003   -0.4044   37.7191 H   0  0  0  0  0
  1  2  1  0  0  0
  2  3  1  0  0  0
  2  5  1  0  0  0
  3  4  2  0  0  0
  3  7  1  0  0  0
  5  6  1  0  0  0
  7  8  1  0  0  0
  8  9  1  0  0  0
  8 11  1  0  0  0
  9 10  2  0  0  0
  9 12  1  0  0  0
 12 13  1  0  0  0
 13 14  1  0  0  0
 13 16  1  0  0  0
 14 15  1  0  0  0
 15 18  1  0  0  0
 16 17  2  0  0  0
 16 22  1  0  0  0
 18 19  1  0  0  0
 18 20  1  0  0  0
 18 21  2  0  0  0
 22 23  1  0  0  0
 23 24  1  0  0  0
 23 26  1  0  0  0
 24 25  2  0  0  0
 24 30  1  0  0  0
 26 27  1  0  0  0
 27 28  1  0  0  0
 27 29  1  0  0  0
 30 31  1  0  0  0
 31 32  1  0  0  0
 31 34  1  0  0  0
 32 33  2  0  0  0
 32 36  1  0  0  0
 34 35  1  0  0  0
 36 37  1  0  0  0
 37 38  1  0  0  0
 37 40  1  0  0  0
 38 39  2  0  0  0
 38 44  1  0  0  0
 40 41  1  0  0  0
 41 42  2  0  0  0
 41 43  1  0  0  0
 44 45  1  0  0  0
 45 46  1  0  0  0
 45 48  1  0  0  0
 46 47  2  0  0  0
 46 52  1  0  0  0
 48 49  1  0  0  0
 49 50  1  0  0  0
 49 51  1  0  0  0
  1 53  1  0  0  0
  1 54  1  0  0  0
  1 55  1  0  0  0
  2 56  1  0  0  0
  5 57  1  0  0  0
  5 58  1  0  0  0
  6 59  1  0  0  0
  7 60  1  0  0  0
  8 61  1  0  0  0
 11 62  1  0  0  0
 11 63  1  0  0  0
 11 64  1  0  0  0
 12 65  1  0  0  0
 13 66  1  0  0  0
 14 67  1  0  0  0
 14 68  1  0  0  0
 19 69  1  0  0  0
 20 70  1  0  0  0
 22 71  1  0  0  0
 23 72  1  0  0  0
 26 73  1  0  0  0
 26 74  1  0  0  0
 27 75  1  0  0  0
 28 76  1  0  0  0
 28 77  1  0  0  0
 28 78  1  0  0  0
 29 79  1  0  0  0
 29 80  1  0  0  0
 29 81  1  0  0  0
 30 82  1  0  0  0
 31 83  1  0  0  0
 34 84  1  0  0  0
 34 85  1  0  0  0
 35 86  1  0  0  0
 36 87  1  0  0  0
 37 88  1  0  0  0
 40 89  1  0  0  0
 40 90  1  0  0  0
 43 91  1  0  0  0
 43 92  1  0  0  0
 44 93  1  0  0  0
 45 94  1  0  0  0
 48 95  1  0  0  0
 48 96  1  0  0  0
 49 97  1  0  0  0
 50 98  1  0  0  0
 50 99  1  0  0  0
 50100  1  0  0  0
 51101  1  0  0  0
 51102  1  0  0  0
 51103  1  0  0  0
 52104  1  0  0  0
M  END
$$$$
