### 
### Created by X-TOOL on Mon Sep 10 21:12:52 2018
### 

@<TRIPOS>MOLECULE
1tmm_ligand
   45    47     1     0     0
SMALL
GAST_HUCK


@<TRIPOS>ATOM
      1 PG         16.1580   -7.4260   -0.1760 P.3       1 APC         0.2050
      2 O1G        16.1290   -7.3420    1.3360 O.co2     1 APC        -0.5889
      3 O2G        17.5720   -7.6550   -0.7210 O.co2     1 APC        -0.5889
      4 O3G        15.4530   -6.3080   -0.8850 O.co2     1 APC        -0.5889
      5 PB         13.8750   -9.1510   -0.2990 P.3       1 APC         0.2111
      6 O1B        13.1160   -7.8500   -0.0160 O.co2     1 APC        -0.5572
      7 O2B        13.3770  -10.0170   -1.3890 O.co2     1 APC        -0.5572
      8 O3B        15.4290   -8.7870   -0.5690 O.3       1 APC        -0.1814
      9 PA         12.3090  -10.8030    1.6030 P.3       1 APC         0.1405
     10 O1A        11.2840   -9.7850    1.2730 O.co2     1 APC        -0.6193
     11 O2A        12.1280  -12.1650    1.0150 O.co2     1 APC        -0.6193
     12 C3A        13.9650  -10.1390    1.1810 C.3       1 APC         0.1358
     13 O5         12.2920  -10.8960    3.1910 O.3       1 APC        -0.2758
     14 C5         13.0740  -11.9150    3.7560 C.3       1 APC         0.1108
     15 C4         13.1550  -11.6310    5.3760 C.3       1 APC         0.1190
     16 O4         13.8340  -10.3960    5.4610 O.3       1 APC        -0.3364
     17 C3         11.9000  -11.4050    6.1050 C.3       1 APC         0.1150
     18 O3         11.3250  -12.6760    6.5050 O.3       1 APC        -0.3864
     19 C2         12.3350  -10.4710    7.2510 C.3       1 APC         0.1385
     20 O2         12.3630  -11.2390    8.5310 O.3       1 APC        -0.3836
     21 C1         13.7440  -10.0850    6.8810 C.3       1 APC         0.2010
     22 N9         14.1140   -8.7180    7.0920 N.pl3     1 APC        -0.1919
     23 C8         15.2700   -8.2940    7.7090 C.2       1 APC         0.1123
     24 N7         15.3560   -6.9400    7.7040 N.2       1 APC        -0.2958
     25 C5         14.1680   -6.5550    7.0390 C.ar      1 APC         0.1045
     26 C6         13.7960   -5.2350    6.7840 C.ar      1 APC         0.1298
     27 N6         14.4780   -4.1280    7.1150 N.pl3     1 APC        -0.3152
     28 N1         12.6260   -5.1040    6.1380 N.ar      1 APC        -0.2698
     29 C2         11.9180   -6.2140    5.7920 C.ar      1 APC         0.0533
     30 N3         12.2420   -7.4700    6.0180 N.ar      1 APC        -0.2714
     31 C4         13.4340   -7.6170    6.6770 C.ar      1 APC         0.1613
     32 H1         14.3289   -9.5164    2.0116 H         1 APC         0.0719
     33 H2         14.6606  -10.9753    1.0175 H         1 APC         0.0719
     34 H3         14.0840  -11.8995    3.3205 H         1 APC         0.0650
     35 H4         12.6088  -12.8940    3.5686 H         1 APC         0.0650
     36 H5         13.7122  -12.4462    5.8606 H         1 APC         0.0651
     37 H6         11.1689  -10.8857    5.4679 H         1 APC         0.0648
     38 H7         11.9365  -13.1357    7.0681 H         1 APC         0.2100
     39 H8         11.6774   -9.5934    7.3362 H         1 APC         0.0676
     40 H9         11.4959  -11.5824    8.7120 H         1 APC         0.2101
     41 H10        14.4433  -10.7125    7.4530 H         1 APC         0.0996
     42 H11        16.0162   -8.9577    8.1434 H         1 APC         0.1349
     43 H12        14.1022   -3.2000    6.8731 H         1 APC         0.1820
     44 H13        15.3773   -4.2062    7.6110 H         1 APC         0.1820
     45 H14        10.9821   -6.0448    5.2719 H         1 APC         0.0996
@<TRIPOS>BOND
     1    1    2 ar 
     2    1    3 ar 
     3    1    4 ar 
     4    8    1 1  
     5    5    6 ar 
     6    5    7 ar 
     7    5    8 1  
     8   12    5 1  
     9    9   10 ar 
    10    9   11 ar 
    11    9   12 1  
    12    9   13 1  
    13   13   14 1  
    14   14   15 1  
    15   15   16 1  
    16   15   17 1  
    17   16   21 1  
    18   17   18 1  
    19   17   19 1  
    20   19   20 1  
    21   19   21 1  
    22   21   22 1  
    23   22   23 1  
    24   22   31 1  
    25   23   24 2  
    26   24   25 1  
    27   25   26 ar 
    28   25   31 ar 
    29   26   27 1  
    30   26   28 ar 
    31   28   29 ar 
    32   29   30 ar 
    33   30   31 ar 
    34   12   32 1  
    35   12   33 1  
    36   14   34 1  
    37   14   35 1  
    38   15   36 1  
    39   17   37 1  
    40   18   38 1  
    41   19   39 1  
    42   20   40 1  
    43   21   41 1  
    44   23   42 1  
    45   27   43 1  
    46   27   44 1  
    47   29   45 1  
@<TRIPOS>SUBSTRUCTURE
     1 APC         1

