1tmm_ligand
  -I-interpret- 

 49 51  0  0  0  0  0  0  0  0999 V2000
   16.1580   -7.4260   -0.1760 P   0  0  0  0  0
   16.1290   -7.3420    1.3360 O   0  0  0  0  0
   17.5720   -7.6550   -0.7210 O   0  0  0  0  0
   15.4530   -6.3080   -0.8850 O   0  0  0  0  0
   13.8750   -9.1510   -0.2990 P   0  0  0  0  0
   13.1160   -7.8500   -0.0160 O   0  0  0  0  0
   13.3770  -10.0170   -1.3890 O   0  0  0  0  0
   15.4290   -8.7870   -0.5690 O   0  0  0  0  0
   12.3090  -10.8030    1.6030 P   0  0  0  0  0
   11.2840   -9.7850    1.2730 O   0  0  0  0  0
   12.1280  -12.1650    1.0150 O   0  0  0  0  0
   13.9650  -10.1390    1.1810 C   0  0  0  0  0
   12.2920  -10.8960    3.1910 O   0  0  0  0  0
   13.0740  -11.9150    3.7560 C   0  0  0  0  0
   13.1550  -11.6310    5.3760 C   0  0  0  0  0
   13.8340  -10.3960    5.4610 O   0  0  0  0  0
   11.9000  -11.4050    6.1050 C   0  0  0  0  0
   11.3250  -12.6760    6.5050 O   0  0  0  0  0
   12.3350  -10.4710    7.2510 C   0  0  0  0  0
   12.3630  -11.2390    8.5310 O   0  0  0  0  0
   13.7440  -10.0850    6.8810 C   0  0  0  0  0
   14.1140   -8.7180    7.0920 N   0  0  0  0  0
   15.2700   -8.2940    7.7090 C   0  0  0  0  0
   15.3560   -6.9400    7.7040 N   0  0  0  0  0
   14.1680   -6.5550    7.0390 C   0  0  0  0  0
   13.7960   -5.2350    6.7840 C   0  0  0  0  0
   14.4780   -4.1280    7.1150 N   0  0  0  0  0
   12.6260   -5.1040    6.1380 N   0  0  0  0  0
   11.9180   -6.2140    5.7920 C   0  0  0  0  0
   12.2420   -7.4700    6.0180 N   0  0  0  0  0
   13.4340   -7.6170    6.6770 C   0  0  0  0  0
   16.6003   -8.0920    1.7061 H   0  0  0  0  0
   17.9857   -8.3763   -0.2412 H   0  0  0  0  0
   13.5394   -7.3851    0.7094 H   0  0  0  0  0
   12.8486  -12.7328    1.2978 H   0  0  0  0  0
   14.3197   -9.5175    2.0032 H   0  0  0  0  0
   14.6499  -10.9702    1.0133 H   0  0  0  0  0
   14.0721  -11.9185    3.3180 H   0  0  0  0  0
   12.6297  -12.8910    3.5606 H   0  0  0  0  0
   13.5955  -12.5231    5.8213 H   0  0  0  0  0
   11.0934  -10.9436    5.5353 H   0  0  0  0  0
   10.5058  -12.5198    6.9805 H   0  0  0  0  0
   11.6711   -9.6164    7.3813 H   0  0  0  0  0
   12.6339  -10.6580    9.2456 H   0  0  0  0  0
   14.4307  -10.6269    7.5313 H   0  0  0  0  0
   16.0169   -8.9583    8.1438 H   0  0  0  0  0
   15.3686   -4.2054    7.6062 H   0  0  0  0  0
   14.1059   -3.2090    6.8755 H   0  0  0  0  0
   10.9769   -6.0439    5.2690 H   0  0  0  0  0
  1  2  1  0  0  0
  1  3  1  0  0  0
  1  4  2  0  0  0
  8  1  1  0  0  0
  5  6  1  0  0  0
  5  7  2  0  0  0
  5  8  1  0  0  0
 12  5  1  0  0  0
  9 10  2  0  0  0
  9 11  1  0  0  0
  9 12  1  0  0  0
  9 13  1  0  0  0
 13 14  1  0  0  0
 14 15  1  0  0  0
 15 16  1  0  0  0
 15 17  1  0  0  0
 16 21  1  0  0  0
 17 18  1  0  0  0
 17 19  1  0  0  0
 19 20  1  0  0  0
 19 21  1  0  0  0
 21 22  1  0  0  0
 22 23  4  0  0  0
 22 31  4  0  0  0
 23 24  4  0  0  0
 24 25  4  0  0  0
 25 26  4  0  0  0
 25 31  4  0  0  0
 26 27  1  0  0  0
 26 28  4  0  0  0
 28 29  4  0  0  0
 29 30  4  0  0  0
 30 31  4  0  0  0
  2 32  1  0  0  0
  3 33  1  0  0  0
  6 34  1  0  0  0
 11 35  1  0  0  0
 12 36  1  0  0  0
 12 37  1  0  0  0
 14 38  1  0  0  0
 14 39  1  0  0  0
 15 40  1  0  0  0
 17 41  1  0  0  0
 18 42  1  0  0  0
 19 43  1  0  0  0
 20 44  1  0  0  0
 21 45  1  0  0  0
 23 46  1  0  0  0
 27 47  1  0  0  0
 27 48  1  0  0  0
 29 49  1  0  0  0
M  END
$$$$
