2ow1_ligand
  -I-interpret- 

 43 44  0  0  0  0  0  0  0  0999 V2000
   26.4370    3.4740   53.0330 C   0  0  0  0  0
   25.6410    2.6660   53.8410 C   0  0  0  0  0
   24.3490    2.3340   53.4430 C   0  0  0  0  0
   23.8500    2.8140   52.2360 C   0  0  0  0  0
   24.6460    3.6210   51.4290 C   0  0  0  0  0
   25.9400    3.9490   51.8230 C   0  0  0  0  0
   26.7340    4.6730   50.9870 O   0  0  0  0  0
   26.6830    6.0300   51.1040 C   0  0  0  0  0
   25.5370    6.6930   51.5370 C   0  0  0  0  0
   25.4890    8.0840   51.5420 C   0  0  0  0  0
   27.7840    6.7720   50.6850 C   0  0  0  0  0
   27.7380    8.1630   50.6880 C   0  0  0  0  0
   26.5890    8.8210   51.1170 C   0  0  0  0  0
   26.5350   10.5690   51.1670 S   0  0  0  0  0
   26.0720   10.9890   52.5300 O   0  0  0  0  0
   27.9060   11.1240   50.9140 O   0  0  0  0  0
   25.3590   11.2230   49.9250 C   0  0  0  0  0
   25.9410   11.5080   48.5360 C   0  0  0  0  0
   24.9000   12.2180   47.6670 C   0  0  0  0  0
   25.3430   12.3120   46.4170 F   0  0  0  0  0
   23.7670   11.5230   47.6760 F   0  0  0  0  0
   24.6640   13.4340   48.1500 F   0  0  0  0  0
   27.1140   12.3840   48.6790 N   0  3  0  0  0
   26.3640   10.2070   47.8450 C   0  0  0  0  0
   25.5960    9.2490   47.7660 O   0  0  0  0  0
   27.5830   10.2230   47.3130 N   0  0  0  0  0
   28.0800    9.0710   46.6470 O   0  0  0  0  0
   27.4477    3.7340   53.3478 H   0  0  0  0  0
   26.0308    2.2924   54.7879 H   0  0  0  0  0
   23.7291    1.6990   54.0759 H   0  0  0  0  0
   22.8376    2.5583   51.9233 H   0  0  0  0  0
   24.2545    3.9979   50.4842 H   0  0  0  0  0
   24.6734    6.1195   51.8736 H   0  0  0  0  0
   24.5880    8.5963   51.8795 H   0  0  0  0  0
   28.6873    6.2605   50.3527 H   0  0  0  0  0
   28.6022    8.7374   50.3542 H   0  0  0  0  0
   25.0050   12.1788   50.3113 H   0  0  0  0  0
   24.5991   10.4538   49.7872 H   0  0  0  0  0
   27.5065   12.5778   47.7577 H   0  0  0  0  0
   26.8316   13.2591   49.1205 H   0  0  0  0  0
   27.8145   11.9205   49.2577 H   0  0  0  0  0
   28.1600   11.0612   47.3832 H   0  0  0  0  0
   28.9666    9.2472   46.3238 H   0  0  0  0  0
  1  2  4  0  0  0
  1  6  4  0  0  0
  2  3  4  0  0  0
  3  4  4  0  0  0
  4  5  4  0  0  0
  5  6  4  0  0  0
  6  7  1  0  0  0
  7  8  1  0  0  0
  8  9  4  0  0  0
  8 11  4  0  0  0
  9 10  4  0  0  0
 10 13  4  0  0  0
 11 12  4  0  0  0
 12 13  4  0  0  0
 13 14  1  0  0  0
 14 15  2  0  0  0
 14 16  2  0  0  0
 14 17  1  0  0  0
 17 18  1  0  0  0
 18 19  1  0  0  0
 18 23  1  0  0  0
 18 24  1  0  0  0
 19 20  1  0  0  0
 19 21  1  0  0  0
 19 22  1  0  0  0
 24 25  2  0  0  0
 24 26  1  0  0  0
 26 27  1  0  0  0
  1 28  1  0  0  0
  2 29  1  0  0  0
  3 30  1  0  0  0
  4 31  1  0  0  0
  5 32  1  0  0  0
  9 33  1  0  0  0
 10 34  1  0  0  0
 11 35  1  0  0  0
 12 36  1  0  0  0
 17 37  1  0  0  0
 17 38  1  0  0  0
 23 39  1  0  0  0
 23 40  1  0  0  0
 23 41  1  0  0  0
 26 42  1  0  0  0
 27 43  1  0  0  0
M  END
$$$$
