3fh8_ligand
  -I-interpret- 

 45 47  0  0  0  0  0  0  0  0999 V2000
   33.3010   85.3730    2.1660 C   0  0  0  0  0
   34.1810   84.6240    1.1730 C   0  0  0  0  0
   33.1950   83.6760    0.4810 C   0  0  0  0  0
   31.7960   84.1860    0.8900 C   0  0  0  0  0
   32.0170   85.5230    1.4800 N   0  3  0  0  0
   31.0190   85.9200    2.4950 C   0  0  0  0  0
   29.5760   85.8940    2.0050 C   0  0  0  0  0
   29.5730   86.7380    0.8560 O   0  0  0  0  0
   28.3980   86.9080    0.1860 C   0  0  0  0  0
   28.4030   87.5830   -1.0290 C   0  0  0  0  0
   27.2230   87.7670   -1.7380 C   0  0  0  0  0
   27.1880   86.4260    0.6820 C   0  0  0  0  0
   26.0070   86.6200   -0.0290 C   0  0  0  0  0
   26.0250   87.2850   -1.2420 C   0  0  0  0  0
   24.7170   87.5200   -2.0230 C   0  0  0  0  0
   24.2970   86.3860   -2.9680 C   0  0  0  0  0
   23.9610   86.6750   -4.2780 C   0  0  0  0  0
   23.5770   85.6870   -5.1780 C   0  0  0  0  0
   23.4810   84.3680   -4.7530 C   0  0  0  0  0
   23.7940   84.0710   -3.4290 C   0  0  0  0  0
   24.1900   85.0600   -2.5360 C   0  0  0  0  0
   33.7292   86.3357    2.4451 H   0  0  0  0  0
   33.1996   84.8344    3.1082 H   0  0  0  0  0
   35.0051   84.0972    1.6541 H   0  0  0  0  0
   34.6876   85.2891    0.4736 H   0  0  0  0  0
   33.3514   82.6403    0.7825 H   0  0  0  0  0
   33.3250   83.6777   -0.6012 H   0  0  0  0  0
   31.3179   83.5113    1.6001 H   0  0  0  0  0
   31.1236   84.2347    0.0335 H   0  0  0  0  0
   31.9664   86.2347    0.7510 H   0  0  0  0  0
   31.2421   86.9490    2.7769 H   0  0  0  0  0
   31.0918   85.2024    3.3122 H   0  0  0  0  0
   28.8794   86.2410    2.7682 H   0  0  0  0  0
   29.2429   84.8831    1.7698 H   0  0  0  0  0
   29.3401   87.9709   -1.4284 H   0  0  0  0  0
   27.2410   88.2947   -2.6916 H   0  0  0  0  0
   27.1663   85.8936    1.6329 H   0  0  0  0  0
   25.0645   86.2465    0.3715 H   0  0  0  0  0
   24.8824   88.3982   -2.6472 H   0  0  0  0  0
   23.9250   87.6134   -1.2799 H   0  0  0  0  0
   23.9984   87.7106   -4.6159 H   0  0  0  0  0
   23.3523   85.9464   -6.2126 H   0  0  0  0  0
   23.1675   83.5827   -5.4408 H   0  0  0  0  0
   23.7269   83.0389   -3.0848 H   0  0  0  0  0
   24.4166   84.8027   -1.5013 H   0  0  0  0  0
  1  2  1  0  0  0
  1  5  1  0  0  0
  2  3  1  0  0  0
  3  4  1  0  0  0
  4  5  1  0  0  0
  5  6  1  0  0  0
  6  7  1  0  0  0
  7  8  1  0  0  0
  8  9  1  0  0  0
  9 10  4  0  0  0
  9 12  4  0  0  0
 10 11  4  0  0  0
 11 14  4  0  0  0
 12 13  4  0  0  0
 13 14  4  0  0  0
 14 15  1  0  0  0
 15 16  1  0  0  0
 16 17  4  0  0  0
 16 21  4  0  0  0
 17 18  4  0  0  0
 18 19  4  0  0  0
 19 20  4  0  0  0
 20 21  4  0  0  0
  1 22  1  0  0  0
  1 23  1  0  0  0
  2 24  1  0  0  0
  2 25  1  0  0  0
  3 26  1  0  0  0
  3 27  1  0  0  0
  4 28  1  0  0  0
  4 29  1  0  0  0
  5 30  1  0  0  0
  6 31  1  0  0  0
  6 32  1  0  0  0
  7 33  1  0  0  0
  7 34  1  0  0  0
 10 35  1  0  0  0
 11 36  1  0  0  0
 12 37  1  0  0  0
 13 38  1  0  0  0
 15 39  1  0  0  0
 15 40  1  0  0  0
 17 41  1  0  0  0
 18 42  1  0  0  0
 19 43  1  0  0  0
 20 44  1  0  0  0
 21 45  1  0  0  0
M  END
$$$$
