4u68_ligand
  -I-interpret- 

132131  0  0  0  0  0  0  0  0999 V2000
  -16.4940    1.2440   28.9510 N   0  3  0  0  0
  -17.7360    1.8010   29.4650 C   0  0  0  0  0
  -17.4490    2.8280   30.5370 C   0  0  0  0  0
  -16.5580    2.6540   31.3650 O   0  0  0  0  0
  -18.6400    0.7160   30.0470 C   0  0  0  0  0
  -19.4150   -0.1030   29.0280 C   0  0  0  0  0
  -20.3340   -1.0260   29.7880 C   0  0  0  0  0
  -21.2650   -1.7400   28.8660 C   0  0  0  0  0
  -22.3100   -2.4100   29.6940 N   0  3  0  0  0
  -18.2210    3.9010   30.5190 N   0  0  0  0  0
  -18.1030    4.9280   31.5330 C   0  0  0  0  0
  -19.1560    4.6630   32.5910 C   0  0  0  0  0
  -20.3440    4.6580   32.2940 O   0  0  0  0  0
  -18.2820    6.3080   30.9030 C   0  0  0  0  0
  -17.3440    6.5610   29.7380 C   0  0  0  0  0
  -15.9550    6.9320   30.2020 C   0  0  0  0  0
  -15.7610    7.9690   30.8240 O   0  0  0  0  0
  -14.9800    6.0740   29.9130 N   0  0  0  0  0
  -18.7230    4.4090   33.8220 N   0  0  0  0  0
  -19.6470    4.1160   34.9020 C   0  0  0  0  0
  -19.2820    4.8770   36.1740 C   0  0  0  0  0
  -18.1870    5.4210   36.2900 O   0  0  0  0  0
  -19.6840    2.6170   35.2240 C   0  0  0  0  0
  -18.3970    2.2020   35.6990 O   0  0  0  0  0
  -20.0750    1.7920   33.9990 C   0  0  0  0  0
  -20.2060    4.9120   37.1240 N   0  0  0  0  0
  -19.9400    5.5600   38.3970 C   0  0  0  0  0
  -20.7950    4.9540   39.4850 C   0  0  0  0  0
  -21.8280    4.3520   39.2110 O   0  0  0  0  0
  -20.1900    7.0550   38.3060 C   0  0  0  0  0
  -20.3610    5.1210   40.7280 N   0  0  0  0  0
  -21.1590    4.6940   41.8640 C   0  0  0  0  0
  -22.1790    5.7720   42.2080 C   0  0  0  0  0
  -21.9090    6.9750   42.0850 O   0  0  0  0  0
  -20.2570    4.3690   43.0580 C   0  0  0  0  0
  -19.0490    3.5490   42.6520 C   0  0  0  0  0
  -18.2610    3.0950   43.8530 C   0  0  0  0  0
  -17.2020    2.1220   43.5530 N   0  0  0  0  0
  -16.3120    1.7540   44.4760 C   0  0  0  0  0
  -16.3880    2.3100   45.6780 N   0  0  0  0  0
  -15.3580    0.8670   44.2300 N   0  0  0  0  0
  -23.3610    5.3340   42.6200 N   0  0  0  0  0
  -24.4570    6.2340   42.8940 C   0  0  0  0  0
  -25.6950    5.6120   42.2600 C   0  0  0  0  0
  -26.6900    6.6750   41.8320 C   0  0  0  0  0
  -27.8660    6.0680   41.0760 C   0  0  0  0  0
  -28.8020    7.1800   40.6250 C   0  0  0  0  0
  -29.9860    6.6380   39.9400 N   0  3  0  0  0
  -24.6190    6.3180   44.3810 C   0  0  0  0  0
  -24.7310    5.2580   45.0350 O   0  0  0  0  0
  -30.9150    7.7430   39.6740 C   0  0  0  0  0
  -30.6700    5.6490   40.7900 C   0  0  0  0  0
  -29.5730    6.0030   38.6790 C   0  0  0  0  0
  -24.6230    7.5270   44.9390 N   0  0  0  0  0
  -24.7180    7.6960   46.3880 C   0  0  0  0  0
  -26.1510    7.9890   46.8190 C   0  0  0  0  0
  -27.1020    7.5900   46.1460 O   0  0  0  0  0
  -23.7830    8.8140   46.8670 C   0  0  0  0  0
  -24.2600   10.0970   46.4900 O   0  0  0  0  0
  -26.3780    8.6290   47.8460 O   0  0  0  0  0
  -15.9174    1.9949   28.5715 H   0  0  0  0  0
  -15.9930    0.7781   29.7075 H   0  0  0  0  0
  -16.7040    0.5699   28.2149 H   0  0  0  0  0
  -18.2497    2.2719   28.6269 H   0  0  0  0  0
  -19.3799    1.2256   30.6642 H   0  0  0  0  0
  -17.9893    0.0196   30.5759 H   0  0  0  0  0
  -18.7313   -0.6775   28.4030 H   0  0  0  0  0
  -19.9902    0.5512   28.3729 H   0  0  0  0  0
  -20.9236   -0.4322   30.4865 H   0  0  0  0  0
  -19.7286   -1.7654   30.3123 H   0  0  0  0  0
  -20.7199   -2.4783   28.2778 H   0  0  0  0  0
  -21.7268   -1.0339   28.1759 H   0  0  0  0  0
  -22.9595   -2.9058   29.0836 H   0  0  0  0  0
  -21.8655   -3.0727   30.3294 H   0  0  0  0  0
  -22.8168   -1.7079   30.2331 H   0  0  0  0  0
  -18.9127    4.0075   29.7770 H   0  0  0  0  0
  -17.1146    4.9065   31.9920 H   0  0  0  0  0
  -18.0635    7.0513   31.6697 H   0  0  0  0  0
  -19.3022    6.3676   30.5239 H   0  0  0  0  0
  -17.7416    7.3907   29.1535 H   0  0  0  0  0
  -17.2745    5.6455   29.1506 H   0  0  0  0  0
  -14.0244    6.2683   30.2122 H   0  0  0  0  0
  -15.1881    5.2220   29.3923 H   0  0  0  0  0
  -17.7208    4.4203   34.0113 H   0  0  0  0  0
  -20.6302    4.4358   34.5568 H   0  0  0  0  0
  -20.4375    2.4497   35.9936 H   0  0  0  0  0
  -18.4190    1.2637   35.9009 H   0  0  0  0  0
  -21.0642    2.0972   33.6577 H   0  0  0  0  0
  -19.3479    1.9574   33.2040 H   0  0  0  0  0
  -20.0909    0.7349   34.2644 H   0  0  0  0  0
  -21.1146    4.4788   36.9593 H   0  0  0  0  0
  -18.8904    5.4022   38.6449 H   0  0  0  0  0
  -19.5352    7.4862   37.5488 H   0  0  0  0  0
  -21.2301    7.2322   38.0322 H   0  0  0  0  0
  -19.9836    7.5161   39.2719 H   0  0  0  0  0
  -19.4525    5.5562   40.8881 H   0  0  0  0  0
  -21.6999    3.7834   41.6063 H   0  0  0  0  0
  -20.8374    3.7881   43.7748 H   0  0  0  0  0
  -19.9035    5.3084   43.4831 H   0  0  0  0  0
  -18.4037    4.1694   42.0300 H   0  0  0  0  0
  -19.3955    2.6673   42.1130 H   0  0  0  0  0
  -18.9623    2.6056   44.5289 H   0  0  0  0  0
  -17.7753    3.9778   44.2687 H   0  0  0  0  0
  -17.1460    1.7187   42.6178 H   0  0  0  0  0
  -15.7165    2.0538   46.4018 H   0  0  0  0  0
  -17.1179    2.9937   45.8784 H   0  0  0  0  0
  -15.2853    0.4389   43.3070 H   0  0  0  0  0
  -23.5003    4.3316   42.7472 H   0  0  0  0  0
  -24.2908    7.2354   42.4969 H   0  0  0  0  0
  -26.1735    4.9656   42.9957 H   0  0  0  0  0
  -25.3875    5.0500   41.3781 H   0  0  0  0  0
  -26.1815    7.3780   41.1722 H   0  0  0  0  0
  -27.0721    7.1696   42.7250 H   0  0  0  0  0
  -28.4039    5.3807   41.7290 H   0  0  0  0  0
  -27.4987    5.5247   40.2053 H   0  0  0  0  0
  -28.2644    7.8252   39.9302 H   0  0  0  0  0
  -29.1328    7.7327   41.5043 H   0  0  0  0  0
  -31.2081    8.2045   40.6170 H   0  0  0  0  0
  -30.4250    8.4839   39.0423 H   0  0  0  0  0
  -31.7993    7.3582   39.1660 H   0  0  0  0  0
  -29.9863    4.8305   41.0151 H   0  0  0  0  0
  -30.9859    6.1258   41.7179 H   0  0  0  0  0
  -31.5424    5.2612   40.2640 H   0  0  0  0  0
  -29.0903    6.7439   38.0416 H   0  0  0  0  0
  -28.8736    5.1948   38.8927 H   0  0  0  0  0
  -30.4501    5.6015   38.1716 H   0  0  0  0  0
  -24.5584    8.3523   44.3431 H   0  0  0  0  0
  -24.4090    6.7581   46.8495 H   0  0  0  0  0
  -26.7731    7.1109   45.3819 H   0  0  0  0  0
  -22.8055    8.6633   46.4088 H   0  0  0  0  0
  -23.7299    8.7740   47.9550 H   0  0  0  0  0
  -23.6514   10.7689   46.8058 H   0  0  0  0  0
  1  2  1  0  0  0
  2  3  1  0  0  0
  2  5  1  0  0  0
  3  4  2  0  0  0
  3 10  1  0  0  0
  5  6  1  0  0  0
  6  7  1  0  0  0
  7  8  1  0  0  0
  8  9  1  0  0  0
 10 11  1  0  0  0
 11 12  1  0  0  0
 11 14  1  0  0  0
 12 13  2  0  0  0
 12 19  1  0  0  0
 14 15  1  0  0  0
 15 16  1  0  0  0
 16 17  2  0  0  0
 16 18  1  0  0  0
 19 20  1  0  0  0
 20 21  1  0  0  0
 20 23  1  0  0  0
 21 22  2  0  0  0
 21 26  1  0  0  0
 23 24  1  0  0  0
 23 25  1  0  0  0
 26 27  1  0  0  0
 27 28  1  0  0  0
 27 30  1  0  0  0
 28 29  2  0  0  0
 28 31  1  0  0  0
 31 32  1  0  0  0
 32 33  1  0  0  0
 32 35  1  0  0  0
 33 34  2  0  0  0
 33 42  1  0  0  0
 35 36  1  0  0  0
 36 37  1  0  0  0
 37 38  1  0  0  0
 38 39  1  0  0  0
 39 40  1  0  0  0
 39 41  2  0  0  0
 42 43  1  0  0  0
 43 44  1  0  0  0
 43 49  1  0  0  0
 44 45  1  0  0  0
 45 46  1  0  0  0
 46 47  1  0  0  0
 47 48  1  0  0  0
 48 51  1  0  0  0
 48 52  1  0  0  0
 48 53  1  0  0  0
 49 50  2  0  0  0
 49 54  1  0  0  0
 54 55  1  0  0  0
 55 56  1  0  0  0
 55 58  1  0  0  0
 56 57  1  0  0  0
 56 60  2  0  0  0
 58 59  1  0  0  0
  1 61  1  0  0  0
  1 62  1  0  0  0
  1 63  1  0  0  0
  2 64  1  0  0  0
  5 65  1  0  0  0
  5 66  1  0  0  0
  6 67  1  0  0  0
  6 68  1  0  0  0
  7 69  1  0  0  0
  7 70  1  0  0  0
  8 71  1  0  0  0
  8 72  1  0  0  0
  9 73  1  0  0  0
  9 74  1  0  0  0
  9 75  1  0  0  0
 10 76  1  0  0  0
 11 77  1  0  0  0
 14 78  1  0  0  0
 14 79  1  0  0  0
 15 80  1  0  0  0
 15 81  1  0  0  0
 18 82  1  0  0  0
 18 83  1  0  0  0
 19 84  1  0  0  0
 20 85  1  0  0  0
 23 86  1  0  0  0
 24 87  1  0  0  0
 25 88  1  0  0  0
 25 89  1  0  0  0
 25 90  1  0  0  0
 26 91  1  0  0  0
 27 92  1  0  0  0
 30 93  1  0  0  0
 30 94  1  0  0  0
 30 95  1  0  0  0
 31 96  1  0  0  0
 32 97  1  0  0  0
 35 98  1  0  0  0
 35 99  1  0  0  0
 36100  1  0  0  0
 36101  1  0  0  0
 37102  1  0  0  0
 37103  1  0  0  0
 38104  1  0  0  0
 40105  1  0  0  0
 40106  1  0  0  0
 41107  1  0  0  0
 42108  1  0  0  0
 43109  1  0  0  0
 44110  1  0  0  0
 44111  1  0  0  0
 45112  1  0  0  0
 45113  1  0  0  0
 46114  1  0  0  0
 46115  1  0  0  0
 47116  1  0  0  0
 47117  1  0  0  0
 51118  1  0  0  0
 51119  1  0  0  0
 51120  1  0  0  0
 52121  1  0  0  0
 52122  1  0  0  0
 52123  1  0  0  0
 53124  1  0  0  0
 53125  1  0  0  0
 53126  1  0  0  0
 54127  1  0  0  0
 55128  1  0  0  0
 57129  1  0  0  0
 58130  1  0  0  0
 58131  1  0  0  0
 59132  1  0  0  0
M  END
$$$$
