### 
### Created by X-TOOL on Mon Sep 10 21:13:23 2018
### 

@<TRIPOS>MOLECULE
4u68_ligand
  132   131     1     0     0
SMALL
GAST_HUCK


@<TRIPOS>ATOM
      1 N         -16.4940    1.2440   28.9510 N.4       1 LYS         0.2379
      2 CA        -17.7360    1.8010   29.4650 C.3       1 LYS         0.0650
      3 C         -17.4490    2.8280   30.5370 C.2       1 LYS         0.2267
      4 O         -16.5580    2.6540   31.3650 O.2       1 LYS        -0.3907
      5 CB        -18.6400    0.7160   30.0470 C.3       1 LYS         0.0080
      6 CG        -19.4150   -0.1030   29.0280 C.3       1 LYS        -0.0410
      7 CD        -20.3340   -1.0260   29.7880 C.3       1 LYS        -0.0123
      8 CE        -21.2650   -1.7400   28.8660 C.3       1 LYS        -0.0354
      9 NZ        -22.3100   -2.4100   29.6940 N.4       1 LYS         0.2185
     10 N         -18.2210    3.9010   30.5190 N.am      1 GLN        -0.2609
     11 CA        -18.1030    4.9280   31.5330 C.3       1 GLN         0.1331
     12 C         -19.1560    4.6630   32.5910 C.2       1 GLN         0.2041
     13 O         -20.3440    4.6580   32.2940 O.2       1 GLN        -0.3944
     14 CB        -18.2820    6.3080   30.9030 C.3       1 GLN         0.0045
     15 CG        -17.3440    6.5610   29.7380 C.3       1 GLN         0.0412
     16 CD        -15.9550    6.9320   30.2020 C.2       1 GLN         0.1737
     17 OE1       -15.7610    7.9690   30.8240 O.2       1 GLN        -0.3973
     18 NE2       -14.9800    6.0740   29.9130 N.am      1 GLN        -0.3009
     19 N         -18.7230    4.4090   33.8220 N.am      1 THR        -0.2613
     20 CA        -19.6470    4.1160   34.9020 C.3       1 THR         0.1565
     21 C         -19.2820    4.8770   36.1740 C.2       1 THR         0.2065
     22 O         -18.1870    5.4210   36.2900 O.2       1 THR        -0.3943
     23 CB        -19.6840    2.6170   35.2240 C.3       1 THR         0.0924
     24 OG1       -18.3970    2.2020   35.6990 O.3       1 THR        -0.3874
     25 CG2       -20.0750    1.7920   33.9990 C.3       1 THR        -0.0346
     26 N         -20.2060    4.9120   37.1240 N.am      1 ALA        -0.2639
     27 CA        -19.9400    5.5600   38.3970 C.3       1 ALA         0.1282
     28 C         -20.7950    4.9540   39.4850 C.2       1 ALA         0.2036
     29 O         -21.8280    4.3520   39.2110 O.2       1 ALA        -0.3944
     30 CB        -20.1900    7.0550   38.3060 C.3       1 ALA        -0.0244
     31 N         -20.3610    5.1210   40.7280 N.am      1 ARG        -0.2637
     32 CA        -21.1590    4.6940   41.8640 C.3       1 ARG         0.1311
     33 C         -22.1790    5.7720   42.2080 C.2       1 ARG         0.2039
     34 O         -21.9090    6.9750   42.0850 O.2       1 ARG        -0.3944
     35 CB        -20.2570    4.3690   43.0580 C.3       1 ARG        -0.0092
     36 CG        -19.0490    3.5490   42.6520 C.3       1 ARG        -0.0156
     37 CD        -18.2610    3.0950   43.8530 C.3       1 ARG         0.0627
     38 NE        -17.2020    2.1220   43.5530 N.pl3     1 ARG        -0.2723
     39 CZ        -16.3120    1.7540   44.4760 C.cat     1 ARG         0.2882
     40 NH1       -16.3880    2.3100   45.6780 N.pl3     1 ARG        -0.2849
     41 NH2       -15.3580    0.8670   44.2300 N.pl3     1 ARG        -0.2849
     42 N         -23.3610    5.3340   42.6200 N.am      1 M3L        -0.2637
     43 CA        -24.4570    6.2340   42.8940 C.3       1 M3L         0.1309
     44 CB        -25.6950    5.6120   42.2600 C.3       1 M3L        -0.0122
     45 CG        -26.6900    6.6750   41.8320 C.3       1 M3L        -0.0440
     46 CD        -27.8660    6.0680   41.0760 C.3       1 M3L        -0.0123
     47 CE        -28.8020    7.1800   40.6250 C.3       1 M3L        -0.0309
     48 NZ        -29.9860    6.6380   39.9400 N.4       1 M3L         0.2369
     49 C         -24.6190    6.3180   44.3810 C.2       1 M3L         0.2034
     50 O         -24.7310    5.2580   45.0350 O.2       1 M3L        -0.3944
     51 CM1       -30.9150    7.7430   39.6740 C.3       1 M3L        -0.0418
     52 CM2       -30.6700    5.6490   40.7900 C.3       1 M3L        -0.0418
     53 CM3       -29.5730    6.0030   38.6790 C.3       1 M3L        -0.0418
     54 N         -24.6230    7.5270   44.9390 N.am      1 SER        -0.2672
     55 CA        -24.7180    7.6960   46.3880 C.3       1 SER         0.1173
     56 C         -26.1510    7.9890   46.8190 C.2       1 SER         0.0623
     57 O         -27.1020    7.5900   46.1460 O.co2     1 SER        -0.5665
     58 CB        -23.7830    8.8140   46.8670 C.3       1 SER         0.0789
     59 OG        -24.2600   10.0970   46.4900 O.3       1 SER        -0.3910
     60 OXT       -26.3780    8.6290   47.8460 O.co2     1 SER        -0.5665
     61 H1        -16.7012    0.5620   28.2383 H         1 LYS         0.2015
     62 H2        -15.9878    0.8018   29.7022 H         1 LYS         0.2015
     63 H3        -15.9325    1.9823   28.5564 H         1 LYS         0.2015
     64 H4        -18.2653    2.2915   28.6348 H         1 LYS         0.1098
     65 H5        -19.3664    1.2019   30.7150 H         1 LYS         0.0346
     66 H6        -18.0110    0.0263   30.6289 H         1 LYS         0.0346
     67 H7        -18.7189   -0.6909   28.4118 H         1 LYS         0.0270
     68 H8        -20.0042    0.5636   28.3811 H         1 LYS         0.0270
     69 H9        -20.9225   -0.4354   30.5055 H         1 LYS         0.0317
     70 H10       -19.7292   -1.7668   30.3316 H         1 LYS         0.0317
     71 H11       -20.7110   -2.4915   28.2844 H         1 LYS         0.0813
     72 H12       -21.7365   -1.0204   28.1806 H         1 LYS         0.0813
     73 H13       -22.9525   -2.9004   29.0917 H         1 LYS         0.1994
     74 H14       -22.8116   -1.7171   30.2272 H         1 LYS         0.1994
     75 H15       -21.8719   -3.0652   30.3223 H         1 LYS         0.1994
     76 H16       -18.8991    4.0054   29.7915 H         1 GLN         0.1885
     77 H17       -17.1056    4.8755   31.9939 H         1 GLN         0.0801
     78 H18       -18.0956    7.0706   31.6735 H         1 GLN         0.0337
     79 H19       -19.3177    6.3960   30.5430 H         1 GLN         0.0337
     80 H20       -17.7470    7.3839   29.1294 H         1 GLN         0.0504
     81 H21       -17.2826    5.6487   29.1265 H         1 GLN         0.0504
     82 H22       -14.0412    6.2699   30.1965 H         1 GLN         0.1814
     83 H23       -15.1860    5.2332   29.4123 H         1 GLN         0.1814
     84 H24       -17.7404    4.4201   34.0076 H         1 THR         0.1884
     85 H25       -20.6518    4.4297   34.5827 H         1 THR         0.0826
     86 H26       -20.4296    2.4451   36.0143 H         1 THR         0.0639
     87 H27       -17.7447    2.3676   35.0284 H         1 THR         0.2101
     88 H28       -20.0914    0.7249   34.2656 H         1 THR         0.0257
     89 H29       -19.3419    1.9580   33.1959 H         1 THR         0.0257
     90 H30       -21.0732    2.0990   33.6535 H         1 THR         0.0257
     91 H31       -21.0968    4.4873   36.9625 H         1 ALA         0.1883
     92 H32       -18.8825    5.3995   38.6536 H         1 ALA         0.0797
     93 H33       -19.9820    7.5215   39.2802 H         1 ALA         0.0277
     94 H34       -21.2394    7.2352   38.0298 H         1 ALA         0.0277
     95 H35       -19.5297    7.4914   37.5421 H         1 ALA         0.0277
     96 H36       -19.4703    5.5476   40.8850 H         1 ARG         0.1883
     97 H37       -21.7030    3.7793   41.5859 H         1 ARG         0.0800
     98 H38       -20.8392    3.8006   43.7982 H         1 ARG         0.0313
     99 H39       -19.9112    5.3111   43.5084 H         1 ARG         0.0313
    100 H40       -18.4000    4.1624   42.0098 H         1 ARG         0.0301
    101 H41       -19.3887    2.6650   42.0924 H         1 ARG         0.0301
    102 H42       -18.9586    2.6343   44.5679 H         1 ARG         0.0689
    103 H43       -17.7953    3.9791   44.3129 H         1 ARG         0.0689
    104 H44       -17.1454    1.7147   42.6086 H         1 ARG         0.2642
    105 H45       -15.7145    2.0458   46.4112 H         1 ARG         0.2615
    106 H46       -17.1205    3.0059   45.8781 H         1 ARG         0.2615
    107 H47       -15.2894    0.4289   43.3003 H         1 ARG         0.2615
    108 H48       -14.6854    0.6159   44.9685 H         1 ARG         0.2615
    109 H49       -23.4976    4.3512   42.7447 H         1 M3L         0.1883
    110 H50       -24.2659    7.2321   42.4729 H         1 M3L         0.0800
    111 H51       -26.1755    4.9456   42.9914 H         1 M3L         0.0312
    112 H52       -25.3913    5.0298   41.3775 H         1 M3L         0.0312
    113 H53       -26.1807    7.3989   41.1789 H         1 M3L         0.0269
    114 H54       -27.0685    7.1912   42.7266 H         1 M3L         0.0269
    115 H55       -28.4092    5.3757   41.7360 H         1 M3L         0.0317
    116 H56       -27.4947    5.5211   40.1968 H         1 M3L         0.0317
    117 H57       -28.2620    7.8449   39.9349 H         1 M3L         0.0815
    118 H58       -29.1285    7.7526   41.5056 H         1 M3L         0.0815
    119 H59       -31.8079    7.3559   39.1613 H         1 M3L         0.0778
    120 H60       -30.4217    8.4914   39.0365 H         1 M3L         0.0778
    121 H61       -31.2117    8.2096   40.6249 H         1 M3L         0.0778
    122 H62       -29.9879    4.8120   41.0002 H         1 M3L         0.0778
    123 H63       -31.5626    5.2725   40.2690 H         1 M3L         0.0778
    124 H64       -30.9703    6.1236   41.7358 H         1 M3L         0.0778
    125 H65       -29.0624    6.7434   38.0457 H         1 M3L         0.0778
    126 H66       -30.4603    5.6205   38.1532 H         1 M3L         0.0778
    127 H67       -28.8875    5.1703   38.8951 H         1 M3L         0.0778
    128 H68       -24.5597    8.3361   44.3548 H         1 SER         0.1876
    129 H69       -24.4025    6.7551   46.8625 H         1 SER         0.0749
    130 H70       -22.7877    8.6599   46.4247 H         1 SER         0.0599
    131 H71       -23.7078    8.7701   47.9635 H         1 SER         0.0599
    132 H72       -24.3227   10.1447   45.5433 H         1 SER         0.2096
@<TRIPOS>BOND
     1    1    2 1  
     2    2    3 1  
     3    2    5 1  
     4    3    4 2  
     5    3   10 am 
     6    5    6 1  
     7    6    7 1  
     8    7    8 1  
     9    8    9 1  
    10   10   11 1  
    11   11   12 1  
    12   11   14 1  
    13   12   13 2  
    14   12   19 am 
    15   14   15 1  
    16   15   16 1  
    17   16   17 2  
    18   16   18 am 
    19   19   20 1  
    20   20   21 1  
    21   20   23 1  
    22   21   22 2  
    23   21   26 am 
    24   23   24 1  
    25   23   25 1  
    26   26   27 1  
    27   27   28 1  
    28   27   30 1  
    29   28   29 2  
    30   28   31 am 
    31   31   32 1  
    32   32   33 1  
    33   32   35 1  
    34   33   34 2  
    35   33   42 am 
    36   35   36 1  
    37   36   37 1  
    38   37   38 1  
    39   38   39 ar 
    40   39   40 ar 
    41   39   41 ar 
    42   42   43 1  
    43   43   44 1  
    44   43   49 1  
    45   44   45 1  
    46   45   46 1  
    47   46   47 1  
    48   47   48 1  
    49   48   51 1  
    50   48   52 1  
    51   48   53 1  
    52   49   50 2  
    53   49   54 am 
    54   54   55 1  
    55   55   56 1  
    56   55   58 1  
    57   56   57 ar 
    58   56   60 ar 
    59   58   59 1  
    60    1   61 1  
    61    1   62 1  
    62    1   63 1  
    63    2   64 1  
    64    5   65 1  
    65    5   66 1  
    66    6   67 1  
    67    6   68 1  
    68    7   69 1  
    69    7   70 1  
    70    8   71 1  
    71    8   72 1  
    72    9   73 1  
    73    9   74 1  
    74    9   75 1  
    75   10   76 1  
    76   11   77 1  
    77   14   78 1  
    78   14   79 1  
    79   15   80 1  
    80   15   81 1  
    81   18   82 1  
    82   18   83 1  
    83   19   84 1  
    84   20   85 1  
    85   23   86 1  
    86   24   87 1  
    87   25   88 1  
    88   25   89 1  
    89   25   90 1  
    90   26   91 1  
    91   27   92 1  
    92   30   93 1  
    93   30   94 1  
    94   30   95 1  
    95   31   96 1  
    96   32   97 1  
    97   35   98 1  
    98   35   99 1  
    99   36  100 1  
   100   36  101 1  
   101   37  102 1  
   102   37  103 1  
   103   38  104 1  
   104   40  105 1  
   105   40  106 1  
   106   41  107 1  
   107   41  108 1  
   108   42  109 1  
   109   43  110 1  
   110   44  111 1  
   111   44  112 1  
   112   45  113 1  
   113   45  114 1  
   114   46  115 1  
   115   46  116 1  
   116   47  117 1  
   117   47  118 1  
   118   51  119 1  
   119   51  120 1  
   120   51  121 1  
   121   52  122 1  
   122   52  123 1  
   123   52  124 1  
   124   53  125 1  
   125   53  126 1  
   126   53  127 1  
   127   54  128 1  
   128   55  129 1  
   129   58  130 1  
   130   58  131 1  
   131   59  132 1  
@<TRIPOS>SUBSTRUCTURE
     1 LYS         1

