### 
### Created by X-TOOL on Mon Sep 10 21:13:23 2018
### 

@<TRIPOS>MOLECULE
4qwk_ligand
  114   116     1     0     0
SMALL
GAST_HUCK


@<TRIPOS>ATOM
      1 C8         59.4520 -135.6200   31.7160 C.2       1 3BV         0.2238
      2 O9         60.1850 -134.7080   31.3330 O.2       1 3BV        -0.3910
      3 C7         59.0610 -136.7950   30.8010 C.3       1 3BV         0.0582
      4 N4         58.6380 -136.4040   29.4320 N.4       1 3BV         0.2552
      5 O1         58.5630 -134.9380   27.1710 O.3       1 3BV        -0.3693
      6 C5         59.7850 -136.3420   28.4890 C.3       1 3BV        -0.0060
      7 C3         57.8200 -135.1590   29.3870 C.3       1 3BV        -0.0060
      8 C6         59.1960 -136.2030   27.1220 C.3       1 3BV         0.0878
      9 C2         57.3790 -134.9140   28.0190 C.3       1 3BV         0.0878
     10 N10        58.9380 -135.7030   32.9490 N.am      1 3BV        -0.2611
     11 C11        59.2270 -134.7090   33.9840 C.3       1 3BV         0.1328
     12 C20        60.4540 -135.1950   34.7420 C.2       1 3BV         0.2041
     13 O21        60.7660 -136.3850   34.7380 O.2       1 3BV        -0.3944
     14 C12        58.0860 -134.6600   34.9670 C.3       1 3BV        -0.0027
     15 C13        57.2730 -133.4220   34.6350 C.3       1 3BV        -0.0149
     16 C14        55.9870 -133.5180   35.2340 C.ar      1 3BV        -0.0428
     17 C19        54.9090 -132.8700   34.6230 C.ar      1 3BV        -0.0603
     18 C15        55.7430 -134.2140   36.4290 C.ar      1 3BV        -0.0603
     19 C18        53.6310 -132.9270   35.1730 C.ar      1 3BV        -0.0686
     20 C16        54.4650 -134.2730   36.9780 C.ar      1 3BV        -0.0686
     21 C17        53.4060 -133.6280   36.3530 C.ar      1 3BV        -0.0687
     22 N22        61.1080 -134.2500   35.4190 N.am      1 3BV        -0.2637
     23 C23        62.2770 -134.5860   36.2360 C.3       1 3BV         0.1312
     24 C28        61.7830 -134.8090   37.6620 C.2       1 3BV         0.2040
     25 O29        60.9360 -134.0640   38.1560 O.2       1 3BV        -0.3944
     26 C24        63.2490 -133.4420   36.2010 C.3       1 3BV        -0.0101
     27 C25        64.0270 -133.6410   34.8790 C.3       1 3BV        -0.0425
     28 C26        64.5170 -132.2880   34.3360 C.3       1 3BV        -0.0625
     29 C27        65.2220 -134.5930   35.0940 C.3       1 3BV        -0.0625
     30 N30        62.3090 -135.8790   38.2770 N.am      1 3BV        -0.2619
     31 C31        61.9520 -136.2230   39.6600 C.3       1 3BV         0.1403
     32 C39        63.2290 -136.1710   40.4830 C.2       1 3BV         0.2040
     33 O40        64.3220 -136.1070   39.9220 O.2       1 3BV        -0.3943
     34 C32        61.3220 -137.5840   39.7290 C.3       1 3BV         0.0214
     35 C33        59.9830 -137.3790   39.3640 C.ar      1 3BV        -0.0386
     36 C34        59.5620 -137.6080   38.0540 C.ar      1 3BV        -0.0601
     37 C38        59.0580 -136.9370   40.3110 C.ar      1 3BV        -0.0601
     38 C35        58.2300 -137.4020   37.6970 C.ar      1 3BV        -0.0686
     39 C37        57.7280 -136.7290   39.9540 C.ar      1 3BV        -0.0686
     40 C36        57.3110 -136.9620   38.6460 C.ar      1 3BV        -0.0687
     41 N41        63.0370 -136.1780   41.8120 N.am      1 3BV        -0.2794
     42 C42        64.1270 -135.9810   42.7730 C.3       1 3BV         0.0685
     43 C43        63.8690 -134.5680   43.2680 C.3       1 3BV        -0.0251
     44 C44        64.9610 -133.5460   42.8560 C.3       1 3BV        -0.0446
     45 C45        64.3280 -132.1420   42.9210 C.3       1 3BV        -0.0626
     46 C46        65.5640 -133.7570   41.4520 C.3       1 3BV        -0.0626
     47 C47        64.0680 -136.9170   44.0000 C.3       1 3BV         0.0827
     48 C51        64.4120 -138.4750   43.7580 C.3       1 3BV         0.0075
     49 C58        65.4330 -138.6460   42.5980 C.3       1 3BV        -0.0579
     50 C59        63.1450 -139.1910   43.2700 C.3       1 3BV         0.0492
     51 O60        62.1130 -138.9180   44.2320 O.3       1 3BV        -0.3947
     52 O48        62.7580 -136.7900   44.5800 O.3       1 3BV        -0.3892
     53 H1         58.2286 -137.3357   31.2750 H         1 3BV         0.1063
     54 H2         59.9298 -137.4639   30.7128 H         1 3BV         0.1063
     55 H3         58.0382 -137.1447   29.1037 H         1 3BV         0.2054
     56 H4         60.3825 -137.2633   28.5546 H         1 3BV         0.0837
     57 H5         60.4215 -135.4750   28.7196 H         1 3BV         0.0837
     58 H6         58.4265 -134.3095   29.7340 H         1 3BV         0.0837
     59 H7         56.9421 -135.2737   30.0398 H         1 3BV         0.0837
     60 H8         59.9800 -136.2224   26.3507 H         1 3BV         0.0613
     61 H9         58.4665 -137.0020   26.9235 H         1 3BV         0.0613
     62 H10        56.6748 -135.6983   27.7045 H         1 3BV         0.0613
     63 H11        56.8880 -133.9320   27.9521 H         1 3BV         0.0613
     64 H12        58.3361 -136.4702   33.1707 H         1 3BV         0.1884
     65 H13        59.4002 -133.7188   33.5373 H         1 3BV         0.0801
     66 H14        58.4739 -134.5939   35.9942 H         1 3BV         0.0334
     67 H15        57.4620 -135.5604   34.8679 H         1 3BV         0.0334
     68 H16        57.1627 -133.3388   33.5437 H         1 3BV         0.0428
     69 H17        57.7901 -132.5308   35.0203 H         1 3BV         0.0428
     70 H18        55.0708 -132.3143   33.7064 H         1 3BV         0.0557
     71 H19        56.5630 -134.7134   36.9321 H         1 3BV         0.0557
     72 H20        52.8080 -132.4229   34.6794 H         1 3BV         0.0599
     73 H21        54.2961 -134.8241   37.8961 H         1 3BV         0.0599
     74 H22        52.4112 -133.6705   36.7816 H         1 3BV         0.0559
     75 H23        60.7968 -133.3010   35.3684 H         1 3BV         0.1883
     76 H24        62.7608 -135.4975   35.8551 H         1 3BV         0.0800
     77 H25        63.9301 -133.4830   37.0638 H         1 3BV         0.0315
     78 H26        62.7174 -132.4790   36.1989 H         1 3BV         0.0315
     79 H27        63.3492 -134.0912   34.1388 H         1 3BV         0.0298
     80 H28        65.0674 -132.4474   33.3971 H         1 3BV         0.0232
     81 H29        65.1811 -131.8153   35.0746 H         1 3BV         0.0232
     82 H30        63.6530 -131.6337   34.1479 H         1 3BV         0.0232
     83 H31        64.8584 -135.5559   35.4821 H         1 3BV         0.0232
     84 H32        65.9209 -134.1468   35.8168 H         1 3BV         0.0232
     85 H33        65.7386 -134.7551   34.1365 H         1 3BV         0.0232
     86 H34        62.9592 -136.4559   37.7826 H         1 3BV         0.1885
     87 H35        61.2364 -135.4832   40.0481 H         1 3BV         0.0823
     88 H36        61.3875 -137.9899   40.7493 H         1 3BV         0.0474
     89 H37        61.8133 -138.2743   39.0275 H         1 3BV         0.0474
     90 H38        60.2736 -137.9477   37.3102 H         1 3BV         0.0557
     91 H39        59.3768 -136.7544   41.3309 H         1 3BV         0.0557
     92 H40        57.9090 -137.5849   36.6779 H         1 3BV         0.0599
     93 H41        57.0162 -136.3851   40.6957 H         1 3BV         0.0599
     94 H42        56.2756 -136.8016   38.3679 H         1 3BV         0.0559
     95 H43        62.1114 -136.3237   42.1612 H         1 3BV         0.1856
     96 H44        65.1049 -136.0766   42.2786 H         1 3BV         0.0582
     97 H45        63.8135 -134.5909   44.3663 H         1 3BV         0.0291
     98 H46        62.9058 -134.2287   42.8592 H         1 3BV         0.0291
     99 H47        65.7808 -133.6102   43.5866 H         1 3BV         0.0296
    100 H48        65.0765 -131.3887   42.6340 H         1 3BV         0.0232
    101 H49        63.9818 -131.9429   43.9459 H         1 3BV         0.0232
    102 H50        63.4741 -132.0924   42.2294 H         1 3BV         0.0232
    103 H51        66.0188 -134.7569   41.3948 H         1 3BV         0.0232
    104 H52        66.3331 -132.9932   41.2646 H         1 3BV         0.0232
    105 H53        64.7702 -133.6715   40.6953 H         1 3BV         0.0232
    106 H54        64.8066 -136.5429   44.7242 H         1 3BV         0.0620
    107 H55        64.7939 -138.9257   44.6859 H         1 3BV         0.0346
    108 H56        65.6494 -139.7149   42.4546 H         1 3BV         0.0234
    109 H57        66.3630 -138.1138   42.8466 H         1 3BV         0.0234
    110 H58        65.0090 -138.2303   41.6720 H         1 3BV         0.0234
    111 H59        63.3242 -140.2743   43.2051 H         1 3BV         0.0560
    112 H60        62.8513 -138.8080   42.2816 H         1 3BV         0.0560
    113 H61        61.9707 -137.9802   44.2845 H         1 3BV         0.2094
    114 H62        62.1144 -137.1660   43.9911 H         1 3BV         0.2099
@<TRIPOS>BOND
     1    1    2 2  
     2    3    1 1  
     3    1   10 am 
     4    4    3 1  
     5    6    4 1  
     6    4    7 1  
     7    8    5 1  
     8    5    9 1  
     9    6    8 1  
    10    7    9 1  
    11   10   11 1  
    12   11   12 1  
    13   11   14 1  
    14   12   13 2  
    15   12   22 am 
    16   14   15 1  
    17   15   16 1  
    18   16   17 ar 
    19   16   18 ar 
    20   17   19 ar 
    21   18   20 ar 
    22   19   21 ar 
    23   20   21 ar 
    24   22   23 1  
    25   23   24 1  
    26   23   26 1  
    27   24   25 2  
    28   24   30 am 
    29   26   27 1  
    30   27   28 1  
    31   27   29 1  
    32   30   31 1  
    33   31   32 1  
    34   31   34 1  
    35   32   33 2  
    36   32   41 am 
    37   34   35 1  
    38   35   36 ar 
    39   35   37 ar 
    40   36   38 ar 
    41   37   39 ar 
    42   38   40 ar 
    43   39   40 ar 
    44   41   42 1  
    45   42   43 1  
    46   42   47 1  
    47   43   44 1  
    48   44   45 1  
    49   44   46 1  
    50   47   48 1  
    51   47   52 1  
    52   48   49 1  
    53   48   50 1  
    54   50   51 1  
    55    3   53 1  
    56    3   54 1  
    57    4   55 1  
    58    6   56 1  
    59    6   57 1  
    60    7   58 1  
    61    7   59 1  
    62    8   60 1  
    63    8   61 1  
    64    9   62 1  
    65    9   63 1  
    66   10   64 1  
    67   11   65 1  
    68   14   66 1  
    69   14   67 1  
    70   15   68 1  
    71   15   69 1  
    72   17   70 1  
    73   18   71 1  
    74   19   72 1  
    75   20   73 1  
    76   21   74 1  
    77   22   75 1  
    78   23   76 1  
    79   26   77 1  
    80   26   78 1  
    81   27   79 1  
    82   28   80 1  
    83   28   81 1  
    84   28   82 1  
    85   29   83 1  
    86   29   84 1  
    87   29   85 1  
    88   30   86 1  
    89   31   87 1  
    90   34   88 1  
    91   34   89 1  
    92   36   90 1  
    93   37   91 1  
    94   38   92 1  
    95   39   93 1  
    96   40   94 1  
    97   41   95 1  
    98   42   96 1  
    99   43   97 1  
   100   43   98 1  
   101   44   99 1  
   102   45  100 1  
   103   45  101 1  
   104   45  102 1  
   105   46  103 1  
   106   46  104 1  
   107   46  105 1  
   108   47  106 1  
   109   48  107 1  
   110   49  108 1  
   111   49  109 1  
   112   49  110 1  
   113   50  111 1  
   114   50  112 1  
   115   51  113 1  
   116   52  114 1  
@<TRIPOS>SUBSTRUCTURE
     1 3BV         1

