4qwk_ligand
  -I-interpret- 

114116  0  0  0  0  0  0  0  0999 V2000
   59.4520 -135.6200   31.7160 C   0  0  0  0  0
   60.1850 -134.7080   31.3330 O   0  0  0  0  0
   59.0610 -136.7950   30.8010 C   0  0  0  0  0
   58.6380 -136.4040   29.4320 N   0  3  0  0  0
   58.5630 -134.9380   27.1710 O   0  0  0  0  0
   59.7850 -136.3420   28.4890 C   0  0  0  0  0
   57.8200 -135.1590   29.3870 C   0  0  0  0  0
   59.1960 -136.2030   27.1220 C   0  0  0  0  0
   57.3790 -134.9140   28.0190 C   0  0  0  0  0
   58.9380 -135.7030   32.9490 N   0  0  0  0  0
   59.2270 -134.7090   33.9840 C   0  0  0  0  0
   60.4540 -135.1950   34.7420 C   0  0  0  0  0
   60.7660 -136.3850   34.7380 O   0  0  0  0  0
   58.0860 -134.6600   34.9670 C   0  0  0  0  0
   57.2730 -133.4220   34.6350 C   0  0  0  0  0
   55.9870 -133.5180   35.2340 C   0  0  0  0  0
   54.9090 -132.8700   34.6230 C   0  0  0  0  0
   55.7430 -134.2140   36.4290 C   0  0  0  0  0
   53.6310 -132.9270   35.1730 C   0  0  0  0  0
   54.4650 -134.2730   36.9780 C   0  0  0  0  0
   53.4060 -133.6280   36.3530 C   0  0  0  0  0
   61.1080 -134.2500   35.4190 N   0  0  0  0  0
   62.2770 -134.5860   36.2360 C   0  0  0  0  0
   61.7830 -134.8090   37.6620 C   0  0  0  0  0
   60.9360 -134.0640   38.1560 O   0  0  0  0  0
   63.2490 -133.4420   36.2010 C   0  0  0  0  0
   64.0270 -133.6410   34.8790 C   0  0  0  0  0
   64.5170 -132.2880   34.3360 C   0  0  0  0  0
   65.2220 -134.5930   35.0940 C   0  0  0  0  0
   62.3090 -135.8790   38.2770 N   0  0  0  0  0
   61.9520 -136.2230   39.6600 C   0  0  0  0  0
   63.2290 -136.1710   40.4830 C   0  0  0  0  0
   64.3220 -136.1070   39.9220 O   0  0  0  0  0
   61.3220 -137.5840   39.7290 C   0  0  0  0  0
   59.9830 -137.3790   39.3640 C   0  0  0  0  0
   59.5620 -137.6080   38.0540 C   0  0  0  0  0
   59.0580 -136.9370   40.3110 C   0  0  0  0  0
   58.2300 -137.4020   37.6970 C   0  0  0  0  0
   57.7280 -136.7290   39.9540 C   0  0  0  0  0
   57.3110 -136.9620   38.6460 C   0  0  0  0  0
   63.0370 -136.1780   41.8120 N   0  0  0  0  0
   64.1270 -135.9810   42.7730 C   0  0  0  0  0
   63.8690 -134.5680   43.2680 C   0  0  0  0  0
   64.9610 -133.5460   42.8560 C   0  0  0  0  0
   64.3280 -132.1420   42.9210 C   0  0  0  0  0
   65.5640 -133.7570   41.4520 C   0  0  0  0  0
   64.0680 -136.9170   44.0000 C   0  0  0  0  0
   64.4120 -138.4750   43.7580 C   0  0  0  0  0
   65.4330 -138.6460   42.5980 C   0  0  0  0  0
   63.1450 -139.1910   43.2700 C   0  0  0  0  0
   62.1130 -138.9180   44.2320 O   0  0  0  0  0
   62.7580 -136.7900   44.5800 O   0  0  0  0  0
   58.2082 -137.2888   31.2669 H   0  0  0  0  0
   59.9474 -137.4199   30.6921 H   0  0  0  0  0
   58.0193 -137.1520   29.1188 H   0  0  0  0  0
   60.4014 -137.2380   28.5614 H   0  0  0  0  0
   60.4393 -135.5018   28.7216 H   0  0  0  0  0
   58.4215 -134.3173   29.7303 H   0  0  0  0  0
   56.9499 -135.2733   30.0335 H   0  0  0  0  0
   59.9446 -136.2688   26.3324 H   0  0  0  0  0
   58.5055 -137.0100   26.8771 H   0  0  0  0  0
   56.6670 -135.6768   27.7039 H   0  0  0  0  0
   56.8753 -133.9501   27.9460 H   0  0  0  0  0
   58.3240 -136.4855   33.1752 H   0  0  0  0  0
   59.3778 -133.7279   33.5336 H   0  0  0  0  0
   58.4582 -134.6159   35.9905 H   0  0  0  0  0
   57.4722 -135.5577   34.8930 H   0  0  0  0  0
   57.1627 -133.3416   33.5536 H   0  0  0  0  0
   57.7853 -132.5398   35.0188 H   0  0  0  0  0
   55.0717 -132.3113   33.7013 H   0  0  0  0  0
   56.5676 -134.7162   36.9349 H   0  0  0  0  0
   52.8035 -132.4201   34.6767 H   0  0  0  0  0
   54.2952 -134.8271   37.9012 H   0  0  0  0  0
   52.4057 -133.6707   36.7840 H   0  0  0  0  0
   60.7906 -133.2820   35.3674 H   0  0  0  0  0
   62.7782 -135.4788   35.8621 H   0  0  0  0  0
   63.9089 -133.4378   37.0686 H   0  0  0  0  0
   62.7465 -132.4755   36.2396 H   0  0  0  0  0
   63.3535 -134.0876   34.1475 H   0  0  0  0  0
   63.6600 -131.6406   34.1501 H   0  0  0  0  0
   65.1749 -131.8206   35.0687 H   0  0  0  0  0
   65.0622 -132.4472   33.4057 H   0  0  0  0  0
   65.8934 -134.1685   35.8404 H   0  0  0  0  0
   64.8569 -135.5600   35.4399 H   0  0  0  0  0
   65.7570 -134.7207   34.1530 H   0  0  0  0  0
   62.9722 -136.4674   37.7727 H   0  0  0  0  0
   61.2188 -135.5177   40.0512 H   0  0  0  0  0
   61.4087 -138.0209   40.7238 H   0  0  0  0  0
   61.8182 -138.2945   39.0679 H   0  0  0  0  0
   60.2776 -137.9495   37.3060 H   0  0  0  0  0
   59.3785 -136.7534   41.3365 H   0  0  0  0  0
   57.9073 -137.5859   36.6722 H   0  0  0  0  0
   57.0122 -136.3832   40.6998 H   0  0  0  0  0
   56.2699 -136.8007   38.3663 H   0  0  0  0  0
   62.0929 -136.3267   42.1682 H   0  0  0  0  0
   65.0909 -136.1732   42.3019 H   0  0  0  0  0
   63.8547 -134.6045   44.3573 H   0  0  0  0  0
   62.9309 -134.2358   42.8233 H   0  0  0  0  0
   65.7925 -133.6784   43.5483 H   0  0  0  0  0
   63.4820 -132.0942   42.2353 H   0  0  0  0  0
   63.9854 -131.9460   43.9370 H   0  0  0  0  0
   65.0706 -131.3965   42.6364 H   0  0  0  0  0
   66.0264 -134.7428   41.4010 H   0  0  0  0  0
   64.7741 -133.6856   40.7043 H   0  0  0  0  0
   66.3161 -132.9912   41.2622 H   0  0  0  0  0
   64.8710 -136.5869   44.6590 H   0  0  0  0  0
   64.8031 -138.8734   44.6942 H   0  0  0  0  0
   65.0117 -138.2337   41.6811 H   0  0  0  0  0
   66.3540 -138.1182   42.8456 H   0  0  0  0  0
   65.6466 -139.7055   42.4569 H   0  0  0  0  0
   63.3171 -140.2637   43.1822 H   0  0  0  0  0
   62.8559 -138.8338   42.2816 H   0  0  0  0  0
   61.3007 -139.3513   43.9599 H   0  0  0  0  0
   62.6922 -137.3627   45.3476 H   0  0  0  0  0
  1  2  2  0  0  0
  3  1  1  0  0  0
  1 10  1  0  0  0
  4  3  1  0  0  0
  6  4  1  0  0  0
  4  7  1  0  0  0
  8  5  1  0  0  0
  5  9  1  0  0  0
  6  8  1  0  0  0
  7  9  1  0  0  0
 10 11  1  0  0  0
 11 12  1  0  0  0
 11 14  1  0  0  0
 12 13  2  0  0  0
 12 22  1  0  0  0
 14 15  1  0  0  0
 15 16  1  0  0  0
 16 17  4  0  0  0
 16 18  4  0  0  0
 17 19  4  0  0  0
 18 20  4  0  0  0
 19 21  4  0  0  0
 20 21  4  0  0  0
 22 23  1  0  0  0
 23 24  1  0  0  0
 23 26  1  0  0  0
 24 25  2  0  0  0
 24 30  1  0  0  0
 26 27  1  0  0  0
 27 28  1  0  0  0
 27 29  1  0  0  0
 30 31  1  0  0  0
 31 32  1  0  0  0
 31 34  1  0  0  0
 32 33  2  0  0  0
 32 41  1  0  0  0
 34 35  1  0  0  0
 35 36  4  0  0  0
 35 37  4  0  0  0
 36 38  4  0  0  0
 37 39  4  0  0  0
 38 40  4  0  0  0
 39 40  4  0  0  0
 41 42  1  0  0  0
 42 43  1  0  0  0
 42 47  1  0  0  0
 43 44  1  0  0  0
 44 45  1  0  0  0
 44 46  1  0  0  0
 47 48  1  0  0  0
 47 52  1  0  0  0
 48 49  1  0  0  0
 48 50  1  0  0  0
 50 51  1  0  0  0
  3 53  1  0  0  0
  3 54  1  0  0  0
  4 55  1  0  0  0
  6 56  1  0  0  0
  6 57  1  0  0  0
  7 58  1  0  0  0
  7 59  1  0  0  0
  8 60  1  0  0  0
  8 61  1  0  0  0
  9 62  1  0  0  0
  9 63  1  0  0  0
 10 64  1  0  0  0
 11 65  1  0  0  0
 14 66  1  0  0  0
 14 67  1  0  0  0
 15 68  1  0  0  0
 15 69  1  0  0  0
 17 70  1  0  0  0
 18 71  1  0  0  0
 19 72  1  0  0  0
 20 73  1  0  0  0
 21 74  1  0  0  0
 22 75  1  0  0  0
 23 76  1  0  0  0
 26 77  1  0  0  0
 26 78  1  0  0  0
 27 79  1  0  0  0
 28 80  1  0  0  0
 28 81  1  0  0  0
 28 82  1  0  0  0
 29 83  1  0  0  0
 29 84  1  0  0  0
 29 85  1  0  0  0
 30 86  1  0  0  0
 31 87  1  0  0  0
 34 88  1  0  0  0
 34 89  1  0  0  0
 36 90  1  0  0  0
 37 91  1  0  0  0
 38 92  1  0  0  0
 39 93  1  0  0  0
 40 94  1  0  0  0
 41 95  1  0  0  0
 42 96  1  0  0  0
 43 97  1  0  0  0
 43 98  1  0  0  0
 44 99  1  0  0  0
 45100  1  0  0  0
 45101  1  0  0  0
 45102  1  0  0  0
 46103  1  0  0  0
 46104  1  0  0  0
 46105  1  0  0  0
 47106  1  0  0  0
 48107  1  0  0  0
 49108  1  0  0  0
 49109  1  0  0  0
 49110  1  0  0  0
 50111  1  0  0  0
 50112  1  0  0  0
 51113  1  0  0  0
 52114  1  0  0  0
M  END
$$$$
