5kgw_ligand
  -I-interpret- 

 56 59  0  0  0  0  0  0  0  0999 V2000
  -26.0160  -12.1250   -2.7750 C   0  0  0  0  0
  -27.0180  -14.9420   -4.7590 C   0  0  0  0  0
  -29.2570  -14.7980   -5.6180 C   0  0  0  0  0
  -31.0950  -14.4500   -4.0960 C   0  0  0  0  0
  -32.1670  -13.8170   -1.5620 C   0  0  0  0  0
  -30.7240  -14.2480   -1.5660 C   0  0  0  0  0
  -30.2040  -14.4450   -3.0190 C   0  0  0  0  0
  -26.2960  -16.0650   -5.1820 C   0  0  0  0  0
  -25.6630  -18.2870   -5.8820 C   0  0  0  0  0
  -23.9940  -16.5680   -5.6640 C   0  0  0  0  0
  -23.6960  -13.5670   -4.8930 C   0  0  0  0  0
  -24.9130  -14.3550   -4.9250 N   0  0  0  0  0
  -26.1170  -13.9030   -4.6170 C   0  0  0  0  0
  -26.5080  -12.4850   -4.1790 C   0  0  0  0  0
  -25.9610  -11.5390   -5.0630 O   0  0  0  0  0
  -26.6200  -11.2650   -6.2800 C   0  0  0  0  0
  -26.2950  -12.3480   -7.3050 C   0  0  0  0  0
  -28.1420  -11.1550   -6.1420 C   0  0  0  0  0
  -26.0960   -9.9250   -6.8000 C   0  0  0  0  0
  -26.0110  -12.9920   -1.8600 O   0  0  0  0  0
  -25.6270  -10.9500   -2.5330 O   0  0  0  0  0
  -28.3730  -14.8080   -4.5330 C   0  0  0  0  0
  -30.6170  -14.6270   -5.3980 C   0  0  0  0  0
  -32.5030  -14.2710   -3.9110 O   0  0  0  0  0
  -32.9770  -14.4770   -2.6310 C   0  0  0  0  0
  -28.8390  -14.6140   -3.2370 C   0  0  0  0  0
  -26.6440  -17.3870   -5.4890 C   0  0  0  0  0
  -24.3380  -17.8750   -5.9680 C   0  0  0  0  0
  -24.9840  -15.6540   -5.2680 C   0  0  0  0  0
  -28.8789  -14.9241   -6.6325 H   0  0  0  0  0
  -32.1929  -12.7422   -1.7418 H   0  0  0  0  0
  -32.5949  -14.0985   -0.5998 H   0  0  0  0  0
  -30.6409  -15.1956   -1.0337 H   0  0  0  0  0
  -30.1270  -13.4744   -1.0832 H   0  0  0  0  0
  -25.9312  -19.3156   -6.1229 H   0  0  0  0  0
  -22.9540  -16.2487   -5.7322 H   0  0  0  0  0
  -23.7909  -12.7262   -5.5802 H   0  0  0  0  0
  -23.5322  -13.1947   -3.8817 H   0  0  0  0  0
  -22.8534  -14.1899   -5.1931 H   0  0  0  0  0
  -27.5979  -12.4673   -4.1823 H   0  0  0  0  0
  -25.2189  -12.3726   -7.4768 H   0  0  0  0  0
  -26.6261  -13.3153   -6.9271 H   0  0  0  0  0
  -26.8087  -12.1269   -8.2406 H   0  0  0  0  0
  -28.5398  -12.0952   -5.7601 H   0  0  0  0  0
  -28.3855  -10.3484   -5.4504 H   0  0  0  0  0
  -28.5796  -10.9434   -7.1176 H   0  0  0  0  0
  -26.3083   -9.1449   -6.0689 H   0  0  0  0  0
  -25.0197   -9.9937   -6.9578 H   0  0  0  0  0
  -26.5881   -9.6850   -7.7425 H   0  0  0  0  0
  -25.6942  -10.4211   -3.3313 H   0  0  0  0  0
  -31.3108  -14.6307   -6.2386 H   0  0  0  0  0
  -33.9779  -14.0476   -2.5865 H   0  0  0  0  0
  -32.9410  -15.5503   -2.4443 H   0  0  0  0  0
  -28.1419  -14.5944   -2.3993 H   0  0  0  0  0
  -27.6833  -17.7082   -5.4194 H   0  0  0  0  0
  -23.5677  -18.5823   -6.2755 H   0  0  0  0  0
 14  1  1  0  0  0
  1 20  2  0  0  0
  1 21  1  0  0  0
  2  8  4  0  0  0
 13  2  4  0  0  0
  2 22  1  0  0  0
 22  3  4  0  0  0
  3 23  4  0  0  0
  4  7  4  0  0  0
 23  4  4  0  0  0
  4 24  1  0  0  0
  6  5  1  0  0  0
  5 25  1  0  0  0
  7  6  1  0  0  0
  7 26  4  0  0  0
  8 27  4  0  0  0
 29  8  4  0  0  0
 27  9  4  0  0  0
 28  9  4  0  0  0
 10 28  4  0  0  0
 29 10  4  0  0  0
 12 11  1  0  0  0
 13 12  4  0  0  0
 12 29  4  0  0  0
 13 14  1  0  0  0
 14 15  1  0  0  0
 15 16  1  0  0  0
 16 17  1  0  0  0
 16 18  1  0  0  0
 16 19  1  0  0  0
 22 26  4  0  0  0
 24 25  1  0  0  0
  3 30  1  0  0  0
  5 31  1  0  0  0
  5 32  1  0  0  0
  6 33  1  0  0  0
  6 34  1  0  0  0
  9 35  1  0  0  0
 10 36  1  0  0  0
 11 37  1  0  0  0
 11 38  1  0  0  0
 11 39  1  0  0  0
 14 40  1  0  0  0
 17 41  1  0  0  0
 17 42  1  0  0  0
 17 43  1  0  0  0
 18 44  1  0  0  0
 18 45  1  0  0  0
 18 46  1  0  0  0
 19 47  1  0  0  0
 19 48  1  0  0  0
 19 49  1  0  0  0
 21 50  1  0  0  0
 23 51  1  0  0  0
 25 52  1  0  0  0
 25 53  1  0  0  0
 26 54  1  0  0  0
 27 55  1  0  0  0
 28 56  1  0  0  0
M  END
$$$$
