6p86_ligand
  -I-interpret- 

 69 73  0  0  0  0  0  0  0  0999 V2000
   -8.7100   27.4590   13.3540 C   0  0  0  0  0
  -10.4500   28.2470   14.9080 C   0  0  0  0  0
   -9.8040   25.8150   14.8130 C   0  0  0  0  0
  -11.0120   30.6050   15.1450 C   0  0  0  0  0
  -11.0790   25.1930   14.2260 C   0  0  0  0  0
  -12.0700   30.3000   15.9890 C   0  0  0  0  0
   -8.9010   31.3520   13.2930 C   0  0  0  0  0
  -12.7890   23.3670   14.2680 C   0  0  0  0  0
  -13.9660   23.7160   15.1590 C   0  0  0  0  0
  -16.0610   24.3730   16.8920 C   0  0  0  0  0
  -13.7970   23.6400   16.5280 C   0  0  0  0  0
  -15.2020   24.1250   14.6350 C   0  0  0  0  0
   -9.1440   29.0430   11.4860 C   0  0  0  0  0
  -14.8330   23.9660   17.3860 C   0  0  0  0  0
  -16.2590   24.4580   15.5070 C   0  0  0  0  0
  -14.5880   27.3930   18.9130 C   0  0  0  0  0
  -12.2310   26.8450   18.4710 C   0  0  0  0  0
  -17.1260   24.6850   17.8930 C   0  0  0  0  0
   -9.5060   31.4670   11.9040 C   0  0  0  0  0
  -14.1120   26.3560   19.9450 C   0  0  0  0  0
  -12.5680   26.4560   19.9300 C   0  0  0  0  0
   -8.8590   30.4550   10.9440 C   0  0  0  0  0
  -18.4930   24.6560   17.2210 C   0  0  0  0  0
  -10.1700   29.6060   14.5960 C   0  0  0  0  0
   -8.4770   28.8910   12.8720 C   0  0  0  0  0
  -13.4570   28.6920   17.1720 C   0  0  0  0  0
  -11.5260   27.9540   15.7690 C   0  0  0  0  0
  -12.3120   28.9940   16.2980 C   0  0  0  0  0
   -9.6460   27.2000   14.3490 N   0  0  0  0  0
  -13.3880   27.6980   18.1060 N   0  0  0  0  0
  -11.5380   24.0080   14.8010 N   0  0  0  0  0
   -9.0160   29.9350   13.8010 N   0  0  0  0  0
   -8.0880   26.5360   12.8520 O   0  0  0  0  0
  -14.4910   29.3320   17.0910 O   0  0  0  0  0
  -11.6940   25.7200   13.3070 O   0  0  0  0  0
   -8.9429   25.2319   14.4865 H   0  0  0  0  0
   -9.8771   25.8122   15.9005 H   0  0  0  0  0
  -10.8218   31.6489   14.8956 H   0  0  0  0  0
  -12.6977   31.0915   16.3985 H   0  0  0  0  0
   -9.4374   32.0167   13.9702 H   0  0  0  0  0
   -7.8476   31.6279   13.2455 H   0  0  0  0  0
  -12.9798   23.7336   13.2594 H   0  0  0  0  0
  -12.6595   22.2849   14.2499 H   0  0  0  0  0
  -12.8384   23.3202   16.9365 H   0  0  0  0  0
  -15.3447   24.1851   13.5561 H   0  0  0  0  0
   -8.7402   28.2980   10.8004 H   0  0  0  0  0
  -10.2200   28.8952   11.5780 H   0  0  0  0  0
  -14.6805   23.9016   18.4634 H   0  0  0  0  0
  -17.2212   24.7786   15.1076 H   0  0  0  0  0
  -14.9942   28.2847   19.3904 H   0  0  0  0  0
  -15.4041   27.0110   18.2996 H   0  0  0  0  0
  -12.1029   25.9855   17.8130 H   0  0  0  0  0
  -11.2713   27.3516   18.3693 H   0  0  0  0  0
  -16.9501   25.6775   18.3078 H   0  0  0  0  0
  -17.1006   23.9408   18.6890 H   0  0  0  0  0
   -9.3303   32.4739   11.5254 H   0  0  0  0  0
  -10.5743   31.2600   11.9667 H   0  0  0  0  0
  -14.4543   25.3516   19.6959 H   0  0  0  0  0
  -14.5202   26.5553   20.9358 H   0  0  0  0  0
  -12.1947   27.1858   20.6484 H   0  0  0  0  0
  -12.0911   25.5226   20.2289 H   0  0  0  0  0
   -9.2731   30.5662    9.9419 H   0  0  0  0  0
   -7.7844   30.6264   10.8817 H   0  0  0  0  0
  -18.5200   25.3980   16.4230 H   0  0  0  0  0
  -18.6702   23.6649   16.8034 H   0  0  0  0  0
  -19.2634   24.8844   17.9575 H   0  0  0  0  0
   -7.3999   29.0523   12.8277 H   0  0  0  0  0
  -11.7501   26.9187   16.0260 H   0  0  0  0  0
  -11.0299   23.5806   15.5754 H   0  0  0  0  0
 25  1  1  0  0  0
 29  1  1  0  0  0
  1 33  2  0  0  0
 24  2  4  0  0  0
  2 27  4  0  0  0
  2 29  1  0  0  0
  3  5  1  0  0  0
 29  3  1  0  0  0
  6  4  4  0  0  0
  4 24  4  0  0  0
  5 31  1  0  0  0
  5 35  2  0  0  0
 28  6  4  0  0  0
  7 19  1  0  0  0
 32  7  1  0  0  0
  8  9  1  0  0  0
 31  8  1  0  0  0
  9 11  4  0  0  0
  9 12  4  0  0  0
 14 10  4  0  0  0
 15 10  4  0  0  0
 10 18  1  0  0  0
 11 14  4  0  0  0
 12 15  4  0  0  0
 13 22  1  0  0  0
 25 13  1  0  0  0
 16 20  1  0  0  0
 30 16  1  0  0  0
 17 21  1  0  0  0
 30 17  1  0  0  0
 18 23  1  0  0  0
 19 22  1  0  0  0
 21 20  1  0  0  0
 24 32  1  0  0  0
 32 25  1  0  0  0
 26 28  1  0  0  0
 26 30  1  0  0  0
 26 34  2  0  0  0
 27 28  4  0  0  0
  3 36  1  0  0  0
  3 37  1  0  0  0
  4 38  1  0  0  0
  6 39  1  0  0  0
  7 40  1  0  0  0
  7 41  1  0  0  0
  8 42  1  0  0  0
  8 43  1  0  0  0
 11 44  1  0  0  0
 12 45  1  0  0  0
 13 46  1  0  0  0
 13 47  1  0  0  0
 14 48  1  0  0  0
 15 49  1  0  0  0
 16 50  1  0  0  0
 16 51  1  0  0  0
 17 52  1  0  0  0
 17 53  1  0  0  0
 18 54  1  0  0  0
 18 55  1  0  0  0
 19 56  1  0  0  0
 19 57  1  0  0  0
 20 58  1  0  0  0
 20 59  1  0  0  0
 21 60  1  0  0  0
 21 61  1  0  0  0
 22 62  1  0  0  0
 22 63  1  0  0  0
 23 64  1  0  0  0
 23 65  1  0  0  0
 23 66  1  0  0  0
 25 67  1  0  0  0
 27 68  1  0  0  0
 31 69  1  0  0  0
M  END
$$$$
