6i65_ligand
  -I-interpret- 

 22 22  0  0  0  0  0  0  0  0999 V2000
  -16.8220   -2.4730  -26.6090 C   0  0  0  0  0
  -17.7000   -3.4840  -28.7350 C   0  0  0  0  0
  -14.7600   -6.6160  -27.3120 C   0  0  0  0  0
  -16.7530   -6.6450  -25.9730 C   0  0  0  0  0
  -15.0690   -5.3400  -27.7580 C   0  0  0  0  0
  -17.0660   -5.3620  -26.4190 C   0  0  0  0  0
  -15.5960   -7.2760  -26.4220 C   0  0  0  0  0
  -16.2210   -4.7060  -27.3110 C   0  0  0  0  0
  -16.5100   -3.4200  -27.7740 C   0  0  0  0  0
  -15.2750   -8.5340  -26.0020 O   0  0  0  0  0
  -17.6843   -2.8486  -26.0581 H   0  0  0  0  0
  -15.9596   -2.4201  -25.9445 H   0  0  0  0  0
  -17.0431   -1.4796  -26.9992 H   0  0  0  0  0
  -17.4505   -4.1285  -29.5779 H   0  0  0  0  0
  -18.5668   -3.8875  -28.2116 H   0  0  0  0  0
  -17.9271   -2.4814  -29.0974 H   0  0  0  0  0
  -13.8518   -7.1055  -27.6637 H   0  0  0  0  0
  -17.4144   -7.1546  -25.2723 H   0  0  0  0  0
  -14.4068   -4.8338  -28.4604 H   0  0  0  0  0
  -17.9740   -4.8710  -26.0689 H   0  0  0  0  0
  -15.6365   -3.0309  -28.2971 H   0  0  0  0  0
  -15.9483   -8.8488  -25.3944 H   0  0  0  0  0
  9  1  1  0  0  0
  9  2  1  0  0  0
  5  3  4  0  0  0
  3  7  4  0  0  0
  6  4  4  0  0  0
  4  7  4  0  0  0
  8  5  4  0  0  0
  8  6  4  0  0  0
  7 10  1  0  0  0
  8  9  1  0  0  0
  1 11  1  0  0  0
  1 12  1  0  0  0
  1 13  1  0  0  0
  2 14  1  0  0  0
  2 15  1  0  0  0
  2 16  1  0  0  0
  3 17  1  0  0  0
  4 18  1  0  0  0
  5 19  1  0  0  0
  6 20  1  0  0  0
  9 21  1  0  0  0
 10 22  1  0  0  0
M  END
$$$$
