4x5z_ligand
  -I-interpret- 

 54 58  0  0  0  0  0  0  0  0999 V2000
   13.3920    7.6750   12.5580 C   0  0  0  0  0
   13.6900    9.0090   12.4220 C   0  0  0  0  0
   12.6510    9.8680   12.0750 C   0  0  0  0  0
   11.4010    9.3710   11.8030 N   0  0  0  0  0
   12.1490    7.1610   12.3300 N   0  0  0  0  0
   19.3380    7.7060   12.4580 F   0  0  0  0  0
   18.0450    7.6850   12.1910 C   0  0  0  0  0
   17.6970    6.4220   11.9290 F   0  0  0  0  0
   17.8250    8.4170   11.1280 F   0  0  0  0  0
   17.2250    8.2030   13.3700 C   0  0  0  0  0
   15.7470    8.1620   13.0270 C   0  0  0  0  0
   14.7870    6.7710   13.0740 S   0  0  0  0  0
   14.9990    9.2640   12.6950 C   0  0  0  0  0
   11.1230    8.0260   11.9830 C   0  0  0  0  0
   12.8460   11.2070   11.9200 N   0  0  0  0  0
   11.7160   12.1020   11.5450 C   0  0  0  0  0
   11.8090   13.2800   12.4990 C   0  0  0  0  0
   10.7610   14.3580   12.1790 C   0  0  0  0  0
   11.8250   12.5260   10.0590 C   0  0  0  0  0
   10.9310   13.7230    9.7930 C   0  0  0  0  0
   11.0470   14.8480   10.7980 N   0  3  0  0  0
   10.0690   15.9070   10.3810 C   0  0  0  0  0
   10.1530   17.1260   11.2060 C   0  0  0  0  0
    9.0200   17.6660   11.8620 C   0  0  0  0  0
    9.1070   18.8340   12.5680 C   0  0  0  0  0
    8.1800   19.5280   13.2890 C   0  0  0  0  0
    8.8070   20.5950   13.8180 C   0  0  0  0  0
    8.3300   21.6400   14.6320 C   0  0  0  0  0
    7.9230   22.4520   15.2800 N   0  0  0  0  0
   10.0680   20.5720   13.4840 N   0  0  0  0  0
   10.2640   19.4930   12.7050 C   0  0  0  0  0
   11.3990   19.0250   12.1030 C   0  0  0  0  0
   11.3610   17.8670   11.3190 C   0  0  0  0  0
   17.5159    9.2308   13.5870 H   0  0  0  0  0
   17.4100    7.5745   14.2411 H   0  0  0  0  0
   15.4215   10.2679   12.6531 H   0  0  0  0  0
   10.1076    7.6516   11.8531 H   0  0  0  0  0
   13.7759   11.6012   12.0623 H   0  0  0  0  0
   10.7456   11.6131   11.6314 H   0  0  0  0  0
   12.7992   13.7245   12.3989 H   0  0  0  0  0
   11.6287   12.9166   13.5107 H   0  0  0  0  0
   10.8167   15.1756   12.8977 H   0  0  0  0  0
    9.7534   13.9471   12.2416 H   0  0  0  0  0
   11.5108   11.6964    9.4257 H   0  0  0  0  0
   12.8581   12.7942    9.8378 H   0  0  0  0  0
    9.9031   13.3636    9.8421 H   0  0  0  0  0
   11.2331   14.1317    8.8288 H   0  0  0  0  0
   11.9946   15.2250   10.8157 H   0  0  0  0  0
    9.0659   15.4965   10.4964 H   0  0  0  0  0
   10.2996   16.1855    9.3527 H   0  0  0  0  0
    8.0653   17.1434   11.8034 H   0  0  0  0  0
    7.1289   19.2674   13.4133 H   0  0  0  0  0
   12.3405   19.5582   12.2350 H   0  0  0  0  0
   12.2567   17.5332   10.7953 H   0  0  0  0  0
  1  2  4  0  0  0
  1  5  4  0  0  0
 12  1  4  0  0  0
  2  3  4  0  0  0
  2 13  4  0  0  0
  3  4  4  0  0  0
  3 15  1  0  0  0
 14  4  4  0  0  0
  5 14  4  0  0  0
  7  6  1  0  0  0
  7  8  1  0  0  0
  7  9  1  0  0  0
 10  7  1  0  0  0
 11 10  1  0  0  0
 11 12  4  0  0  0
 11 13  4  0  0  0
 15 16  1  0  0  0
 16 17  1  0  0  0
 16 19  1  0  0  0
 17 18  1  0  0  0
 18 21  1  0  0  0
 19 20  1  0  0  0
 20 21  1  0  0  0
 21 22  1  0  0  0
 22 23  1  0  0  0
 23 24  4  0  0  0
 23 33  4  0  0  0
 24 25  4  0  0  0
 25 26  4  0  0  0
 25 31  4  0  0  0
 26 27  4  0  0  0
 27 28  1  0  0  0
 27 30  4  0  0  0
 28 29  3  0  0  0
 30 31  4  0  0  0
 31 32  4  0  0  0
 32 33  4  0  0  0
 10 34  1  0  0  0
 10 35  1  0  0  0
 13 36  1  0  0  0
 14 37  1  0  0  0
 15 38  1  0  0  0
 16 39  1  0  0  0
 17 40  1  0  0  0
 17 41  1  0  0  0
 18 42  1  0  0  0
 18 43  1  0  0  0
 19 44  1  0  0  0
 19 45  1  0  0  0
 20 46  1  0  0  0
 20 47  1  0  0  0
 21 48  1  0  0  0
 22 49  1  0  0  0
 22 50  1  0  0  0
 24 51  1  0  0  0
 26 52  1  0  0  0
 32 53  1  0  0  0
 33 54  1  0  0  0
M  END
$$$$
