1f8c_ligand
  -I-interpret- 

 39 39  0  0  0  0  0  0  0  0999 V2000
   23.6220   19.8430   64.7310 C   0  0  0  0  0
   24.2570   20.9160   64.8860 O   0  0  0  0  0
   22.4850   19.6690   65.2240 O   0  0  0  0  0
   24.2210   18.8310   63.9840 C   0  0  0  0  0
   23.5600   17.6820   63.5700 C   0  0  0  0  0
   24.2010   16.6430   62.6040 C   0  0  0  0  0
   23.7390   15.3230   63.0390 N   0  3  0  0  0
   25.7310   16.7040   62.6890 C   0  0  0  0  0
   26.2920   15.9280   61.5680 N   0  0  0  0  0
   26.9500   14.7930   61.7730 C   0  0  0  0  0
   27.1520   14.3300   62.8950 O   0  0  0  0  0
   27.4640   14.0820   60.5440 C   0  0  0  0  0
   26.1990   18.1920   62.5950 C   0  0  0  0  0
   25.5900   18.9820   63.6860 O   0  0  0  0  0
   27.7650   18.3640   62.7240 C   0  0  0  0  0
   28.1620   17.9130   64.0430 O   0  0  0  0  0
   28.1250   19.8500   62.5530 C   0  0  0  0  0
   27.7280   20.2830   61.2890 O   0  0  0  0  0
   29.6270   20.1300   62.7320 C   0  0  0  0  0
   30.4300   19.4150   61.8240 O   0  0  0  0  0
   25.1023   20.8542   64.4352 H   0  0  0  0  0
   22.5499   17.5000   63.9368 H   0  0  0  0  0
   23.9143   16.8487   61.5727 H   0  0  0  0  0
   22.7213   15.2844   62.9818 H   0  0  0  0  0
   24.1421   14.6069   62.4348 H   0  0  0  0  0
   24.0329   15.1617   64.0023 H   0  0  0  0  0
   26.0743   16.2868   63.6357 H   0  0  0  0  0
   26.1721   16.2703   60.6146 H   0  0  0  0  0
   28.5497   14.0029   60.5990 H   0  0  0  0  0
   27.0278   13.0843   60.4939 H   0  0  0  0  0
   27.1842   14.6473   59.6551 H   0  0  0  0  0
   25.8863   18.5380   61.6098 H   0  0  0  0  0
   28.2797   17.7821   61.9594 H   0  0  0  0  0
   29.1121   18.0099   64.1406 H   0  0  0  0  0
   27.5977   20.3953   63.3358 H   0  0  0  0  0
   27.9534   21.2103   61.1842 H   0  0  0  0  0
   29.9057   19.8191   63.7389 H   0  0  0  0  0
   29.7906   21.1931   62.5552 H   0  0  0  0  0
   31.3534   19.6265   61.9798 H   0  0  0  0  0
  4  1  1  0  0  0
  1  3  2  0  0  0
  1  2  1  0  0  0
  4 14  1  0  0  0
  4  5  2  0  0  0
  5  6  1  0  0  0
  6  8  1  0  0  0
  6  7  1  0  0  0
  8 13  1  0  0  0
  8  9  1  0  0  0
  9 10  1  0  0  0
 10 12  1  0  0  0
 10 11  2  0  0  0
 13 15  1  0  0  0
 13 14  1  0  0  0
 15 17  1  0  0  0
 15 16  1  0  0  0
 17 19  1  0  0  0
 17 18  1  0  0  0
 19 20  1  0  0  0
  2 21  1  0  0  0
  5 22  1  0  0  0
  6 23  1  0  0  0
  7 24  1  0  0  0
  7 25  1  0  0  0
  7 26  1  0  0  0
  8 27  1  0  0  0
  9 28  1  0  0  0
 12 29  1  0  0  0
 12 30  1  0  0  0
 12 31  1  0  0  0
 13 32  1  0  0  0
 15 33  1  0  0  0
 16 34  1  0  0  0
 17 35  1  0  0  0
 18 36  1  0  0  0
 19 37  1  0  0  0
 19 38  1  0  0  0
 20 39  1  0  0  0
M  END
$$$$
