### 
### Created by X-TOOL on Mon Sep 10 21:13:08 2018
### 

@<TRIPOS>MOLECULE
2ynn_ligand
  134   134     1     0     0
SMALL
GAST_HUCK


@<TRIPOS>ATOM
      1 N         -73.6470   44.9290  -16.9950 N.4       1 CYS         0.2385
      2 CA        -73.7190   46.3240  -16.5660 C.3       1 CYS         0.0739
      3 C         -73.0550   47.2650  -17.5610 C.2       1 CYS         0.2276
      4 O         -72.0590   46.9140  -18.1990 O.2       1 CYS        -0.3907
      5 CB        -73.0820   46.4960  -15.1830 C.3       1 CYS         0.0511
      6 SG        -73.9150   45.5280  -13.9160 S.3       1 CYS        -0.1701
      7 N         -73.6080   48.4680  -17.6760 N.am      1 THR        -0.2586
      8 CA        -73.0940   49.4680  -18.6110 C.3       1 THR         0.1566
      9 C         -71.6420   49.8380  -18.3130 C.2       1 THR         0.2066
     10 O         -70.8060   49.9050  -19.2180 O.2       1 THR        -0.3943
     11 CB        -73.9590   50.7380  -18.5930 C.3       1 THR         0.0924
     12 OG1       -75.3050   50.3960  -18.9480 O.3       1 THR        -0.3874
     13 CG2       -73.4170   51.7700  -19.5660 C.3       1 THR        -0.0346
     14 N         -71.3450   50.0790  -17.0410 N.am      1 PHE        -0.2619
     15 CA        -69.9840   50.4130  -16.6360 C.3       1 PHE         0.1404
     16 C         -69.4340   49.4030  -15.6430 C.2       1 PHE         0.2060
     17 O         -70.1470   48.9340  -14.7610 O.2       1 PHE        -0.3942
     18 CB        -69.9340   51.8060  -16.0080 C.3       1 PHE         0.0214
     19 CG        -70.4180   52.8930  -16.9130 C.ar      1 PHE        -0.0386
     20 CD1       -69.6850   53.2540  -18.0330 C.ar      1 PHE        -0.0601
     21 CD2       -71.6050   53.5620  -16.6450 C.ar      1 PHE        -0.0601
     22 CE1       -70.1300   54.2610  -18.8760 C.ar      1 PHE        -0.0686
     23 CE2       -72.0550   54.5710  -17.4820 C.ar      1 PHE        -0.0686
     24 CZ        -71.3160   54.9210  -18.5990 C.ar      1 PHE        -0.0687
     25 N         -68.1650   49.0510  -15.8080 N.am      1 LYS        -0.2636
     26 CA        -67.4260   48.3890  -14.7430 C.3       1 LYS         0.1310
     27 C         -66.1030   49.1200  -14.5720 C.2       1 LYS         0.2040
     28 O         -65.1100   48.7750  -15.2120 O.2       1 LYS        -0.3944
     29 CB        -67.1780   46.9120  -15.0420 C.3       1 LYS        -0.0122
     30 CG        -66.4580   46.1980  -13.8980 C.3       1 LYS        -0.0440
     31 CD        -65.8280   44.8900  -14.3340 C.3       1 LYS        -0.0124
     32 CE        -66.7370   43.7120  -14.0550 C.3       1 LYS        -0.0354
     33 NZ        -66.1240   42.4390  -14.5380 N.4       1 LYS         0.2185
     34 N         -66.0980   50.1470  -13.7290 N.am      1 THR        -0.2613
     35 CA        -64.8760   50.8940  -13.4670 C.3       1 THR         0.1565
     36 C         -63.8800   49.9850  -12.7360 C.2       1 THR         0.2065
     37 O         -64.2660   49.0840  -11.9930 O.2       1 THR        -0.3943
     38 CB        -65.1560   52.1970  -12.6830 C.3       1 THR         0.0924
     39 OG1       -66.1780   52.9440  -13.3570 O.3       1 THR        -0.3874
     40 CG2       -63.9010   53.0590  -12.5850 C.3       1 THR        -0.0346
     41 N         -62.6000   50.2100  -12.9890 N.am      1 LYS        -0.2637
     42 CA        -61.5340   49.3510  -12.4990 C.3       1 LYS         0.1310
     43 C         -61.1200   49.7640  -11.0900 C.2       1 LYS         0.2040
     44 O         -60.1830   50.5460  -10.9200 O.2       1 LYS        -0.3944
     45 CB        -60.3380   49.4930  -13.4310 C.3       1 LYS        -0.0122
     46 CG        -60.5040   48.7900  -14.7670 C.3       1 LYS        -0.0440
     47 CD        -59.3790   47.7980  -14.9470 C.3       1 LYS        -0.0124
     48 CE        -59.5910   46.9320  -16.1770 C.3       1 LYS        -0.0354
     49 NZ        -59.0470   45.5640  -15.9440 N.4       1 LYS         0.2185
     50 N         -61.8240   49.2590  -10.0820 N.am      1 THR        -0.2613
     51 CA        -61.5080   49.6270   -8.7050 C.3       1 THR         0.1564
     52 C         -60.9530   48.4510   -7.9010 C.2       1 THR         0.2060
     53 O         -60.3410   48.6490   -6.8510 O.2       1 THR        -0.3943
     54 CB        -62.7560   50.2070   -7.9910 C.3       1 THR         0.0924
     55 OG1       -63.8740   49.3680   -8.2820 O.3       1 THR        -0.3874
     56 CG2       -63.0660   51.6040   -8.5100 C.3       1 THR        -0.0346
     57 N         -61.1590   47.2290   -8.3870 N.am      1 ASN        -0.2673
     58 CA        -60.6520   46.0560   -7.6720 C.3       1 ASN         0.1110
     59 C         -59.1660   45.7680   -7.9110 C.2       1 ASN         0.0624
     60 O         -58.6310   44.7940   -7.3560 O.co2     1 ASN        -0.5665
     61 CB        -61.5030   44.8110   -7.9490 C.3       1 ASN         0.0718
     62 CG        -61.6450   44.5130   -9.4180 C.2       1 ASN         0.1774
     63 OD1       -61.1190   45.2370  -10.2660 O.2       1 ASN        -0.3971
     64 ND2       -62.3600   43.4330   -9.7370 N.am      1 ASN        -0.3007
     65 OXT       -58.4800   46.5100   -8.6430 O.co2     1 ASN        -0.5665
     66 H         -74.0753   44.8352  -17.9159 H         1 CYS         0.2015
     67 H         -72.6702   44.6389  -17.0419 H         1 CYS         0.2015
     68 H         -74.1453   44.3425  -16.3256 H         1 CYS         0.2015
     69 H         -74.7756   46.5868  -16.5135 H         1 CYS         0.1106
     70 H         -73.1571   47.5477  -14.9065 H         1 CYS         0.0455
     71 H         -72.0491   46.1532  -15.2434 H         1 CYS         0.0455
     72 H         -73.3144   45.7224  -12.7454 H         1 CYS         0.1020
     73 H         -74.4139   48.7004  -17.0956 H         1 THR         0.1885
     74 H         -73.1362   49.0171  -19.6025 H         1 THR         0.0826
     75 H         -73.9377   51.1669  -17.5912 H         1 THR         0.0639
     76 H         -75.8484   51.1874  -18.9378 H         1 THR         0.2101
     77 H         -73.4308   51.3584  -20.5752 H         1 THR         0.0257
     78 H         -74.0387   52.6645  -19.5285 H         1 THR         0.0257
     79 H         -72.3938   52.0253  -19.2903 H         1 THR         0.0257
     80 H         -72.0805   50.0297  -16.3360 H         1 PHE         0.1885
     81 H         -69.3685   50.3930  -17.5354 H         1 PHE         0.0823
     82 H         -68.8914   52.0192  -15.7723 H         1 PHE         0.0474
     83 H         -70.5881   51.7934  -15.1361 H         1 PHE         0.0474
     84 H         -68.7489   52.7408  -18.2532 H         1 PHE         0.0557
     85 H         -72.1897   53.2904  -15.7661 H         1 PHE         0.0557
     86 H         -69.5471   54.5330  -19.7559 H         1 PHE         0.0599
     87 H         -72.9889   55.0879  -17.2611 H         1 PHE         0.0599
     88 H         -71.6666   55.7143  -19.2592 H         1 PHE         0.0559
     89 H         -67.7005   49.2474  -16.6946 H         1 LYS         0.1883
     90 H         -68.0155   48.4247  -13.8268 H         1 LYS         0.0800
     91 H         -66.5472   46.8490  -15.9287 H         1 LYS         0.0312
     92 H         -68.1452   46.4300  -15.1844 H         1 LYS         0.0312
     93 H         -67.1936   45.9754  -13.1250 H         1 LYS         0.0269
     94 H         -65.6621   46.8520  -13.5418 H         1 LYS         0.0269
     95 H         -64.9028   44.7506  -13.7748 H         1 LYS         0.0317
     96 H         -65.6457   44.9371  -15.4076 H         1 LYS         0.0317
     97 H         -67.6810   43.8665  -14.5775 H         1 LYS         0.0813
     98 H         -66.8949   43.6386  -12.9790 H         1 LYS         0.0813
     99 H         -66.7545   41.6624  -14.3387 H         1 LYS         0.1994
    100 H         -65.9648   42.4998  -15.5437 H         1 LYS         0.1994
    101 H         -65.2354   42.2883  -14.0604 H         1 LYS         0.1994
    102 H         -66.9623   50.4159  -13.2588 H         1 THR         0.1884
    103 H         -64.4381   51.2044  -14.4156 H         1 THR         0.0826
    104 H         -65.4770   51.9288  -11.6764 H         1 THR         0.0639
    105 H         -66.3536   53.7536  -12.8719 H         1 THR         0.2101
    106 H         -63.1187   52.5022  -12.0693 H         1 THR         0.0257
    107 H         -63.5621   53.3204  -13.5875 H         1 THR         0.0257
    108 H         -64.1288   53.9681  -12.0285 H         1 THR         0.0257
    109 H         -62.3505   51.0224  -13.5530 H         1 LYS         0.1883
    110 H         -61.8838   48.3190  -12.4716 H         1 LYS         0.0800
    111 H         -59.4841   49.0362  -12.9308 H         1 LYS         0.0312
    112 H         -60.2168   50.5560  -13.6395 H         1 LYS         0.0312
    113 H         -60.4784   49.5235  -15.5729 H         1 LYS         0.0269
    114 H         -61.4605   48.2677  -14.7901 H         1 LYS         0.0269
    115 H         -59.3463   47.1506  -14.0707 H         1 LYS         0.0317
    116 H         -58.4479   48.3510  -15.0707 H         1 LYS         0.0317
    117 H         -59.0730   47.3823  -17.0237 H         1 LYS         0.0813
    118 H         -60.6589   46.8607  -16.3832 H         1 LYS         0.0813
    119 H         -59.1958   44.9939  -16.7766 H         1 LYS         0.1994
    120 H         -58.0482   45.6257  -15.7467 H         1 LYS         0.1994
    121 H         -59.5261   45.1396  -15.1498 H         1 LYS         0.1994
    122 H         -62.5888   48.6112  -10.2714 H         1 THR         0.1884
    123 H         -60.7315   50.3903   -8.7560 H         1 THR         0.0826
    124 H         -62.5623   50.2539   -6.9194 H         1 THR         0.0639
    125 H         -64.6554   49.7153   -7.8458 H         1 THR         0.2101
    126 H         -62.2141   52.2574   -8.3219 H         1 THR         0.0257
    127 H         -63.2601   51.5573   -9.5816 H         1 THR         0.0257
    128 H         -63.9450   51.9941   -7.9969 H         1 THR         0.0257
    129 H         -61.6718   47.1093   -9.2605 H         1 ASN         0.1877
    130 H         -60.7397   46.3106   -6.6158 H         1 ASN         0.0752
    131 H         -62.5002   44.9936   -7.5485 H         1 ASN         0.0544
    132 H         -61.0080   43.9591   -7.4829 H         1 ASN         0.0544
    133 H         -62.4892   43.1778  -10.7161 H         1 ASN         0.1814
    134 H         -62.7775   42.8624   -9.0019 H         1 ASN         0.1814
@<TRIPOS>BOND
     1    1    2 1  
     2    2    3 1  
     3    2    5 1  
     4    3    4 2  
     5    3    7 am 
     6    5    6 1  
     7    7    8 1  
     8    8    9 1  
     9    8   11 1  
    10    9   10 2  
    11    9   14 am 
    12   11   12 1  
    13   11   13 1  
    14   14   15 1  
    15   15   16 1  
    16   15   18 1  
    17   16   17 2  
    18   16   25 am 
    19   18   19 1  
    20   19   20 ar 
    21   19   21 ar 
    22   20   22 ar 
    23   21   23 ar 
    24   22   24 ar 
    25   23   24 ar 
    26   25   26 1  
    27   26   27 1  
    28   26   29 1  
    29   27   28 2  
    30   27   34 am 
    31   29   30 1  
    32   30   31 1  
    33   31   32 1  
    34   32   33 1  
    35   34   35 1  
    36   35   36 1  
    37   35   38 1  
    38   36   37 2  
    39   36   41 am 
    40   38   39 1  
    41   38   40 1  
    42   41   42 1  
    43   42   43 1  
    44   42   45 1  
    45   43   44 2  
    46   43   50 am 
    47   45   46 1  
    48   46   47 1  
    49   47   48 1  
    50   48   49 1  
    51   50   51 1  
    52   51   52 1  
    53   51   54 1  
    54   52   53 2  
    55   52   57 am 
    56   54   55 1  
    57   54   56 1  
    58   57   58 1  
    59   58   59 1  
    60   58   61 1  
    61   59   60 ar 
    62   59   65 ar 
    63   61   62 1  
    64   62   63 2  
    65   62   64 am 
    66    1   66 1  
    67    1   67 1  
    68    1   68 1  
    69    2   69 1  
    70    5   70 1  
    71    5   71 1  
    72    6   72 1  
    73    7   73 1  
    74    8   74 1  
    75   11   75 1  
    76   12   76 1  
    77   13   77 1  
    78   13   78 1  
    79   13   79 1  
    80   14   80 1  
    81   15   81 1  
    82   18   82 1  
    83   18   83 1  
    84   20   84 1  
    85   21   85 1  
    86   22   86 1  
    87   23   87 1  
    88   24   88 1  
    89   25   89 1  
    90   26   90 1  
    91   29   91 1  
    92   29   92 1  
    93   30   93 1  
    94   30   94 1  
    95   31   95 1  
    96   31   96 1  
    97   32   97 1  
    98   32   98 1  
    99   33   99 1  
   100   33  100 1  
   101   33  101 1  
   102   34  102 1  
   103   35  103 1  
   104   38  104 1  
   105   39  105 1  
   106   40  106 1  
   107   40  107 1  
   108   40  108 1  
   109   41  109 1  
   110   42  110 1  
   111   45  111 1  
   112   45  112 1  
   113   46  113 1  
   114   46  114 1  
   115   47  115 1  
   116   47  116 1  
   117   48  117 1  
   118   48  118 1  
   119   49  119 1  
   120   49  120 1  
   121   49  121 1  
   122   50  122 1  
   123   51  123 1  
   124   54  124 1  
   125   55  125 1  
   126   56  126 1  
   127   56  127 1  
   128   56  128 1  
   129   57  129 1  
   130   58  130 1  
   131   61  131 1  
   132   61  132 1  
   133   64  133 1  
   134   64  134 1  
@<TRIPOS>SUBSTRUCTURE
     1 CYS         1

