2ynn_ligand
  -I-interpret- 

135135  0  0  0  0  0  0  0  0999 V2000
  -73.6470   44.9290  -16.9950 N   0  3  0  0  0
  -73.7190   46.3240  -16.5660 C   0  0  0  0  0
  -73.0550   47.2650  -17.5610 C   0  0  0  0  0
  -72.0590   46.9140  -18.1990 O   0  0  0  0  0
  -73.0820   46.4960  -15.1830 C   0  0  0  0  0
  -73.9150   45.5280  -13.9160 S   0  0  0  0  0
  -73.6080   48.4680  -17.6760 N   0  0  0  0  0
  -73.0940   49.4680  -18.6110 C   0  0  0  0  0
  -71.6420   49.8380  -18.3130 C   0  0  0  0  0
  -70.8060   49.9050  -19.2180 O   0  0  0  0  0
  -73.9590   50.7380  -18.5930 C   0  0  0  0  0
  -75.3050   50.3960  -18.9480 O   0  0  0  0  0
  -73.4170   51.7700  -19.5660 C   0  0  0  0  0
  -71.3450   50.0790  -17.0410 N   0  0  0  0  0
  -69.9840   50.4130  -16.6360 C   0  0  0  0  0
  -69.4340   49.4030  -15.6430 C   0  0  0  0  0
  -70.1470   48.9340  -14.7610 O   0  0  0  0  0
  -69.9340   51.8060  -16.0080 C   0  0  0  0  0
  -70.4180   52.8930  -16.9130 C   0  0  0  0  0
  -69.6850   53.2540  -18.0330 C   0  0  0  0  0
  -71.6050   53.5620  -16.6450 C   0  0  0  0  0
  -70.1300   54.2610  -18.8760 C   0  0  0  0  0
  -72.0550   54.5710  -17.4820 C   0  0  0  0  0
  -71.3160   54.9210  -18.5990 C   0  0  0  0  0
  -68.1650   49.0510  -15.8080 N   0  0  0  0  0
  -67.4260   48.3890  -14.7430 C   0  0  0  0  0
  -66.1030   49.1200  -14.5720 C   0  0  0  0  0
  -65.1100   48.7750  -15.2120 O   0  0  0  0  0
  -67.1780   46.9120  -15.0420 C   0  0  0  0  0
  -66.4580   46.1980  -13.8980 C   0  0  0  0  0
  -65.8280   44.8900  -14.3340 C   0  0  0  0  0
  -66.7370   43.7120  -14.0550 C   0  0  0  0  0
  -66.1240   42.4390  -14.5380 N   0  3  0  0  0
  -66.0980   50.1470  -13.7290 N   0  0  0  0  0
  -64.8760   50.8940  -13.4670 C   0  0  0  0  0
  -63.8800   49.9850  -12.7360 C   0  0  0  0  0
  -64.2660   49.0840  -11.9930 O   0  0  0  0  0
  -65.1560   52.1970  -12.6830 C   0  0  0  0  0
  -66.1780   52.9440  -13.3570 O   0  0  0  0  0
  -63.9010   53.0590  -12.5850 C   0  0  0  0  0
  -62.6000   50.2100  -12.9890 N   0  0  0  0  0
  -61.5340   49.3510  -12.4990 C   0  0  0  0  0
  -61.1200   49.7640  -11.0900 C   0  0  0  0  0
  -60.1830   50.5460  -10.9200 O   0  0  0  0  0
  -60.3380   49.4930  -13.4310 C   0  0  0  0  0
  -60.5040   48.7900  -14.7670 C   0  0  0  0  0
  -59.3790   47.7980  -14.9470 C   0  0  0  0  0
  -59.5910   46.9320  -16.1770 C   0  0  0  0  0
  -59.0470   45.5640  -15.9440 N   0  3  0  0  0
  -61.8240   49.2590  -10.0820 N   0  0  0  0  0
  -61.5080   49.6270   -8.7050 C   0  0  0  0  0
  -60.9530   48.4510   -7.9010 C   0  0  0  0  0
  -60.3410   48.6490   -6.8510 O   0  0  0  0  0
  -62.7560   50.2070   -7.9910 C   0  0  0  0  0
  -63.8740   49.3680   -8.2820 O   0  0  0  0  0
  -63.0660   51.6040   -8.5100 C   0  0  0  0  0
  -61.1590   47.2290   -8.3870 N   0  0  0  0  0
  -60.6520   46.0560   -7.6720 C   0  0  0  0  0
  -59.1660   45.7680   -7.9110 C   0  0  0  0  0
  -58.6310   44.7940   -7.3560 O   0  0  0  0  0
  -61.5030   44.8110   -7.9490 C   0  0  0  0  0
  -61.6450   44.5130   -9.4180 C   0  0  0  0  0
  -61.1190   45.2370  -10.2660 O   0  0  0  0  0
  -62.3600   43.4330   -9.7370 N   0  0  0  0  0
  -58.4800   46.5100   -8.6430 O   0  0  0  0  0
  -74.0753   44.8352  -17.9159 H   0  0  0  0  0
  -72.6702   44.6389  -17.0419 H   0  0  0  0  0
  -74.1453   44.3425  -16.3256 H   0  0  0  0  0
  -74.7756   46.5868  -16.5135 H   0  0  0  0  0
  -73.1571   47.5477  -14.9065 H   0  0  0  0  0
  -72.0491   46.1532  -15.2434 H   0  0  0  0  0
  -73.3144   45.7224  -12.7454 H   0  0  0  0  0
  -74.4139   48.7004  -17.0956 H   0  0  0  0  0
  -73.1362   49.0171  -19.6025 H   0  0  0  0  0
  -73.9377   51.1669  -17.5912 H   0  0  0  0  0
  -75.8484   51.1874  -18.9378 H   0  0  0  0  0
  -73.4308   51.3584  -20.5752 H   0  0  0  0  0
  -74.0387   52.6645  -19.5285 H   0  0  0  0  0
  -72.3938   52.0253  -19.2903 H   0  0  0  0  0
  -72.0805   50.0297  -16.3360 H   0  0  0  0  0
  -69.3685   50.3930  -17.5354 H   0  0  0  0  0
  -68.8914   52.0192  -15.7723 H   0  0  0  0  0
  -70.5881   51.7934  -15.1361 H   0  0  0  0  0
  -68.7489   52.7408  -18.2532 H   0  0  0  0  0
  -72.1897   53.2904  -15.7661 H   0  0  0  0  0
  -69.5471   54.5330  -19.7559 H   0  0  0  0  0
  -72.9889   55.0879  -17.2611 H   0  0  0  0  0
  -71.6666   55.7143  -19.2592 H   0  0  0  0  0
  -67.7005   49.2474  -16.6946 H   0  0  0  0  0
  -68.0155   48.4247  -13.8268 H   0  0  0  0  0
  -66.5472   46.8490  -15.9287 H   0  0  0  0  0
  -68.1452   46.4300  -15.1844 H   0  0  0  0  0
  -67.1936   45.9754  -13.1250 H   0  0  0  0  0
  -65.6621   46.8520  -13.5418 H   0  0  0  0  0
  -64.9028   44.7506  -13.7748 H   0  0  0  0  0
  -65.6457   44.9371  -15.4076 H   0  0  0  0  0
  -67.6810   43.8665  -14.5775 H   0  0  0  0  0
  -66.8949   43.6386  -12.9790 H   0  0  0  0  0
  -66.7545   41.6624  -14.3387 H   0  0  0  0  0
  -65.9648   42.4998  -15.5437 H   0  0  0  0  0
  -65.2354   42.2883  -14.0604 H   0  0  0  0  0
  -66.9623   50.4159  -13.2588 H   0  0  0  0  0
  -64.4381   51.2044  -14.4156 H   0  0  0  0  0
  -65.4770   51.9288  -11.6764 H   0  0  0  0  0
  -66.3536   53.7536  -12.8719 H   0  0  0  0  0
  -63.1187   52.5022  -12.0693 H   0  0  0  0  0
  -63.5621   53.3204  -13.5875 H   0  0  0  0  0
  -64.1288   53.9681  -12.0285 H   0  0  0  0  0
  -62.3505   51.0224  -13.5530 H   0  0  0  0  0
  -61.8838   48.3190  -12.4716 H   0  0  0  0  0
  -59.4841   49.0362  -12.9308 H   0  0  0  0  0
  -60.2168   50.5560  -13.6395 H   0  0  0  0  0
  -60.4784   49.5235  -15.5729 H   0  0  0  0  0
  -61.4605   48.2677  -14.7901 H   0  0  0  0  0
  -59.3463   47.1506  -14.0707 H   0  0  0  0  0
  -58.4479   48.3510  -15.0707 H   0  0  0  0  0
  -59.0730   47.3823  -17.0237 H   0  0  0  0  0
  -60.6589   46.8607  -16.3832 H   0  0  0  0  0
  -59.1958   44.9939  -16.7766 H   0  0  0  0  0
  -58.0482   45.6257  -15.7467 H   0  0  0  0  0
  -59.5261   45.1396  -15.1498 H   0  0  0  0  0
  -62.5888   48.6112  -10.2714 H   0  0  0  0  0
  -60.7315   50.3903   -8.7560 H   0  0  0  0  0
  -62.5623   50.2539   -6.9194 H   0  0  0  0  0
  -64.6554   49.7153   -7.8458 H   0  0  0  0  0
  -62.2141   52.2574   -8.3219 H   0  0  0  0  0
  -63.2601   51.5573   -9.5816 H   0  0  0  0  0
  -63.9450   51.9941   -7.9969 H   0  0  0  0  0
  -61.6718   47.1093   -9.2605 H   0  0  0  0  0
  -60.7397   46.3106   -6.6158 H   0  0  0  0  0
  -62.5002   44.9936   -7.5485 H   0  0  0  0  0
  -61.0080   43.9591   -7.4829 H   0  0  0  0  0
  -62.4892   43.1778  -10.7161 H   0  0  0  0  0
  -62.7775   42.8624   -9.0019 H   0  0  0  0  0
  -59.0336   47.2110   -8.9948 H   0  0  0  0  0
  1  2  1  0  0  0
  2  3  1  0  0  0
  2  5  1  0  0  0
  3  4  2  0  0  0
  3  7  1  0  0  0
  5  6  1  0  0  0
  7  8  1  0  0  0
  8  9  1  0  0  0
  8 11  1  0  0  0
  9 10  2  0  0  0
  9 14  1  0  0  0
 11 12  1  0  0  0
 11 13  1  0  0  0
 14 15  1  0  0  0
 15 16  1  0  0  0
 15 18  1  0  0  0
 16 17  2  0  0  0
 16 25  1  0  0  0
 18 19  1  0  0  0
 19 20  4  0  0  0
 19 21  4  0  0  0
 20 22  4  0  0  0
 21 23  4  0  0  0
 22 24  4  0  0  0
 23 24  4  0  0  0
 25 26  1  0  0  0
 26 27  1  0  0  0
 26 29  1  0  0  0
 27 28  2  0  0  0
 27 34  1  0  0  0
 29 30  1  0  0  0
 30 31  1  0  0  0
 31 32  1  0  0  0
 32 33  1  0  0  0
 34 35  1  0  0  0
 35 36  1  0  0  0
 35 38  1  0  0  0
 36 37  2  0  0  0
 36 41  1  0  0  0
 38 39  1  0  0  0
 38 40  1  0  0  0
 41 42  1  0  0  0
 42 43  1  0  0  0
 42 45  1  0  0  0
 43 44  2  0  0  0
 43 50  1  0  0  0
 45 46  1  0  0  0
 46 47  1  0  0  0
 47 48  1  0  0  0
 48 49  1  0  0  0
 50 51  1  0  0  0
 51 52  1  0  0  0
 51 54  1  0  0  0
 52 53  2  0  0  0
 52 57  1  0  0  0
 54 55  1  0  0  0
 54 56  1  0  0  0
 57 58  1  0  0  0
 58 59  1  0  0  0
 58 61  1  0  0  0
 59 60  2  0  0  0
 59 65  1  0  0  0
 61 62  1  0  0  0
 62 63  2  0  0  0
 62 64  1  0  0  0
  1 66  1  0  0  0
  1 67  1  0  0  0
  1 68  1  0  0  0
  2 69  1  0  0  0
  5 70  1  0  0  0
  5 71  1  0  0  0
  6 72  1  0  0  0
  7 73  1  0  0  0
  8 74  1  0  0  0
 11 75  1  0  0  0
 12 76  1  0  0  0
 13 77  1  0  0  0
 13 78  1  0  0  0
 13 79  1  0  0  0
 14 80  1  0  0  0
 15 81  1  0  0  0
 18 82  1  0  0  0
 18 83  1  0  0  0
 20 84  1  0  0  0
 21 85  1  0  0  0
 22 86  1  0  0  0
 23 87  1  0  0  0
 24 88  1  0  0  0
 25 89  1  0  0  0
 26 90  1  0  0  0
 29 91  1  0  0  0
 29 92  1  0  0  0
 30 93  1  0  0  0
 30 94  1  0  0  0
 31 95  1  0  0  0
 31 96  1  0  0  0
 32 97  1  0  0  0
 32 98  1  0  0  0
 33 99  1  0  0  0
 33100  1  0  0  0
 33101  1  0  0  0
 34102  1  0  0  0
 35103  1  0  0  0
 38104  1  0  0  0
 39105  1  0  0  0
 40106  1  0  0  0
 40107  1  0  0  0
 40108  1  0  0  0
 41109  1  0  0  0
 42110  1  0  0  0
 45111  1  0  0  0
 45112  1  0  0  0
 46113  1  0  0  0
 46114  1  0  0  0
 47115  1  0  0  0
 47116  1  0  0  0
 48117  1  0  0  0
 48118  1  0  0  0
 49119  1  0  0  0
 49120  1  0  0  0
 49121  1  0  0  0
 50122  1  0  0  0
 51123  1  0  0  0
 54124  1  0  0  0
 55125  1  0  0  0
 56126  1  0  0  0
 56127  1  0  0  0
 56128  1  0  0  0
 57129  1  0  0  0
 58130  1  0  0  0
 61131  1  0  0  0
 61132  1  0  0  0
 64133  1  0  0  0
 64134  1  0  0  0
 65135  1  0  0  0
M  END
$$$$
