3s45_ligand
  -I-interpret- 

 70 72  0  0  0  0  0  0  0  0999 V2000
   25.3390   14.6720   16.1890 C   0  0  0  0  0
   25.5900   13.0850   17.9530 C   0  0  0  0  0
   22.6850   12.3820   17.1770 C   0  0  0  0  0
   24.5210   13.8780   17.2150 C   0  0  0  0  0
   20.7090   10.8980   16.9940 C   0  0  0  0  0
   20.8840    9.3830   16.9690 C   0  0  0  0  0
   19.5440   11.3920   16.1260 C   0  0  0  0  0
   19.5240   12.9130   16.2390 C   0  0  0  0  0
   20.2090   13.6660   15.2930 C   0  0  0  0  0
   18.8590   13.5460   17.2740 C   0  0  0  0  0
   20.2440   15.0360   15.5030 C   0  0  0  0  0
   18.8270   14.9130   17.5130 C   0  0  0  0  0
   19.6360   15.5850   16.6220 C   0  0  0  0  0
   19.7050    8.6550   17.6290 C   0  0  0  0  0
   20.1520    7.7090   19.8100 C   0  0  0  0  0
   21.6890    7.5950   19.7070 C   0  0  0  0  0
   17.1610    8.5720   19.8360 C   0  0  0  0  0
   16.2610    8.5470   18.7700 C   0  0  0  0  0
   15.2060    7.6470   18.8200 C   0  0  0  0  0
   15.0700    6.7960   19.9040 C   0  0  0  0  0
   15.9650    6.8360   20.9680 C   0  0  0  0  0
   17.0480    7.7290   20.9250 C   0  0  0  0  0
   22.3230    8.9080   20.1920 C   0  0  0  0  0
   22.1800    6.3970   20.5330 C   0  0  0  0  0
   26.7420   12.9930   16.9510 C   0  0  0  0  0
   21.9350   11.5240   16.4820 N   0  0  0  0  0
   19.7980    8.9180   19.0740 N   0  0  0  0  0
   14.0700    5.9200   19.8790 N   0  0  0  0  0
   23.6820   12.9860   16.4930 O   0  0  0  0  0
   22.5180   12.6370   18.3630 O   0  0  0  0  0
   21.0740    8.8850   15.6460 O   0  0  0  0  0
   18.1160   10.7450   18.7150 O   0  0  0  0  0
   18.8580   10.2220   21.0150 O   0  0  0  0  0
   26.4420   13.8410   15.8480 O   0  0  0  0  0
   18.4990    9.6790   19.6900 S   0  0  0  0  0
   25.6721   15.6255   16.5989 H   0  0  0  0  0
   24.7421   14.9196   15.3112 H   0  0  0  0  0
   25.2342   12.1028   18.2641 H   0  0  0  0  0
   25.8905   13.5648   18.8845 H   0  0  0  0  0
   23.9023   14.4826   17.8782 H   0  0  0  0  0
   20.4976   11.1703   18.0280 H   0  0  0  0  0
   21.7851    9.1789   17.5473 H   0  0  0  0  0
   18.6000   10.9658   16.4655 H   0  0  0  0  0
   19.6748   11.0822   15.0892 H   0  0  0  0  0
   20.6928   13.2044   14.4322 H   0  0  0  0  0
   18.3079   12.9110   17.9676 H   0  0  0  0  0
   20.7506   15.6831   14.7869 H   0  0  0  0  0
   18.2415   15.3903   18.2988 H   0  0  0  0  0
   19.8139   16.6431   16.8142 H   0  0  0  0  0
   19.7478    7.5849   17.4263 H   0  0  0  0  0
   18.7560    9.0133   17.2302 H   0  0  0  0  0
   19.8253    7.7647   20.8484 H   0  0  0  0  0
   19.6586    6.8305   19.3941 H   0  0  0  0  0
   21.9847    7.4282   18.6712 H   0  0  0  0  0
   16.3836    9.2175   17.9194 H   0  0  0  0  0
   14.4833    7.6098   18.0049 H   0  0  0  0  0
   15.8270    6.1801   21.8275 H   0  0  0  0  0
   17.7814    7.7565   21.7309 H   0  0  0  0  0
   21.9728    9.7310   19.5690 H   0  0  0  0  0
   22.0362    9.0874   21.2282 H   0  0  0  0  0
   23.4082    8.8337   20.1217 H   0  0  0  0  0
   21.8981    6.5369   21.5766 H   0  0  0  0  0
   21.7244    5.4832   20.1516 H   0  0  0  0  0
   23.2647    6.3237   20.4550 H   0  0  0  0  0
   26.8610   11.9643   16.6108 H   0  0  0  0  0
   27.6737   13.3067   17.4219 H   0  0  0  0  0
   22.2322   11.2881   15.5352 H   0  0  0  0  0
   13.4364    5.8920   19.0801 H   0  0  0  0  0
   13.9365    5.2760   20.6587 H   0  0  0  0  0
   21.8119    9.3422   15.2361 H   0  0  0  0  0
  4  1  1  0  0  0
  1 34  1  0  0  0
  4  2  1  0  0  0
  2 25  1  0  0  0
 26  3  1  0  0  0
  3 29  1  0  0  0
  3 30  2  0  0  0
 29  4  1  0  0  0
  6  5  1  0  0  0
  5  7  1  0  0  0
  5 26  1  0  0  0
 14  6  1  0  0  0
  6 31  1  0  0  0
  7  8  1  0  0  0
  8  9  4  0  0  0
  8 10  4  0  0  0
  9 11  4  0  0  0
 10 12  4  0  0  0
 11 13  4  0  0  0
 12 13  4  0  0  0
 27 14  1  0  0  0
 15 16  1  0  0  0
 27 15  1  0  0  0
 16 23  1  0  0  0
 16 24  1  0  0  0
 17 18  4  0  0  0
 17 22  4  0  0  0
 35 17  1  0  0  0
 18 19  4  0  0  0
 19 20  4  0  0  0
 21 20  4  0  0  0
 20 28  1  0  0  0
 22 21  4  0  0  0
 25 34  1  0  0  0
 27 35  1  0  0  0
 35 32  2  0  0  0
 35 33  2  0  0  0
  1 36  1  0  0  0
  1 37  1  0  0  0
  2 38  1  0  0  0
  2 39  1  0  0  0
  4 40  1  0  0  0
  5 41  1  0  0  0
  6 42  1  0  0  0
  7 43  1  0  0  0
  7 44  1  0  0  0
  9 45  1  0  0  0
 10 46  1  0  0  0
 11 47  1  0  0  0
 12 48  1  0  0  0
 13 49  1  0  0  0
 14 50  1  0  0  0
 14 51  1  0  0  0
 15 52  1  0  0  0
 15 53  1  0  0  0
 16 54  1  0  0  0
 18 55  1  0  0  0
 19 56  1  0  0  0
 21 57  1  0  0  0
 22 58  1  0  0  0
 23 59  1  0  0  0
 23 60  1  0  0  0
 23 61  1  0  0  0
 24 62  1  0  0  0
 24 63  1  0  0  0
 24 64  1  0  0  0
 25 65  1  0  0  0
 25 66  1  0  0  0
 26 67  1  0  0  0
 28 68  1  0  0  0
 28 69  1  0  0  0
 31 70  1  0  0  0
M  END
$$$$
