2y67_ligand
  -I-interpret- 

 55 57  0  0  0  0  0  0  0  0999 V2000
   37.1420    0.9450   21.4090 O   0  0  0  0  0
   37.9550    1.1000   20.4760 C   0  0  0  0  0
   38.0470    0.2840   19.5260 O   0  0  0  0  0
   38.8340    2.3340   20.5600 C   0  0  0  0  0
   39.7190    2.5610   19.3500 C   0  0  0  0  0
   40.1490    4.9190   20.0860 C   0  0  0  0  0
   40.0290    5.2120   21.3060 O   0  0  0  0  0
   39.7600    5.6830   19.1710 O   0  0  0  0  0
   41.5760    3.7210   18.4560 N   0  0  0  0  0
   43.3870    5.1810   17.8080 O   0  0  0  0  0
   44.8720    2.9270   16.8670 C   0  0  0  0  0
   45.4330    1.8360   16.1920 C   0  0  0  0  0
   43.7810    2.7350   17.7290 C   0  0  0  0  0
   43.2550    1.4460   17.9010 C   0  0  0  0  0
   43.8130    0.3600   17.2260 C   0  0  0  0  0
   44.9070    0.5460   16.3710 C   0  0  0  0  0
   45.4890   -0.6640   15.6490 C   0  0  0  0  0
   47.4500   -1.0090   17.0990 C   0  0  0  0  0
   46.8980   -0.3590   18.2050 C   0  0  0  0  0
   47.4430   -0.5220   19.4760 C   0  0  0  0  0
   48.5670   -1.8280   17.2730 C   0  0  0  0  0
   49.1170   -1.9890   18.5470 C   0  0  0  0  0
   48.5650   -1.3270   19.6480 C   0  0  0  0  0
   49.0990   -1.4580   21.0580 C   0  0  0  0  0
   51.8440   -1.5040   20.0840 S   0  0  0  0  0
   52.9710   -1.7360   21.3970 C   0  0  0  0  0
   52.5130   -1.8600   22.6490 N   0  0  0  0  0
   40.7880    3.6030   19.6800 C   0  0  0  0  0
   51.1750   -1.7710   22.5640 C   0  0  0  0  0
   50.5960   -1.5850   21.3270 C   0  0  0  0  0
   50.3140   -1.8630   23.7650 O   0  0  0  0  0
   43.0880    3.9660   18.5040 S   0  0  0  0  0
   43.5250    4.0320   19.8680 O   0  0  0  0  0
   54.4190   -1.8160   21.1720 O   0  0  0  0  0
   46.9000   -0.8320   15.8470 O   0  0  0  0  0
   38.7262    0.5804   18.9157 H   0  0  0  0  0
   39.4944    2.1969   21.4163 H   0  0  0  0  0
   38.1688    3.1943   20.6339 H   0  0  0  0  0
   39.1102    2.9190   18.5198 H   0  0  0  0  0
   40.2019    1.6233   19.0751 H   0  0  0  0  0
   40.3858    4.4997   21.8416 H   0  0  0  0  0
   41.1110    3.6388   17.5519 H   0  0  0  0  0
   45.2829    3.9263   16.7229 H   0  0  0  0  0
   46.2814    1.9884   15.5249 H   0  0  0  0  0
   42.4052    1.2920   18.5660 H   0  0  0  0  0
   43.3959   -0.6375   17.3645 H   0  0  0  0  0
   45.3257   -0.5156   14.5816 H   0  0  0  0  0
   44.9965   -1.5499   16.0498 H   0  0  0  0  0
   46.0286    0.2848   18.0715 H   0  0  0  0  0
   46.9925   -0.0210   20.3328 H   0  0  0  0  0
   49.0084   -2.3400   16.4179 H   0  0  0  0  0
   49.9835   -2.6359   18.6839 H   0  0  0  0  0
   48.4022   -1.4617   21.8962 H   0  0  0  0  0
   53.0669   -1.9946   23.4949 H   0  0  0  0  0
   41.4126    3.3168   20.5262 H   0  0  0  0  0
  2  1  2  0  0  0
  2  3  1  0  0  0
  4  2  1  0  0  0
  5  4  1  0  0  0
 28  5  1  0  0  0
  6  7  1  0  0  0
  6  8  2  0  0  0
 28  6  1  0  0  0
  9 28  1  0  0  0
 32  9  1  0  0  0
 32 10  2  0  0  0
 12 11  4  0  0  0
 11 13  4  0  0  0
 16 12  4  0  0  0
 14 13  4  0  0  0
 13 32  1  0  0  0
 15 14  4  0  0  0
 16 15  4  0  0  0
 17 16  1  0  0  0
 35 17  1  0  0  0
 19 18  4  0  0  0
 21 18  4  0  0  0
 18 35  1  0  0  0
 20 19  4  0  0  0
 23 20  4  0  0  0
 22 21  4  0  0  0
 23 22  4  0  0  0
 24 23  1  0  0  0
 30 24  2  0  0  0
 25 26  1  0  0  0
 25 30  1  0  0  0
 26 27  1  0  0  0
 26 34  2  0  0  0
 27 29  1  0  0  0
 29 30  1  0  0  0
 29 31  2  0  0  0
 32 33  2  0  0  0
  3 36  1  0  0  0
  4 37  1  0  0  0
  4 38  1  0  0  0
  5 39  1  0  0  0
  5 40  1  0  0  0
  7 41  1  0  0  0
  9 42  1  0  0  0
 11 43  1  0  0  0
 12 44  1  0  0  0
 14 45  1  0  0  0
 15 46  1  0  0  0
 17 47  1  0  0  0
 17 48  1  0  0  0
 19 49  1  0  0  0
 20 50  1  0  0  0
 21 51  1  0  0  0
 22 52  1  0  0  0
 24 53  1  0  0  0
 27 54  1  0  0  0
 28 55  1  0  0  0
M  END
$$$$
