4q9y_ligand
  -I-interpret- 

 16 16  0  0  0  0  0  0  0  0999 V2000
   15.9600    4.5290   13.8660 C   0  0  0  0  0
   15.5160    3.7140   14.9220 C   0  0  0  0  0
   15.9760    2.4060   15.0330 C   0  0  0  0  0
   15.5290    1.5880   16.0940 C   0  0  0  0  0
   16.1450   -0.1610   16.2430 S   0  0  0  0  0
   14.6510    2.0770   17.0050 C   0  0  0  0  0
   14.1900    3.3910   16.8930 C   0  0  0  0  0
   14.6350    4.2050   15.8360 C   0  0  0  0  0
   17.0435    4.6342   13.9208 H   0  0  0  0  0
   15.6857    4.0714   12.9155 H   0  0  0  0  0
   15.4938    5.5110   13.9459 H   0  0  0  0  0
   16.6814    2.0124   14.3012 H   0  0  0  0  0
   15.5931   -0.7345   17.3085 H   0  0  0  0  0
   14.3056    1.4455   17.8235 H   0  0  0  0  0
   13.4852    3.7854   17.6250 H   0  0  0  0  0
   14.2741    5.2298   15.7487 H   0  0  0  0  0
  1  2  1  0  0  0
  2  3  4  0  0  0
  2  8  4  0  0  0
  3  4  4  0  0  0
  4  5  1  0  0  0
  4  6  4  0  0  0
  6  7  4  0  0  0
  7  8  4  0  0  0
  1  9  1  0  0  0
  1 10  1  0  0  0
  1 11  1  0  0  0
  3 12  1  0  0  0
  5 13  1  0  0  0
  6 14  1  0  0  0
  7 15  1  0  0  0
  8 16  1  0  0  0
M  END
$$$$
