4ps5_ligand
  -I-interpret- 

 74 77  0  0  0  0  0  0  0  0999 V2000
   29.9340   12.0330   29.8400 C   0  0  0  0  0
   29.2680   11.1820   28.7470 C   0  0  0  0  0
   28.0980   10.5050   29.4710 C   0  0  0  0  0
   27.6290   11.5970   30.4400 C   0  0  0  0  0
   28.8720   12.3000   30.8400 N   0  3  0  0  0
   28.7540   13.6970   31.3550 C   0  0  0  0  0
   27.6930   13.9360   32.4510 C   0  0  0  0  0
   27.7560   12.8700   33.4200 O   0  0  0  0  0
   26.6190   12.7240   34.1840 C   0  0  0  0  0
   26.2280   11.4390   34.6090 C   0  0  0  0  0
   25.0690   11.2480   35.3880 C   0  0  0  0  0
   25.8350   13.8330   34.5600 C   0  0  0  0  0
   24.6860   13.6460   35.3450 C   0  0  0  0  0
   24.2790   12.3570   35.7670 C   0  0  0  0  0
   23.1540   12.1850   36.5310 N   0  0  0  0  0
   22.4650   11.1200   37.0070 C   0  0  0  0  0
   22.7440    9.8670   36.5610 N   0  0  0  0  0
   21.4910   11.2700   37.9340 N   0  0  0  0  0
   20.7810   10.2300   38.4190 C   0  0  0  0  0
   21.0430    8.9180   37.9700 C   0  0  0  0  0
   20.2570    7.7750   38.5080 C   0  0  0  0  0
   22.0760    8.7690   37.0010 C   0  0  0  0  0
   22.3710    7.5230   36.5420 N   0  0  0  0  0
   23.1410    7.1280   35.4760 C   0  0  0  0  0
   23.5320    7.9300   34.3820 C   0  0  0  0  0
   23.5660    5.7790   35.5010 C   0  0  0  0  0
   24.3410    5.2230   34.4660 C   0  0  0  0  0
   24.7160    6.0290   33.3800 C   0  0  0  0  0
   24.3030    7.3750   33.3410 C   0  0  0  0  0
   24.7670    8.3900   31.9810 S   0  0  0  0  0
   25.9480    9.3430   32.4380 O   0  0  0  0  0
   25.1760    7.4570   30.7800 O   0  0  0  0  0
   23.4200    9.4280   31.5040 N   0  0  0  0  0
   22.4040    8.9850   30.5020 C   0  0  0  0  0
   21.2490   10.0200   30.6030 C   0  0  0  0  0
   21.8160    7.5730   30.8010 C   0  0  0  0  0
   22.9930    9.0550   29.0630 C   0  0  0  0  0
   30.3393   12.9591   29.4323 H   0  0  0  0  0
   30.7816   11.5142   30.2878 H   0  0  0  0  0
   29.9561   10.4606   28.3064 H   0  0  0  0  0
   28.9392   11.7811   27.8979 H   0  0  0  0  0
   28.3848    9.5820   29.9749 H   0  0  0  0  0
   27.3129   10.1705   28.7929 H   0  0  0  0  0
   27.1013   11.1813   31.2984 H   0  0  0  0  0
   26.9097   12.2722   29.9764 H   0  0  0  0  0
   29.1684   11.8853   31.7235 H   0  0  0  0  0
   28.4544   14.3093   30.5045 H   0  0  0  0  0
   29.7164   13.9355   31.8077 H   0  0  0  0  0
   26.7015   13.9584   31.9988 H   0  0  0  0  0
   27.8879   14.8882   32.9445 H   0  0  0  0  0
   26.8331   10.5763   34.3302 H   0  0  0  0  0
   24.7815   10.2435   35.6986 H   0  0  0  0  0
   26.1205   14.8356   34.2415 H   0  0  0  0  0
   24.0935   14.5132   35.6364 H   0  0  0  0  0
   22.7346   13.0726   36.8078 H   0  0  0  0  0
   20.0016   10.4041   39.1609 H   0  0  0  0  0
   20.3956    7.7166   39.5876 H   0  0  0  0  0
   19.2009    7.9243   38.2835 H   0  0  0  0  0
   20.6008    6.8497   38.0457 H   0  0  0  0  0
   21.9534    6.7601   37.0749 H   0  0  0  0  0
   23.2375    8.9787   34.3424 H   0  0  0  0  0
   23.2850    5.1516   36.3468 H   0  0  0  0  0
   24.6467    4.1776   34.5075 H   0  0  0  0  0
   25.3220    5.6167   32.5732 H   0  0  0  0  0
   23.3334   10.3538   31.9234 H   0  0  0  0  0
   20.8432   10.0121   31.6146 H   0  0  0  0  0
   21.6322   11.0139   30.3717 H   0  0  0  0  0
   20.4645    9.7574   29.8933 H   0  0  0  0  0
   22.6208    6.8379   30.7996 H   0  0  0  0  0
   21.3320    7.5818   31.7776 H   0  0  0  0  0
   21.0854    7.3153   30.0342 H   0  0  0  0  0
   23.2865   10.0811   28.8414 H   0  0  0  0  0
   23.8647    8.4040   28.9965 H   0  0  0  0  0
   22.2388    8.7287   28.3468 H   0  0  0  0  0
  1  2  1  0  0  0
  1  5  1  0  0  0
  2  3  1  0  0  0
  3  4  1  0  0  0
  4  5  1  0  0  0
  5  6  1  0  0  0
  6  7  1  0  0  0
  7  8  1  0  0  0
  8  9  1  0  0  0
  9 10  4  0  0  0
  9 12  4  0  0  0
 10 11  4  0  0  0
 11 14  4  0  0  0
 12 13  4  0  0  0
 13 14  4  0  0  0
 14 15  1  0  0  0
 15 16  1  0  0  0
 16 17  4  0  0  0
 16 18  4  0  0  0
 17 22  4  0  0  0
 18 19  4  0  0  0
 19 20  4  0  0  0
 20 21  1  0  0  0
 20 22  4  0  0  0
 22 23  1  0  0  0
 23 24  1  0  0  0
 24 25  4  0  0  0
 24 26  4  0  0  0
 25 29  4  0  0  0
 26 27  4  0  0  0
 27 28  4  0  0  0
 28 29  4  0  0  0
 29 30  1  0  0  0
 30 31  2  0  0  0
 30 32  2  0  0  0
 30 33  1  0  0  0
 33 34  1  0  0  0
 34 35  1  0  0  0
 34 36  1  0  0  0
 34 37  1  0  0  0
  1 38  1  0  0  0
  1 39  1  0  0  0
  2 40  1  0  0  0
  2 41  1  0  0  0
  3 42  1  0  0  0
  3 43  1  0  0  0
  4 44  1  0  0  0
  4 45  1  0  0  0
  5 46  1  0  0  0
  6 47  1  0  0  0
  6 48  1  0  0  0
  7 49  1  0  0  0
  7 50  1  0  0  0
 10 51  1  0  0  0
 11 52  1  0  0  0
 12 53  1  0  0  0
 13 54  1  0  0  0
 15 55  1  0  0  0
 19 56  1  0  0  0
 21 57  1  0  0  0
 21 58  1  0  0  0
 21 59  1  0  0  0
 23 60  1  0  0  0
 25 61  1  0  0  0
 26 62  1  0  0  0
 27 63  1  0  0  0
 28 64  1  0  0  0
 33 65  1  0  0  0
 35 66  1  0  0  0
 35 67  1  0  0  0
 35 68  1  0  0  0
 36 69  1  0  0  0
 36 70  1  0  0  0
 36 71  1  0  0  0
 37 72  1  0  0  0
 37 73  1  0  0  0
 37 74  1  0  0  0
M  END
$$$$
