4ery_ligand
  -I-interpret- 

204205  0  0  0  0  0  0  0  0999 V2000
   -8.2720  -15.7740  -22.3060 N   0  3  0  0  0
   -7.6040  -14.9060  -21.3460 C   0  0  0  0  0
   -7.3590  -13.5270  -21.9320 C   0  0  0  0  0
   -7.4230  -13.3240  -23.1470 O   0  0  0  0  0
   -6.2490  -15.4850  -20.8900 C   0  0  0  0  0
   -6.4310  -16.8740  -20.3120 C   0  0  0  0  0
   -5.2450  -15.5010  -22.0480 C   0  0  0  0  0
   -7.0940  -12.5740  -21.0480 N   0  0  0  0  0
   -6.6210  -11.2710  -21.4590 C   0  0  0  0  0
   -5.1080  -11.2770  -21.4070 C   0  0  0  0  0
   -4.5400  -11.4040  -20.3320 O   0  0  0  0  0
   -7.1730  -10.2000  -20.5210 C   0  0  0  0  0
   -8.6590  -10.0320  -20.6700 C   0  0  0  0  0
   -9.1550   -9.8180  -21.7780 O   0  0  0  0  0
   -9.3850  -10.1600  -19.5650 N   0  0  0  0  0
   -4.4560  -11.1550  -22.5740 N   0  0  0  0  0
   -2.9880  -11.2340  -22.6500 C   0  0  0  0  0
   -2.2520  -10.2620  -21.7120 C   0  0  0  0  0
   -1.1780  -10.6050  -21.2270 O   0  0  0  0  0
   -2.6980  -10.9160  -24.1180 C   0  0  0  0  0
   -3.9390  -11.3470  -24.8470 C   0  0  0  0  0
   -5.0780  -11.0200  -23.9040 C   0  0  0  0  0
   -2.8160   -9.0820  -21.4580 N   0  0  0  0  0
   -2.1790   -8.0870  -20.5880 C   0  0  0  0  0
   -2.3210   -8.4240  -19.1040 C   0  0  0  0  0
   -1.6340   -7.8390  -18.2610 O   0  0  0  0  0
   -2.7370   -6.6780  -20.8230 C   0  0  0  0  0
   -4.1220   -6.6570  -20.4670 O   0  0  0  0  0
   -2.5660   -6.2490  -22.2800 C   0  0  0  0  0
   -3.2260   -9.3460  -18.7880 N   0  0  0  0  0
   -3.3900   -9.8240  -17.4260 C   0  0  0  0  0
   -4.6790   -9.4200  -16.7230 C   0  0  0  0  0
   -5.0420  -10.0210  -15.7220 O   0  0  0  0  0
   -5.3640   -8.3870  -17.2140 N   0  0  0  0  0
   -6.7030   -8.1020  -16.7090 C   0  0  0  0  0
   -7.5370   -7.4480  -17.7960 C   0  0  0  0  0
   -7.0040   -6.8980  -18.7530 O   0  0  0  0  0
   -6.6610   -7.2430  -15.4340 C   0  0  0  0  0
   -6.3240   -5.4870  -15.6340 S   0  0  0  0  0
   -8.8560   -7.4950  -17.6270 N   0  0  0  0  0
   -9.7510   -6.9140  -18.6250 C   0  0  0  0  0
   -9.5080   -5.4230  -18.8770 C   0  0  0  0  0
   -9.5080   -4.9540  -20.0180 O   0  0  0  0  0
  -11.2050   -7.1670  -18.2490 C   0  0  0  0  0
   -9.2710   -4.6660  -17.8110 N   0  0  0  0  0
   -9.2000   -3.2230  -17.9810 C   0  0  0  0  0
   -7.9810   -2.7660  -18.7760 C   0  0  0  0  0
   -8.0260   -1.7460  -19.4520 O   0  0  0  0  0
   -9.2780   -2.4900  -16.6450 C   0  0  0  0  0
   -9.5020   -0.9930  -16.8380 C   0  0  0  0  0
   -9.6170   -0.2320  -15.5320 C   0  0  0  0  0
  -10.7700   -0.6480  -14.7300 N   0  0  0  0  0
  -11.9590   -0.0520  -14.7230 C   0  0  0  0  0
  -12.1740    1.0010  -15.4960 N   0  0  0  0  0
  -12.9220   -0.5230  -13.9410 N   0  0  0  0  0
   -6.8900   -3.5310  -18.7040 N   0  0  0  0  0
   -5.6650   -3.1910  -19.4300 C   0  0  0  0  0
   -5.6570   -3.7260  -20.8620 C   0  0  0  0  0
   -4.7120   -3.4910  -21.6070 O   0  0  0  0  0
   -4.4110   -3.6430  -18.6700 C   0  0  0  0  0
   -4.4540   -5.0070  -18.3250 O   0  0  0  0  0
   -6.7270   -4.4060  -21.2530 N   0  0  0  0  0
   -6.8410   -4.9860  -22.5840 C   0  0  0  0  0
   -7.5770   -3.9930  -23.4670 C   0  0  0  0  0
   -8.6360   -3.4990  -23.0820 O   0  0  0  0  0
   -7.6130   -6.3050  -22.4960 C   0  0  0  0  0
   -7.3160   -7.2830  -23.6090 C   0  0  0  0  0
   -5.8700   -7.7310  -23.6070 C   0  0  0  0  0
   -5.2770   -7.7960  -24.7050 O   0  0  0  0  0
   -5.3280   -8.0390  -22.5170 O   0  0  0  0  0
   -7.0220   -3.6720  -24.6440 N   0  0  0  0  0
   -7.7260   -2.7100  -25.4990 C   0  0  0  0  0
   -9.0310   -3.3000  -26.0320 C   0  0  0  0  0
   -9.0910   -4.5030  -26.2990 O   0  0  0  0  0
   -6.7420   -2.4640  -26.6470 C   0  0  0  0  0
   -5.8690   -3.6690  -26.6650 C   0  0  0  0  0
   -5.7480   -4.1170  -25.2350 C   0  0  0  0  0
  -10.0650   -2.4740  -26.1670 N   0  0  0  0  0
  -11.3600   -2.9580  -26.6330 C   0  0  0  0  0
  -11.2920   -3.3540  -28.1000 C   0  0  0  0  0
  -10.6840   -2.6550  -28.9100 O   0  0  0  0  0
  -12.4420   -1.8950  -26.4460 C   0  0  0  0  0
  -13.8410   -2.3400  -26.8710 C   0  0  0  0  0
  -14.8280   -1.1860  -26.8080 C   0  0  0  0  0
  -16.2190   -1.6140  -27.2430 C   0  0  0  0  0
  -16.2040   -2.1510  -28.6370 N   0  3  0  0  0
  -11.9100   -4.4830  -28.4270 N   0  0  0  0  0
  -12.0240   -4.9200  -29.8120 C   0  0  0  0  0
  -13.1640   -4.1950  -30.5180 C   0  0  0  0  0
  -14.1400   -3.7880  -29.8780 O   0  0  0  0  0
  -12.2600   -6.4290  -29.8720 C   0  0  0  0  0
  -11.1590   -7.2410  -29.2190 C   0  0  0  0  0
   -9.5280   -6.7440  -29.8020 S   0  0  0  0  0
   -9.6730   -7.1160  -31.5460 C   0  0  0  0  0
  -13.0380   -4.0410  -31.8370 N   0  0  0  0  0
  -14.0620   -3.3750  -32.6470 C   0  0  0  0  0
  -15.4280   -4.0420  -32.5180 C   0  0  0  0  0
  -16.4530   -3.3650  -32.4340 O   0  0  0  0  0
  -13.6390   -3.3320  -34.1220 C   0  0  0  0  0
  -14.6000   -2.6480  -34.9080 O   0  0  0  0  0
  -15.5081   -5.2993  -32.4972 O   0  0  0  0  0
   -9.1607  -15.3552  -22.5802 H   0  0  0  0  0
   -7.6801  -15.8879  -23.1289 H   0  0  0  0  0
   -8.4413  -16.6846  -21.8788 H   0  0  0  0  0
   -8.2705  -14.8337  -20.4865 H   0  0  0  0  0
   -5.8478  -14.8407  -20.1077 H   0  0  0  0  0
   -6.8015  -17.5435  -21.0883 H   0  0  0  0  0
   -5.4736  -17.2401  -19.9412 H   0  0  0  0  0
   -7.1483  -16.8339  -19.4923 H   0  0  0  0  0
   -4.2812  -15.8596  -21.6866 H   0  0  0  0  0
   -5.6091  -16.1630  -22.8337 H   0  0  0  0  0
   -5.1332  -14.4918  -22.4443 H   0  0  0  0  0
   -7.2271  -12.7650  -20.0549 H   0  0  0  0  0
   -6.9583  -11.0498  -22.4716 H   0  0  0  0  0
   -6.6964   -9.2516  -20.7689 H   0  0  0  0  0
   -6.9659  -10.5057  -19.4955 H   0  0  0  0  0
  -10.4010  -10.0816  -19.6103 H   0  0  0  0  0
   -8.9265  -10.3367  -18.6712 H   0  0  0  0  0
   -2.6284  -12.2100  -22.3242 H   0  0  0  0  0
   -1.8099  -11.4333  -24.4809 H   0  0  0  0  0
   -2.4791   -9.8594  -24.2722 H   0  0  0  0  0
   -3.9132  -12.4073  -25.0984 H   0  0  0  0  0
   -4.0453  -10.8347  -25.8032 H   0  0  0  0  0
   -5.4974  -10.0287  -24.0757 H   0  0  0  0  0
   -5.9382  -11.6762  -24.0368 H   0  0  0  0  0
   -3.7180   -8.8637  -21.8812 H   0  0  0  0  0
   -1.1224   -8.1109  -20.8546 H   0  0  0  0  0
   -2.1816   -5.9753  -20.2018 H   0  0  0  0  0
   -4.4754   -5.7764  -20.6127 H   0  0  0  0  0
   -1.5064   -6.2502  -22.5358 H   0  0  0  0  0
   -3.0982   -6.9459  -22.9275 H   0  0  0  0  0
   -2.9718   -5.2460  -22.4121 H   0  0  0  0  0
   -3.8216   -9.7282  -19.5226 H   0  0  0  0  0
   -2.5772   -9.3835  -16.8486 H   0  0  0  0  0
   -3.4032  -10.9123  -17.4846 H   0  0  0  0  0
   -4.9540   -7.7986  -17.9393 H   0  0  0  0  0
   -7.1731   -9.0456  -16.4320 H   0  0  0  0  0
   -5.8360   -7.6363  -14.8400 H   0  0  0  0  0
   -7.6604   -7.3048  -15.0032 H   0  0  0  0  0
   -6.3238   -4.8985  -14.4413 H   0  0  0  0  0
   -9.2448   -7.9395  -16.7953 H   0  0  0  0  0
   -9.5257   -7.4173  -19.5652 H   0  0  0  0  0
  -11.3834   -8.2409  -18.1949 H   0  0  0  0  0
  -11.4125   -6.7137  -17.2797 H   0  0  0  0  0
  -11.8561   -6.7268  -19.0042 H   0  0  0  0  0
   -9.1414   -5.0884  -16.8916 H   0  0  0  0  0
  -10.0766   -2.9573  -18.5718 H   0  0  0  0  0
   -8.3341   -2.6320  -16.1186 H   0  0  0  0  0
  -10.1176   -2.8937  -16.0791 H   0  0  0  0  0
  -10.4408   -0.8667  -17.3772 H   0  0  0  0  0
   -8.6405   -0.5971  -17.3757 H   0  0  0  0  0
   -9.7416    0.8240  -15.7717 H   0  0  0  0  0
   -8.7172   -0.4313  -14.9500 H   0  0  0  0  0
  -10.6512   -1.4621  -14.1270 H   0  0  0  0  0
  -11.4284    1.3541  -16.0958 H   0  0  0  0  0
  -13.8374   -0.0732  -13.9320 H   0  0  0  0  0
  -12.7468   -1.3349  -13.3489 H   0  0  0  0  0
   -6.9100   -4.3733  -18.1291 H   0  0  0  0  0
   -5.6473   -2.1032  -19.4976 H   0  0  0  0  0
   -4.3487   -3.0642  -17.7485 H   0  0  0  0  0
   -3.5492   -3.4866  -19.3188 H   0  0  0  0  0
   -3.6516   -5.2421  -17.8533 H   0  0  0  0  0
   -7.4986   -4.5271  -20.5969 H   0  0  0  0  0
   -5.8571   -5.1917  -23.0056 H   0  0  0  0  0
   -8.6726   -6.0586  -22.5633 H   0  0  0  0  0
   -7.3173   -6.7851  -21.5632 H   0  0  0  0  0
   -7.5156   -6.7865  -24.5586 H   0  0  0  0  0
   -7.9434   -8.1624  -23.4637 H   0  0  0  0  0
   -5.9571   -7.9166  -21.8023 H   0  0  0  0  0
   -8.0030   -1.8000  -24.9668 H   0  0  0  0  0
   -6.1677   -1.5493  -26.4999 H   0  0  0  0  0
   -7.2556   -2.3210  -27.5977 H   0  0  0  0  0
   -4.8917   -3.4412  -27.0906 H   0  0  0  0  0
   -6.2946   -4.4546  -27.2894 H   0  0  0  0  0
   -5.5883   -5.1910  -25.1392 H   0  0  0  0  0
   -4.8773   -3.6971  -24.7313 H   0  0  0  0  0
   -9.9505   -1.4860  -25.9410 H   0  0  0  0  0
  -11.6161   -3.8335  -26.0363 H   0  0  0  0  0
  -12.1704   -1.0469  -27.0746 H   0  0  0  0  0
  -12.4875   -1.6676  -25.3810 H   0  0  0  0  0
  -14.1780   -3.1233  -26.1921 H   0  0  0  0  0
  -13.7939   -2.7017  -27.8982 H   0  0  0  0  0
  -14.4832   -0.4014  -27.4815 H   0  0  0  0  0
  -14.8825   -0.8359  -25.7772 H   0  0  0  0  0
  -16.8776   -0.7461  -27.2102 H   0  0  0  0  0
  -16.5695   -2.3972  -26.5708 H   0  0  0  0  0
  -17.1484   -2.4301  -28.9027 H   0  0  0  0  0
  -15.8695   -1.4286  -29.2748 H   0  0  0  0  0
  -15.5839   -2.9596  -28.6819 H   0  0  0  0  0
  -12.3154   -5.0591  -27.6893 H   0  0  0  0  0
  -11.0900   -4.6801  -30.3202 H   0  0  0  0  0
  -12.2960   -6.7129  -30.9238 H   0  0  0  0  0
  -13.1840   -6.6373  -29.3326 H   0  0  0  0  0
  -11.3094   -8.2902  -29.4734 H   0  0  0  0  0
  -11.2035   -7.0763  -28.1424 H   0  0  0  0  0
   -9.8791   -8.1787  -31.6736 H   0  0  0  0  0
  -10.4881   -6.5325  -31.9741 H   0  0  0  0  0
   -8.7398   -6.8626  -32.0491 H   0  0  0  0  0
  -12.2010   -4.3987  -32.2973 H   0  0  0  0  0
  -14.1548   -2.3580  -32.2658 H   0  0  0  0  0
  -13.5509   -4.3543  -34.4898 H   0  0  0  0  0
  -12.6877   -2.8052  -34.1971 H   0  0  0  0  0
  -14.3123   -2.6353  -35.8238 H   0  0  0  0  0
  -14.6283   -5.6761  -32.5715 H   0  0  0  0  0
  1  2  1  0  0  0
  2  3  1  0  0  0
  2  5  1  0  0  0
  3  4  2  0  0  0
  3  8  1  0  0  0
  5  6  1  0  0  0
  5  7  1  0  0  0
  8  9  1  0  0  0
  9 10  1  0  0  0
  9 12  1  0  0  0
 10 11  2  0  0  0
 10 16  1  0  0  0
 12 13  1  0  0  0
 13 14  2  0  0  0
 13 15  1  0  0  0
 16 17  1  0  0  0
 16 22  1  0  0  0
 17 18  1  0  0  0
 17 20  1  0  0  0
 18 19  2  0  0  0
 18 23  1  0  0  0
 20 21  1  0  0  0
 21 22  1  0  0  0
 23 24  1  0  0  0
 24 25  1  0  0  0
 24 27  1  0  0  0
 25 26  2  0  0  0
 25 30  1  0  0  0
 27 28  1  0  0  0
 27 29  1  0  0  0
 30 31  1  0  0  0
 31 32  1  0  0  0
 32 33  2  0  0  0
 32 34  1  0  0  0
 34 35  1  0  0  0
 35 36  1  0  0  0
 35 38  1  0  0  0
 36 37  2  0  0  0
 36 40  1  0  0  0
 38 39  1  0  0  0
 40 41  1  0  0  0
 41 42  1  0  0  0
 41 44  1  0  0  0
 42 43  2  0  0  0
 42 45  1  0  0  0
 45 46  1  0  0  0
 46 47  1  0  0  0
 46 49  1  0  0  0
 47 48  2  0  0  0
 47 56  1  0  0  0
 49 50  1  0  0  0
 50 51  1  0  0  0
 51 52  1  0  0  0
 52 53  1  0  0  0
 53 54  2  0  0  0
 53 55  1  0  0  0
 56 57  1  0  0  0
 57 58  1  0  0  0
 57 60  1  0  0  0
 58 59  2  0  0  0
 58 62  1  0  0  0
 60 61  1  0  0  0
 62 63  1  0  0  0
 63 64  1  0  0  0
 63 66  1  0  0  0
 64 65  2  0  0  0
 64 71  1  0  0  0
 66 67  1  0  0  0
 67 68  1  0  0  0
 68 69  2  0  0  0
 68 70  1  0  0  0
 71 72  1  0  0  0
 71 77  1  0  0  0
 72 73  1  0  0  0
 72 75  1  0  0  0
 73 74  2  0  0  0
 73 78  1  0  0  0
 75 76  1  0  0  0
 76 77  1  0  0  0
 78 79  1  0  0  0
 79 80  1  0  0  0
 79 82  1  0  0  0
 80 81  2  0  0  0
 80 87  1  0  0  0
 82 83  1  0  0  0
 83 84  1  0  0  0
 84 85  1  0  0  0
 85 86  1  0  0  0
 87 88  1  0  0  0
 88 89  1  0  0  0
 88 91  1  0  0  0
 89 90  2  0  0  0
 89 95  1  0  0  0
 91 92  1  0  0  0
 92 93  1  0  0  0
 93 94  1  0  0  0
 95 96  1  0  0  0
 96 97  1  0  0  0
 96 99  1  0  0  0
 97 98  2  0  0  0
 99100  1  0  0  0
 97101  1  0  0  0
  1102  1  0  0  0
  1103  1  0  0  0
  1104  1  0  0  0
  2105  1  0  0  0
  5106  1  0  0  0
  6107  1  0  0  0
  6108  1  0  0  0
  6109  1  0  0  0
  7110  1  0  0  0
  7111  1  0  0  0
  7112  1  0  0  0
  8113  1  0  0  0
  9114  1  0  0  0
 12115  1  0  0  0
 12116  1  0  0  0
 15117  1  0  0  0
 15118  1  0  0  0
 17119  1  0  0  0
 20120  1  0  0  0
 20121  1  0  0  0
 21122  1  0  0  0
 21123  1  0  0  0
 22124  1  0  0  0
 22125  1  0  0  0
 23126  1  0  0  0
 24127  1  0  0  0
 27128  1  0  0  0
 28129  1  0  0  0
 29130  1  0  0  0
 29131  1  0  0  0
 29132  1  0  0  0
 30133  1  0  0  0
 31134  1  0  0  0
 31135  1  0  0  0
 34136  1  0  0  0
 35137  1  0  0  0
 38138  1  0  0  0
 38139  1  0  0  0
 39140  1  0  0  0
 40141  1  0  0  0
 41142  1  0  0  0
 44143  1  0  0  0
 44144  1  0  0  0
 44145  1  0  0  0
 45146  1  0  0  0
 46147  1  0  0  0
 49148  1  0  0  0
 49149  1  0  0  0
 50150  1  0  0  0
 50151  1  0  0  0
 51152  1  0  0  0
 51153  1  0  0  0
 52154  1  0  0  0
 54155  1  0  0  0
 55156  1  0  0  0
 55157  1  0  0  0
 56158  1  0  0  0
 57159  1  0  0  0
 60160  1  0  0  0
 60161  1  0  0  0
 61162  1  0  0  0
 62163  1  0  0  0
 63164  1  0  0  0
 66165  1  0  0  0
 66166  1  0  0  0
 67167  1  0  0  0
 67168  1  0  0  0
 70169  1  0  0  0
 72170  1  0  0  0
 75171  1  0  0  0
 75172  1  0  0  0
 76173  1  0  0  0
 76174  1  0  0  0
 77175  1  0  0  0
 77176  1  0  0  0
 78177  1  0  0  0
 79178  1  0  0  0
 82179  1  0  0  0
 82180  1  0  0  0
 83181  1  0  0  0
 83182  1  0  0  0
 84183  1  0  0  0
 84184  1  0  0  0
 85185  1  0  0  0
 85186  1  0  0  0
 86187  1  0  0  0
 86188  1  0  0  0
 86189  1  0  0  0
 87190  1  0  0  0
 88191  1  0  0  0
 91192  1  0  0  0
 91193  1  0  0  0
 92194  1  0  0  0
 92195  1  0  0  0
 94196  1  0  0  0
 94197  1  0  0  0
 94198  1  0  0  0
 95199  1  0  0  0
 96200  1  0  0  0
 99201  1  0  0  0
 99202  1  0  0  0
100203  1  0  0  0
101204  1  0  0  0
M  END
$$$$
