### 
### Created by X-TOOL on Mon Sep 10 21:13:09 2018
### 

@<TRIPOS>MOLECULE
4ery_ligand
  203   204     1     0     0
SMALL
GAST_HUCK


@<TRIPOS>ATOM
      1 N          -8.2720  -15.7740  -22.3060 N.4       1 VAL         0.2381
      2 CA         -7.6040  -14.9060  -21.3460 C.3       1 VAL         0.0673
      3 C          -7.3590  -13.5270  -21.9320 C.2       1 VAL         0.2271
      4 O          -7.4230  -13.3240  -23.1470 O.2       1 VAL        -0.3907
      5 CB         -6.2490  -15.4850  -20.8900 C.3       1 VAL         0.0139
      6 CG1        -6.4310  -16.8740  -20.3120 C.3       1 VAL        -0.0553
      7 CG2        -5.2450  -15.5010  -22.0480 C.3       1 VAL        -0.0553
      8 N          -7.0940  -12.5740  -21.0480 N.am      1 ASN        -0.2589
      9 CA         -6.6210  -11.2710  -21.4590 C.3       1 ASN         0.1479
     10 C          -5.1080  -11.2770  -21.4070 C.2       1 ASN         0.2088
     11 O          -4.5400  -11.4040  -20.3320 O.2       1 ASN        -0.3940
     12 CB         -7.1730  -10.2000  -20.5210 C.3       1 ASN         0.0773
     13 CG         -8.6590  -10.0320  -20.6700 C.2       1 ASN         0.1780
     14 OD1        -9.1550   -9.8180  -21.7780 O.2       1 ASN        -0.3970
     15 ND2        -9.3850  -10.1600  -19.5650 N.am      1 ASN        -0.3007
     16 N          -4.4560  -11.1550  -22.5740 N.am      1 PRO        -0.2497
     17 CA         -2.9880  -11.2340  -22.6500 C.3       1 PRO         0.1338
     18 C          -2.2520  -10.2620  -21.7120 C.2       1 PRO         0.2042
     19 O          -1.1780  -10.6050  -21.2270 O.2       1 PRO        -0.3944
     20 CB         -2.6980  -10.9160  -24.1180 C.3       1 PRO        -0.0104
     21 CG         -3.9390  -11.3470  -24.8470 C.3       1 PRO        -0.0281
     22 CD         -5.0780  -11.0200  -23.9040 C.3       1 PRO         0.0369
     23 N          -2.8160   -9.0820  -21.4580 N.am      1 THR        -0.2613
     24 CA         -2.1790   -8.0870  -20.5880 C.3       1 THR         0.1565
     25 C          -2.3210   -8.4240  -19.1040 C.2       1 THR         0.2063
     26 O          -1.6340   -7.8390  -18.2610 O.2       1 THR        -0.3943
     27 CB         -2.7370   -6.6780  -20.8230 C.3       1 THR         0.0924
     28 OG1        -4.1220   -6.6570  -20.4670 O.3       1 THR        -0.3874
     29 CG2        -2.5660   -6.2490  -22.2800 C.3       1 THR        -0.0346
     30 N          -3.2260   -9.3460  -18.7880 N.am      1 GLY        -0.2663
     31 CA         -3.3900   -9.8240  -17.4260 C.3       1 GLY         0.1201
     32 C          -4.6790   -9.4200  -16.7230 C.2       1 GLY         0.2008
     33 O          -5.0420  -10.0210  -15.7220 O.2       1 GLY        -0.3947
     34 N          -5.3640   -8.3870  -17.2140 N.am      1 CYS        -0.2632
     35 CA         -6.7030   -8.1020  -16.7090 C.3       1 CYS         0.1396
     36 C          -7.5370   -7.4480  -17.7960 C.2       1 CYS         0.2047
     37 O          -7.0040   -6.8980  -18.7530 O.2       1 CYS        -0.3944
     38 CB         -6.6610   -7.2430  -15.4340 C.3       1 CYS         0.0311
     39 SG         -6.3240   -5.4870  -15.6340 S.3       1 CYS        -0.1735
     40 N          -8.8560   -7.4950  -17.6270 N.am      1 ALA        -0.2640
     41 CA         -9.7510   -6.9140  -18.6250 C.3       1 ALA         0.1282
     42 C          -9.5080   -5.4230  -18.8770 C.2       1 ALA         0.2036
     43 O          -9.5080   -4.9540  -20.0180 O.2       1 ALA        -0.3944
     44 CB        -11.2050   -7.1670  -18.2490 C.3       1 ALA        -0.0244
     45 N          -9.2710   -4.6660  -17.8110 N.am      1 ARG        -0.2637
     46 CA         -9.2000   -3.2230  -17.9810 C.3       1 ARG         0.1311
     47 C          -7.9810   -2.7660  -18.7760 C.2       1 ARG         0.2040
     48 O          -8.0260   -1.7460  -19.4520 O.2       1 ARG        -0.3944
     49 CB         -9.2780   -2.4900  -16.6450 C.3       1 ARG        -0.0092
     50 CG         -9.5020   -0.9930  -16.8380 C.3       1 ARG        -0.0156
     51 CD         -9.6170   -0.2320  -15.5320 C.3       1 ARG         0.0627
     52 NE        -10.7700   -0.6480  -14.7300 N.pl3     1 ARG        -0.2723
     53 CZ        -11.9590   -0.0520  -14.7230 C.cat     1 ARG         0.2882
     54 NH1       -12.1740    1.0010  -15.4960 N.pl3     1 ARG        -0.2849
     55 NH2       -12.9220   -0.5230  -13.9410 N.pl3     1 ARG        -0.2849
     56 N          -6.8900   -3.5310  -18.7040 N.am      1 SER        -0.2616
     57 CA         -5.6650   -3.1910  -19.4300 C.3       1 SER         0.1539
     58 C          -5.6570   -3.7260  -20.8620 C.2       1 SER         0.2062
     59 O          -4.7120   -3.4910  -21.6070 O.2       1 SER        -0.3943
     60 CB         -4.4110   -3.6430  -18.6700 C.3       1 SER         0.0843
     61 OG         -4.4540   -5.0070  -18.3250 O.3       1 SER        -0.3903
     62 N          -6.7270   -4.4060  -21.2530 N.am      1 GLU        -0.2635
     63 CA         -6.8410   -4.9860  -22.5840 C.3       1 GLU         0.1327
     64 C          -7.5770   -3.9930  -23.4670 C.2       1 GLU         0.2065
     65 O          -8.6360   -3.4990  -23.0820 O.2       1 GLU        -0.3942
     66 CB         -7.6130   -6.3050  -22.4960 C.3       1 GLU        -0.0008
     67 CG         -7.3160   -7.2830  -23.6090 C.3       1 GLU         0.0044
     68 CD         -5.8700   -7.7310  -23.6070 C.2       1 GLU         0.0350
     69 OE1        -5.2770   -7.7960  -24.7050 O.co2     1 GLU        -0.5690
     70 OE2        -5.3280   -8.0390  -22.5170 O.co2     1 GLU        -0.5690
     71 N          -7.0220   -3.6720  -24.6440 N.am      1 PRO        -0.2498
     72 CA         -7.7260   -2.7100  -25.4990 C.3       1 PRO         0.1338
     73 C          -9.0310   -3.3000  -26.0320 C.2       1 PRO         0.2041
     74 O          -9.0910   -4.5030  -26.2990 O.2       1 PRO        -0.3944
     75 CB         -6.7420   -2.4640  -26.6470 C.3       1 PRO        -0.0104
     76 CG         -5.8690   -3.6690  -26.6650 C.3       1 PRO        -0.0281
     77 CD         -5.7480   -4.1170  -25.2350 C.3       1 PRO         0.0369
     78 N         -10.0650   -2.4740  -26.1670 N.am      1 LYS        -0.2637
     79 CA        -11.3600   -2.9580  -26.6330 C.3       1 LYS         0.1310
     80 C         -11.2920   -3.3540  -28.1000 C.2       1 LYS         0.2039
     81 O         -10.6840   -2.6550  -28.9100 O.2       1 LYS        -0.3944
     82 CB        -12.4420   -1.8950  -26.4460 C.3       1 LYS        -0.0122
     83 CG        -13.8410   -2.3400  -26.8710 C.3       1 LYS        -0.0440
     84 CD        -14.8280   -1.1860  -26.8080 C.3       1 LYS        -0.0124
     85 CE        -16.2190   -1.6140  -27.2430 C.3       1 LYS        -0.0354
     86 NZ        -16.2040   -2.1510  -28.6370 N.4       1 LYS         0.2185
     87 N         -11.9100   -4.4830  -28.4270 N.am      1 MET        -0.2637
     88 CA        -12.0240   -4.9200  -29.8120 C.3       1 MET         0.1317
     89 C         -13.1640   -4.1950  -30.5180 C.2       1 MET         0.2035
     90 O         -14.1400   -3.7880  -29.8780 O.2       1 MET        -0.3944
     91 CB        -12.2600   -6.4290  -29.8720 C.3       1 MET        -0.0034
     92 CG        -11.1590   -7.2410  -29.2190 C.3       1 MET        -0.0024
     93 SD         -9.5280   -6.7440  -29.8020 S.3       1 MET        -0.1639
     94 CE         -9.6730   -7.1160  -31.5460 C.3       1 MET        -0.0181
     95 N         -13.0380   -4.0410  -31.8370 N.am      1 SER        -0.2648
     96 CA        -14.0620   -3.3750  -32.6470 C.3       1 SER         0.1454
     97 C         -15.4280   -4.0420  -32.5180 C.2       1 SER         0.2172
     98 O         -16.4530   -3.3650  -32.4340 O.co2     1 SER        -0.4119
     99 CB        -13.6390   -3.3320  -34.1220 C.3       1 SER         0.0812
    100 OG        -14.6000   -2.6480  -34.9080 O.3       1 SER        -0.3909
    101 H          -9.1505  -15.3611  -22.5777 H         1 VAL         0.2015
    102 H          -8.4399  -16.6743  -21.8849 H         1 VAL         0.2015
    103 H          -7.6880  -15.8873  -23.1198 H         1 VAL         0.2015
    104 H          -8.2565  -14.8057  -20.4661 H         1 VAL         0.1101
    105 H          -5.8473  -14.8348  -20.0989 H         1 VAL         0.0376
    106 H          -5.4552  -17.2692  -19.9931 H         1 VAL         0.0236
    107 H          -6.8623  -17.5360  -21.0773 H         1 VAL         0.0236
    108 H          -7.1075  -16.8251  -19.4460 H         1 VAL         0.0236
    109 H          -5.1313  -14.4829  -22.4488 H         1 VAL         0.0236
    110 H          -5.6113  -16.1687  -22.8417 H         1 VAL         0.0236
    111 H          -4.2718  -15.8627  -21.6846 H         1 VAL         0.0236
    112 H          -7.2245  -12.7613  -20.0744 H         1 ASN         0.1886
    113 H          -6.9549  -11.0626  -22.4862 H         1 ASN         0.0826
    114 H          -6.6829   -9.2419  -20.7485 H         1 ASN         0.0551
    115 H          -6.9507  -10.4883  -19.4830 H         1 ASN         0.0551
    116 H         -10.3790  -10.0582  -19.6052 H         1 ASN         0.1814
    117 H          -8.9376  -10.3581  -18.6929 H         1 ASN         0.1814
    118 H          -2.6595  -12.2557  -22.4090 H         1 PRO         0.0802
    119 H          -1.8228  -11.4800  -24.4727 H         1 PRO         0.0313
    120 H          -2.5205   -9.8391  -24.2551 H         1 PRO         0.0313
    121 H          -3.9089  -12.4262  -25.0579 H         1 PRO         0.0287
    122 H          -4.0462  -10.7918  -25.7905 H         1 PRO         0.0287
    123 H          -5.4446   -9.9958  -24.0670 H         1 PRO         0.0524
    124 H          -5.9087  -11.7306  -24.0260 H         1 PRO         0.0524
    125 H          -3.7003   -8.8680  -21.8729 H         1 THR         0.1884
    126 H          -1.1067   -8.0761  -20.8331 H         1 THR         0.0826
    127 H          -2.1911   -5.9698  -20.1824 H         1 THR         0.0639
    128 H          -4.5952   -7.2821  -21.0035 H         1 THR         0.2101
    129 H          -2.9752   -5.2369  -22.4146 H         1 THR         0.0257
    130 H          -3.1027   -6.9515  -22.9345 H         1 THR         0.0257
    131 H          -1.4970   -6.2497  -22.5394 H         1 THR         0.0257
    132 H          -3.8099   -9.7207  -19.5082 H         1 GLY         0.1881
    133 H          -2.5485   -9.4389  -16.8314 H         1 GLY         0.0763
    134 H          -3.3503  -10.9230  -17.4488 H         1 GLY         0.0763
    135 H          -4.9620   -7.8101  -17.9251 H         1 CYS         0.1884
    136 H          -7.1770   -9.0598  -16.4485 H         1 CYS         0.0808
    137 H          -5.8783   -7.6576  -14.7817 H         1 CYS         0.0422
    138 H          -7.6389   -7.3376  -14.9392 H         1 CYS         0.0422
    139 H          -5.4230   -5.3665  -16.0696 H         1 CYS         0.1019
    140 H          -9.2371   -7.9308  -16.8116 H         1 ALA         0.1883
    141 H          -9.5571   -7.4357  -19.5738 H         1 ALA         0.0797
    142 H         -11.8632   -6.7232  -19.0105 H         1 ALA         0.0277
    143 H         -11.4157   -6.7099  -17.2709 H         1 ALA         0.0277
    144 H         -11.3864   -8.2505  -18.1941 H         1 ALA         0.0277
    145 H          -9.1439   -5.0801  -16.9097 H         1 ARG         0.1883
    146 H         -10.0868   -2.9312  -18.5627 H         1 ARG         0.0800
    147 H          -8.3355   -2.6424  -16.0986 H         1 ARG         0.0313
    148 H         -10.1124   -2.9032  -16.0593 H         1 ARG         0.0313
    149 H         -10.4312   -0.8495  -17.4089 H         1 ARG         0.0301
    150 H          -8.6547   -0.5835  -17.4075 H         1 ARG         0.0301
    151 H          -9.7149    0.8401  -15.7578 H         1 ARG         0.0689
    152 H          -8.7020   -0.4011  -14.9454 H         1 ARG         0.0689
    153 H         -10.6500   -1.4701  -14.1211 H         1 ARG         0.2642
    154 H         -13.0942    1.4637  -15.4917 H         1 ARG         0.2615
    155 H         -11.4211    1.3576  -16.1017 H         1 ARG         0.2615
    156 H         -12.7451   -1.3428  -13.3431 H         1 ARG         0.2615
    157 H         -13.8464   -0.0688  -13.9319 H         1 ARG         0.2615
    158 H          -6.9096   -4.3568  -18.1403 H         1 SER         0.1884
    159 H          -5.6278   -2.0936  -19.4963 H         1 SER         0.0823
    160 H          -4.3230   -3.0485  -17.7487 H         1 SER         0.0606
    161 H          -3.5305   -3.4672  -19.3054 H         1 SER         0.0606
    162 H          -4.5231   -5.5303  -19.1149 H         1 SER         0.2097
    163 H          -7.4834   -4.5247  -20.6098 H         1 GLU         0.1883
    164 H          -5.8393   -5.1762  -22.9968 H         1 GLU         0.0801
    165 H          -8.6885   -6.0753  -22.5190 H         1 GLU         0.0330
    166 H          -7.3613   -6.7868  -21.5397 H         1 GLU         0.0330
    167 H          -7.5357   -6.8002  -24.5726 H         1 GLU         0.0433
    168 H          -7.9604   -8.1660  -23.4859 H         1 GLU         0.0433
    169 H          -7.9378   -1.7791  -24.9526 H         1 PRO         0.0802
    170 H          -6.1474   -1.5577  -26.4601 H         1 PRO         0.0313
    171 H          -7.2786   -2.3601  -27.6016 H         1 PRO         0.0313
    172 H          -4.8784   -3.4168  -27.0712 H         1 PRO         0.0287
    173 H          -6.3250   -4.4618  -27.2762 H         1 PRO         0.0287
    174 H          -5.6415   -5.2099  -25.1700 H         1 PRO         0.0524
    175 H          -4.8920   -3.6351  -24.7401 H         1 PRO         0.0524
    176 H          -9.9528   -1.5053  -25.9454 H         1 LYS         0.1883
    177 H         -11.6319   -3.8443  -26.0410 H         1 LYS         0.0800
    178 H         -12.1651   -1.0130  -27.0422 H         1 LYS         0.0312
    179 H         -12.4761   -1.6218  -25.3810 H         1 LYS         0.0312
    180 H         -14.1823   -3.1410  -26.1988 H         1 LYS         0.0269
    181 H         -13.7987   -2.7199  -27.9024 H         1 LYS         0.0269
    182 H         -14.4787   -0.3811  -27.4714 H         1 LYS         0.0317
    183 H         -14.8763   -0.8139  -25.7740 H         1 LYS         0.0317
    184 H         -16.8924   -0.7453  -27.1997 H         1 LYS         0.0813
    185 H         -16.5844   -2.3956  -26.5607 H         1 LYS         0.0813
    186 H         -17.1369   -2.4272  -28.9007 H         1 LYS         0.1994
    187 H         -15.5915   -2.9502  -28.6826 H         1 LYS         0.1994
    188 H         -15.8736   -1.4379  -29.2682 H         1 LYS         0.1994
    189 H         -12.3074   -5.0478  -27.7038 H         1 MET         0.1883
    190 H         -11.0828   -4.6871  -30.3315 H         1 MET         0.0800
    191 H         -12.3332   -6.7280  -30.9280 H         1 MET         0.0320
    192 H         -13.2078   -6.6535  -29.3608 H         1 MET         0.0320
    193 H         -11.3128   -8.3044  -29.4546 H         1 MET         0.0378
    194 H         -11.2075   -7.0960  -28.1297 H         1 MET         0.0378
    195 H          -8.7318   -6.8607  -32.0548 H         1 MET         0.0340
    196 H         -10.4953   -6.5277  -31.9793 H         1 MET         0.0340
    197 H          -9.8810   -8.1883  -31.6762 H         1 MET         0.0340
    198 H         -12.2174   -4.3917  -32.2883 H         1 SER         0.1877
    199 H         -14.1556   -2.3404  -32.2853 H         1 SER         0.0774
    200 O1        -15.5081   -5.2993  -32.4972 O.co2     1 SER        -0.4119
    201 H         -13.5353   -4.3611  -34.4963 H         1 SER         0.0600
    202 H         -12.6726   -2.8129  -34.2038 H         1 SER         0.0600
    203 H         -14.3153   -2.6354  -35.8142 H         1 SER         0.2096
@<TRIPOS>BOND
     1    1    2 1  
     2    2    3 1  
     3    2    5 1  
     4    3    4 2  
     5    3    8 am 
     6    5    6 1  
     7    5    7 1  
     8    8    9 1  
     9    9   10 1  
    10    9   12 1  
    11   10   11 2  
    12   10   16 am 
    13   12   13 1  
    14   13   14 2  
    15   13   15 am 
    16   16   17 1  
    17   16   22 1  
    18   17   18 1  
    19   17   20 1  
    20   18   19 2  
    21   18   23 am 
    22   20   21 1  
    23   21   22 1  
    24   23   24 1  
    25   24   25 1  
    26   24   27 1  
    27   25   26 2  
    28   25   30 am 
    29   27   28 1  
    30   27   29 1  
    31   30   31 1  
    32   31   32 1  
    33   32   33 2  
    34   32   34 am 
    35   34   35 1  
    36   35   36 1  
    37   35   38 1  
    38   36   37 2  
    39   36   40 am 
    40   38   39 1  
    41   40   41 1  
    42   41   42 1  
    43   41   44 1  
    44   42   43 2  
    45   42   45 am 
    46   45   46 1  
    47   46   47 1  
    48   46   49 1  
    49   47   48 2  
    50   47   56 am 
    51   49   50 1  
    52   50   51 1  
    53   51   52 1  
    54   52   53 ar 
    55   53   54 ar 
    56   53   55 ar 
    57   56   57 1  
    58   57   58 1  
    59   57   60 1  
    60   58   59 2  
    61   58   62 am 
    62   60   61 1  
    63   62   63 1  
    64   63   64 1  
    65   63   66 1  
    66   64   65 2  
    67   64   71 am 
    68   66   67 1  
    69   67   68 1  
    70   68   69 ar 
    71   68   70 ar 
    72   71   72 1  
    73   71   77 1  
    74   72   73 1  
    75   72   75 1  
    76   73   74 2  
    77   73   78 am 
    78   75   76 1  
    79   76   77 1  
    80   78   79 1  
    81   79   80 1  
    82   79   82 1  
    83   80   81 2  
    84   80   87 am 
    85   82   83 1  
    86   83   84 1  
    87   84   85 1  
    88   85   86 1  
    89   87   88 1  
    90   88   89 1  
    91   88   91 1  
    92   89   90 2  
    93   89   95 am 
    94   91   92 1  
    95   92   93 1  
    96   93   94 1  
    97   95   96 1  
    98   96   97 1  
    99   96   99 1  
   100   97   98 ar 
   101   99  100 1  
   102    1  101 1  
   103    1  102 1  
   104    1  103 1  
   105    2  104 1  
   106    5  105 1  
   107    6  106 1  
   108    6  107 1  
   109    6  108 1  
   110    7  109 1  
   111    7  110 1  
   112    7  111 1  
   113    8  112 1  
   114    9  113 1  
   115   12  114 1  
   116   12  115 1  
   117   15  116 1  
   118   15  117 1  
   119   17  118 1  
   120   20  119 1  
   121   20  120 1  
   122   21  121 1  
   123   21  122 1  
   124   22  123 1  
   125   22  124 1  
   126   23  125 1  
   127   24  126 1  
   128   27  127 1  
   129   28  128 1  
   130   29  129 1  
   131   29  130 1  
   132   29  131 1  
   133   30  132 1  
   134   31  133 1  
   135   31  134 1  
   136   34  135 1  
   137   35  136 1  
   138   38  137 1  
   139   38  138 1  
   140   39  139 1  
   141   40  140 1  
   142   41  141 1  
   143   44  142 1  
   144   44  143 1  
   145   44  144 1  
   146   45  145 1  
   147   46  146 1  
   148   49  147 1  
   149   49  148 1  
   150   50  149 1  
   151   50  150 1  
   152   51  151 1  
   153   51  152 1  
   154   52  153 1  
   155   54  154 1  
   156   54  155 1  
   157   55  156 1  
   158   55  157 1  
   159   56  158 1  
   160   57  159 1  
   161   60  160 1  
   162   60  161 1  
   163   61  162 1  
   164   62  163 1  
   165   63  164 1  
   166   66  165 1  
   167   66  166 1  
   168   67  167 1  
   169   67  168 1  
   170   72  169 1  
   171   75  170 1  
   172   75  171 1  
   173   76  172 1  
   174   76  173 1  
   175   77  174 1  
   176   77  175 1  
   177   78  176 1  
   178   79  177 1  
   179   82  178 1  
   180   82  179 1  
   181   83  180 1  
   182   83  181 1  
   183   84  182 1  
   184   84  183 1  
   185   85  184 1  
   186   85  185 1  
   187   86  186 1  
   188   86  187 1  
   189   86  188 1  
   190   87  189 1  
   191   88  190 1  
   192   91  191 1  
   193   91  192 1  
   194   92  193 1  
   195   92  194 1  
   196   94  195 1  
   197   94  196 1  
   198   94  197 1  
   199   95  198 1  
   200   96  199 1  
   201   97  200 ar 
   202   99  201 1  
   203   99  202 1  
   204  100  203 1  
@<TRIPOS>SUBSTRUCTURE
     1 VAL         1

