6bto_ligand
  -I-interpret- 

 66 68  0  0  0  0  0  0  0  0999 V2000
    8.8320   13.4910   -4.7320 C   0  0  0  0  0
    9.5400   15.2920   -3.0940 C   0  0  0  0  0
    9.9710   13.6780   -5.7190 C   0  0  0  0  0
    2.7890   12.2260   -4.0410 C   0  0  0  0  0
    3.7520   12.6570   -5.1200 C   0  0  0  0  0
    5.2020   12.3010   -4.8130 C   0  0  0  0  0
    6.2020   13.3500   -5.2940 C   0  0  0  0  0
    7.6310   12.8270   -5.4790 C   0  0  0  0  0
    8.4860   14.8450   -4.0880 C   0  0  0  0  0
   10.2160   14.5010   -2.4500 O   0  0  0  0  0
    9.6350   16.6000   -2.9740 N   0  0  0  0  0
   10.5660   17.1150   -2.0790 O   0  0  0  0  0
    9.9410   14.5990   -6.5170 O   0  0  0  0  0
   10.9990   12.7900   -5.7190 N   0  0  0  0  0
   11.2630   11.6540   -4.8050 C   0  0  0  0  0
   12.2010   12.1500   -3.7100 C   0  0  0  0  0
   13.4860   12.4490   -4.4950 C   0  0  0  0  0
   13.1550   11.9520   -5.9130 C   0  0  0  0  0
   12.2150   10.7780   -5.6180 C   0  0  0  0  0
   12.1810   12.9440   -6.5770 C   0  0  0  0  0
   11.9380   12.5020   -8.0300 C   0  0  0  0  0
   10.8640   12.0340   -8.4010 O   0  0  0  0  0
   13.0150   12.6220   -8.8200 N   0  0  0  0  0
   13.0880   12.2040  -10.2150 C   0  0  0  0  0
   14.5410   11.9180  -10.5920 C   0  0  0  0  0
   14.8480   11.0160  -11.3440 O   0  0  0  0  0
   15.4040   12.7230  -10.0250 O   0  0  0  0  0
   12.4900   13.2060  -11.2160 C   0  0  0  0  0
   12.3290   12.8440  -12.5490 C   0  0  0  0  0
   11.8060   13.7390  -13.4700 C   0  0  0  0  0
   11.4470   15.0120  -13.0770 C   0  0  0  0  0
   11.6070   15.3880  -11.7600 C   0  0  0  0  0
   12.1290   14.4930  -10.8340 C   0  0  0  0  0
    9.1123   12.8256   -3.9154 H   0  0  0  0  0
    2.8428   11.1442   -3.9187 H   0  0  0  0  0
    3.0551   12.7127   -3.1027 H   0  0  0  0  0
    1.7759   12.5109   -4.3250 H   0  0  0  0  0
    3.6899   13.7421   -5.2021 H   0  0  0  0  0
    3.4728   12.1377   -6.0368 H   0  0  0  0  0
    5.4279   11.3703   -5.3334 H   0  0  0  0  0
    5.2991   12.2284   -3.7298 H   0  0  0  0  0
    6.2425   14.1264   -4.5301 H   0  0  0  0  0
    5.8591   13.6942   -6.2697 H   0  0  0  0  0
    7.5965   11.8142   -5.0775 H   0  0  0  0  0
    7.8438   13.0047   -6.5332 H   0  0  0  0  0
    7.5416   14.7357   -3.5549 H   0  0  0  0  0
    8.4276   15.5921   -4.8795 H   0  0  0  0  0
    9.0403   17.2199   -3.5240 H   0  0  0  0  0
   10.5266   18.0741   -2.0945 H   0  0  0  0  0
   10.3433   11.2040   -4.4312 H   0  0  0  0  0
   12.3458   11.4266   -2.9076 H   0  0  0  0  0
   11.8144   13.0157   -3.1722 H   0  0  0  0  0
   14.3618   11.9579   -4.0709 H   0  0  0  0  0
   13.7570   13.5045   -4.4719 H   0  0  0  0  0
   14.0517   11.7772   -6.5075 H   0  0  0  0  0
   11.8117   10.2109   -6.4570 H   0  0  0  0  0
   12.6289    9.8852   -5.1492 H   0  0  0  0  0
   12.5116   13.9802   -6.6475 H   0  0  0  0  0
   13.8512   13.0397   -8.4118 H   0  0  0  0  0
   12.4756   11.3051  -10.2855 H   0  0  0  0  0
   14.9363   13.3554   -9.4746 H   0  0  0  0  0
   12.6175   11.8443  -12.8739 H   0  0  0  0  0
   11.6779   13.4356  -14.5090 H   0  0  0  0  0
   11.0396   15.7158  -13.8028 H   0  0  0  0  0
   11.3228   16.3917  -11.4439 H   0  0  0  0  0
   12.2568   14.8034   -9.7970 H   0  0  0  0  0
  1  3  1  0  0  0
  8  1  1  0  0  0
  1  9  1  0  0  0
  9  2  1  0  0  0
  2 10  2  0  0  0
  2 11  1  0  0  0
  3 13  2  0  0  0
  3 14  1  0  0  0
  5  4  1  0  0  0
  6  5  1  0  0  0
  7  6  1  0  0  0
  7  8  1  0  0  0
 11 12  1  0  0  0
 14 15  1  0  0  0
 14 20  1  0  0  0
 15 16  1  0  0  0
 15 19  1  0  0  0
 16 17  1  0  0  0
 17 18  1  0  0  0
 18 19  1  0  0  0
 18 20  1  0  0  0
 20 21  1  0  0  0
 21 22  2  0  0  0
 21 23  1  0  0  0
 23 24  1  0  0  0
 24 25  1  0  0  0
 24 28  1  0  0  0
 25 26  2  0  0  0
 25 27  1  0  0  0
 28 29  4  0  0  0
 28 33  4  0  0  0
 29 30  4  0  0  0
 30 31  4  0  0  0
 31 32  4  0  0  0
 32 33  4  0  0  0
  1 34  1  0  0  0
  4 35  1  0  0  0
  4 36  1  0  0  0
  4 37  1  0  0  0
  5 38  1  0  0  0
  5 39  1  0  0  0
  6 40  1  0  0  0
  6 41  1  0  0  0
  7 42  1  0  0  0
  7 43  1  0  0  0
  8 44  1  0  0  0
  8 45  1  0  0  0
  9 46  1  0  0  0
  9 47  1  0  0  0
 11 48  1  0  0  0
 12 49  1  0  0  0
 15 50  1  0  0  0
 16 51  1  0  0  0
 16 52  1  0  0  0
 17 53  1  0  0  0
 17 54  1  0  0  0
 18 55  1  0  0  0
 19 56  1  0  0  0
 19 57  1  0  0  0
 20 58  1  0  0  0
 23 59  1  0  0  0
 24 60  1  0  0  0
 27 61  1  0  0  0
 29 62  1  0  0  0
 30 63  1  0  0  0
 31 64  1  0  0  0
 32 65  1  0  0  0
 33 66  1  0  0  0
M  END
$$$$
