1vjy_ligand
  -I-interpret- 

 34 37  0  0  0  0  0  0  0  0999 V2000
   10.4350   64.4240    4.9820 C   0  0  0  0  0
   11.8830   64.6150    4.6530 C   0  0  0  0  0
   12.4630   63.9310    3.5640 C   0  0  0  0  0
   13.8400   64.1450    3.2930 C   0  0  0  0  0
   14.6020   65.0260    4.1070 C   0  0  0  0  0
   13.9440   65.6800    5.1860 C   0  0  0  0  0
   12.6020   65.4750    5.4500 N   0  0  0  0  0
   14.6390   66.6150    6.0950 C   0  0  0  0  0
   14.4190   66.5460    7.4360 N   0  0  0  0  0
   15.1840   67.5170    7.9720 N   0  0  0  0  0
   15.8960   68.2180    7.0370 C   0  0  0  0  0
   15.5820   67.6780    5.7960 C   0  0  0  0  0
   16.1650   68.1850    4.5400 C   0  0  0  0  0
   15.3930   68.3920    3.3680 C   0  0  0  0  0
   16.0420   68.8870    2.2080 C   0  0  0  0  0
   17.4170   69.1720    2.2040 C   0  0  0  0  0
   18.0320   69.6550    1.0710 N   0  0  0  0  0
   19.3920   69.9150    1.1360 C   0  0  0  0  0
   20.1620   69.7100    2.2950 C   0  0  0  0  0
   19.4980   69.2120    3.4510 C   0  0  0  0  0
   18.1180   68.9310    3.4440 C   0  0  0  0  0
   17.5110   68.4510    4.5760 N   0  0  0  0  0
    9.8270   64.7277    4.1298 H   0  0  0  0  0
   10.2501   63.3734    5.2059 H   0  0  0  0  0
   10.1774   65.0323    5.8490 H   0  0  0  0  0
   11.8696   63.2561    2.9471 H   0  0  0  0  0
   14.3148   63.6314    2.4570 H   0  0  0  0  0
   15.6606   65.1960    3.9104 H   0  0  0  0  0
   16.5804   69.0442    7.2295 H   0  0  0  0  0
   14.3248   68.1755    3.3591 H   0  0  0  0  0
   15.4610   69.0497    1.3002 H   0  0  0  0  0
   19.8894   70.2973    0.2446 H   0  0  0  0  0
   21.2305   69.9251    2.3074 H   0  0  0  0  0
   20.0708   69.0441    4.3630 H   0  0  0  0  0
  1  2  1  0  0  0
  2  3  4  0  0  0
  2  7  4  0  0  0
  3  4  4  0  0  0
  4  5  4  0  0  0
  5  6  4  0  0  0
  6  7  4  0  0  0
  6  8  1  0  0  0
  8  9  4  0  0  0
  8 12  4  0  0  0
  9 10  4  0  0  0
 10 11  4  0  0  0
 11 12  4  0  0  0
 12 13  1  0  0  0
 13 14  4  0  0  0
 13 22  4  0  0  0
 14 15  4  0  0  0
 15 16  4  0  0  0
 16 17  4  0  0  0
 16 21  4  0  0  0
 17 18  4  0  0  0
 18 19  4  0  0  0
 19 20  4  0  0  0
 20 21  4  0  0  0
 21 22  4  0  0  0
  1 23  1  0  0  0
  1 24  1  0  0  0
  1 25  1  0  0  0
  3 26  1  0  0  0
  4 27  1  0  0  0
  5 28  1  0  0  0
 11 29  1  0  0  0
 14 30  1  0  0  0
 15 31  1  0  0  0
 18 32  1  0  0  0
 19 33  1  0  0  0
 20 34  1  0  0  0
M  END
$$$$
