3r9d_ligand
  -I-interpret- 

 41 43  0  0  0  0  0  0  0  0999 V2000
   65.1710   81.9830  -14.8380 N   0  0  0  0  0
   63.8800   82.5740  -13.0730 N   0  0  0  0  0
   68.3860   79.1500  -12.8820 N   0  0  0  0  0
   66.7300   81.1380  -16.3210 N   0  0  0  0  0
   61.3280   81.0640   -7.0270 N   0  0  0  0  0
   66.8590   80.5400  -14.0620 C   0  0  0  0  0
   66.2830   81.2120  -15.1360 C   0  0  0  0  0
   64.8950   81.9070  -13.5540 C   0  0  0  0  0
   63.1660   82.3290  -12.0070 C   0  0  0  0  0
   67.9660   79.7110  -14.0900 C   0  0  0  0  0
   62.1780   83.2940  -11.6560 C   0  0  0  0  0
   61.3550   83.1080  -10.5190 C   0  0  0  0  0
   61.5060   81.9490   -9.7150 C   0  0  0  0  0
   62.4830   80.9700  -10.0360 C   0  0  0  0  0
   63.3140   81.1520  -11.1770 C   0  0  0  0  0
   69.4590   78.3120  -12.6860 C   0  0  0  0  0
   69.3950   77.3660  -11.6240 C   0  0  0  0  0
   70.4920   76.4860  -11.3750 C   0  0  0  0  0
   71.6570   76.5520  -12.1960 C   0  0  0  0  0
   71.7290   77.4910  -13.2590 C   0  0  0  0  0
   70.6390   78.3710  -13.5040 C   0  0  0  0  0
   68.5620   79.4860  -15.1440 O   0  0  0  0  0
   59.4210   80.8180   -8.6780 O   0  0  0  0  0
   59.8750   83.0130   -7.9380 O   0  0  0  0  0
   72.8110   77.5530  -14.0230 F   0  0  0  0  0
   65.9590   80.8970  -12.6280 S   0  0  0  0  0
   60.4570   81.7260   -8.3030 S   0  0  0  0  0
   63.6070   83.4012  -13.6037 H   0  0  0  0  0
   67.8376   79.3874  -12.0554 H   0  0  0  0  0
   66.2695   81.6511  -17.0727 H   0  0  0  0  0
   67.5498   80.5654  -16.5220 H   0  0  0  0  0
   61.0718   80.1496   -6.6547 H   0  0  0  0  0
   62.1128   81.5767   -6.6249 H   0  0  0  0  0
   62.0544   84.1860  -12.2702 H   0  0  0  0  0
   60.6050   83.8558  -10.2613 H   0  0  0  0  0
   62.5960   80.0836   -9.4118 H   0  0  0  0  0
   64.0648   80.4024  -11.4269 H   0  0  0  0  0
   68.5044   77.3131  -10.9978 H   0  0  0  0  0
   70.4393   75.7652  -10.5591 H   0  0  0  0  0
   72.4940   75.8799  -12.0068 H   0  0  0  0  0
   70.6990   79.0945  -14.3171 H   0  0  0  0  0
  1  7  4  0  0  0
  8  1  4  0  0  0
  2  8  1  0  0  0
  9  2  1  0  0  0
 10  3  1  0  0  0
  3 16  1  0  0  0
  7  4  1  0  0  0
 27  5  1  0  0  0
  6  7  4  0  0  0
  6 10  1  0  0  0
 26  6  4  0  0  0
  8 26  4  0  0  0
 11  9  4  0  0  0
  9 15  4  0  0  0
 10 22  2  0  0  0
 12 11  4  0  0  0
 13 12  4  0  0  0
 13 14  4  0  0  0
 13 27  1  0  0  0
 14 15  4  0  0  0
 16 17  4  0  0  0
 16 21  4  0  0  0
 17 18  4  0  0  0
 18 19  4  0  0  0
 19 20  4  0  0  0
 20 21  4  0  0  0
 20 25  1  0  0  0
 27 23  2  0  0  0
 27 24  2  0  0  0
  2 28  1  0  0  0
  3 29  1  0  0  0
  4 30  1  0  0  0
  4 31  1  0  0  0
  5 32  1  0  0  0
  5 33  1  0  0  0
 11 34  1  0  0  0
 12 35  1  0  0  0
 14 36  1  0  0  0
 15 37  1  0  0  0
 17 38  1  0  0  0
 18 39  1  0  0  0
 19 40  1  0  0  0
 21 41  1  0  0  0
M  END
$$$$
