5fdp_ligand
  -I-interpret- 

 71 75  0  0  0  0  0  0  0  0999 V2000
   -6.3390    9.9700  -46.9340 C   0  0  0  0  0
   -5.9260   12.1140  -47.7640 C   0  0  0  0  0
   -4.1150   10.7480  -47.4850 C   0  0  0  0  0
   -4.9730    9.6870  -46.9920 C   0  0  0  0  0
   -5.2130    7.7920  -45.4650 C   0  0  0  0  0
   -4.6160    6.4550  -44.9760 C   0  0  0  0  0
   -3.7660    5.7060  -45.7870 C   0  0  0  0  0
   -3.5160    6.2500  -47.2140 C   0  0  0  0  0
   -3.3230    7.7490  -47.1380 C   0  0  0  0  0
   -4.8880    6.0620  -43.6270 C   0  0  0  0  0
   -4.2910    4.8630  -43.1290 C   0  0  0  0  0
   -3.4160    4.0810  -43.9420 C   0  0  0  0  0
   -3.1400    4.4850  -45.2570 C   0  0  0  0  0
   -4.6550    4.4390  -41.7540 C   0  0  0  0  0
   -4.5260    2.6330  -40.0370 C   0  0  0  0  0
   -5.7110    2.9810  -39.3600 C   0  0  0  0  0
   -5.9500    2.4880  -38.0570 C   0  0  0  0  0
   -4.9990    1.6130  -37.4420 C   0  0  0  0  0
   -3.8230    1.2580  -38.1280 C   0  0  0  0  0
   -3.6080    1.7310  -39.4560 C   0  0  0  0  0
   -7.2650    2.9670  -37.3210 C   0  0  0  0  0
   -2.7950    0.3240  -37.4980 C   0  0  0  0  0
   -6.7850   11.1750  -47.3110 N   0  0  0  0  0
   -4.6370   11.9160  -47.8500 N   0  0  0  0  0
   -4.4460    8.4220  -46.5010 N   0  0  0  0  0
   -4.2290    3.1420  -41.3010 N   0  0  0  0  0
   -0.6070    0.2540  -37.9510 C   0  0  0  0  0
    0.7360    0.5280  -37.2740 C   0  0  0  0  0
   -0.1700    2.3450  -36.1570 C   0  0  0  0  0
   -1.4770    2.1180  -36.9060 C   0  0  0  0  0
    1.9410    1.8960  -36.0930 C   0  0  0  0  0
   -2.3560    5.5460  -47.9420 C   0  0  0  0  0
   -1.6380    0.8110  -37.2480 N   0  3  0  0  0
    0.8920    1.8150  -36.8250 N   0  3  0  0  0
   -5.3520    5.1820  -41.0800 O   0  0  0  0  0
   -7.4910    2.2000  -36.2440 F   0  0  0  0  0
   -7.1340    4.2090  -36.8850 F   0  0  0  0  0
   -8.3250    2.9740  -38.1510 F   0  0  0  0  0
   -7.0400    9.2127  -46.5830 H   0  0  0  0  0
   -6.3259   13.0802  -48.0716 H   0  0  0  0  0
   -3.0392   10.5876  -47.5566 H   0  0  0  0  0
   -5.2303    8.4719  -44.6132 H   0  0  0  0  0
   -6.1999    7.5775  -45.8750 H   0  0  0  0  0
   -4.3926    6.0284  -47.8228 H   0  0  0  0  0
   -3.2351    8.1296  -48.1556 H   0  0  0  0  0
   -2.4312    7.9443  -46.5425 H   0  0  0  0  0
   -5.5374    6.6650  -42.9923 H   0  0  0  0  0
   -2.9639    3.1732  -43.5425 H   0  0  0  0  0
   -2.4664    3.8981  -45.8815 H   0  0  0  0  0
   -6.4432    3.6300  -39.8405 H   0  0  0  0  0
   -5.1858    1.2216  -36.4420 H   0  0  0  0  0
   -2.7376    1.3973  -40.0209 H   0  0  0  0  0
   -2.6308   -0.4700  -38.2265 H   0  0  0  0  0
   -3.2098    0.0357  -36.5321 H   0  0  0  0  0
   -3.6807    2.5640  -41.9379 H   0  0  0  0  0
   -0.7598   -0.8243  -37.9967 H   0  0  0  0  0
   -0.5894    0.6926  -38.9487 H   0  0  0  0  0
    1.5117    0.3530  -38.0195 H   0  0  0  0  0
    0.7939   -0.1241  -36.4025 H   0  0  0  0  0
   -0.2422    1.8575  -35.1848 H   0  0  0  0  0
   -0.0126    3.4191  -36.0587 H   0  0  0  0  0
   -1.4584    2.7130  -37.8191 H   0  0  0  0  0
   -2.3018    2.4076  -36.2549 H   0  0  0  0  0
    1.8394    1.2259  -35.2393 H   0  0  0  0  0
    2.8144    1.6100  -36.6791 H   0  0  0  0  0
    2.0581    2.9207  -35.7403 H   0  0  0  0  0
   -1.4361    5.6817  -47.3733 H   0  0  0  0  0
   -2.5765    4.4822  -48.0303 H   0  0  0  0  0
   -2.2372    5.9775  -48.9359 H   0  0  0  0  0
   -1.5733    0.4524  -36.2953 H   0  0  0  0  0
    0.9786    2.3757  -37.6727 H   0  0  0  0  0
  4  1  4  0  0  0
  1 23  4  0  0  0
 23  2  4  0  0  0
 24  2  4  0  0  0
  4  3  4  0  0  0
  3 24  4  0  0  0
 25  4  1  0  0  0
  6  5  1  0  0  0
  5 25  1  0  0  0
  6  7  4  0  0  0
 10  6  4  0  0  0
  7  8  1  0  0  0
 13  7  4  0  0  0
  8  9  1  0  0  0
  8 32  1  0  0  0
 25  9  1  0  0  0
 11 10  4  0  0  0
 11 12  4  0  0  0
 14 11  1  0  0  0
 12 13  4  0  0  0
 26 14  1  0  0  0
 14 35  2  0  0  0
 15 16  4  0  0  0
 20 15  4  0  0  0
 15 26  1  0  0  0
 17 16  4  0  0  0
 18 17  4  0  0  0
 17 21  1  0  0  0
 19 18  4  0  0  0
 19 20  4  0  0  0
 22 19  1  0  0  0
 21 36  1  0  0  0
 21 37  1  0  0  0
 21 38  1  0  0  0
 33 22  1  0  0  0
 28 27  1  0  0  0
 27 33  1  0  0  0
 34 28  1  0  0  0
 29 30  1  0  0  0
 29 34  1  0  0  0
 30 33  1  0  0  0
 34 31  1  0  0  0
  1 39  1  0  0  0
  2 40  1  0  0  0
  3 41  1  0  0  0
  5 42  1  0  0  0
  5 43  1  0  0  0
  8 44  1  0  0  0
  9 45  1  0  0  0
  9 46  1  0  0  0
 10 47  1  0  0  0
 12 48  1  0  0  0
 13 49  1  0  0  0
 16 50  1  0  0  0
 18 51  1  0  0  0
 20 52  1  0  0  0
 22 53  1  0  0  0
 22 54  1  0  0  0
 26 55  1  0  0  0
 27 56  1  0  0  0
 27 57  1  0  0  0
 28 58  1  0  0  0
 28 59  1  0  0  0
 29 60  1  0  0  0
 29 61  1  0  0  0
 30 62  1  0  0  0
 30 63  1  0  0  0
 31 64  1  0  0  0
 31 65  1  0  0  0
 31 66  1  0  0  0
 32 67  1  0  0  0
 32 68  1  0  0  0
 32 69  1  0  0  0
 33 70  1  0  0  0
 34 71  1  0  0  0
M  END
$$$$
