1e06_ligand
  -I-interpret- 

 25 25  0  0  0  0  0  0  0  0999 V2000
   -0.3210   26.5360   12.3200 C   0  0  0  0  0
   -0.8400   25.3960   12.6760 C   0  0  0  0  0
   -2.1600   25.3250   13.3620 C   0  0  0  0  0
   -2.8440   26.4530   13.6290 C   0  0  0  0  0
   -2.2690   27.6790   13.2360 C   0  0  0  0  0
   -1.0940   27.7760   12.6170 C   0  0  0  0  0
    1.0310   26.6190   11.6050 C   0  0  0  0  0
   -4.1540   26.4090   14.2980 C   0  0  0  0  0
   -0.6470   29.0110   12.3010 O   0  0  0  0  0
    2.1090   25.7470   12.2720 C   0  0  0  0  0
    0.9270   26.2790   10.1480 C   0  0  0  0  0
   -0.2969   24.4742   12.4675 H   0  0  0  0  0
   -2.5729   24.3577   13.6484 H   0  0  0  0  0
   -2.8160   28.5971   13.4505 H   0  0  0  0  0
    1.3400   27.6606   11.6925 H   0  0  0  0  0
   -4.8504   25.8287   13.6926 H   0  0  0  0  0
   -4.0451   25.9420   15.2769 H   0  0  0  0  0
   -4.5334   27.4237   14.4183 H   0  0  0  0  0
   -1.2934   29.6646   12.5777 H   0  0  0  0  0
    1.8409   24.6958   12.1662 H   0  0  0  0  0
    3.0701   25.9283   11.7909 H   0  0  0  0  0
    2.1770   26.0013   13.3297 H   0  0  0  0  0
    1.8867   26.4609    9.6644 H   0  0  0  0  0
    0.6575   25.2284   10.0397 H   0  0  0  0  0
    0.1615   26.9014    9.6847 H   0  0  0  0  0
  1  7  1  0  0  0
  1  6  4  0  0  0
  1  2  4  0  0  0
  2  3  4  0  0  0
  3  4  4  0  0  0
  4  8  1  0  0  0
  4  5  4  0  0  0
  5  6  4  0  0  0
  6  9  1  0  0  0
  7 11  1  0  0  0
  7 10  1  0  0  0
  2 12  1  0  0  0
  3 13  1  0  0  0
  5 14  1  0  0  0
  7 15  1  0  0  0
  8 16  1  0  0  0
  8 17  1  0  0  0
  8 18  1  0  0  0
  9 19  1  0  0  0
 10 20  1  0  0  0
 10 21  1  0  0  0
 10 22  1  0  0  0
 11 23  1  0  0  0
 11 24  1  0  0  0
 11 25  1  0  0  0
M  END
$$$$
