### 
### Created by X-TOOL on Mon Aug  2 16:11:44 2021
### 

@<TRIPOS>MOLECULE
6nkp_ligand
  176   181     1     0     0
SMALL
GAST_HUCK


@<TRIPOS>ATOM
      1 N         -12.7300  -35.0220    8.0610 N.4       1 TRP         0.2388
      2 CA        -11.5810  -34.3510    7.4440 C.3       1 TRP         0.0691
      3 C         -11.0830  -33.1600    8.2780 C.2       1 TRP         0.2280
      4 O         -11.8740  -32.4050    8.8050 O.2       1 TRP        -0.3906
      5 CB        -11.9380  -33.8420    6.0360 C.3       1 TRP         0.0245
      6 CG        -12.4620  -34.9070    5.0940 C.2       1 TRP        -0.0386
      7 CD1       -13.7670  -35.1990    4.8290 C.2       1 TRP         0.0168
      8 CD2       -11.6830  -35.7820    4.2940 C.ar      1 TRP        -0.0213
      9 NE1       -13.8470  -36.2090    3.9050 N.pl3     1 TRP        -0.2890
     10 CE2       -12.5750  -36.5830    3.5600 C.ar      1 TRP         0.0603
     11 CE3       -10.3120  -35.9540    4.1100 C.ar      1 TRP        -0.0747
     12 CZ2       -12.1420  -37.5540    2.6750 C.ar      1 TRP        -0.0443
     13 CZ3        -9.8810  -36.9140    3.2340 C.ar      1 TRP        -0.0792
     14 CH2       -10.7910  -37.7070    2.5250 C.ar      1 TRP        -0.0768
     15 N          -9.7660  -33.0070    8.3860 N.am      1 TRP        -0.2609
     16 CA         -9.1390  -31.9090    9.1170 C.3       1 TRP         0.1313
     17 C          -8.6300  -30.8500    8.1540 C.2       1 TRP         0.2039
     18 O          -8.0410  -31.1740    7.1110 O.2       1 TRP        -0.3944
     19 CB         -7.9730  -32.4110    9.9520 C.3       1 TRP        -0.0101
     20 CG         -8.2820  -33.3650   11.1020 C.3       1 TRP        -0.0425
     21 CD1        -6.9770  -33.6040   11.8390 C.3       1 TRP        -0.0625
     22 CD2        -9.3640  -32.8150   12.0300 C.3       1 TRP        -0.0625
     23 N          -8.8600  -29.5800    8.4990 N.am      1 TRP        -0.2640
     24 CA         -8.3250  -28.5020    7.6680 C.3       1 TRP         0.1282
     25 C          -6.8190  -28.3640    7.8190 C.2       1 TRP         0.2037
     26 O          -6.1620  -27.9720    6.8600 O.2       1 TRP        -0.3944
     27 CB         -8.9780  -27.1630    8.0090 C.3       1 TRP        -0.0244
     28 N          -6.2590  -28.7350    8.9820 N.am      1 TRP        -0.2621
     29 CA         -4.8540  -28.5160    9.3130 C.3       1 TRP         0.1392
     30 C          -4.2970  -29.7880    9.9430 C.2       1 TRP         0.2082
     31 O          -4.9480  -30.3620   10.8210 O.2       1 TRP        -0.3940
     32 CB         -4.6890  -27.3530   10.3060 C.3       1 TRP         0.0164
     33 CG         -3.2850  -26.7890   10.3950 C.ar      1 TRP        -0.0493
     34 CD1        -2.3790  -27.2610   11.3180 C.ar      1 TRP        -0.0685
     35 CD2        -2.8760  -25.7580    9.5580 C.ar      1 TRP        -0.0685
     36 CE1        -1.0810  -26.7320   11.3950 C.ar      1 TRP        -0.0398
     37 CE2        -1.5940  -25.2260    9.6370 C.ar      1 TRP        -0.0398
     38 CZ         -0.7060  -25.7130   10.5530 C.ar      1 TRP         0.0805
     39 OH          0.5570  -25.1610   10.6260 O.3       1 TRP        -0.3376
     40 N          -3.0980  -30.2350    9.5500 N.am      1 TRP        -0.2497
     41 CA         -2.5610  -31.5020   10.0860 C.3       1 TRP         0.1338
     42 C          -2.4240  -31.4980   11.6080 C.2       1 TRP         0.2042
     43 O          -2.0450  -30.4910   12.2190 O.2       1 TRP        -0.3944
     44 CB         -1.1760  -31.6200    9.4290 C.3       1 TRP        -0.0104
     45 CG         -1.2140  -30.7020    8.2300 C.3       1 TRP        -0.0281
     46 CD         -2.1580  -29.5740    8.6280 C.3       1 TRP         0.0369
     47 N          -2.7150  -32.6530   12.2100 N.am      1 TRP        -0.2622
     48 CA         -2.4380  -32.8890   13.6280 C.3       1 TRP         0.1423
     49 C          -3.0410  -31.7980   14.5020 C.2       1 TRP         0.2057
     50 O          -2.4300  -31.3500   15.4670 O.2       1 TRP        -0.3943
     51 CB         -0.9370  -32.9760   13.8980 C.3       1 TRP         0.0406
     52 CG         -0.2700  -34.1000   13.1490 C.2       1 TRP         0.0393
     53 OD1        -0.7300  -35.2520   13.2530 O.co2     1 TRP        -0.5688
     54 OD2         0.7250  -33.8180   12.4550 O.co2     1 TRP        -0.5688
     55 N          -4.2050  -31.3070   14.1140 N.am      1 TRP        -0.2615
     56 CA         -4.8880  -30.2960   14.9000 C.3       1 TRP         0.1539
     57 C          -6.0450  -30.9580   15.6300 C.2       1 TRP         0.2062
     58 O          -6.6930  -31.8740   15.1090 O.2       1 TRP        -0.3943
     59 CB         -5.3990  -29.1320   14.0290 C.3       1 TRP         0.0843
     60 OG         -6.4050  -29.5340   13.0930 O.3       1 TRP        -0.3903
     61 N          -6.3090  -30.4570   16.8320 N.am      1 TRP        -0.2634
     62 CA         -7.3820  -30.9570   17.6830 C.3       1 TRP         0.1334
     63 C          -8.1170  -29.7700   18.2920 C.2       1 TRP         0.2066
     64 O          -7.5600  -28.6750   18.4430 O.2       1 TRP        -0.3942
     65 CB         -6.8330  -31.8630   18.8060 C.3       1 TRP        -0.0062
     66 CG1        -6.0390  -33.0620   18.2080 C.3       1 TRP        -0.0584
     67 CG2        -5.9460  -31.0720   19.7060 C.3       1 TRP        -0.0584
     68 N          -9.3860  -29.9610   18.6500 N.am      1 TRP        -0.2498
     69 CA        -10.1350  -28.8470   19.2270 C.3       1 TRP         0.1338
     70 C          -9.4390  -28.3380   20.4730 C.2       1 TRP         0.2042
     71 O          -8.8560  -29.1080   21.2400 O.2       1 TRP        -0.3944
     72 CB        -11.5040  -29.4570   19.5440 C.3       1 TRP        -0.0104
     73 CG        -11.6490  -30.5790   18.5780 C.3       1 TRP        -0.0281
     74 CD        -10.2440  -31.1320   18.4040 C.3       1 TRP         0.0369
     75 N          -9.5020  -27.0300   20.6710 N.am      1 TRP        -0.2621
     76 CA         -8.9020  -26.3920   21.8310 C.3       1 TRP         0.1390
     77 C          -9.9940  -25.7400   22.6500 C.2       1 TRP         0.2053
     78 O         -10.6390  -24.8010   22.1760 O.2       1 TRP        -0.3942
     79 CB         -7.8970  -25.3430   21.4010 C.3       1 TRP         0.0163
     80 CG         -7.3140  -24.5360   22.5310 C.ar      1 TRP        -0.0493
     81 CD1        -6.2320  -25.0060   23.2660 C.ar      1 TRP        -0.0685
     82 CD2        -7.8470  -23.3130   22.8550 C.ar      1 TRP        -0.0685
     83 CE1        -5.6940  -24.2530   24.3140 C.ar      1 TRP        -0.0398
     84 CE2        -7.3260  -22.5520   23.8680 C.ar      1 TRP        -0.0398
     85 CZ         -6.2460  -23.0190   24.6030 C.ar      1 TRP         0.0805
     86 OH         -5.7470  -22.2420   25.6320 O.3       1 TRP        -0.3376
     87 N         -10.1540  -26.1740   23.8890 N.am      1 TRP        -0.2671
     88 CA        -11.1660  -25.5640   24.7520 C.3       1 TRP         0.1173
     89 C         -10.8910  -25.8280   26.2410 C.2       1 TRP         0.0623
     90 O          -9.9550  -25.2690   26.8200 O.co2     1 TRP        -0.5665
     91 CB        -12.5570  -26.0770   24.3530 C.3       1 TRP         0.0789
     92 OG        -13.5820  -25.3780   25.0380 O.3       1 TRP        -0.3910
     93 OXT       -11.6010  -26.6040   26.8870 O.co2     1 TRP        -0.5665
     94 H1        -13.0202  -35.7933    7.4805 H         1 TRP         0.2016
     95 H2        -13.4907  -34.3674    8.1550 H         1 TRP         0.2016
     96 H3        -12.4688  -35.3666    8.9715 H         1 TRP         0.2016
     97 H4        -10.7645  -35.0832    7.3596 H         1 TRP         0.1114
     98 H5        -11.0328  -33.4045    5.5896 H         1 TRP         0.0430
     99 H6        -12.7093  -33.0644    6.1377 H         1 TRP         0.0430
    100 H7        -14.6220  -34.7021    5.2851 H         1 TRP         0.0795
    101 H8        -14.7164  -36.6174    3.5332 H         1 TRP         0.2216
    102 H9         -9.6008  -35.3396    4.6500 H         1 TRP         0.0540
    103 H10       -12.8443  -38.1683    2.1232 H         1 TRP         0.0541
    104 H11        -8.8173  -37.0624    3.0870 H         1 TRP         0.0510
    105 H12       -10.4163  -38.4599    1.8411 H         1 TRP         0.0530
    106 H13        -9.1735  -33.6798    7.9429 H         1 TRP         0.1885
    107 H14        -9.8883  -31.4575    9.7838 H         1 TRP         0.0800
    108 H15        -7.4733  -31.5301   10.3814 H         1 TRP         0.0315
    109 H16        -7.2814  -32.9297    9.2719 H         1 TRP         0.0315
    110 H17        -8.6409  -34.3191   10.6888 H         1 TRP         0.0298
    111 H18        -7.1518  -34.2898   12.6811 H         1 TRP         0.0232
    112 H19        -6.5903  -32.6472   12.2196 H         1 TRP         0.0232
    113 H20        -6.2431  -34.0483   11.1505 H         1 TRP         0.0232
    114 H21       -10.2907  -32.6562   11.4590 H         1 TRP         0.0232
    115 H22        -9.0287  -31.8588   12.4580 H         1 TRP         0.0232
    116 H23        -9.5517  -33.5340   12.8410 H         1 TRP         0.0232
    117 H24        -9.3932  -29.3684    9.3181 H         1 TRP         0.1883
    118 H25        -8.5480  -28.7421    6.6179 H         1 TRP         0.0797
    119 H26        -8.5551  -26.3751    7.3684 H         1 TRP         0.0277
    120 H27        -8.7861  -26.9197    9.0644 H         1 TRP         0.0277
    121 H28       -10.0628  -27.2303    7.8395 H         1 TRP         0.0277
    122 H29        -6.8378  -29.1874    9.6604 H         1 TRP         0.1885
    123 H30        -4.2978  -28.2852    8.3925 H         1 TRP         0.0821
    124 H31        -4.9777  -27.7120   11.3049 H         1 TRP         0.0453
    125 H32        -5.3650  -26.5416    9.9984 H         1 TRP         0.0453
    126 H33        -2.6727  -28.0540   11.9962 H         1 TRP         0.0530
    127 H34        -3.5714  -25.3600    8.8279 H         1 TRP         0.0530
    128 H35        -0.3758  -27.1267   12.1174 H         1 TRP         0.0525
    129 H36        -1.2989  -24.4236    8.9706 H         1 TRP         0.0525
    130 H37         0.4859  -24.2366   10.8329 H         1 TRP         0.2458
    131 H38        -3.2057  -32.3422    9.7888 H         1 TRP         0.0802
    132 H39        -0.9884  -32.6567    9.1127 H         1 TRP         0.0313
    133 H40        -0.3903  -31.3027   10.1304 H         1 TRP         0.0313
    134 H41        -1.5980  -31.2343    7.3473 H         1 TRP         0.0287
    135 H42        -0.2103  -30.3078    8.0127 H         1 TRP         0.0287
    136 H43        -1.6133  -28.7631    9.1336 H         1 TRP         0.0524
    137 H44        -2.6838  -29.1708    7.7500 H         1 TRP         0.0524
    138 H45        -3.1374  -33.3834   11.6732 H         1 TRP         0.1884
    139 H46        -2.8963  -33.8493   13.9069 H         1 TRP         0.0819
    140 H47        -0.7829  -33.1327   14.9758 H         1 TRP         0.0478
    141 H48        -0.4704  -32.0271   13.5950 H         1 TRP         0.0478
    142 H49        -4.6212  -31.6368   13.2666 H         1 TRP         0.1884
    143 H50        -4.1829  -29.8894   15.6399 H         1 TRP         0.0823
    144 H51        -4.5490  -28.7120   13.4713 H         1 TRP         0.0606
    145 H52        -5.8222  -28.3601   14.6885 H         1 TRP         0.0606
    146 H53        -6.6825  -28.7807   12.5850 H         1 TRP         0.2097
    147 H54        -5.7458  -29.7023   17.1684 H         1 TRP         0.1883
    148 H55        -8.0826  -31.5412   17.0683 H         1 TRP         0.0803
    149 H56        -7.6787  -32.2541   19.3907 H         1 TRP         0.0343
    150 H57        -5.6578  -33.6930   19.0244 H         1 TRP         0.0234
    151 H58        -5.1951  -32.6827   17.6131 H         1 TRP         0.0234
    152 H59        -6.7033  -33.6572   17.5643 H         1 TRP         0.0234
    153 H60        -6.5102  -30.2264   20.1262 H         1 TRP         0.0234
    154 H61        -5.0877  -30.6914   19.1330 H         1 TRP         0.0234
    155 H62        -5.5857  -31.7145   20.5229 H         1 TRP         0.0234
    156 H63       -10.2359  -28.0239   18.5043 H         1 TRP         0.0802
    157 H64       -12.3027  -28.7146   19.3992 H         1 TRP         0.0313
    158 H65       -11.5328  -29.8295   20.5786 H         1 TRP         0.0313
    159 H66       -12.0425  -30.2141   17.6178 H         1 TRP         0.0287
    160 H67       -12.3213  -31.3511   18.9802 H         1 TRP         0.0287
    161 H68       -10.0412  -31.9294   19.1341 H         1 TRP         0.0524
    162 H69       -10.0971  -31.5212   17.3857 H         1 TRP         0.0524
    163 H70        -9.9785  -26.4622   19.9998 H         1 TRP         0.1885
    164 H71        -8.3912  -27.1525   22.4399 H         1 TRP         0.0821
    165 H72        -8.3978  -24.6513   20.7076 H         1 TRP         0.0453
    166 H73        -7.0719  -25.8508   20.8802 H         1 TRP         0.0453
    167 H74        -5.7992  -25.9698   23.0233 H         1 TRP         0.0530
    168 H75        -8.6988  -22.9413   22.2970 H         1 TRP         0.0530
    169 H76        -4.8574  -24.6308   24.8907 H         1 TRP         0.0525
    170 H77        -7.7580  -21.5841   24.0955 H         1 TRP         0.0525
    171 H78        -5.0148  -22.6899   26.0391 H         1 TRP         0.2458
    172 H79        -9.5837  -26.9186   24.2358 H         1 TRP         0.1876
    173 H80       -11.1399  -24.4759   24.5926 H         1 TRP         0.0749
    174 H81       -12.6279  -27.1469   24.5984 H         1 TRP         0.0599
    175 H82       -12.6922  -25.9394   23.2700 H         1 TRP         0.0599
    176 H83       -13.4735  -25.4966   25.9743 H         1 TRP         0.2096
@<TRIPOS>BOND
     1    1    2 1  
     2    2    3 1  
     3    2    5 1  
     4    3    4 2  
     5    3   15 am 
     6    5    6 1  
     7    6    7 2  
     8    6    8 1  
     9    7    9 1  
    10    8   10 ar 
    11    8   11 ar 
    12    9   10 1  
    13   10   12 ar 
    14   11   13 ar 
    15   12   14 ar 
    16   13   14 ar 
    17   15   16 1  
    18   16   17 1  
    19   16   19 1  
    20   17   18 2  
    21   17   23 am 
    22   19   20 1  
    23   20   21 1  
    24   20   22 1  
    25   23   24 1  
    26   24   25 1  
    27   24   27 1  
    28   25   26 2  
    29   25   28 am 
    30   28   29 1  
    31   29   30 1  
    32   29   32 1  
    33   30   31 2  
    34   30   40 am 
    35   32   33 1  
    36   33   34 ar 
    37   33   35 ar 
    38   34   36 ar 
    39   35   37 ar 
    40   36   38 ar 
    41   37   38 ar 
    42   38   39 1  
    43   40   41 1  
    44   40   46 1  
    45   41   42 1  
    46   41   44 1  
    47   42   43 2  
    48   42   47 am 
    49   44   45 1  
    50   45   46 1  
    51   47   48 1  
    52   48   49 1  
    53   48   51 1  
    54   49   50 2  
    55   49   55 am 
    56   51   52 1  
    57   52   53 ar 
    58   52   54 ar 
    59   55   56 1  
    60   56   57 1  
    61   56   59 1  
    62   57   58 2  
    63   57   61 am 
    64   59   60 1  
    65   61   62 1  
    66   62   63 1  
    67   62   65 1  
    68   63   64 2  
    69   63   68 am 
    70   65   66 1  
    71   65   67 1  
    72   68   69 1  
    73   68   74 1  
    74   69   70 1  
    75   69   72 1  
    76   70   71 2  
    77   70   75 am 
    78   72   73 1  
    79   73   74 1  
    80   75   76 1  
    81   76   77 1  
    82   76   79 1  
    83   77   78 2  
    84   77   87 am 
    85   79   80 1  
    86   80   81 ar 
    87   80   82 ar 
    88   81   83 ar 
    89   82   84 ar 
    90   83   85 ar 
    91   84   85 ar 
    92   85   86 1  
    93   87   88 1  
    94   88   89 1  
    95   88   91 1  
    96   89   90 ar 
    97   89   93 ar 
    98   91   92 1  
    99    1   94 1  
   100    1   95 1  
   101    1   96 1  
   102    2   97 1  
   103    5   98 1  
   104    5   99 1  
   105    7  100 1  
   106    9  101 1  
   107   11  102 1  
   108   12  103 1  
   109   13  104 1  
   110   14  105 1  
   111   15  106 1  
   112   16  107 1  
   113   19  108 1  
   114   19  109 1  
   115   20  110 1  
   116   21  111 1  
   117   21  112 1  
   118   21  113 1  
   119   22  114 1  
   120   22  115 1  
   121   22  116 1  
   122   23  117 1  
   123   24  118 1  
   124   27  119 1  
   125   27  120 1  
   126   27  121 1  
   127   28  122 1  
   128   29  123 1  
   129   32  124 1  
   130   32  125 1  
   131   34  126 1  
   132   35  127 1  
   133   36  128 1  
   134   37  129 1  
   135   39  130 1  
   136   41  131 1  
   137   44  132 1  
   138   44  133 1  
   139   45  134 1  
   140   45  135 1  
   141   46  136 1  
   142   46  137 1  
   143   47  138 1  
   144   48  139 1  
   145   51  140 1  
   146   51  141 1  
   147   55  142 1  
   148   56  143 1  
   149   59  144 1  
   150   59  145 1  
   151   60  146 1  
   152   61  147 1  
   153   62  148 1  
   154   65  149 1  
   155   66  150 1  
   156   66  151 1  
   157   66  152 1  
   158   67  153 1  
   159   67  154 1  
   160   67  155 1  
   161   69  156 1  
   162   72  157 1  
   163   72  158 1  
   164   73  159 1  
   165   73  160 1  
   166   74  161 1  
   167   74  162 1  
   168   75  163 1  
   169   76  164 1  
   170   79  165 1  
   171   79  166 1  
   172   81  167 1  
   173   82  168 1  
   174   83  169 1  
   175   84  170 1  
   176   86  171 1  
   177   87  172 1  
   178   88  173 1  
   179   91  174 1  
   180   91  175 1  
   181   92  176 1  
@<TRIPOS>SUBSTRUCTURE
     1 TRP         1

