6nkp_ligand
  -I-interpret- 

177182  0  0  0  0  0  0  0  0999 V2000
  -12.7300  -35.0220    8.0610 N   0  3  0  0  0
  -11.5810  -34.3510    7.4440 C   0  0  0  0  0
  -11.0830  -33.1600    8.2780 C   0  0  0  0  0
  -11.8740  -32.4050    8.8050 O   0  0  0  0  0
  -11.9380  -33.8420    6.0360 C   0  0  0  0  0
  -12.4620  -34.9070    5.0940 C   0  0  0  0  0
  -13.7670  -35.1990    4.8290 C   0  0  0  0  0
  -11.6830  -35.7820    4.2940 C   0  0  0  0  0
  -13.8470  -36.2090    3.9050 N   0  0  0  0  0
  -12.5750  -36.5830    3.5600 C   0  0  0  0  0
  -10.3120  -35.9540    4.1100 C   0  0  0  0  0
  -12.1420  -37.5540    2.6750 C   0  0  0  0  0
   -9.8810  -36.9140    3.2340 C   0  0  0  0  0
  -10.7910  -37.7070    2.5250 C   0  0  0  0  0
   -9.7660  -33.0070    8.3860 N   0  0  0  0  0
   -9.1390  -31.9090    9.1170 C   0  0  0  0  0
   -8.6300  -30.8500    8.1540 C   0  0  0  0  0
   -8.0410  -31.1740    7.1110 O   0  0  0  0  0
   -7.9730  -32.4110    9.9520 C   0  0  0  0  0
   -8.2820  -33.3650   11.1020 C   0  0  0  0  0
   -6.9770  -33.6040   11.8390 C   0  0  0  0  0
   -9.3640  -32.8150   12.0300 C   0  0  0  0  0
   -8.8600  -29.5800    8.4990 N   0  0  0  0  0
   -8.3250  -28.5020    7.6680 C   0  0  0  0  0
   -6.8190  -28.3640    7.8190 C   0  0  0  0  0
   -6.1620  -27.9720    6.8600 O   0  0  0  0  0
   -8.9780  -27.1630    8.0090 C   0  0  0  0  0
   -6.2590  -28.7350    8.9820 N   0  0  0  0  0
   -4.8540  -28.5160    9.3130 C   0  0  0  0  0
   -4.2970  -29.7880    9.9430 C   0  0  0  0  0
   -4.9480  -30.3620   10.8210 O   0  0  0  0  0
   -4.6890  -27.3530   10.3060 C   0  0  0  0  0
   -3.2850  -26.7890   10.3950 C   0  0  0  0  0
   -2.3790  -27.2610   11.3180 C   0  0  0  0  0
   -2.8760  -25.7580    9.5580 C   0  0  0  0  0
   -1.0810  -26.7320   11.3950 C   0  0  0  0  0
   -1.5940  -25.2260    9.6370 C   0  0  0  0  0
   -0.7060  -25.7130   10.5530 C   0  0  0  0  0
    0.5570  -25.1610   10.6260 O   0  0  0  0  0
   -3.0980  -30.2350    9.5500 N   0  0  0  0  0
   -2.5610  -31.5020   10.0860 C   0  0  0  0  0
   -2.4240  -31.4980   11.6080 C   0  0  0  0  0
   -2.0450  -30.4910   12.2190 O   0  0  0  0  0
   -1.1760  -31.6200    9.4290 C   0  0  0  0  0
   -1.2140  -30.7020    8.2300 C   0  0  0  0  0
   -2.1580  -29.5740    8.6280 C   0  0  0  0  0
   -2.7150  -32.6530   12.2100 N   0  0  0  0  0
   -2.4380  -32.8890   13.6280 C   0  0  0  0  0
   -3.0410  -31.7980   14.5020 C   0  0  0  0  0
   -2.4300  -31.3500   15.4670 O   0  0  0  0  0
   -0.9370  -32.9760   13.8980 C   0  0  0  0  0
   -0.2700  -34.1000   13.1490 C   0  0  0  0  0
   -0.7300  -35.2520   13.2530 O   0  0  0  0  0
    0.7250  -33.8180   12.4550 O   0  0  0  0  0
   -4.2050  -31.3070   14.1140 N   0  0  0  0  0
   -4.8880  -30.2960   14.9000 C   0  0  0  0  0
   -6.0450  -30.9580   15.6300 C   0  0  0  0  0
   -6.6930  -31.8740   15.1090 O   0  0  0  0  0
   -5.3990  -29.1320   14.0290 C   0  0  0  0  0
   -6.4050  -29.5340   13.0930 O   0  0  0  0  0
   -6.3090  -30.4570   16.8320 N   0  0  0  0  0
   -7.3820  -30.9570   17.6830 C   0  0  0  0  0
   -8.1170  -29.7700   18.2920 C   0  0  0  0  0
   -7.5600  -28.6750   18.4430 O   0  0  0  0  0
   -6.8330  -31.8630   18.8060 C   0  0  0  0  0
   -6.0390  -33.0620   18.2080 C   0  0  0  0  0
   -5.9460  -31.0720   19.7060 C   0  0  0  0  0
   -9.3860  -29.9610   18.6500 N   0  0  0  0  0
  -10.1350  -28.8470   19.2270 C   0  0  0  0  0
   -9.4390  -28.3380   20.4730 C   0  0  0  0  0
   -8.8560  -29.1080   21.2400 O   0  0  0  0  0
  -11.5040  -29.4570   19.5440 C   0  0  0  0  0
  -11.6490  -30.5790   18.5780 C   0  0  0  0  0
  -10.2440  -31.1320   18.4040 C   0  0  0  0  0
   -9.5020  -27.0300   20.6710 N   0  0  0  0  0
   -8.9020  -26.3920   21.8310 C   0  0  0  0  0
   -9.9940  -25.7400   22.6500 C   0  0  0  0  0
  -10.6390  -24.8010   22.1760 O   0  0  0  0  0
   -7.8970  -25.3430   21.4010 C   0  0  0  0  0
   -7.3140  -24.5360   22.5310 C   0  0  0  0  0
   -6.2320  -25.0060   23.2660 C   0  0  0  0  0
   -7.8470  -23.3130   22.8550 C   0  0  0  0  0
   -5.6940  -24.2530   24.3140 C   0  0  0  0  0
   -7.3260  -22.5520   23.8680 C   0  0  0  0  0
   -6.2460  -23.0190   24.6030 C   0  0  0  0  0
   -5.7470  -22.2420   25.6320 O   0  0  0  0  0
  -10.1540  -26.1740   23.8890 N   0  0  0  0  0
  -11.1660  -25.5640   24.7520 C   0  0  0  0  0
  -10.8910  -25.8280   26.2410 C   0  0  0  0  0
   -9.9550  -25.2690   26.8200 O   0  0  0  0  0
  -12.5570  -26.0770   24.3530 C   0  0  0  0  0
  -13.5820  -25.3780   25.0380 O   0  0  0  0  0
  -11.6010  -26.6040   26.8870 O   0  0  0  0  0
  -12.4711  -35.3504    8.9913 H   0  0  0  0  0
  -13.5065  -34.3648    8.1350 H   0  0  0  0  0
  -13.0086  -35.8158    7.4842 H   0  0  0  0  0
  -10.7869  -35.0955    7.3882 H   0  0  0  0  0
  -11.0198  -33.4524    5.5964 H   0  0  0  0  0
  -12.7321  -33.1050    6.1561 H   0  0  0  0  0
  -14.6228  -34.7017    5.2855 H   0  0  0  0  0
   -9.5968  -35.3362    4.6530 H   0  0  0  0  0
  -12.8482  -38.1717    2.1201 H   0  0  0  0  0
   -8.8114  -37.0633    3.0862 H   0  0  0  0  0
  -10.4142  -38.4641    1.8373 H   0  0  0  0  0
   -9.1617  -33.6933    7.9341 H   0  0  0  0  0
   -9.8944  -31.4769    9.7733 H   0  0  0  0  0
   -7.5441  -31.5233   10.4170 H   0  0  0  0  0
   -7.3447  -32.9773    9.2645 H   0  0  0  0  0
   -8.6833  -34.3027   10.7176 H   0  0  0  0  0
   -6.2507  -34.0442   11.1558 H   0  0  0  0  0
   -6.5949  -32.6552   12.2156 H   0  0  0  0  0
   -7.1515  -34.2836   12.6731 H   0  0  0  0  0
   -9.0302  -31.8680   12.4540 H   0  0  0  0  0
  -10.2815  -32.6574   11.4630 H   0  0  0  0  0
   -9.5496  -33.5287   12.8327 H   0  0  0  0  0
   -9.4039  -29.3641    9.3345 H   0  0  0  0  0
   -8.5542  -28.7683    6.6362 H   0  0  0  0  0
  -10.0528  -27.2311    7.8407 H   0  0  0  0  0
   -8.7872  -26.9231    9.0550 H   0  0  0  0  0
   -8.5581  -26.3832    7.3736 H   0  0  0  0  0
   -6.8494  -29.1964    9.6740 H   0  0  0  0  0
   -4.3159  -28.2654    8.3988 H   0  0  0  0  0
   -4.9374  -27.7419   11.2935 H   0  0  0  0  0
   -5.3333  -26.5456    9.9582 H   0  0  0  0  0
   -2.6744  -28.0583   12.0000 H   0  0  0  0  0
   -3.5752  -25.3578    8.8238 H   0  0  0  0  0
   -0.3719  -27.1289   12.1214 H   0  0  0  0  0
   -1.2973  -24.4191    8.9669 H   0  0  0  0  0
    0.6405  -24.4676    9.9673 H   0  0  0  0  0
   -3.2279  -32.3359    9.8672 H   0  0  0  0  0
   -0.9605  -32.6477    9.1366 H   0  0  0  0  0
   -0.3821  -31.3384   10.1208 H   0  0  0  0  0
   -1.5579  -31.2201    7.3348 H   0  0  0  0  0
   -0.2222  -30.3283    7.9753 H   0  0  0  0  0
   -1.6392  -28.7323    9.0868 H   0  0  0  0  0
   -2.6566  -29.1198    7.7718 H   0  0  0  0  0
   -3.1458  -33.3980   11.6625 H   0  0  0  0  0
   -2.8999  -33.8433   13.8812 H   0  0  0  0  0
   -0.8008  -33.1596   14.9638 H   0  0  0  0  0
   -0.4847  -32.0412   13.5669 H   0  0  0  0  0
    0.9028  -32.8769   12.5201 H   0  0  0  0  0
   -4.6295  -31.6434   13.2497 H   0  0  0  0  0
   -4.1815  -29.8682   15.6113 H   0  0  0  0  0
   -4.5526  -28.7454   13.4614 H   0  0  0  0  0
   -5.8410  -28.3892   14.6931 H   0  0  0  0  0
   -6.6854  -28.7728   12.5797 H   0  0  0  0  0
   -5.7345  -29.6872   17.1751 H   0  0  0  0  0
   -8.0620  -31.5548   17.0761 H   0  0  0  0  0
   -7.6753  -32.2538   19.3768 H   0  0  0  0  0
   -6.6983  -33.6509   17.5703 H   0  0  0  0  0
   -5.2031  -32.6849   17.6187 H   0  0  0  0  0
   -5.6618  -33.6864   19.0179 H   0  0  0  0  0
   -5.1139  -30.6672   19.1299 H   0  0  0  0  0
   -6.5153  -30.2543   20.1481 H   0  0  0  0  0
   -5.5626  -31.7181   20.4957 H   0  0  0  0  0
  -10.2168  -27.9855   18.5643 H   0  0  0  0  0
  -12.3077  -28.7275   19.4442 H   0  0  0  0  0
  -11.5681  -29.7985   20.5771 H   0  0  0  0  0
  -12.0717  -30.2444   17.6306 H   0  0  0  0  0
  -12.3401  -31.3391   18.9423 H   0  0  0  0  0
  -10.0312  -31.9580   19.0826 H   0  0  0  0  0
  -10.0844  -31.5695   17.4185 H   0  0  0  0  0
   -9.9880  -26.4508   19.9863 H   0  0  0  0  0
   -8.3838  -27.1446   22.4253 H   0  0  0  0  0
   -8.4232  -24.6455   20.7493 H   0  0  0  0  0
   -7.0697  -25.8699   20.9255 H   0  0  0  0  0
   -5.7968  -25.9751   23.0220 H   0  0  0  0  0
   -8.7035  -22.9393   22.2939 H   0  0  0  0  0
   -4.8528  -24.6329   24.8939 H   0  0  0  0  0
   -7.7604  -21.5788   24.0967 H   0  0  0  0  0
   -6.2486  -21.4253   25.6870 H   0  0  0  0  0
   -9.5723  -26.9335   24.2428 H   0  0  0  0  0
  -11.1245  -24.4837   24.6126 H   0  0  0  0  0
   -9.4922  -24.6991   26.2014 H   0  0  0  0  0
  -12.6244  -27.1332   24.6138 H   0  0  0  0  0
  -12.6888  -25.9226   23.2821 H   0  0  0  0  0
  -14.4371  -25.7207   24.7679 H   0  0  0  0  0
  1  2  1  0  0  0
  2  3  1  0  0  0
  2  5  1  0  0  0
  3  4  2  0  0  0
  3 15  1  0  0  0
  5  6  1  0  0  0
  6  7  4  0  0  0
  6  8  4  0  0  0
  7  9  4  0  0  0
  8 10  4  0  0  0
  8 11  4  0  0  0
  9 10  4  0  0  0
 10 12  4  0  0  0
 11 13  4  0  0  0
 12 14  4  0  0  0
 13 14  4  0  0  0
 15 16  1  0  0  0
 16 17  1  0  0  0
 16 19  1  0  0  0
 17 18  2  0  0  0
 17 23  1  0  0  0
 19 20  1  0  0  0
 20 21  1  0  0  0
 20 22  1  0  0  0
 23 24  1  0  0  0
 24 25  1  0  0  0
 24 27  1  0  0  0
 25 26  2  0  0  0
 25 28  1  0  0  0
 28 29  1  0  0  0
 29 30  1  0  0  0
 29 32  1  0  0  0
 30 31  2  0  0  0
 30 40  1  0  0  0
 32 33  1  0  0  0
 33 34  4  0  0  0
 33 35  4  0  0  0
 34 36  4  0  0  0
 35 37  4  0  0  0
 36 38  4  0  0  0
 37 38  4  0  0  0
 38 39  1  0  0  0
 40 41  1  0  0  0
 40 46  1  0  0  0
 41 42  1  0  0  0
 41 44  1  0  0  0
 42 43  2  0  0  0
 42 47  1  0  0  0
 44 45  1  0  0  0
 45 46  1  0  0  0
 47 48  1  0  0  0
 48 49  1  0  0  0
 48 51  1  0  0  0
 49 50  2  0  0  0
 49 55  1  0  0  0
 51 52  1  0  0  0
 52 53  2  0  0  0
 52 54  1  0  0  0
 55 56  1  0  0  0
 56 57  1  0  0  0
 56 59  1  0  0  0
 57 58  2  0  0  0
 57 61  1  0  0  0
 59 60  1  0  0  0
 61 62  1  0  0  0
 62 63  1  0  0  0
 62 65  1  0  0  0
 63 64  2  0  0  0
 63 68  1  0  0  0
 65 66  1  0  0  0
 65 67  1  0  0  0
 68 69  1  0  0  0
 68 74  1  0  0  0
 69 70  1  0  0  0
 69 72  1  0  0  0
 70 71  2  0  0  0
 70 75  1  0  0  0
 72 73  1  0  0  0
 73 74  1  0  0  0
 75 76  1  0  0  0
 76 77  1  0  0  0
 76 79  1  0  0  0
 77 78  2  0  0  0
 77 87  1  0  0  0
 79 80  1  0  0  0
 80 81  4  0  0  0
 80 82  4  0  0  0
 81 83  4  0  0  0
 82 84  4  0  0  0
 83 85  4  0  0  0
 84 85  4  0  0  0
 85 86  1  0  0  0
 87 88  1  0  0  0
 88 89  1  0  0  0
 88 91  1  0  0  0
 89 90  1  0  0  0
 89 93  2  0  0  0
 91 92  1  0  0  0
  1 94  1  0  0  0
  1 95  1  0  0  0
  1 96  1  0  0  0
  2 97  1  0  0  0
  5 98  1  0  0  0
  5 99  1  0  0  0
  7100  1  0  0  0
 11101  1  0  0  0
 12102  1  0  0  0
 13103  1  0  0  0
 14104  1  0  0  0
 15105  1  0  0  0
 16106  1  0  0  0
 19107  1  0  0  0
 19108  1  0  0  0
 20109  1  0  0  0
 21110  1  0  0  0
 21111  1  0  0  0
 21112  1  0  0  0
 22113  1  0  0  0
 22114  1  0  0  0
 22115  1  0  0  0
 23116  1  0  0  0
 24117  1  0  0  0
 27118  1  0  0  0
 27119  1  0  0  0
 27120  1  0  0  0
 28121  1  0  0  0
 29122  1  0  0  0
 32123  1  0  0  0
 32124  1  0  0  0
 34125  1  0  0  0
 35126  1  0  0  0
 36127  1  0  0  0
 37128  1  0  0  0
 39129  1  0  0  0
 41130  1  0  0  0
 44131  1  0  0  0
 44132  1  0  0  0
 45133  1  0  0  0
 45134  1  0  0  0
 46135  1  0  0  0
 46136  1  0  0  0
 47137  1  0  0  0
 48138  1  0  0  0
 51139  1  0  0  0
 51140  1  0  0  0
 54141  1  0  0  0
 55142  1  0  0  0
 56143  1  0  0  0
 59144  1  0  0  0
 59145  1  0  0  0
 60146  1  0  0  0
 61147  1  0  0  0
 62148  1  0  0  0
 65149  1  0  0  0
 66150  1  0  0  0
 66151  1  0  0  0
 66152  1  0  0  0
 67153  1  0  0  0
 67154  1  0  0  0
 67155  1  0  0  0
 69156  1  0  0  0
 72157  1  0  0  0
 72158  1  0  0  0
 73159  1  0  0  0
 73160  1  0  0  0
 74161  1  0  0  0
 74162  1  0  0  0
 75163  1  0  0  0
 76164  1  0  0  0
 79165  1  0  0  0
 79166  1  0  0  0
 81167  1  0  0  0
 82168  1  0  0  0
 83169  1  0  0  0
 84170  1  0  0  0
 86171  1  0  0  0
 87172  1  0  0  0
 88173  1  0  0  0
 90174  1  0  0  0
 91175  1  0  0  0
 91176  1  0  0  0
 92177  1  0  0  0
M  END
$$$$
