4b35_ligand
  -I-interpret- 

 21 22  0  0  0  0  0  0  0  0999 V2000
   23.3260    3.6580   -4.1880 C   0  0  0  0  0
   22.1380    4.0960   -3.5240 O   0  0  0  0  0
   22.0010    5.4390   -3.5390 C   0  0  0  0  0
   22.8400    6.1660   -4.0710 O   0  0  0  0  0
   20.7660    6.0140   -2.8600 C   0  0  0  0  0
   19.8580    5.1270   -2.3030 C   0  0  0  0  0
   18.7220    5.6150   -1.6760 C   0  0  0  0  0
   18.4720    6.9650   -1.5990 C   0  0  0  0  0
   19.3860    7.8530   -2.1550 C   0  0  0  0  0
   20.5270    7.3780   -2.7920 C   0  0  0  0  0
   21.2040    8.4380   -3.2280 C   0  0  0  0  0
   20.5170    9.5280   -2.8890 C   0  0  0  0  0
   19.4050    9.1720   -2.2360 N   0  0  0  0  0
   23.2992    3.9811   -5.2287 H   0  0  0  0  0
   24.1967    4.0898   -3.6945 H   0  0  0  0  0
   23.3846    2.5704   -4.1453 H   0  0  0  0  0
   20.0360    4.0530   -2.3576 H   0  0  0  0  0
   18.0127    4.9145   -1.2352 H   0  0  0  0  0
   17.5706    7.3335   -1.1093 H   0  0  0  0  0
   22.1515    8.4178   -3.7664 H   0  0  0  0  0
   20.8153   10.5529   -3.1099 H   0  0  0  0  0
  1  2  1  0  0  0
  2  3  1  0  0  0
  3  4  2  0  0  0
  3  5  1  0  0  0
  5  6  4  0  0  0
  5 10  4  0  0  0
  6  7  4  0  0  0
  7  8  4  0  0  0
  8  9  4  0  0  0
  9 10  4  0  0  0
  9 13  4  0  0  0
 10 11  4  0  0  0
 11 12  4  0  0  0
 12 13  4  0  0  0
  1 14  1  0  0  0
  1 15  1  0  0  0
  1 16  1  0  0  0
  6 17  1  0  0  0
  7 18  1  0  0  0
  8 19  1  0  0  0
 11 20  1  0  0  0
 12 21  1  0  0  0
M  END
$$$$
