2xg5_ligand
  -I-interpret- 

 56 61  0  0  0  0  0  0  0  0999 V2000
  -48.2110   -8.1180   16.2520 O   0  0  0  0  0
  -47.8980   -7.4720   15.2200 C   0  0  0  0  0
  -46.9220   -6.6710   15.0750 O   0  0  0  0  0
  -48.7730   -7.6810   14.0370 C   0  0  0  0  0
  -48.1670   -8.7610   13.1140 C   0  0  0  0  0
  -49.2340   -9.6000   12.5250 C   0  0  0  0  0
  -49.2840  -10.9660   12.7860 C   0  0  0  0  0
  -50.3030  -11.7440   12.2340 C   0  0  0  0  0
  -51.2590  -11.1500   11.4170 C   0  0  0  0  0
  -51.2200   -9.7750   11.1370 C   0  0  0  0  0
  -50.2000   -8.9980   11.7030 C   0  0  0  0  0
  -47.4540   -7.9020   11.7750 S   0  0  0  0  0
  -48.8550   -6.4130   13.2960 N   0  0  0  0  0
  -49.5400   -5.2620   13.7610 C   0  0  0  0  0
  -50.1050   -5.3160   14.8790 O   0  0  0  0  0
  -48.1950   -6.4100   12.0720 C   0  0  0  0  0
  -48.2090   -5.1930   11.2190 C   0  0  0  0  0
  -47.5180   -5.1350    9.9020 C   0  0  0  0  0
  -46.0220   -5.0350   10.1940 C   0  0  0  0  0
  -46.7760   -3.8170    9.6830 C   0  0  0  0  0
  -48.9480   -4.0190   11.7410 C   0  0  0  0  0
  -49.5880   -4.0930   12.9830 C   0  0  0  0  0
  -49.0370   -2.7810   10.8680 C   0  0  0  0  0
  -50.0380   -3.1730    9.7670 C   0  0  0  0  0
  -50.8210   -4.3280    9.9010 C   0  0  0  0  0
  -51.7370   -4.7090    8.9160 C   0  0  0  0  0
  -51.8800   -3.9320    7.7730 C   0  0  0  0  0
  -51.1200   -2.7750    7.6350 C   0  0  0  0  0
  -50.2060   -2.4030    8.6160 C   0  0  0  0  0
  -51.2740   -1.9930    6.4880 C   0  0  0  0  0
  -50.5160   -0.8340    6.3160 C   0  0  0  0  0
  -49.6040   -0.4600    7.2980 C   0  0  0  0  0
  -49.4560   -1.2360    8.4500 C   0  0  0  0  0
  -46.9265   -6.3214   14.1809 H   0  0  0  0  0
  -49.7613   -8.0051   14.3631 H   0  0  0  0  0
  -47.4690   -9.3802   13.6774 H   0  0  0  0  0
  -48.5281  -11.4280   13.4210 H   0  0  0  0  0
  -50.3493  -12.8129   12.4424 H   0  0  0  0  0
  -52.0517  -11.7623   10.9870 H   0  0  0  0  0
  -51.9701   -9.3194   10.4905 H   0  0  0  0  0
  -50.1567   -7.9270   11.5051 H   0  0  0  0  0
  -48.1866   -5.7289    9.2788 H   0  0  0  0  0
  -45.1078   -5.5833    9.9668 H   0  0  0  0  0
  -45.3283   -5.2882   10.9958 H   0  0  0  0  0
  -46.8918   -2.7631    9.9359 H   0  0  0  0  0
  -46.6714   -3.0580    8.9077 H   0  0  0  0  0
  -50.1348   -3.2263   13.3545 H   0  0  0  0  0
  -48.0680   -2.4917   10.4614 H   0  0  0  0  0
  -49.3609   -1.9034   11.4274 H   0  0  0  0  0
  -50.7131   -4.9435   10.7941 H   0  0  0  0  0
  -52.3358   -5.6108    9.0440 H   0  0  0  0  0
  -52.5810   -4.2262    6.9919 H   0  0  0  0  0
  -51.9908   -2.2899    5.7224 H   0  0  0  0  0
  -50.6375   -0.2264    5.4193 H   0  0  0  0  0
  -49.0037    0.4405    7.1681 H   0  0  0  0  0
  -48.7517   -0.9295    9.2234 H   0  0  0  0  0
  1  2  2  0  0  0
  2  3  1  0  0  0
  2  4  1  0  0  0
  4  5  1  0  0  0
  4 13  1  0  0  0
  5  6  1  0  0  0
  5 12  1  0  0  0
  6  7  4  0  0  0
  6 11  4  0  0  0
  7  8  4  0  0  0
  8  9  4  0  0  0
  9 10  4  0  0  0
 10 11  4  0  0  0
 12 16  1  0  0  0
 13 14  1  0  0  0
 13 16  1  0  0  0
 14 15  2  0  0  0
 14 22  1  0  0  0
 16 17  2  0  0  0
 17 18  1  0  0  0
 17 21  1  0  0  0
 18 19  1  0  0  0
 18 20  1  0  0  0
 19 20  1  0  0  0
 21 22  2  0  0  0
 21 23  1  0  0  0
 23 24  1  0  0  0
 24 25  4  0  0  0
 24 29  4  0  0  0
 25 26  4  0  0  0
 26 27  4  0  0  0
 27 28  4  0  0  0
 28 29  4  0  0  0
 28 30  4  0  0  0
 29 33  4  0  0  0
 30 31  4  0  0  0
 31 32  4  0  0  0
 32 33  4  0  0  0
  3 34  1  0  0  0
  4 35  1  0  0  0
  5 36  1  0  0  0
  7 37  1  0  0  0
  8 38  1  0  0  0
  9 39  1  0  0  0
 10 40  1  0  0  0
 11 41  1  0  0  0
 18 42  1  0  0  0
 19 43  1  0  0  0
 19 44  1  0  0  0
 20 45  1  0  0  0
 20 46  1  0  0  0
 22 47  1  0  0  0
 23 48  1  0  0  0
 23 49  1  0  0  0
 25 50  1  0  0  0
 26 51  1  0  0  0
 27 52  1  0  0  0
 30 53  1  0  0  0
 31 54  1  0  0  0
 32 55  1  0  0  0
 33 56  1  0  0  0
M  END
$$$$
