### 
### Created by X-TOOL on Mon Sep 10 21:13:20 2018
### 

@<TRIPOS>MOLECULE
2mnz_ligand
  171   170     1     0     0
SMALL
GAST_HUCK


@<TRIPOS>ATOM
      1 N          -3.6270   -1.8480    7.5470 N.4       1 ALA         0.2377
      2 CA         -2.6820   -1.8110    6.3970 C.3       1 ALA         0.0621
      3 C          -1.2590   -1.9970    6.9050 C.2       1 ALA         0.2264
      4 O          -0.9420   -1.6440    8.0230 O.2       1 ALA        -0.3907
      5 CB         -2.7830   -0.4620    5.6790 C.3       1 ALA        -0.0040
      6 N          -0.4010   -2.5440    6.0910 N.am      1 ARG        -0.2610
      7 CA          1.0080   -2.7470    6.5250 C.3       1 ARG         0.1312
      8 C           1.9190   -1.8460    5.6870 C.2       1 ARG         0.2040
      9 O           1.7350   -1.6900    4.4970 O.2       1 ARG        -0.3944
     10 CB          1.3700   -4.2200    6.3450 C.3       1 ARG        -0.0092
     11 CG          0.5950   -5.0440    7.3740 C.3       1 ARG        -0.0156
     12 CD          0.4930   -6.4940    6.9040 C.3       1 ARG         0.0627
     13 NE          1.8460   -7.1160    6.9020 N.pl3     1 ARG        -0.2723
     14 CZ          2.0980   -8.1260    6.1130 C.cat     1 ARG         0.2882
     15 NH1         1.1630   -8.5910    5.3280 N.pl3     1 ARG        -0.2849
     16 NH2         3.2830   -8.6710    6.1080 N.pl3     1 ARG        -0.2849
     17 N           2.8790   -1.2210    6.3140 N.am      1 THR        -0.2613
     18 CA          3.7810   -0.2920    5.5760 C.3       1 THR         0.1565
     19 C           4.8300   -1.0600    4.7700 C.2       1 THR         0.2065
     20 O           5.3850   -2.0430    5.2160 O.2       1 THR        -0.3943
     21 CB          4.4900    0.6240    6.5800 C.3       1 THR         0.0924
     22 OG1         3.7090    1.7910    6.7860 O.3       1 THR        -0.3874
     23 CG2         5.8680    1.0140    6.0430 C.3       1 THR        -0.0346
     24 N           5.1180   -0.5850    3.5870 N.am      1 LYS        -0.2637
     25 CA          6.1470   -1.2420    2.7370 C.3       1 LYS         0.1310
     26 C           7.0890   -0.1590    2.2040 C.2       1 LYS         0.2039
     27 O           6.6640    0.9350    1.8770 O.2       1 LYS        -0.3944
     28 CB          5.4740   -1.9650    1.5660 C.3       1 LYS        -0.0122
     29 CG          5.9890   -3.4040    1.4830 C.3       1 LYS        -0.0440
     30 CD          5.2870   -4.2550    2.5440 C.3       1 LYS        -0.0124
     31 CE          5.8820   -5.6630    2.5440 C.3       1 LYS        -0.0354
     32 NZ          7.3700   -5.5690    2.5460 N.4       1 LYS         0.2185
     33 N           8.3620   -0.4490    2.1290 N.am      1 GLN        -0.2636
     34 CA          9.3350    0.5690    1.6350 C.3       1 GLN         0.1330
     35 C          10.2100   -0.0350    0.5380 C.2       1 GLN         0.2041
     36 O          10.4130   -1.2320    0.4830 O.2       1 GLN        -0.3944
     37 CB         10.2310    1.0040    2.7950 C.3       1 GLN         0.0045
     38 CG         11.1300   -0.1640    3.2090 C.3       1 GLN         0.0412
     39 CD         11.8290    0.1720    4.5260 C.2       1 GLN         0.1737
     40 OE1        11.2270    0.7300    5.4240 O.2       1 GLN        -0.3973
     41 NE2        13.0850   -0.1470    4.6850 N.am      1 GLN        -0.3009
     42 N          10.7410    0.7830   -0.3320 N.am      1 THR        -0.2613
     43 CA         11.6140    0.2360   -1.4130 C.3       1 THR         0.1565
     44 C          12.7460    1.2190   -1.7170 C.2       1 THR         0.2065
     45 O          12.5170    2.3870   -1.9680 O.2       1 THR        -0.3943
     46 CB         10.7880    0.0110   -2.6780 C.3       1 THR         0.0924
     47 OG1         9.6110   -0.7150   -2.3530 O.3       1 THR        -0.3874
     48 CG2        11.6130   -0.7800   -3.6940 C.3       1 THR        -0.0346
     49 N          13.9650    0.7540   -1.7120 N.am      1 ALA        -0.2639
     50 CA         15.1100    1.6590   -2.0110 C.3       1 ALA         0.1282
     51 C          16.1750    0.8920   -2.7960 C.2       1 ALA         0.2036
     52 O          16.2920   -0.3120   -2.6820 O.2       1 ALA        -0.3944
     53 CB         15.7120    2.1700   -0.6990 C.3       1 ALA        -0.0244
     54 N          16.9510    1.5800   -3.5900 N.am      1 ARG        -0.2637
     55 CA         18.0100    0.8930   -4.3860 C.3       1 ARG         0.1311
     56 C          19.3630    1.5540   -4.1120 C.2       1 ARG         0.2039
     57 O          19.4500    2.7480   -3.9020 O.2       1 ARG        -0.3944
     58 CB         17.6810    1.0080   -5.8770 C.3       1 ARG        -0.0092
     59 CG         16.3770    0.2630   -6.1720 C.3       1 ARG        -0.0156
     60 CD         16.1040    0.2880   -7.6760 C.3       1 ARG         0.0627
     61 NE         14.7400   -0.2490   -7.9410 N.pl3     1 ARG        -0.2723
     62 CZ         13.6890    0.4650   -7.6420 C.cat     1 ARG         0.2882
     63 NH1        13.8320    1.6480   -7.1100 N.pl3     1 ARG        -0.2849
     64 NH2        12.4930   -0.0050   -7.8740 N.pl3     1 ARG        -0.2849
     65 N          20.4190    0.7850   -4.1170 N.am      1 LYS        -0.2637
     66 CA         21.7690    1.3630   -3.8610 C.3       1 LYS         0.1309
     67 C          22.5820    1.3430   -5.1560 C.2       1 LYS         0.2034
     68 O          22.4510    0.4490   -5.9690 O.2       1 LYS        -0.3944
     69 CB         22.4890    0.5290   -2.7970 C.3       1 LYS        -0.0122
     70 CG         21.6090    0.3980   -1.5470 C.3       1 LYS        -0.0440
     71 CD         21.4130    1.7740   -0.9020 C.3       1 LYS        -0.0124
     72 CE         20.8720    1.5960    0.5170 C.3       1 LYS        -0.0354
     73 NZ         20.5420    2.9300    1.0950 N.4       1 LYS         0.2185
     74 N          23.4220    2.3200   -5.3560 N.am      1 SER        -0.2672
     75 CA         24.2420    2.3550   -6.6000 C.3       1 SER         0.1173
     76 C          25.2000    3.5460   -6.5460 C.2       1 SER         0.0623
     77 O          26.3940    3.3280   -6.6720 O.co2     1 SER        -0.5665
     78 CB         23.3220    2.4950   -7.8140 C.3       1 SER         0.0789
     79 OG         22.2010    3.2950   -7.4620 O.3       1 SER        -0.3910
     80 OXT        24.7240    4.6570   -6.3810 O.co2     1 SER        -0.5665
     81 H          -4.5695   -1.7249    7.2115 H         1 ALA         0.2015
     82 H          -3.4006   -1.1072    8.1920 H         1 ALA         0.2015
     83 H          -3.5508   -2.7369    8.0161 H         1 ALA         0.2015
     84 H          -2.9309   -2.6196    5.6940 H         1 ALA         0.1095
     85 H          -2.0818   -0.4442    4.8317 H         1 ALA         0.0310
     86 H          -2.5307    0.3467    6.3807 H         1 ALA         0.0310
     87 H          -3.8090   -0.3195    5.3088 H         1 ALA         0.0310
     88 H          -0.6889   -2.8269    5.1761 H         1 ARG         0.1884
     89 H           1.1107   -2.4769    7.5864 H         1 ARG         0.0800
     90 H           2.4505   -4.3572    6.4988 H         1 ARG         0.0313
     91 H           1.0997   -4.5464    5.3299 H         1 ARG         0.0313
     92 H          -0.4157   -4.6258    7.4905 H         1 ARG         0.0301
     93 H           1.1199   -5.0092    8.3401 H         1 ARG         0.0301
     94 H           0.0768   -6.5203    5.8861 H         1 ARG         0.0689
     95 H          -0.1659   -7.0536    7.5842 H         1 ARG         0.0689
     96 H           2.5825   -6.7501    7.5222 H         1 ARG         0.2642
     97 H           1.3618   -9.3874    4.7059 H         1 ARG         0.2615
     98 H           0.2270   -8.1612    5.3312 H         1 ARG         0.2615
     99 H           4.0208   -8.3050    6.7266 H         1 ARG         0.2615
    100 H           3.4810   -9.4673    5.4855 H         1 ARG         0.2615
    101 H           3.0096   -1.3665    7.2947 H         1 THR         0.1884
    102 H           3.1785    0.3187    4.8875 H         1 THR         0.0826
    103 H           4.6102    0.0926    7.5356 H         1 THR         0.0639
    104 H           4.1482    2.3588    7.4082 H         1 THR         0.2101
    105 H           6.3714    1.6709    6.7676 H         1 THR         0.0257
    106 H           5.7521    1.5442    5.0862 H         1 THR         0.0257
    107 H           6.4716    0.1074    5.8890 H         1 THR         0.0257
    108 H           4.6423    0.2275    3.2501 H         1 LYS         0.1883
    109 H           6.7159   -1.9678    3.3366 H         1 LYS         0.0800
    110 H           5.7073   -1.4387    0.6287 H         1 LYS         0.0312
    111 H           4.3849   -1.9749    1.7198 H         1 LYS         0.0312
    112 H           7.0744   -3.4166    1.6611 H         1 LYS         0.0269
    113 H           5.7765   -3.8132    0.4843 H         1 LYS         0.0269
    114 H           4.2122   -4.3113    2.3166 H         1 LYS         0.0317
    115 H           5.4289   -3.7971    3.5340 H         1 LYS         0.0317
    116 H           5.5491   -6.2026    1.6451 H         1 LYS         0.0813
    117 H           5.5468   -6.2036    3.4414 H         1 LYS         0.0813
    118 H           7.7652   -6.4963    2.5460 H         1 LYS         0.1994
    119 H           7.6743   -5.0741    3.3697 H         1 LYS         0.1994
    120 H           7.6765   -5.0732    1.7236 H         1 LYS         0.1994
    121 H           8.6842   -1.3551    2.4033 H         1 GLN         0.1883
    122 H           8.7903    1.4380    1.2374 H         1 GLN         0.0801
    123 H           9.6059    1.3062    3.6482 H         1 GLN         0.0337
    124 H          10.8548    1.8529    2.4785 H         1 GLN         0.0337
    125 H          11.8845   -0.3404    2.4283 H         1 GLN         0.0504
    126 H          10.5185   -1.0690    3.3392 H         1 GLN         0.0504
    127 H          13.5509    0.0687    5.5431 H         1 GLN         0.1814
    128 H          13.5811   -0.6071    3.9486 H         1 GLN         0.1814
    129 H          10.5644    1.7656   -0.2744 H         1 THR         0.1884
    130 H          12.0427   -0.7216   -1.0825 H         1 THR         0.0826
    131 H          10.5100    0.9833   -3.1108 H         1 THR         0.0639
    132 H           9.0989   -0.2206   -1.7238 H         1 THR         0.2101
    133 H          11.0169   -0.9412   -4.6043 H         1 THR         0.0257
    134 H          11.8927   -1.7521   -3.2620 H         1 THR         0.0257
    135 H          12.5227   -0.2156   -3.9466 H         1 THR         0.0257
    136 H          14.1309   -0.2107   -1.5073 H         1 ALA         0.1883
    137 H          14.7569    2.5119   -2.6092 H         1 ALA         0.0797
    138 H          16.5575    2.8383   -0.9193 H         1 ALA         0.0277
    139 H          16.0651    1.3171   -0.1008 H         1 ALA         0.0277
    140 H          14.9460    2.7218   -0.1344 H         1 ALA         0.0277
    141 H          16.8351    2.5704   -3.6648 H         1 ARG         0.1883
    142 H          18.0546   -0.1682   -4.1000 H         1 ARG         0.0800
    143 H          18.4971    0.5661   -6.4675 H         1 ARG         0.0313
    144 H          17.5661    2.0683   -6.1462 H         1 ARG         0.0313
    145 H          15.5472    0.7520   -5.6407 H         1 ARG         0.0301
    146 H          16.4657   -0.7797   -5.8329 H         1 ARG         0.0301
    147 H          16.8497   -0.3325   -8.1946 H         1 ARG         0.0689
    148 H          16.1686    1.3228   -8.0435 H         1 ARG         0.0689
    149 H          14.6263   -1.1831   -8.3599 H         1 ARG         0.2642
    150 H          13.0019    2.2105   -6.8745 H         1 ARG         0.2615
    151 H          14.7749    2.0192   -6.9256 H         1 ARG         0.2615
    152 H          12.3791   -0.9386   -8.2939 H         1 ARG         0.2615
    153 H          11.6636    0.5579   -7.6371 H         1 ARG         0.2615
    154 H          20.3214   -0.1945   -4.2931 H         1 LYS         0.1883
    155 H          21.6645    2.3994   -3.5074 H         1 LYS         0.0800
    156 H          23.4345    1.0217   -2.5265 H         1 LYS         0.0312
    157 H          22.6997   -0.4724   -3.2004 H         1 LYS         0.0312
    158 H          22.0957   -0.2764   -0.8271 H         1 LYS         0.0269
    159 H          20.6298   -0.0144   -1.8316 H         1 LYS         0.0269
    160 H          20.6971    2.3599   -1.4971 H         1 LYS         0.0317
    161 H          22.3770    2.3023   -0.8638 H         1 LYS         0.0317
    162 H          21.6334    1.1046    1.1406 H         1 LYS         0.0813
    163 H          19.9648    0.9746    0.4881 H         1 LYS         0.0813
    164 H          20.1854    2.8120    2.0304 H         1 LYS         0.1994
    165 H          19.8442    3.3804    0.5238 H         1 LYS         0.1994
    166 H          21.3732    3.4996    1.1217 H         1 LYS         0.1994
    167 H          23.5160    3.0459   -4.6746 H         1 SER         0.1876
    168 H          24.8203    1.4231   -6.6841 H         1 SER         0.0749
    169 H          22.9782    1.4996   -8.1316 H         1 SER         0.0599
    170 H          23.8710    2.9736   -8.6383 H         1 SER         0.0599
    171 H          22.5000    4.1539   -7.1874 H         1 SER         0.2096
@<TRIPOS>BOND
     1    1    2 1  
     2    2    3 1  
     3    2    5 1  
     4    3    4 2  
     5    3    6 am 
     6    6    7 1  
     7    7    8 1  
     8    7   10 1  
     9    8    9 2  
    10    8   17 am 
    11   10   11 1  
    12   11   12 1  
    13   12   13 1  
    14   13   14 ar 
    15   14   15 ar 
    16   14   16 ar 
    17   17   18 1  
    18   18   19 1  
    19   18   21 1  
    20   19   20 2  
    21   19   24 am 
    22   21   22 1  
    23   21   23 1  
    24   24   25 1  
    25   25   26 1  
    26   25   28 1  
    27   26   27 2  
    28   26   33 am 
    29   28   29 1  
    30   29   30 1  
    31   30   31 1  
    32   31   32 1  
    33   33   34 1  
    34   34   35 1  
    35   34   37 1  
    36   35   36 2  
    37   35   42 am 
    38   37   38 1  
    39   38   39 1  
    40   39   40 2  
    41   39   41 am 
    42   42   43 1  
    43   43   44 1  
    44   43   46 1  
    45   44   45 2  
    46   44   49 am 
    47   46   47 1  
    48   46   48 1  
    49   49   50 1  
    50   50   51 1  
    51   50   53 1  
    52   51   52 2  
    53   51   54 am 
    54   54   55 1  
    55   55   56 1  
    56   55   58 1  
    57   56   57 2  
    58   56   65 am 
    59   58   59 1  
    60   59   60 1  
    61   60   61 1  
    62   61   62 ar 
    63   62   63 ar 
    64   62   64 ar 
    65   65   66 1  
    66   66   67 1  
    67   66   69 1  
    68   67   68 2  
    69   67   74 am 
    70   69   70 1  
    71   70   71 1  
    72   71   72 1  
    73   72   73 1  
    74   74   75 1  
    75   75   76 1  
    76   75   78 1  
    77   76   77 ar 
    78   76   80 ar 
    79   78   79 1  
    80    1   81 1  
    81    1   82 1  
    82    1   83 1  
    83    2   84 1  
    84    5   85 1  
    85    5   86 1  
    86    5   87 1  
    87    6   88 1  
    88    7   89 1  
    89   10   90 1  
    90   10   91 1  
    91   11   92 1  
    92   11   93 1  
    93   12   94 1  
    94   12   95 1  
    95   13   96 1  
    96   15   97 1  
    97   15   98 1  
    98   16   99 1  
    99   16  100 1  
   100   17  101 1  
   101   18  102 1  
   102   21  103 1  
   103   22  104 1  
   104   23  105 1  
   105   23  106 1  
   106   23  107 1  
   107   24  108 1  
   108   25  109 1  
   109   28  110 1  
   110   28  111 1  
   111   29  112 1  
   112   29  113 1  
   113   30  114 1  
   114   30  115 1  
   115   31  116 1  
   116   31  117 1  
   117   32  118 1  
   118   32  119 1  
   119   32  120 1  
   120   33  121 1  
   121   34  122 1  
   122   37  123 1  
   123   37  124 1  
   124   38  125 1  
   125   38  126 1  
   126   41  127 1  
   127   41  128 1  
   128   42  129 1  
   129   43  130 1  
   130   46  131 1  
   131   47  132 1  
   132   48  133 1  
   133   48  134 1  
   134   48  135 1  
   135   49  136 1  
   136   50  137 1  
   137   53  138 1  
   138   53  139 1  
   139   53  140 1  
   140   54  141 1  
   141   55  142 1  
   142   58  143 1  
   143   58  144 1  
   144   59  145 1  
   145   59  146 1  
   146   60  147 1  
   147   60  148 1  
   148   61  149 1  
   149   63  150 1  
   150   63  151 1  
   151   64  152 1  
   152   64  153 1  
   153   65  154 1  
   154   66  155 1  
   155   69  156 1  
   156   69  157 1  
   157   70  158 1  
   158   70  159 1  
   159   71  160 1  
   160   71  161 1  
   161   72  162 1  
   162   72  163 1  
   163   73  164 1  
   164   73  165 1  
   165   73  166 1  
   166   74  167 1  
   167   75  168 1  
   168   78  169 1  
   169   78  170 1  
   170   79  171 1  
@<TRIPOS>SUBSTRUCTURE
     1 ALA         1

