2mnz_ligand
  -I-interpret- 

170169  0  0  0  0  0  0  0  0999 V2000
   -3.6270   -1.8480    7.5470 N   0  3  0  0  0
   -2.6820   -1.8110    6.3970 C   0  0  0  0  0
   -1.2590   -1.9970    6.9050 C   0  0  0  0  0
   -0.9420   -1.6440    8.0230 O   0  0  0  0  0
   -2.7830   -0.4620    5.6790 C   0  0  0  0  0
   -0.4010   -2.5440    6.0910 N   0  0  0  0  0
    1.0080   -2.7470    6.5250 C   0  0  0  0  0
    1.9190   -1.8460    5.6870 C   0  0  0  0  0
    1.7350   -1.6900    4.4970 O   0  0  0  0  0
    1.3700   -4.2200    6.3450 C   0  0  0  0  0
    0.5950   -5.0440    7.3740 C   0  0  0  0  0
    0.4930   -6.4940    6.9040 C   0  0  0  0  0
    1.8460   -7.1160    6.9020 N   0  0  0  0  0
    2.0980   -8.1260    6.1130 C   0  0  0  0  0
    1.1630   -8.5910    5.3280 N   0  0  0  0  0
    3.2830   -8.6710    6.1080 N   0  0  0  0  0
    2.8790   -1.2210    6.3140 N   0  0  0  0  0
    3.7810   -0.2920    5.5760 C   0  0  0  0  0
    4.8300   -1.0600    4.7700 C   0  0  0  0  0
    5.3850   -2.0430    5.2160 O   0  0  0  0  0
    4.4900    0.6240    6.5800 C   0  0  0  0  0
    3.7090    1.7910    6.7860 O   0  0  0  0  0
    5.8680    1.0140    6.0430 C   0  0  0  0  0
    5.1180   -0.5850    3.5870 N   0  0  0  0  0
    6.1470   -1.2420    2.7370 C   0  0  0  0  0
    7.0890   -0.1590    2.2040 C   0  0  0  0  0
    6.6640    0.9350    1.8770 O   0  0  0  0  0
    5.4740   -1.9650    1.5660 C   0  0  0  0  0
    5.9890   -3.4040    1.4830 C   0  0  0  0  0
    5.2870   -4.2550    2.5440 C   0  0  0  0  0
    5.8820   -5.6630    2.5440 C   0  0  0  0  0
    7.3700   -5.5690    2.5460 N   0  3  0  0  0
    8.3620   -0.4490    2.1290 N   0  0  0  0  0
    9.3350    0.5690    1.6350 C   0  0  0  0  0
   10.2100   -0.0350    0.5380 C   0  0  0  0  0
   10.4130   -1.2320    0.4830 O   0  0  0  0  0
   10.2310    1.0040    2.7950 C   0  0  0  0  0
   11.1300   -0.1640    3.2090 C   0  0  0  0  0
   11.8290    0.1720    4.5260 C   0  0  0  0  0
   11.2270    0.7300    5.4240 O   0  0  0  0  0
   13.0850   -0.1470    4.6850 N   0  0  0  0  0
   10.7410    0.7830   -0.3320 N   0  0  0  0  0
   11.6140    0.2360   -1.4130 C   0  0  0  0  0
   12.7460    1.2190   -1.7170 C   0  0  0  0  0
   12.5170    2.3870   -1.9680 O   0  0  0  0  0
   10.7880    0.0110   -2.6780 C   0  0  0  0  0
    9.6110   -0.7150   -2.3530 O   0  0  0  0  0
   11.6130   -0.7800   -3.6940 C   0  0  0  0  0
   13.9650    0.7540   -1.7120 N   0  0  0  0  0
   15.1100    1.6590   -2.0110 C   0  0  0  0  0
   16.1750    0.8920   -2.7960 C   0  0  0  0  0
   16.2920   -0.3120   -2.6820 O   0  0  0  0  0
   15.7120    2.1700   -0.6990 C   0  0  0  0  0
   16.9510    1.5800   -3.5900 N   0  0  0  0  0
   18.0100    0.8930   -4.3860 C   0  0  0  0  0
   19.3630    1.5540   -4.1120 C   0  0  0  0  0
   19.4500    2.7480   -3.9020 O   0  0  0  0  0
   17.6810    1.0080   -5.8770 C   0  0  0  0  0
   16.3770    0.2630   -6.1720 C   0  0  0  0  0
   16.1040    0.2880   -7.6760 C   0  0  0  0  0
   14.7400   -0.2490   -7.9410 N   0  0  0  0  0
   13.6890    0.4650   -7.6420 C   0  0  0  0  0
   13.8320    1.6480   -7.1100 N   0  0  0  0  0
   12.4930   -0.0050   -7.8740 N   0  0  0  0  0
   20.4190    0.7850   -4.1170 N   0  0  0  0  0
   21.7690    1.3630   -3.8610 C   0  0  0  0  0
   22.5820    1.3430   -5.1560 C   0  0  0  0  0
   22.4510    0.4490   -5.9690 O   0  0  0  0  0
   22.4890    0.5290   -2.7970 C   0  0  0  0  0
   21.6090    0.3980   -1.5470 C   0  0  0  0  0
   21.4130    1.7740   -0.9020 C   0  0  0  0  0
   20.8720    1.5960    0.5170 C   0  0  0  0  0
   20.5420    2.9300    1.0950 N   0  3  0  0  0
   23.4220    2.3200   -5.3560 N   0  0  0  0  0
   24.2420    2.3550   -6.6000 C   0  0  0  0  0
   25.2000    3.5460   -6.5460 C   0  0  0  0  0
   26.3940    3.3280   -6.6720 O   0  0  0  0  0
   23.3220    2.4950   -7.8140 C   0  0  0  0  0
   22.2010    3.2950   -7.4620 O   0  0  0  0  0
   24.7240    4.6570   -6.3810 O   0  0  0  0  0
   -3.5522   -2.7496    8.0181 H   0  0  0  0  0
   -3.3940   -1.1008    8.2011 H   0  0  0  0  0
   -4.5799   -1.7188    7.2068 H   0  0  0  0  0
   -2.9372   -2.6111    5.7022 H   0  0  0  0  0
   -2.5332    0.3384    6.3754 H   0  0  0  0  0
   -2.0875   -0.4455    4.8399 H   0  0  0  0  0
   -3.8000   -0.3222    5.3124 H   0  0  0  0  0
   -0.6946   -2.8326    5.1578 H   0  0  0  0  0
    1.1339   -2.4842    7.5753 H   0  0  0  0  0
    2.4413   -4.3586    6.4903 H   0  0  0  0  0
    1.1094   -4.5451    5.3378 H   0  0  0  0  0
   -0.4070   -4.6301    7.4867 H   0  0  0  0  0
    1.1174   -5.0107    8.3301 H   0  0  0  0  0
    0.0818   -6.5191    5.8949 H   0  0  0  0  0
   -0.1589   -7.0482    7.5793 H   0  0  0  0  0
    2.5753   -6.7537    7.5162 H   0  0  0  0  0
    1.3599   -9.3796    4.7118 H   0  0  0  0  0
    0.2360   -8.1654    5.3313 H   0  0  0  0  0
    4.0137   -8.3085    6.7205 H   0  0  0  0  0
    3.0123   -1.3694    7.3143 H   0  0  0  0  0
    3.1774    0.2946    4.8834 H   0  0  0  0  0
    4.6129    0.0969    7.5261 H   0  0  0  0  0
    4.1528    2.3648    7.4148 H   0  0  0  0  0
    6.4650    0.1148    5.8908 H   0  0  0  0  0
    5.7518    1.5392    5.0950 H   0  0  0  0  0
    6.3658    1.6649    6.7618 H   0  0  0  0  0
    4.6328    0.2438    3.2434 H   0  0  0  0  0
    6.7044   -1.9737    3.3218 H   0  0  0  0  0
    5.7074   -1.4438    0.6376 H   0  0  0  0  0
    4.3950   -1.9759    1.7204 H   0  0  0  0  0
    7.0648   -3.4170    1.6582 H   0  0  0  0  0
    5.7799   -3.8097    0.4931 H   0  0  0  0  0
    4.2220   -4.3108    2.3186 H   0  0  0  0  0
    5.4278   -3.8012    3.5250 H   0  0  0  0  0
    5.5514   -6.1989    1.6543 H   0  0  0  0  0
    5.5491   -6.1999    3.4323 H   0  0  0  0  0
    7.7688   -6.5078    2.5460 H   0  0  0  0  0
    7.6789   -5.0671    1.7135 H   0  0  0  0  0
    7.6767   -5.0680    3.3799 H   0  0  0  0  0
    8.6906   -1.3732    2.4088 H   0  0  0  0  0
    8.7891    1.4233    1.2346 H   0  0  0  0  0
    9.6118    1.3041    3.6404 H   0  0  0  0  0
   10.8489    1.8456    2.4818 H   0  0  0  0  0
   11.8777   -0.3386    2.4354 H   0  0  0  0  0
   10.5238   -1.0606    3.3382 H   0  0  0  0  0
   13.5598    0.0716    5.5609 H   0  0  0  0  0
   13.5915   -0.6149    3.9333 H   0  0  0  0  0
   10.5609    1.7852   -0.2732 H   0  0  0  0  0
   12.0378   -0.7114   -1.0798 H   0  0  0  0  0
   10.5128    0.9744   -3.1073 H   0  0  0  0  0
    9.0931   -0.8556   -3.1490 H   0  0  0  0  0
   12.5141   -0.2197   -3.9434 H   0  0  0  0  0
   11.8895   -1.7430   -3.2647 H   0  0  0  0  0
   11.0213   -0.9391   -4.5955 H   0  0  0  0  0
   14.1342   -0.2300   -1.5032 H   0  0  0  0  0
   14.7602    2.5040   -2.6041 H   0  0  0  0  0
   14.9520    2.7165   -0.1406 H   0  0  0  0  0
   16.0614    1.3239   -0.1072 H   0  0  0  0  0
   16.5496    2.8320   -0.9186 H   0  0  0  0  0
   16.8328    2.5903   -3.6663 H   0  0  0  0  0
   18.0540   -0.1584   -4.1019 H   0  0  0  0  0
   18.4896    0.5697   -6.4619 H   0  0  0  0  0
   17.5668    2.0588   -6.1434 H   0  0  0  0  0
   15.5548    0.7478   -5.6456 H   0  0  0  0  0
   16.4652   -0.7702   -5.8361 H   0  0  0  0  0
   16.8430   -0.3265   -8.1901 H   0  0  0  0  0
   16.1684    1.3133   -8.0404 H   0  0  0  0  0
   14.6274   -1.1740   -8.3558 H   0  0  0  0  0
   14.7658    2.0156   -6.9274 H   0  0  0  0  0
   11.6716    0.5524   -7.6394 H   0  0  0  0  0
   12.3802   -0.9295   -8.2898 H   0  0  0  0  0
   20.3195   -0.2141   -4.2966 H   0  0  0  0  0
   21.6647    2.3894   -3.5093 H   0  0  0  0  0
   23.4231    1.0217   -2.5273 H   0  0  0  0  0
   22.6924   -0.4641   -3.1975 H   0  0  0  0  0
   22.0941   -0.2681   -0.8335 H   0  0  0  0  0
   20.6381   -0.0078   -1.8313 H   0  0  0  0  0
   20.7044    2.3554   -1.4919 H   0  0  0  0  0
   22.3679    2.2984   -0.8648 H   0  0  0  0  0
   21.6267    1.1093    1.1348 H   0  0  0  0  0
   19.9729    0.9804    0.4881 H   0  0  0  0  0
   20.1813    2.8093    2.0414 H   0  0  0  0  0
   21.3838    3.5054    1.1215 H   0  0  0  0  0
   19.8359    3.3848    0.5162 H   0  0  0  0  0
   23.5179    3.0604   -4.6610 H   0  0  0  0  0
   24.8149    1.4315   -6.6833 H   0  0  0  0  0
   26.5354    2.3858   -6.7896 H   0  0  0  0  0
   22.9823    1.5089   -8.1309 H   0  0  0  0  0
   23.8657    2.9674   -8.6321 H   0  0  0  0  0
   21.6218    3.3845   -8.2223 H   0  0  0  0  0
  1  2  1  0  0  0
  2  3  1  0  0  0
  2  5  1  0  0  0
  3  4  2  0  0  0
  3  6  1  0  0  0
  6  7  1  0  0  0
  7  8  1  0  0  0
  7 10  1  0  0  0
  8  9  2  0  0  0
  8 17  1  0  0  0
 10 11  1  0  0  0
 11 12  1  0  0  0
 12 13  1  0  0  0
 13 14  1  0  0  0
 14 15  1  0  0  0
 14 16  2  0  0  0
 17 18  1  0  0  0
 18 19  1  0  0  0
 18 21  1  0  0  0
 19 20  2  0  0  0
 19 24  1  0  0  0
 21 22  1  0  0  0
 21 23  1  0  0  0
 24 25  1  0  0  0
 25 26  1  0  0  0
 25 28  1  0  0  0
 26 27  2  0  0  0
 26 33  1  0  0  0
 28 29  1  0  0  0
 29 30  1  0  0  0
 30 31  1  0  0  0
 31 32  1  0  0  0
 33 34  1  0  0  0
 34 35  1  0  0  0
 34 37  1  0  0  0
 35 36  2  0  0  0
 35 42  1  0  0  0
 37 38  1  0  0  0
 38 39  1  0  0  0
 39 40  2  0  0  0
 39 41  1  0  0  0
 42 43  1  0  0  0
 43 44  1  0  0  0
 43 46  1  0  0  0
 44 45  2  0  0  0
 44 49  1  0  0  0
 46 47  1  0  0  0
 46 48  1  0  0  0
 49 50  1  0  0  0
 50 51  1  0  0  0
 50 53  1  0  0  0
 51 52  2  0  0  0
 51 54  1  0  0  0
 54 55  1  0  0  0
 55 56  1  0  0  0
 55 58  1  0  0  0
 56 57  2  0  0  0
 56 65  1  0  0  0
 58 59  1  0  0  0
 59 60  1  0  0  0
 60 61  1  0  0  0
 61 62  1  0  0  0
 62 63  2  0  0  0
 62 64  1  0  0  0
 65 66  1  0  0  0
 66 67  1  0  0  0
 66 69  1  0  0  0
 67 68  2  0  0  0
 67 74  1  0  0  0
 69 70  1  0  0  0
 70 71  1  0  0  0
 71 72  1  0  0  0
 72 73  1  0  0  0
 74 75  1  0  0  0
 75 76  1  0  0  0
 75 78  1  0  0  0
 76 77  1  0  0  0
 76 80  2  0  0  0
 78 79  1  0  0  0
  1 81  1  0  0  0
  1 82  1  0  0  0
  1 83  1  0  0  0
  2 84  1  0  0  0
  5 85  1  0  0  0
  5 86  1  0  0  0
  5 87  1  0  0  0
  6 88  1  0  0  0
  7 89  1  0  0  0
 10 90  1  0  0  0
 10 91  1  0  0  0
 11 92  1  0  0  0
 11 93  1  0  0  0
 12 94  1  0  0  0
 12 95  1  0  0  0
 13 96  1  0  0  0
 15 97  1  0  0  0
 15 98  1  0  0  0
 16 99  1  0  0  0
 17100  1  0  0  0
 18101  1  0  0  0
 21102  1  0  0  0
 22103  1  0  0  0
 23104  1  0  0  0
 23105  1  0  0  0
 23106  1  0  0  0
 24107  1  0  0  0
 25108  1  0  0  0
 28109  1  0  0  0
 28110  1  0  0  0
 29111  1  0  0  0
 29112  1  0  0  0
 30113  1  0  0  0
 30114  1  0  0  0
 31115  1  0  0  0
 31116  1  0  0  0
 32117  1  0  0  0
 32118  1  0  0  0
 32119  1  0  0  0
 33120  1  0  0  0
 34121  1  0  0  0
 37122  1  0  0  0
 37123  1  0  0  0
 38124  1  0  0  0
 38125  1  0  0  0
 41126  1  0  0  0
 41127  1  0  0  0
 42128  1  0  0  0
 43129  1  0  0  0
 46130  1  0  0  0
 47131  1  0  0  0
 48132  1  0  0  0
 48133  1  0  0  0
 48134  1  0  0  0
 49135  1  0  0  0
 50136  1  0  0  0
 53137  1  0  0  0
 53138  1  0  0  0
 53139  1  0  0  0
 54140  1  0  0  0
 55141  1  0  0  0
 58142  1  0  0  0
 58143  1  0  0  0
 59144  1  0  0  0
 59145  1  0  0  0
 60146  1  0  0  0
 60147  1  0  0  0
 61148  1  0  0  0
 63149  1  0  0  0
 64150  1  0  0  0
 64151  1  0  0  0
 65152  1  0  0  0
 66153  1  0  0  0
 69154  1  0  0  0
 69155  1  0  0  0
 70156  1  0  0  0
 70157  1  0  0  0
 71158  1  0  0  0
 71159  1  0  0  0
 72160  1  0  0  0
 72161  1  0  0  0
 73162  1  0  0  0
 73163  1  0  0  0
 73164  1  0  0  0
 74165  1  0  0  0
 75166  1  0  0  0
 77167  1  0  0  0
 78168  1  0  0  0
 78169  1  0  0  0
 79170  1  0  0  0
M  END
$$$$
