1f9e_ligand
  -I-interpret- 

 76 76  0  0  0  0  0  0  0  0999 V2000
   45.2780   75.0660    9.4630 C   0  0  0  0  0
   46.3970   74.5280    9.3240 O   0  0  0  0  0
   44.7620   76.0360    8.6140 O   0  0  0  0  0
   45.4340   76.5380    7.4500 C   0  0  0  0  0
   44.4790   77.5800    6.9710 C   0  0  0  0  0
   44.5120   78.9060    7.5470 C   0  0  0  0  0
   43.5720   79.9090    7.1030 C   0  0  0  0  0
   42.5870   79.6000    6.0820 C   0  0  0  0  0
   42.5410   78.2730    5.4980 C   0  0  0  0  0
   43.4870   77.2660    5.9480 C   0  0  0  0  0
   44.4920   74.8110   10.4260 N   0  0  0  0  0
   44.8320   73.9130   11.4860 C   0  0  0  0  0
   43.9490   72.6900   11.6070 C   0  0  0  0  0
   45.6290   75.8590   12.7570 O   0  0  0  0  0
   44.7850   74.9420   12.6710 C   0  0  0  0  0
   44.0910   71.6820   10.4620 C   0  0  0  0  0
   45.2380   71.0610   10.2850 O   0  0  0  0  0
   43.0770   71.4300    9.6890 O   0  0  0  0  0
   43.7260   74.8720   13.4620 N   0  0  0  0  0
   43.4300   75.8130   14.5910 C   0  0  0  0  0
   42.6690   75.0020   15.6720 C   0  0  0  0  0
   41.8180   74.1370   15.3600 O   0  0  0  0  0
   42.5470   77.0250   14.1490 C   0  0  0  0  0
   43.0260   77.8030   12.9000 C   0  0  0  0  0
   42.8010   79.3510   12.8770 C   0  0  0  0  0
   41.8220   79.9120   13.5300 O   0  0  0  0  0
   43.6120   80.1010   12.1720 O   0  0  0  0  0
   42.9860   75.2650   16.9380 N   0  0  0  0  0
   42.3380   74.5340   18.0610 C   0  0  0  0  0
   41.1480   75.2660   18.5190 C   0  0  0  0  0
   41.0660   76.4910   18.4360 O   0  0  0  0  0
   43.4220   74.2260   19.1040 C   0  0  0  0  0
   44.6010   73.4440   18.5220 C   0  0  0  0  0
   44.0310   75.4840   19.7280 C   0  0  0  0  0
   40.2530   74.4580   18.9150 N   0  0  0  0  0
   39.0570   74.9240   19.4850 C   0  0  0  0  0
   39.2290   74.7630   21.0110 C   0  0  0  0  0
   38.3910   75.3030   21.8490 O   0  0  0  0  0
   37.8750   74.0650   18.9970 C   0  0  0  0  0
   37.1120   74.6560   17.8010 C   0  0  0  0  0
   37.3210   75.8730   17.4340 O   0  0  0  0  0
   36.2550   73.9310   17.1590 O   0  0  0  0  0
   45.6454   75.7695    6.7065 H   0  0  0  0  0
   46.4306   76.9269    7.6590 H   0  0  0  0  0
   45.2457   79.1485    8.3157 H   0  0  0  0  0
   43.6025   80.9076    7.5388 H   0  0  0  0  0
   41.8826   80.3647    5.7546 H   0  0  0  0  0
   41.8051   78.0339    4.7303 H   0  0  0  0  0
   43.4553   76.2654    5.5168 H   0  0  0  0  0
   43.5791   75.2657   10.4449 H   0  0  0  0  0
   45.7794   73.3842   11.3819 H   0  0  0  0  0
   42.9172   73.0412   11.5944 H   0  0  0  0  0
   44.2438   72.1751   12.5214 H   0  0  0  0  0
   45.8704   71.3667   10.9394 H   0  0  0  0  0
   43.0595   74.1193   13.2901 H   0  0  0  0  0
   44.3691   76.2237   14.9618 H   0  0  0  0  0
   42.5699   77.7348   14.9759 H   0  0  0  0  0
   41.5710   76.6123   13.8936 H   0  0  0  0  0
   42.4395   77.4106   12.0693 H   0  0  0  0  0
   44.1067   77.6648   12.8670 H   0  0  0  0  0
   44.2751   79.5474   11.7532 H   0  0  0  0  0
   43.6848   75.9795   17.1418 H   0  0  0  0  0
   41.9303   73.5657   17.7708 H   0  0  0  0  0
   42.8906   73.6387   19.8529 H   0  0  0  0  0
   44.2439   72.4949   18.1223 H   0  0  0  0  0
   45.0623   74.0254   17.7237 H   0  0  0  0  0
   45.3338   73.2565   19.3068 H   0  0  0  0  0
   44.4875   76.0912   18.9464 H   0  0  0  0  0
   43.2481   76.0573   20.2245 H   0  0  0  0  0
   44.7895   75.1962   20.4559 H   0  0  0  0  0
   40.4047   73.4541   18.8177 H   0  0  0  0  0
   38.8533   75.9585   19.2084 H   0  0  0  0  0
   40.0696   74.1851   21.3950 H   0  0  0  0  0
   37.1683   73.9940   19.8238 H   0  0  0  0  0
   38.2865   73.1090   18.6731 H   0  0  0  0  0
   36.2171   73.0570   17.5543 H   0  0  0  0  0
  1  2  2  0  0  0
  1  3  1  0  0  0
  1 11  1  0  0  0
  3  4  1  0  0  0
  4  5  1  0  0  0
  5  6  4  0  0  0
  5 10  4  0  0  0
  6  7  4  0  0  0
  7  8  4  0  0  0
  8  9  4  0  0  0
  9 10  4  0  0  0
 11 12  1  0  0  0
 12 13  1  0  0  0
 12 15  1  0  0  0
 13 16  1  0  0  0
 15 14  2  0  0  0
 15 19  1  0  0  0
 16 17  1  0  0  0
 16 18  2  0  0  0
 19 20  1  0  0  0
 20 21  1  0  0  0
 20 23  1  0  0  0
 21 22  2  0  0  0
 21 28  1  0  0  0
 23 24  1  0  0  0
 24 25  1  0  0  0
 25 26  2  0  0  0
 25 27  1  0  0  0
 28 29  1  0  0  0
 29 30  1  0  0  0
 29 32  1  0  0  0
 30 31  2  0  0  0
 30 35  1  0  0  0
 32 33  1  0  0  0
 32 34  1  0  0  0
 35 36  1  0  0  0
 36 37  1  0  0  0
 36 39  1  0  0  0
 37 38  2  0  0  0
 39 40  1  0  0  0
 40 41  2  0  0  0
 40 42  1  0  0  0
  4 43  1  0  0  0
  4 44  1  0  0  0
  6 45  1  0  0  0
  7 46  1  0  0  0
  8 47  1  0  0  0
  9 48  1  0  0  0
 10 49  1  0  0  0
 11 50  1  0  0  0
 12 51  1  0  0  0
 13 52  1  0  0  0
 13 53  1  0  0  0
 17 54  1  0  0  0
 19 55  1  0  0  0
 20 56  1  0  0  0
 23 57  1  0  0  0
 23 58  1  0  0  0
 24 59  1  0  0  0
 24 60  1  0  0  0
 27 61  1  0  0  0
 28 62  1  0  0  0
 29 63  1  0  0  0
 32 64  1  0  0  0
 33 65  1  0  0  0
 33 66  1  0  0  0
 33 67  1  0  0  0
 34 68  1  0  0  0
 34 69  1  0  0  0
 34 70  1  0  0  0
 35 71  1  0  0  0
 36 72  1  0  0  0
 37 73  1  0  0  0
 39 74  1  0  0  0
 39 75  1  0  0  0
 42 76  1  0  0  0
M  END
$$$$
