5tzh_ligand
  -I-interpret- 

 43 46  0  0  0  0  0  0  0  0999 V2000
    4.8710    3.7690    6.8500 N   0  0  0  0  0
    6.0610    4.3950    6.8280 C   0  0  0  0  0
    6.3210    4.0730    4.4710 C   0  0  0  0  0
    7.8500    5.4180    7.2190 C   0  0  0  0  0
    3.1080    2.6200    5.7060 C   0  0  0  0  0
    8.1270    3.5370    1.1200 C   0  0  0  0  0
    9.0430    6.9810    1.5330 C   0  0  0  0  0
    9.6560    7.0650    3.8840 C   0  0  0  0  0
    9.9490    7.7930    5.0090 C   0  0  0  0  0
    9.6210    9.8330    3.7870 C   0  0  0  0  0
    9.9280    9.1660    4.9480 C   0  0  0  0  0
    9.3260    9.1140    2.6540 C   0  0  0  0  0
    9.3490    7.7440    2.7320 C   0  0  0  0  0
    5.1450    3.4430    4.4470 C   0  0  0  0  0
    4.4300    3.3210    5.7240 C   0  0  0  0  0
    7.0780    3.2680    2.1780 C   0  0  0  0  0
    7.3500    5.7310    2.8510 C   0  0  0  0  0
    8.1580    4.9630    0.6440 C   0  0  0  0  0
    7.1990    4.2890    3.2900 C   0  0  0  0  0
    6.7230    4.9370    7.8250 N   0  0  0  0  0
    7.9180    5.1990    5.9070 N   0  0  0  0  0
    6.7690    4.5470    5.6730 N   0  0  0  0  0
    8.2430    5.8900    1.7280 N   0  0  0  0  0
    9.5060    7.3350    0.4600 O   0  0  0  0  0
   10.2160    9.8680    6.0550 F   0  0  0  0  0
    9.3480    3.2070    1.6150 F   0  0  0  0  0
    7.9290    2.7620    0.0270 F   0  0  0  0  0
    8.6333    5.9409    7.7677 H   0  0  0  0  0
    3.1523    1.7468    6.3569 H   0  0  0  0  0
    2.3329    3.2997    6.0600 H   0  0  0  0  0
    2.8792    2.3046    4.6880 H   0  0  0  0  0
    9.6668    5.9752    3.9047 H   0  0  0  0  0
   10.1961    7.2875    5.9425 H   0  0  0  0  0
    9.6115   10.9227    3.7648 H   0  0  0  0  0
    9.0805    9.6177    1.7191 H   0  0  0  0  0
    4.7340    3.0377    3.5224 H   0  0  0  0  0
    7.2267    2.2689    2.5877 H   0  0  0  0  0
    6.0870    3.3386    1.7297 H   0  0  0  0  0
    7.7676    6.2903    3.6882 H   0  0  0  0  0
    6.3668    6.0892    2.5459 H   0  0  0  0  0
    7.2342    5.1599    0.1000 H   0  0  0  0  0
    9.0394    5.0926    0.0160 H   0  0  0  0  0
    8.1873    4.0595    3.6885 H   0  0  0  0  0
  2  1  4  0  0  0
 15  1  4  0  0  0
  2 20  4  0  0  0
 22  2  4  0  0  0
  3 14  4  0  0  0
 19  3  1  0  0  0
  3 22  4  0  0  0
 20  4  4  0  0  0
  4 21  4  0  0  0
 15  5  1  0  0  0
 16  6  1  0  0  0
  6 18  1  0  0  0
  6 26  1  0  0  0
  6 27  1  0  0  0
  7 13  1  0  0  0
 23  7  1  0  0  0
  7 24  2  0  0  0
  8  9  4  0  0  0
 13  8  4  0  0  0
  9 11  4  0  0  0
 10 11  4  0  0  0
 12 10  4  0  0  0
 11 25  1  0  0  0
 13 12  4  0  0  0
 14 15  4  0  0  0
 19 16  1  0  0  0
 17 19  1  0  0  0
 17 23  1  0  0  0
 18 23  1  0  0  0
 21 22  4  0  0  0
  4 28  1  0  0  0
  5 29  1  0  0  0
  5 30  1  0  0  0
  5 31  1  0  0  0
  8 32  1  0  0  0
  9 33  1  0  0  0
 10 34  1  0  0  0
 12 35  1  0  0  0
 14 36  1  0  0  0
 16 37  1  0  0  0
 16 38  1  0  0  0
 17 39  1  0  0  0
 17 40  1  0  0  0
 18 41  1  0  0  0
 18 42  1  0  0  0
 19 43  1  0  0  0
M  END
$$$$
