3db6_ligand
  -I-interpret- 

 50 53  0  0  0  0  0  0  0  0999 V2000
   86.2890   78.3940   18.5340 N   0  0  0  0  0
   89.2510   80.1200   17.9930 N   0  0  0  0  0
   88.2350   79.3040   18.4100 C   0  0  0  0  0
   90.4220   80.3810   18.6430 C   0  0  0  0  0
   90.7750   79.8200   19.8710 C   0  0  0  0  0
   92.0110   80.1580   20.4340 C   0  0  0  0  0
   92.1640   77.3390   22.2990 C   0  0  0  0  0
   90.3260   75.5460   25.2250 C   0  0  0  0  0
   88.2600   75.5800   26.4120 C   0  0  0  0  0
   86.3050   75.4140   27.7290 C   0  0  0  0  0
   85.8570   75.8370   28.9540 C   0  0  0  0  0
   86.4260   76.0560   30.3080 C   0  0  0  0  0
   85.2990   75.3730   26.7510 C   0  0  0  0  0
   84.1890   75.7950   27.4610 C   0  0  0  0  0
   82.7730   75.9970   27.0830 C   0  0  0  0  0
   87.8120   76.4930   25.7380 O   0  0  0  0  0
   87.5460   75.0300   27.4020 N   0  0  0  0  0
   87.5920   76.6660   30.2360 F   0  0  0  0  0
   86.5840   74.8820   30.8820 F   0  0  0  0  0
   85.6070   76.7890   31.0380 F   0  0  0  0  0
   84.5100   76.0680   28.7700 O   0  0  0  0  0
   89.4840   75.0890   26.1930 N   0  0  0  0  0
   91.5070   74.9660   25.1240 N   0  0  0  0  0
   92.2380   75.5470   24.0930 C   0  0  0  0  0
   91.5860   76.5610   23.4310 C   0  0  0  0  0
   90.0110   76.8190   24.0970 S   0  0  0  0  0
   91.5570   78.7310   22.3600 C   0  0  0  0  0
   92.4160   79.6420   21.6230 N   0  0  0  0  0
   91.2900   81.2320   18.0460 N   0  0  0  0  0
   92.4670   81.5440   18.6070 C   0  0  0  0  0
   92.8300   81.0160   19.7840 N   0  0  0  0  0
   87.0260   79.3680   17.8390 N   0  0  0  0  0
   87.1080   77.8230   19.4590 C   0  0  0  0  0
   88.3400   78.3900   19.3880 N   0  0  0  0  0
   89.1181   80.5856   17.0952 H   0  0  0  0  0
   90.1013   79.1320   20.3818 H   0  0  0  0  0
   91.9362   76.8606   21.3465 H   0  0  0  0  0
   93.2499   77.3881   22.3798 H   0  0  0  0  0
   85.3731   75.0835   25.7028 H   0  0  0  0  0
   82.7129   76.7415   26.2891 H   0  0  0  0  0
   82.3541   75.0542   26.7312 H   0  0  0  0  0
   82.2124   76.3436   27.9512 H   0  0  0  0  0
   87.9719   74.2744   27.9387 H   0  0  0  0  0
   89.8070   74.3255   26.7872 H   0  0  0  0  0
   93.2458   75.2248   23.8310 H   0  0  0  0  0
   91.4741   79.0554   23.3973 H   0  0  0  0  0
   90.5601   78.7215   21.9193 H   0  0  0  0  0
   93.3288   79.8955   22.0010 H   0  0  0  0  0
   93.1379   82.2366   18.0988 H   0  0  0  0  0
   86.8193   77.0318   20.1509 H   0  0  0  0  0
 32  1  4  0  0  0
  1 33  4  0  0  0
  2  3  1  0  0  0
  4  2  1  0  0  0
  3 32  4  0  0  0
  3 34  4  0  0  0
  5  4  4  0  0  0
  4 29  4  0  0  0
  6  5  4  0  0  0
 28  6  1  0  0  0
  6 31  4  0  0  0
  7 25  1  0  0  0
 27  7  1  0  0  0
  8 22  1  0  0  0
  8 23  4  0  0  0
 26  8  4  0  0  0
  9 16  2  0  0  0
  9 17  1  0  0  0
 22  9  1  0  0  0
 10 11  4  0  0  0
 10 13  4  0  0  0
 17 10  1  0  0  0
 11 12  1  0  0  0
 11 21  4  0  0  0
 12 18  1  0  0  0
 12 19  1  0  0  0
 12 20  1  0  0  0
 13 14  4  0  0  0
 14 15  1  0  0  0
 14 21  4  0  0  0
 24 23  4  0  0  0
 25 24  4  0  0  0
 25 26  4  0  0  0
 27 28  1  0  0  0
 29 30  4  0  0  0
 30 31  4  0  0  0
 33 34  4  0  0  0
  2 35  1  0  0  0
  5 36  1  0  0  0
  7 37  1  0  0  0
  7 38  1  0  0  0
 13 39  1  0  0  0
 15 40  1  0  0  0
 15 41  1  0  0  0
 15 42  1  0  0  0
 17 43  1  0  0  0
 22 44  1  0  0  0
 24 45  1  0  0  0
 27 46  1  0  0  0
 27 47  1  0  0  0
 28 48  1  0  0  0
 30 49  1  0  0  0
 33 50  1  0  0  0
M  END
$$$$
