3t82_ligand
  -I-interpret- 

 39 39  0  0  0  0  0  0  0  0999 V2000
   17.1480    2.3090   11.7260 C   0  0  0  0  0
   18.4300    1.9400   11.4020 O   0  0  0  0  0
   16.5330    3.4750   10.9130 C   0  0  0  0  0
   16.4290    3.3320    9.5500 O   0  0  0  0  0
   16.8610    4.8610   11.4680 C   0  0  0  0  0
   16.1600    5.9150   10.8620 O   0  0  0  0  0
   17.0120    4.9480   12.9860 C   0  0  0  0  0
   17.5530    6.1170   13.5280 O   0  0  0  0  0
   17.4140    3.6530   13.7080 C   0  0  0  0  0
   16.8020    2.4610   13.1430 O   0  0  0  0  0
   17.3250    3.7730   15.2070 C   0  0  0  0  0
   16.0160    4.0260   15.6390 O   0  0  0  0  0
   16.1620    3.6880   17.9910 O   0  0  0  0  0
   15.7670    1.7370   16.5650 N   0  0  0  0  0
   15.4650    3.2520   16.7870 S   0  0  0  0  0
   14.0320    3.5770   16.8710 O   0  0  0  0  0
   15.6090    7.1130   13.8150 O   0  0  0  0  0
   16.8720    7.1330   13.8620 C   0  0  0  0  0
   16.7280    6.8170   10.1520 C   0  0  0  0  0
   17.9620    6.7480    9.9070 O   0  0  0  0  0
   17.5920    8.3480   14.3520 C   0  0  0  0  0
   15.8970    7.9610    9.6240 C   0  0  0  0  0
   16.6738    1.3825   11.4024 H   0  0  0  0  0
   18.5128    1.8794   10.4475 H   0  0  0  0  0
   15.4673    3.3759   11.1192 H   0  0  0  0  0
   16.2212    2.4186    9.3401 H   0  0  0  0  0
   17.8864    5.0256   11.1370 H   0  0  0  0  0
   15.9603    5.0693   13.2454 H   0  0  0  0  0
   18.4761    3.5056   13.5124 H   0  0  0  0  0
   17.9532    4.6073   15.5191 H   0  0  0  0  0
   17.6505    2.8288   15.6435 H   0  0  0  0  0
   16.3675    1.2354   17.2194 H   0  0  0  0  0
   15.3639    1.2484   15.7655 H   0  0  0  0  0
   17.3420    9.1978   13.7168 H   0  0  0  0  0
   17.2903    8.5585   15.3780 H   0  0  0  0  0
   18.6669    8.1705   14.3172 H   0  0  0  0  0
   16.2878    8.9016   10.0121 H   0  0  0  0  0
   15.9423    7.9690    8.5350 H   0  0  0  0  0
   14.8629    7.8356    9.9450 H   0  0  0  0  0
  1  2  1  0  0  0
  1  3  1  0  0  0
  1 10  1  0  0  0
  3  4  1  0  0  0
  3  5  1  0  0  0
  5  6  1  0  0  0
  5  7  1  0  0  0
  6 19  1  0  0  0
  7  8  1  0  0  0
  7  9  1  0  0  0
  8 18  1  0  0  0
  9 10  1  0  0  0
  9 11  1  0  0  0
 11 12  1  0  0  0
 12 15  1  0  0  0
 15 13  2  0  0  0
 15 14  1  0  0  0
 15 16  2  0  0  0
 18 17  2  0  0  0
 18 21  1  0  0  0
 19 20  2  0  0  0
 19 22  1  0  0  0
  1 23  1  0  0  0
  2 24  1  0  0  0
  3 25  1  0  0  0
  4 26  1  0  0  0
  5 27  1  0  0  0
  7 28  1  0  0  0
  9 29  1  0  0  0
 11 30  1  0  0  0
 11 31  1  0  0  0
 14 32  1  0  0  0
 14 33  1  0  0  0
 21 34  1  0  0  0
 21 35  1  0  0  0
 21 36  1  0  0  0
 22 37  1  0  0  0
 22 38  1  0  0  0
 22 39  1  0  0  0
M  END
$$$$
