### 
### Created by X-TOOL on Mon Sep 10 21:13:30 2018
### 

@<TRIPOS>MOLECULE
5kbf_ligand
   33    36     1     0     0
SMALL
GAST_HUCK


@<TRIPOS>ATOM
      1 P          85.7230   71.4940   94.3550 P.3       1 CMP         0.2557
      2 O1P        86.4190   72.2620   93.2540 O.co2     1 CMP        -0.6177
      3 O2P        85.3010   70.1000   94.0670 O.co2     1 CMP        -0.6177
      4 O5'        86.7640   71.6200   95.5440 O.3       1 CMP        -0.2514
      5 C5'        87.0080   72.8800   96.1620 C.3       1 CMP         0.1128
      6 C4'        85.6680   73.4370   96.5200 C.3       1 CMP         0.1242
      7 O4'        85.7000   74.7630   97.0630 O.3       1 CMP        -0.3360
      8 C3'        84.7580   73.5880   95.3410 C.3       1 CMP         0.1540
      9 O3'        84.3970   72.3220   94.8360 O.3       1 CMP        -0.2453
     10 C2'        83.6270   74.4330   95.9140 C.3       1 CMP         0.1439
     11 O2'        82.7010   73.6090   96.6070 O.3       1 CMP        -0.3832
     12 C1'        84.3920   75.3030   96.9380 C.3       1 CMP         0.2014
     13 N9         84.4840   76.7220   96.5380 N.pl3     1 CMP        -0.1919
     14 C8         84.1490   77.7630   97.3250 C.2       1 CMP         0.1123
     15 N7         84.3540   78.9340   96.6920 N.2       1 CMP        -0.2958
     16 C5         84.8410   78.6380   95.4830 C.ar      1 CMP         0.1045
     17 C6         85.2600   79.4400   94.3220 C.ar      1 CMP         0.1298
     18 N6         85.1760   80.7940   94.3940 N.pl3     1 CMP        -0.3152
     19 N1         85.7130   78.7600   93.2460 N.ar      1 CMP        -0.2698
     20 C2         85.7880   77.4100   93.1960 C.ar      1 CMP         0.0533
     21 N3         85.4180   76.6210   94.2320 N.ar      1 CMP        -0.2714
     22 C4         84.9460   77.1800   95.3740 C.ar      1 CMP         0.1613
     23 H1         87.5261   73.5532   95.4632 H         1 CMP         0.0647
     24 H2         87.6200   72.7487   97.0665 H         1 CMP         0.0647
     25 H3         85.2140   72.7535   97.2526 H         1 CMP         0.0655
     26 H4         85.2571   74.1439   94.5336 H         1 CMP         0.0712
     27 H5         83.1189   75.0320   95.1440 H         1 CMP         0.0680
     28 H6         82.3377   72.9685   96.0067 H         1 CMP         0.2101
     29 H7         83.8756   75.2471   97.9076 H         1 CMP         0.0996
     30 H8         83.7633   77.6699   98.3392 H         1 CMP         0.1349
     31 H9         85.4647   81.3713   93.5913 H         1 CMP         0.1820
     32 H10        84.8236   81.2433   95.2512 H         1 CMP         0.1820
     33 H11        86.1588   76.9420   92.2912 H         1 CMP         0.0996
@<TRIPOS>BOND
     1    1    2 ar 
     2    1    3 ar 
     3    1    4 1  
     4    1    9 1  
     5    4    5 1  
     6    5    6 1  
     7    6    7 1  
     8    6    8 1  
     9    7   12 1  
    10    8    9 1  
    11    8   10 1  
    12   10   11 1  
    13   10   12 1  
    14   12   13 1  
    15   13   14 1  
    16   13   22 1  
    17   14   15 2  
    18   15   16 1  
    19   16   17 ar 
    20   16   22 ar 
    21   17   18 1  
    22   17   19 ar 
    23   19   20 ar 
    24   20   21 ar 
    25   21   22 ar 
    26    5   23 1  
    27    5   24 1  
    28    6   25 1  
    29    8   26 1  
    30   10   27 1  
    31   11   28 1  
    32   12   29 1  
    33   14   30 1  
    34   18   31 1  
    35   18   32 1  
    36   20   33 1  
@<TRIPOS>SUBSTRUCTURE
     1 CMP         1

