5kbf_ligand
  -I-interpret- 

 34 37  0  0  0  0  0  0  0  0999 V2000
   85.7230   71.4940   94.3550 P   0  0  0  0  0
   86.4190   72.2620   93.2540 O   0  0  0  0  0
   85.3010   70.1000   94.0670 O   0  0  0  0  0
   86.7640   71.6200   95.5440 O   0  0  0  0  0
   87.0080   72.8800   96.1620 C   0  0  0  0  0
   85.6680   73.4370   96.5200 C   0  0  0  0  0
   85.7000   74.7630   97.0630 O   0  0  0  0  0
   84.7580   73.5880   95.3410 C   0  0  0  0  0
   84.3970   72.3220   94.8360 O   0  0  0  0  0
   83.6270   74.4330   95.9140 C   0  0  0  0  0
   82.7010   73.6090   96.6070 O   0  0  0  0  0
   84.3920   75.3030   96.9380 C   0  0  0  0  0
   84.4840   76.7220   96.5380 N   0  0  0  0  0
   84.1490   77.7630   97.3250 C   0  0  0  0  0
   84.3540   78.9340   96.6920 N   0  0  0  0  0
   84.8410   78.6380   95.4830 C   0  0  0  0  0
   85.2600   79.4400   94.3220 C   0  0  0  0  0
   85.1760   80.7940   94.3940 N   0  0  0  0  0
   85.7130   78.7600   93.2460 N   0  0  0  0  0
   85.7880   77.4100   93.1960 C   0  0  0  0  0
   85.4180   76.6210   94.2320 N   0  0  0  0  0
   84.9460   77.1800   95.3740 C   0  0  0  0  0
   86.6369   73.1426   93.5681 H   0  0  0  0  0
   87.5444   73.5495   95.4896 H   0  0  0  0  0
   87.6355   72.7684   97.0462 H   0  0  0  0  0
   85.3191   72.7039   97.2473 H   0  0  0  0  0
   85.1839   74.0725   94.4624 H   0  0  0  0  0
   83.0609   74.9866   95.1649 H   0  0  0  0  0
   81.9943   74.1528   96.9627 H   0  0  0  0  0
   83.8468   75.2831   97.8816 H   0  0  0  0  0
   83.7630   77.6698   98.3401 H   0  0  0  0  0
   84.8270   81.2389   95.2429 H   0  0  0  0  0
   85.4619   81.3657   93.5991 H   0  0  0  0  0
   86.1608   76.9394   92.2862 H   0  0  0  0  0
  1  2  1  0  0  0
  1  3  2  0  0  0
  1  4  1  0  0  0
  1  9  1  0  0  0
  4  5  1  0  0  0
  5  6  1  0  0  0
  6  7  1  0  0  0
  6  8  1  0  0  0
  7 12  1  0  0  0
  8  9  1  0  0  0
  8 10  1  0  0  0
 10 11  1  0  0  0
 10 12  1  0  0  0
 12 13  1  0  0  0
 13 14  4  0  0  0
 13 22  4  0  0  0
 14 15  4  0  0  0
 15 16  4  0  0  0
 16 17  4  0  0  0
 16 22  4  0  0  0
 17 18  1  0  0  0
 17 19  4  0  0  0
 19 20  4  0  0  0
 20 21  4  0  0  0
 21 22  4  0  0  0
  2 23  1  0  0  0
  5 24  1  0  0  0
  5 25  1  0  0  0
  6 26  1  0  0  0
  8 27  1  0  0  0
 10 28  1  0  0  0
 11 29  1  0  0  0
 12 30  1  0  0  0
 14 31  1  0  0  0
 18 32  1  0  0  0
 18 33  1  0  0  0
 20 34  1  0  0  0
M  END
$$$$
