4o55_ligand
  -I-interpret- 

 58 61  0  0  0  0  0  0  0  0999 V2000
  -37.5650   32.5790  -28.0330 C   0  0  0  0  0
  -36.7750   31.4510  -28.3300 C   0  0  0  0  0
  -35.4200   31.6330  -28.6200 C   0  0  0  0  0
  -34.8840   32.9490  -28.6130 C   0  0  0  0  0
  -35.7220   34.0390  -28.3000 C   0  0  0  0  0
  -37.0170   33.8160  -28.0310 N   0  0  0  0  0
  -34.5720   30.4420  -28.9250 C   0  0  0  0  0
  -34.1120   29.6060  -27.8970 C   0  0  0  0  0
  -33.2950   28.5050  -28.1880 C   0  0  0  0  0
  -32.9380   28.2020  -29.5040 C   0  0  0  0  0
  -33.4000   29.0400  -30.5220 C   0  0  0  0  0
  -34.2140   30.1530  -30.2360 C   0  0  0  0  0
  -37.4150   30.0740  -28.3320 C   0  0  0  0  0
  -35.3010   35.4870  -28.2810 C   0  0  0  0  0
  -33.4330   33.1990  -28.9220 C   0  0  0  0  0
  -33.2500   33.7180  -30.3410 C   0  0  0  0  0
  -32.7850   34.0990  -27.9920 O   0  0  0  0  0
  -34.0260   33.3010  -31.2300 O   0  0  0  0  0
  -32.3030   34.4940  -30.5950 O   0  0  0  0  0
  -32.3880   33.5540  -26.7180 C   0  0  0  0  0
  -33.5500   33.1770  -25.8260 C   0  0  0  0  0
  -31.6410   34.7010  -26.0440 C   0  0  0  0  0
  -31.5480   32.2930  -26.8610 C   0  0  0  0  0
  -39.0220   32.4220  -27.7230 C   0  0  0  0  0
  -40.0120   32.3670  -28.6270 N   0  0  0  0  0
  -41.1880   32.1930  -27.9830 C   0  0  0  0  0
  -40.8890   32.1280  -26.6280 C   0  0  0  0  0
  -39.5550   32.2700  -26.5020 N   0  0  0  0  0
  -42.5210   32.0730  -28.4160 C   0  0  0  0  0
  -41.9160   31.9450  -25.6950 C   0  0  0  0  0
  -43.5470   31.8850  -27.4810 C   0  0  0  0  0
  -43.2510   31.8170  -26.1080 C   0  0  0  0  0
  -44.5540   31.5700  -24.8700 Cl  0  0  0  0  0
  -34.3919   29.8141  -26.8643 H   0  0  0  0  0
  -32.9327   27.8757  -27.3751 H   0  0  0  0  0
  -32.3162   27.3358  -29.7304 H   0  0  0  0  0
  -33.1256   28.8286  -31.5555 H   0  0  0  0  0
  -34.5649   30.7909  -31.0472 H   0  0  0  0  0
  -37.8259   29.8643  -27.3444 H   0  0  0  0  0
  -38.2143   30.0473  -29.0726 H   0  0  0  0  0
  -36.6626   29.3254  -28.5804 H   0  0  0  0  0
  -34.5011   35.6220  -27.5529 H   0  0  0  0  0
  -34.9454   35.7737  -29.2707 H   0  0  0  0  0
  -36.1533   36.1083  -28.0057 H   0  0  0  0  0
  -32.9495   32.2275  -28.8191 H   0  0  0  0  0
  -34.6809   32.7206  -30.8351 H   0  0  0  0  0
  -34.1546   34.0616  -25.6258 H   0  0  0  0  0
  -34.1598   32.4238  -26.3248 H   0  0  0  0  0
  -33.1699   32.7750  -24.8868 H   0  0  0  0  0
  -30.7843   34.9841  -26.6556 H   0  0  0  0  0
  -32.3099   35.5548  -25.9360 H   0  0  0  0  0
  -31.2970   34.3807  -25.0606 H   0  0  0  0  0
  -32.1239   31.5322  -27.3879 H   0  0  0  0  0
  -30.6442   32.5221  -27.4255 H   0  0  0  0  0
  -31.2765   31.9247  -25.8717 H   0  0  0  0  0
  -42.7556   32.1263  -29.4791 H   0  0  0  0  0
  -41.6755   31.9013  -24.6328 H   0  0  0  0  0
  -44.5790   31.7910  -27.8191 H   0  0  0  0  0
  1  2  4  0  0  0
  1  6  4  0  0  0
  1 24  1  0  0  0
  2  3  4  0  0  0
  2 13  1  0  0  0
  3  4  4  0  0  0
  3  7  1  0  0  0
  4  5  4  0  0  0
  4 15  1  0  0  0
  5  6  4  0  0  0
  5 14  1  0  0  0
  7  8  4  0  0  0
  7 12  4  0  0  0
  8  9  4  0  0  0
  9 10  4  0  0  0
 10 11  4  0  0  0
 11 12  4  0  0  0
 15 16  1  0  0  0
 15 17  1  0  0  0
 16 18  1  0  0  0
 16 19  2  0  0  0
 17 20  1  0  0  0
 20 21  1  0  0  0
 20 22  1  0  0  0
 20 23  1  0  0  0
 24 25  4  0  0  0
 24 28  4  0  0  0
 25 26  4  0  0  0
 26 27  4  0  0  0
 26 29  4  0  0  0
 27 28  4  0  0  0
 27 30  4  0  0  0
 29 31  4  0  0  0
 30 32  4  0  0  0
 31 32  4  0  0  0
 32 33  1  0  0  0
  8 34  1  0  0  0
  9 35  1  0  0  0
 10 36  1  0  0  0
 11 37  1  0  0  0
 12 38  1  0  0  0
 13 39  1  0  0  0
 13 40  1  0  0  0
 13 41  1  0  0  0
 14 42  1  0  0  0
 14 43  1  0  0  0
 14 44  1  0  0  0
 15 45  1  0  0  0
 18 46  1  0  0  0
 21 47  1  0  0  0
 21 48  1  0  0  0
 21 49  1  0  0  0
 22 50  1  0  0  0
 22 51  1  0  0  0
 22 52  1  0  0  0
 23 53  1  0  0  0
 23 54  1  0  0  0
 23 55  1  0  0  0
 29 56  1  0  0  0
 30 57  1  0  0  0
 31 58  1  0  0  0
M  END
$$$$
