### 
### Created by X-TOOL on Mon Sep 10 21:13:11 2018
### 

@<TRIPOS>MOLECULE
3vv8_ligand
   46    49     1     0     0
SMALL
GAST_HUCK


@<TRIPOS>ATOM
      1 O          17.1560   41.4330  -10.0600 O.2       1 B02        -0.3763
      2 C1         16.9830   40.4190   -9.3280 C.2       1 B02         0.2415
      3 N2         16.4740   40.5600   -8.0150 N.am      1 B02        -0.1847
      4 C5         16.1690   41.9090   -7.5200 C.3       1 B02         0.0551
      5 C4         16.2940   39.4040   -7.2040 C.2       1 B02         0.1652
      6 N3         15.8150   39.5110   -5.9390 N.2       1 B02        -0.3964
      7 N1         16.6060   38.1740   -7.6960 N.2       1 B02        -0.2513
      8 C3         17.0930   38.0140   -8.9550 C.2       1 B02         0.0707
      9 C2         17.2860   39.1320   -9.7850 C.3       1 B02         0.1190
     10 C6         17.4150   36.6480   -9.4600 C.3       1 B02         0.0501
     11 C21        18.3720   36.7600  -10.6580 C.3       1 B02        -0.0106
     12 C7         18.8940   36.2700   -9.3080 C.3       1 B02         0.0206
     13 C8         19.7130   37.2360   -8.4960 C.ar      1 B02        -0.0348
     14 C13        20.9400   37.6940   -8.9700 C.ar      1 B02        -0.0584
     15 C12        21.7350   38.5480   -8.2030 C.ar      1 B02        -0.0601
     16 C11        21.3180   38.9510   -6.9370 C.ar      1 B02        -0.0259
     17 C10        20.1030   38.4810   -6.4390 C.ar      1 B02        -0.0601
     18 C9         19.3200   37.6220   -7.2120 C.ar      1 B02        -0.0584
     19 C14        22.1800   39.8620   -6.1160 C.ar      1 B02        -0.0290
     20 C19        23.5200   40.0180   -6.4630 C.ar      1 B02        -0.0625
     21 C18        24.3370   40.8520   -5.7040 C.ar      1 B02        -0.0688
     22 C17        23.8410   41.5250   -4.5960 C.ar      1 B02        -0.0614
     23 C16        22.5130   41.3630   -4.2270 C.ar      1 B02        -0.0467
     24 C20        21.9840   42.1000   -3.0250 C.3       1 B02        -0.0314
     25 C15        21.6860   40.5290   -4.9830 C.ar      1 B02        -0.0548
     26 H          15.1159   41.9639   -7.2441 H         1 B02         0.0572
     27 H          16.7862   42.1226   -6.6473 H         1 B02         0.0572
     28 H          16.3794   42.6380   -8.3026 H         1 B02         0.0572
     29 H          15.6922   38.6750   -5.3677 H         1 B02         0.0506
     30 H          18.3622   39.1554   -9.9564 H         1 B02         0.0835
     31 H          16.5956   38.9727  -10.6133 H         1 B02         0.0835
     32 H          16.4787   36.1410   -9.2267 H         1 B02         0.0652
     33 H          18.6419   37.4882  -11.4229 H         1 B02         0.0337
     34 H          18.4083   36.4607  -11.7055 H         1 B02         0.0337
     35 H          19.4487   35.3889   -8.9854 H         1 B02         0.0510
     36 H          21.2851   37.3808   -9.9553 H         1 B02         0.0561
     37 H          22.6877   38.9013   -8.5976 H         1 B02         0.0609
     38 H          19.7654   38.7839   -5.4479 H         1 B02         0.0609
     39 H          18.3819   37.2443   -6.8052 H         1 B02         0.0561
     40 H          23.9273   39.4895   -7.3249 H         1 B02         0.0558
     41 H          25.3827   40.9783   -5.9845 H         1 B02         0.0598
     42 H          24.4930   42.1792   -4.0171 H         1 B02         0.0551
     43 H          21.1725   42.7594   -3.3328 H         1 B02         0.0390
     44 H          21.6127   41.3815   -2.2943 H         1 B02         0.0390
     45 H          22.7853   42.6907   -2.5809 H         1 B02         0.0390
     46 H          20.6448   40.3942   -4.6901 H         1 B02         0.0551
@<TRIPOS>BOND
     1    1    2 2  
     2    2    3 am 
     3    2    9 1  
     4    3    4 1  
     5    3    5 1  
     6    5    6 2  
     7    5    7 1  
     8    7    8 2  
     9    8    9 1  
    10    8   10 1  
    11   10   11 1  
    12   10   12 1  
    13   11   12 1  
    14   12   13 1  
    15   13   14 ar 
    16   13   18 ar 
    17   14   15 ar 
    18   15   16 ar 
    19   16   17 ar 
    20   16   19 1  
    21   17   18 ar 
    22   19   20 ar 
    23   19   25 ar 
    24   20   21 ar 
    25   21   22 ar 
    26   22   23 ar 
    27   23   24 1  
    28   23   25 ar 
    29    4   26 1  
    30    4   27 1  
    31    4   28 1  
    32    6   29 1  
    33    9   30 1  
    34    9   31 1  
    35   10   32 1  
    36   11   33 1  
    37   11   34 1  
    38   12   35 1  
    39   14   36 1  
    40   15   37 1  
    41   17   38 1  
    42   18   39 1  
    43   20   40 1  
    44   21   41 1  
    45   22   42 1  
    46   24   43 1  
    47   24   44 1  
    48   24   45 1  
    49   25   46 1  
@<TRIPOS>SUBSTRUCTURE
     1 B02         1

