3vv8_ligand
  -I-interpret- 

 46 49  0  0  0  0  0  0  0  0999 V2000
   17.1560   41.4330  -10.0600 O   0  0  0  0  0
   16.9830   40.4190   -9.3280 C   0  0  0  0  0
   16.4740   40.5600   -8.0150 N   0  0  0  0  0
   16.1690   41.9090   -7.5200 C   0  0  0  0  0
   16.2940   39.4040   -7.2040 C   0  0  0  0  0
   15.8150   39.5110   -5.9390 N   0  0  0  0  0
   16.6060   38.1740   -7.6960 N   0  0  0  0  0
   17.0930   38.0140   -8.9550 C   0  0  0  0  0
   17.2860   39.1320   -9.7850 C   0  0  0  0  0
   17.4150   36.6480   -9.4600 C   0  0  0  0  0
   18.3720   36.7600  -10.6580 C   0  0  0  0  0
   18.8940   36.2700   -9.3080 C   0  0  0  0  0
   19.7130   37.2360   -8.4960 C   0  0  0  0  0
   20.9400   37.6940   -8.9700 C   0  0  0  0  0
   21.7350   38.5480   -8.2030 C   0  0  0  0  0
   21.3180   38.9510   -6.9370 C   0  0  0  0  0
   20.1030   38.4810   -6.4390 C   0  0  0  0  0
   19.3200   37.6220   -7.2120 C   0  0  0  0  0
   22.1800   39.8620   -6.1160 C   0  0  0  0  0
   23.5200   40.0180   -6.4630 C   0  0  0  0  0
   24.3370   40.8520   -5.7040 C   0  0  0  0  0
   23.8410   41.5250   -4.5960 C   0  0  0  0  0
   22.5130   41.3630   -4.2270 C   0  0  0  0  0
   21.9840   42.1000   -3.0250 C   0  0  0  0  0
   21.6860   40.5290   -4.9830 C   0  0  0  0  0
   15.1159   41.9639   -7.2441 H   0  0  0  0  0
   16.7862   42.1226   -6.6473 H   0  0  0  0  0
   16.3794   42.6380   -8.3026 H   0  0  0  0  0
   15.6922   38.6750   -5.3677 H   0  0  0  0  0
   18.3622   39.1554   -9.9564 H   0  0  0  0  0
   16.5956   38.9727  -10.6133 H   0  0  0  0  0
   16.4787   36.1410   -9.2267 H   0  0  0  0  0
   18.6419   37.4882  -11.4229 H   0  0  0  0  0
   18.4083   36.4607  -11.7055 H   0  0  0  0  0
   19.4487   35.3889   -8.9854 H   0  0  0  0  0
   21.2851   37.3808   -9.9553 H   0  0  0  0  0
   22.6877   38.9013   -8.5976 H   0  0  0  0  0
   19.7654   38.7839   -5.4479 H   0  0  0  0  0
   18.3819   37.2443   -6.8052 H   0  0  0  0  0
   23.9273   39.4895   -7.3249 H   0  0  0  0  0
   25.3827   40.9783   -5.9845 H   0  0  0  0  0
   24.4930   42.1792   -4.0171 H   0  0  0  0  0
   22.5480   41.8027   -2.1409 H   0  0  0  0  0
   22.0915   43.1732   -3.1822 H   0  0  0  0  0
   20.9310   41.8556   -2.8850 H   0  0  0  0  0
   20.6448   40.3942   -4.6901 H   0  0  0  0  0
  1  2  2  0  0  0
  2  3  1  0  0  0
  2  9  1  0  0  0
  3  4  1  0  0  0
  3  5  1  0  0  0
  5  6  2  0  0  0
  5  7  1  0  0  0
  7  8  2  0  0  0
  8  9  1  0  0  0
  8 10  1  0  0  0
 10 11  1  0  0  0
 10 12  1  0  0  0
 11 12  1  0  0  0
 12 13  1  0  0  0
 13 14  4  0  0  0
 13 18  4  0  0  0
 14 15  4  0  0  0
 15 16  4  0  0  0
 16 17  4  0  0  0
 16 19  1  0  0  0
 17 18  4  0  0  0
 19 20  4  0  0  0
 19 25  4  0  0  0
 20 21  4  0  0  0
 21 22  4  0  0  0
 22 23  4  0  0  0
 23 24  1  0  0  0
 23 25  4  0  0  0
  4 26  1  0  0  0
  4 27  1  0  0  0
  4 28  1  0  0  0
  6 29  1  0  0  0
  9 30  1  0  0  0
  9 31  1  0  0  0
 10 32  1  0  0  0
 11 33  1  0  0  0
 11 34  1  0  0  0
 12 35  1  0  0  0
 14 36  1  0  0  0
 15 37  1  0  0  0
 17 38  1  0  0  0
 18 39  1  0  0  0
 20 40  1  0  0  0
 21 41  1  0  0  0
 22 42  1  0  0  0
 24 43  1  0  0  0
 24 44  1  0  0  0
 24 45  1  0  0  0
 25 46  1  0  0  0
M  END
$$$$
