4na9_ligand
  -I-interpret- 

 61 65  0  0  0  0  0  0  0  0999 V2000
    8.8620   40.2640   22.8440 C   0  0  0  0  0
    8.7750   41.6550   22.8620 C   0  0  0  0  0
    9.9120   42.4410   22.6790 C   0  0  0  0  0
   11.1420   41.8480   22.4580 C   0  0  0  0  0
   11.2480   40.4700   22.4100 C   0  0  0  0  0
   10.1110   39.6740   22.5860 C   0  0  0  0  0
    8.1930   35.6610   28.0560 C   0  0  0  0  0
    8.7160   35.4090   26.7790 C   0  0  0  0  0
    8.1250   35.9760   25.6530 N   0  0  0  0  0
    6.8800   36.7400   25.7600 C   0  0  0  0  0
    6.9630   37.5990   27.0310 C   0  0  0  0  0
    7.0810   36.6670   28.2620 C   0  0  0  0  0
    9.6040   33.9020   28.9650 C   0  0  0  0  0
   10.0910   33.6520   27.6850 C   0  0  0  0  0
    9.6840   34.4210   26.6110 C   0  0  0  0  0
    8.6700   34.9170   29.1380 C   0  0  0  0  0
    9.9830   33.0450   30.1440 C   0  0  0  0  0
   10.6450   31.8390   29.9280 N   0  0  0  0  0
    9.7570   33.5210   31.3590 N   0  0  0  0  0
    7.3580   37.6650   29.3810 C   0  0  0  0  0
    6.7320   37.6790   24.5820 C   0  0  0  0  0
    7.7840   38.5020   24.2170 C   0  0  0  0  0
    7.6690   39.4420   23.1990 C   0  0  0  0  0
    6.4540   39.5350   22.5140 C   0  0  0  0  0
    5.3760   38.7050   22.8460 C   0  0  0  0  0
    5.5340   37.7900   23.8870 C   0  0  0  0  0
    8.6440   38.1200   29.6420 C   0  0  0  0  0
    8.8520   39.2130   30.4780 C   0  0  0  0  0
    7.7800   39.8490   31.0700 C   0  0  0  0  0
    6.5030   39.3810   30.8460 C   0  0  0  0  0
    6.2930   38.2870   30.0170 C   0  0  0  0  0
    4.1660   38.7730   22.1500 N   0  0  0  0  0
   10.2440   38.2110   22.3890 C   0  0  0  0  0
   11.0620   37.6230   23.2180 O   0  0  0  0  0
    9.5230   37.6310   21.5920 O   0  0  0  0  0
    7.8084   42.1331   23.0207 H   0  0  0  0  0
    9.8313   43.5276   22.7102 H   0  0  0  0  0
   12.0285   42.4674   22.3216 H   0  0  0  0  0
   12.2177   40.0039   22.2350 H   0  0  0  0  0
    8.5654   35.8576   24.7406 H   0  0  0  0  0
    6.0357   36.0511   25.7851 H   0  0  0  0  0
    6.0666   38.2129   27.1191 H   0  0  0  0  0
    7.8352   38.2506   26.9781 H   0  0  0  0  0
    6.2058   36.0506   28.4674 H   0  0  0  0  0
   10.8015   32.8404   27.5279 H   0  0  0  0  0
   10.1227   34.2536   25.6273 H   0  0  0  0  0
    8.3017   35.1372   30.1400 H   0  0  0  0  0
   10.9747   31.2890   30.7212 H   0  0  0  0  0
   10.8001   31.5056   28.9766 H   0  0  0  0  0
    9.3376   34.4434   31.4755 H   0  0  0  0  0
    8.7332   38.4100   24.7449 H   0  0  0  0  0
    6.3442   40.2634   21.7106 H   0  0  0  0  0
    4.6979   37.1469   24.1617 H   0  0  0  0  0
    9.4977   37.6167   29.1882 H   0  0  0  0  0
    9.8653   39.5680   30.6658 H   0  0  0  0  0
    7.9420   40.7159   31.7106 H   0  0  0  0  0
    5.6541   39.8719   31.3218 H   0  0  0  0  0
    5.2807   37.9128   29.8642 H   0  0  0  0  0
    4.0552   39.4367   21.3834 H   0  0  0  0  0
    3.3937   38.1590   22.4086 H   0  0  0  0  0
   11.5183   38.2867   23.7403 H   0  0  0  0  0
  1  2  4  0  0  0
  1  6  4  0  0  0
 23  1  1  0  0  0
  2  3  4  0  0  0
  3  4  4  0  0  0
  5  4  4  0  0  0
  6  5  4  0  0  0
  6 33  1  0  0  0
  8  7  4  0  0  0
 12  7  1  0  0  0
  7 16  4  0  0  0
  9  8  1  0  0  0
  8 15  4  0  0  0
 10  9  1  0  0  0
 10 11  1  0  0  0
 21 10  1  0  0  0
 11 12  1  0  0  0
 12 20  1  0  0  0
 14 13  4  0  0  0
 16 13  4  0  0  0
 13 17  1  0  0  0
 15 14  4  0  0  0
 17 18  1  0  0  0
 17 19  2  0  0  0
 20 27  4  0  0  0
 20 31  4  0  0  0
 22 21  4  0  0  0
 21 26  4  0  0  0
 22 23  4  0  0  0
 23 24  4  0  0  0
 24 25  4  0  0  0
 25 26  4  0  0  0
 25 32  1  0  0  0
 27 28  4  0  0  0
 28 29  4  0  0  0
 29 30  4  0  0  0
 30 31  4  0  0  0
 33 34  1  0  0  0
 33 35  2  0  0  0
  2 36  1  0  0  0
  3 37  1  0  0  0
  4 38  1  0  0  0
  5 39  1  0  0  0
  9 40  1  0  0  0
 10 41  1  0  0  0
 11 42  1  0  0  0
 11 43  1  0  0  0
 12 44  1  0  0  0
 14 45  1  0  0  0
 15 46  1  0  0  0
 16 47  1  0  0  0
 18 48  1  0  0  0
 18 49  1  0  0  0
 19 50  1  0  0  0
 22 51  1  0  0  0
 24 52  1  0  0  0
 26 53  1  0  0  0
 27 54  1  0  0  0
 28 55  1  0  0  0
 29 56  1  0  0  0
 30 57  1  0  0  0
 31 58  1  0  0  0
 32 59  1  0  0  0
 32 60  1  0  0  0
 34 61  1  0  0  0
M  END
$$$$
