### 
### Created by X-TOOL on Mon Sep 10 21:13:17 2018
### 

@<TRIPOS>MOLECULE
4q3q_ligand
   28    27     1     0     0
SMALL
GAST_HUCK


@<TRIPOS>ATOM
      1 N         -44.4770  -17.3970   50.6980 N.4       1 ABH         0.2327
      2 CA        -43.6260  -18.3180   51.4530 C.3       1 ABH         0.0282
      3 C         -42.5100  -17.5770   52.1640 C.2       1 ABH         0.0844
      4 O         -42.3600  -16.3470   51.9550 O.co2     1 ABH        -0.5643
      5 OT        -41.7650  -18.2120   52.9480 O.co2     1 ABH        -0.5643
      6 CB        -43.0780  -19.4330   50.5390 C.3       1 ABH         0.0001
      7 CG        -42.0190  -18.9850   49.5270 C.3       1 ABH        -0.0736
      8 CD        -41.7620  -20.0530   48.4470 C.3       1 ABH        -0.1824
      9 CE        -40.4900  -19.6990   47.6680 C.3       1 ABH        -0.3457
     10 B         -40.4430  -20.2400   46.1690 B         1 ABH         3.0000
     11 O2        -39.1040  -20.0780   45.4710 O.3       1 ABH        -0.8710
     12 O1        -41.6870  -20.0730   45.3300 O.3       1 ABH        -0.8710
     13 O3        -40.4670  -21.7690   46.3400 O.3       1 ABH        -0.8710
     14 H1        -45.2079  -17.9161   50.2372 H         1 ABH         0.2010
     15 H2        -43.9216  -16.9148   50.0087 H         1 ABH         0.2010
     16 H3        -44.8876  -16.7259   51.3281 H         1 ABH         0.2010
     17 H4        -44.2501  -18.7953   52.2229 H         1 ABH         0.1024
     18 H5        -43.9232  -19.8610   49.9801 H         1 ABH         0.0338
     19 H6        -42.6310  -20.2084   51.1785 H         1 ABH         0.0338
     20 H7        -41.0782  -18.7877   50.0618 H         1 ABH         0.0244
     21 H8        -42.3635  -18.0618   49.0381 H         1 ABH         0.0244
     22 H9        -42.6170  -20.0882   47.7558 H         1 ABH        -0.0084
     23 H10       -41.6368  -21.0354   48.9257 H         1 ABH        -0.0084
     24 H11       -39.8482  -20.5890   47.5900 H         1 ABH        -0.2101
     25 H12       -39.9473  -18.9007   48.1954 H         1 ABH        -0.2101
     26 H14       -38.4031  -20.2053   46.0995 H         1 ABH        -0.1290
     27 H17       -41.7006  -19.1998   44.9561 H         1 ABH        -0.1290
     28 H18       -40.4226  -22.1828   45.4860 H         1 ABH        -0.1290
@<TRIPOS>BOND
     1    1    2 1  
     2    2    3 1  
     3    2    6 1  
     4    3    4 ar 
     5    3    5 ar 
     6    6    7 1  
     7    7    8 1  
     8    8    9 1  
     9    9   10 1  
    10   10   11 1  
    11   10   12 1  
    12   13   10 du 
    13    1   14 1  
    14    1   15 1  
    15    1   16 1  
    16    2   17 1  
    17    6   18 1  
    18    6   19 1  
    19    7   20 1  
    20    7   21 1  
    21    8   22 1  
    22    8   23 1  
    23    9   24 1  
    24    9   25 1  
    25   11   26 1  
    26   12   27 1  
    27   13   28 1  
@<TRIPOS>SUBSTRUCTURE
     1 ABH         1

