4q3q_ligand
  -I-interpret- 

 29 28  0  0  0  0  0  0  0  0999 V2000
  -44.4770  -17.3970   50.6980 N   0  3  0  0  0
  -43.6260  -18.3180   51.4530 C   0  0  0  0  0
  -42.5100  -17.5770   52.1640 C   0  0  0  0  0
  -42.3600  -16.3470   51.9550 O   0  0  0  0  0
  -41.7650  -18.2120   52.9480 O   0  0  0  0  0
  -43.0780  -19.4330   50.5390 C   0  0  0  0  0
  -42.0190  -18.9850   49.5270 C   0  0  0  0  0
  -41.7620  -20.0530   48.4470 C   0  0  0  0  0
  -40.4900  -19.6990   47.6680 C   0  0  0  0  0
  -40.4430  -20.2400   46.1690 B   0  0  0  0  0
  -39.1040  -20.0780   45.4710 O   0  0  0  0  0
  -41.6870  -20.0730   45.3300 O   0  0  0  0  0
  -40.4670  -21.7690   46.3400 O   0  0  0  0  0
  -44.8268  -16.6701   51.3222 H   0  0  0  0  0
  -43.9327  -16.9701   49.9484 H   0  0  0  0  0
  -45.2624  -17.9112   50.2992 H   0  0  0  0  0
  -44.2378  -18.7919   52.2206 H   0  0  0  0  0
  -43.0229  -16.0468   51.3289 H   0  0  0  0  0
  -43.9232  -19.8084   49.9621 H   0  0  0  0  0
  -42.5991  -20.1643   51.1901 H   0  0  0  0  0
  -41.0863  -18.8131   50.0642 H   0  0  0  0  0
  -42.3800  -18.0825   49.0338 H   0  0  0  0  0
  -42.6091  -20.0872   47.7619 H   0  0  0  0  0
  -41.6375  -21.0262   48.9218 H   0  0  0  0  0
  -39.6583  -20.1652   48.1963 H   0  0  0  0  0
  -40.4494  -18.6113   47.6107 H   0  0  0  0  0
  -39.1649  -20.4278   44.5791 H   0  0  0  0  0
  -41.5324  -20.4359   44.4548 H   0  0  0  0  0
  -40.4412  -22.1869   45.4761 H   0  0  0  0  0
  1  2  1  0  0  0
  2  3  1  0  0  0
  2  6  1  0  0  0
  3  4  1  0  0  0
  3  5  2  0  0  0
  6  7  1  0  0  0
  7  8  1  0  0  0
  8  9  1  0  0  0
  9 10  1  0  0  0
 10 11  1  0  0  0
 10 12  1  0  0  0
 13 10  1  0  0  0
  1 14  1  0  0  0
  1 15  1  0  0  0
  1 16  1  0  0  0
  2 17  1  0  0  0
  4 18  1  0  0  0
  6 19  1  0  0  0
  6 20  1  0  0  0
  7 21  1  0  0  0
  7 22  1  0  0  0
  8 23  1  0  0  0
  8 24  1  0  0  0
  9 25  1  0  0  0
  9 26  1  0  0  0
 11 27  1  0  0  0
 12 28  1  0  0  0
 13 29  1  0  0  0
M  END
$$$$
