3i02_ligand
  -I-interpret- 

 63 64  0  0  0  0  0  0  0  0999 V2000
   49.4920   24.8080   53.7240 C   0  0  0  0  0
   50.2600   23.8260   53.7920 O   0  0  0  0  0
   48.9410   25.2080   52.6750 O   0  0  0  0  0
   49.0700   25.4790   55.0510 C   0  0  0  0  0
   47.5940   25.1120   55.2190 C   0  0  0  0  0
   47.0450   25.5540   56.5690 C   0  0  0  0  0
   47.9180   24.9970   57.6830 C   0  0  0  0  0
   47.8720   23.5720   57.6200 O   0  0  0  0  0
   49.3620   25.4980   57.5080 C   0  0  0  0  0
   49.8060   25.0130   56.2000 O   0  0  0  0  0
   50.4580   25.2460   58.5610 C   0  0  0  0  0
   49.9980   25.6280   59.8620 O   0  0  0  0  0
   51.7280   26.0420   58.2280 C   0  0  0  0  0
   52.2490   25.6970   56.9420 O   0  0  0  0  0
   49.2880   26.9200   55.1510 O   0  0  0  0  0
   49.1370   27.8980   54.2170 C   0  0  0  0  0
   48.7470   27.7460   52.8990 C   0  0  0  0  0
   48.6610   28.8980   52.1220 C   0  0  0  0  0
   45.0700   25.1680   59.0510 C   0  0  0  0  0
   45.4760   24.0110   59.2940 O   0  0  0  0  0
   44.8810   26.0690   59.9020 O   0  0  0  0  0
   44.6870   25.4990   57.6050 C   0  0  0  0  0
   45.6620   25.1500   56.6120 O   0  0  0  0  0
   43.4100   24.7180   57.2810 C   0  0  0  0  0
   42.9090   25.0950   55.9040 C   0  0  0  0  0
   42.7640   26.6250   55.8370 C   0  0  0  0  0
   41.7690   27.0710   56.7600 O   0  0  0  0  0
   44.1060   27.2900   56.1440 C   0  0  0  0  0
   44.5370   26.9100   57.4760 O   0  0  0  0  0
   43.9530   28.8090   56.1050 C   0  0  0  0  0
   43.6130   29.2080   54.7720 O   0  0  0  0  0
   45.2460   29.5190   56.5250 C   0  0  0  0  0
   46.3320   29.1700   55.6630 O   0  0  0  0  0
   48.3991   25.9755   52.8721 H   0  0  0  0  0
   47.5032   24.0278   55.1531 H   0  0  0  0  0
   47.0263   25.6184   54.4384 H   0  0  0  0  0
   47.0738   26.6342   56.7122 H   0  0  0  0  0
   47.5552   25.3317   58.6548 H   0  0  0  0  0
   46.9652   23.2770   57.7309 H   0  0  0  0  0
   49.2621   26.5760   57.6344 H   0  0  0  0  0
   50.6887   24.1807   58.5517 H   0  0  0  0  0
   50.6912   25.4651   60.5059 H   0  0  0  0  0
   52.4844   25.8096   58.9777 H   0  0  0  0  0
   51.4760   27.1025   58.2223 H   0  0  0  0  0
   53.0399   26.2131   56.7694 H   0  0  0  0  0
   49.3472   28.9161   54.5447 H   0  0  0  0  0
   48.5163   26.7643   52.4853 H   0  0  0  0  0
   47.9338   29.5793   52.5638 H   0  0  0  0  0
   49.6369   29.3819   52.0826 H   0  0  0  0  0
   48.3451   28.6316   51.1133 H   0  0  0  0  0
   44.5689   26.8630   59.4618 H   0  0  0  0  0
   42.6452   24.9585   58.0194 H   0  0  0  0  0
   43.6269   23.6501   57.3040 H   0  0  0  0  0
   41.9448   24.6221   55.7173 H   0  0  0  0  0
   43.6150   24.7554   55.1461 H   0  0  0  0  0
   42.4526   26.9047   54.8306 H   0  0  0  0  0
   41.6900   28.0263   56.7068 H   0  0  0  0  0
   44.8369   26.9704   55.4012 H   0  0  0  0  0
   43.1681   29.0905   56.8070 H   0  0  0  0  0
   43.5152   30.1625   54.7400 H   0  0  0  0  0
   45.4963   29.2130   57.5408 H   0  0  0  0  0
   45.0866   30.5956   56.4649 H   0  0  0  0  0
   47.1259   29.6278   55.9489 H   0  0  0  0  0
  1  2  2  0  0  0
  1  3  1  0  0  0
  4  1  1  0  0  0
  5  4  1  0  0  0
  4 10  1  0  0  0
  4 15  1  0  0  0
  6  5  1  0  0  0
  6  7  1  0  0  0
 23  6  1  0  0  0
  7  8  1  0  0  0
  7  9  1  0  0  0
  9 10  1  0  0  0
  9 11  1  0  0  0
 11 12  1  0  0  0
 11 13  1  0  0  0
 13 14  1  0  0  0
 15 16  1  0  0  0
 16 17  2  0  0  0
 17 18  1  0  0  0
 19 20  2  0  0  0
 19 21  1  0  0  0
 22 19  1  0  0  0
 22 23  1  0  0  0
 22 24  1  0  0  0
 22 29  1  0  0  0
 24 25  1  0  0  0
 25 26  1  0  0  0
 26 27  1  0  0  0
 26 28  1  0  0  0
 28 29  1  0  0  0
 28 30  1  0  0  0
 30 31  1  0  0  0
 30 32  1  0  0  0
 32 33  1  0  0  0
  3 34  1  0  0  0
  5 35  1  0  0  0
  5 36  1  0  0  0
  6 37  1  0  0  0
  7 38  1  0  0  0
  8 39  1  0  0  0
  9 40  1  0  0  0
 11 41  1  0  0  0
 12 42  1  0  0  0
 13 43  1  0  0  0
 13 44  1  0  0  0
 14 45  1  0  0  0
 16 46  1  0  0  0
 17 47  1  0  0  0
 18 48  1  0  0  0
 18 49  1  0  0  0
 18 50  1  0  0  0
 21 51  1  0  0  0
 24 52  1  0  0  0
 24 53  1  0  0  0
 25 54  1  0  0  0
 25 55  1  0  0  0
 26 56  1  0  0  0
 27 57  1  0  0  0
 28 58  1  0  0  0
 30 59  1  0  0  0
 31 60  1  0  0  0
 32 61  1  0  0  0
 32 62  1  0  0  0
 33 63  1  0  0  0
M  END
$$$$
