1b7h_ligand
  -I-interpret- 

 67 66  0  0  0  0  0  0  0  0999 V2000
   42.7730   31.7660   22.9020 N   0  3  0  0  0
   42.7770   33.2290   22.5870 C   0  0  0  0  0
   41.9100   33.9400   23.6270 C   0  0  0  0  0
   40.9170   33.4330   24.1420 O   0  0  0  0  0
   42.3440   33.6180   21.1640 C   0  0  0  0  0
   40.9400   33.0310   20.8140 C   0  0  0  0  0
   40.6820   33.3430   19.2990 C   0  0  0  0  0
   41.2380   32.4520   18.2270 C   0  0  0  0  0
   40.9720   30.9770   18.4640 N   0  3  0  0  0
   42.3690   35.1730   23.9330 N   0  0  0  0  0
   41.7540   35.9690   24.9810 C   0  0  0  0  0
   40.4550   36.6270   24.4590 C   0  0  0  0  0
   40.4400   37.2050   23.3740 O   0  0  0  0  0
   42.7440   37.0080   25.4310 C   0  0  0  0  0
   43.8880   36.5610   26.3560 C   0  0  0  0  0
   44.5690   37.8580   26.8770 C   0  0  0  0  0
   45.1370   37.7110   28.3010 C   0  0  0  0  0
   39.4190   36.5760   25.2760 N   0  0  0  0  0
   38.1820   37.1940   24.8790 C   0  0  0  0  0
   37.8460   38.2870   25.9130 C   0  0  0  0  0
   37.0810   39.1960   25.5310 O   0  0  0  0  0
   37.0060   36.2150   24.8230 C   0  0  0  0  0
   35.8830   36.9050   23.9690 C   0  0  0  0  0
   34.6810   36.0250   23.8880 C   0  0  0  0  0
   33.4990   36.7010   23.1660 C   0  0  0  0  0
   33.7350   36.5710   21.6860 N   0  3  0  0  0
   38.3900   38.1890   27.0480 O   0  0  0  0  0
   43.0753   31.6262   23.8661 H   0  0  0  0  0
   41.8298   31.3964   22.7832 H   0  0  0  0  0
   43.4112   31.2817   22.2706 H   0  0  0  0  0
   43.8188   33.5468   22.6299 H   0  0  0  0  0
   43.0721   33.2166   20.4591 H   0  0  0  0  0
   42.2890   34.7050   21.1043 H   0  0  0  0  0
   40.1667   33.4784   21.4385 H   0  0  0  0  0
   40.9125   31.9570   20.9982 H   0  0  0  0  0
   41.1793   34.2991   19.1354 H   0  0  0  0  0
   39.6016   33.2510   19.1882 H   0  0  0  0  0
   42.3190   32.5911   18.2147 H   0  0  0  0  0
   40.7519   32.7252   17.2904 H   0  0  0  0  0
   41.3754   30.4331   17.7012 H   0  0  0  0  0
   41.3970   30.6937   19.3469 H   0  0  0  0  0
   39.9655   30.8162   18.5027 H   0  0  0  0  0
   43.1633   35.5527   23.4179 H   0  0  0  0  0
   41.4847   35.3364   25.8268 H   0  0  0  0  0
   42.1657   37.7263   26.0122 H   0  0  0  0  0
   43.2288   37.3596   24.5202 H   0  0  0  0  0
   44.6010   35.9350   25.8195 H   0  0  0  0  0
   43.5086   35.9609   27.1830 H   0  0  0  0  0
   43.8129   38.6427   26.9011 H   0  0  0  0  0
   45.4005   38.0866   26.2104 H   0  0  0  0  0
   44.3292   37.4618   28.9891 H   0  0  0  0  0
   45.8839   36.9172   28.3127 H   0  0  0  0  0
   45.5985   38.6504   28.6055 H   0  0  0  0  0
   39.4948   36.1044   26.1772 H   0  0  0  0  0
   38.3213   37.5916   23.8737 H   0  0  0  0  0
   36.6448   35.9847   25.8253 H   0  0  0  0  0
   37.3094   35.2695   24.3735 H   0  0  0  0  0
   36.2609   37.0852   22.9626 H   0  0  0  0  0
   35.6039   37.8466   24.4418 H   0  0  0  0  0
   34.3650   35.7944   24.9054 H   0  0  0  0  0
   34.9548   35.1346   23.3221 H   0  0  0  0  0
   33.4312   37.7514   23.4492 H   0  0  0  0  0
   32.5599   36.2229   23.4445 H   0  0  0  0  0
   32.9661   37.0109   21.1804 H   0  0  0  0  0
   34.6118   37.0310   21.4410 H   0  0  0  0  0
   33.7866   35.5833   21.4366 H   0  0  0  0  0
   38.9291   37.3951   27.0758 H   0  0  0  0  0
  3  2  1  0  0  0
  2  5  1  0  0  0
  2  1  1  0  0  0
  5  6  1  0  0  0
  6  7  1  0  0  0
  7  8  1  0  0  0
  8  9  1  0  0  0
  3  4  2  0  0  0
 11 10  1  0  0  0
 11 14  1  0  0  0
 12 11  1  0  0  0
 12 13  2  0  0  0
 14 15  1  0  0  0
 15 16  1  0  0  0
 16 17  1  0  0  0
 19 20  1  0  0  0
 19 22  1  0  0  0
 18 19  1  0  0  0
 22 23  1  0  0  0
 23 24  1  0  0  0
 24 25  1  0  0  0
 25 26  1  0  0  0
 20 27  1  0  0  0
 20 21  2  0  0  0
 10  3  1  0  0  0
 12 18  1  0  0  0
  1 28  1  0  0  0
  1 29  1  0  0  0
  1 30  1  0  0  0
  2 31  1  0  0  0
  5 32  1  0  0  0
  5 33  1  0  0  0
  6 34  1  0  0  0
  6 35  1  0  0  0
  7 36  1  0  0  0
  7 37  1  0  0  0
  8 38  1  0  0  0
  8 39  1  0  0  0
  9 40  1  0  0  0
  9 41  1  0  0  0
  9 42  1  0  0  0
 10 43  1  0  0  0
 11 44  1  0  0  0
 14 45  1  0  0  0
 14 46  1  0  0  0
 15 47  1  0  0  0
 15 48  1  0  0  0
 16 49  1  0  0  0
 16 50  1  0  0  0
 17 51  1  0  0  0
 17 52  1  0  0  0
 17 53  1  0  0  0
 18 54  1  0  0  0
 19 55  1  0  0  0
 22 56  1  0  0  0
 22 57  1  0  0  0
 23 58  1  0  0  0
 23 59  1  0  0  0
 24 60  1  0  0  0
 24 61  1  0  0  0
 25 62  1  0  0  0
 25 63  1  0  0  0
 26 64  1  0  0  0
 26 65  1  0  0  0
 26 66  1  0  0  0
 27 67  1  0  0  0
M  END
$$$$
