2vur_ligand
  -I-interpret- 

 36 36  0  0  0  0  0  0  0  0999 V2000
   64.4780   72.2000   14.1780 O   0  0  0  0  0
   63.1810   71.7080   14.6110 C   0  0  0  0  0
   63.2060   70.1630   14.5620 C   0  0  0  0  0
   63.4520   69.7150   13.2110 O   0  0  0  0  0
   61.8880   69.5760   15.1260 C   0  0  0  0  0
   61.6900   68.0340   15.0720 C   0  0  0  0  0
   62.7540   67.4420   15.8330 O   0  0  0  0  0
   61.8350   69.9590   16.5350 O   0  0  0  0  0
   61.7380   71.4240   16.7480 C   0  0  0  0  0
   61.7680   71.6410   18.1640 O   0  0  0  0  0
   62.9170   72.1900   16.0550 C   0  0  0  0  0
   62.7650   73.6660   16.1210 N   0  0  0  0  0
   61.7010   74.3560   15.6960 C   0  0  0  0  0
   60.7240   73.7830   15.2060 O   0  0  0  0  0
   61.7730   75.7040   15.8670 N   0  0  0  0  0
   60.6570   76.5470   15.4510 C   0  0  0  0  0
   62.8800   76.2690   16.4360 N   0  3  0  0  0
   63.1670   77.4870   15.7840 O   0  0  0  0  0
   64.6481   71.9037   13.2808 H   0  0  0  0  0
   62.3893   72.0823   13.9619 H   0  0  0  0  0
   64.0189   69.8010   15.1915 H   0  0  0  0  0
   64.2738   70.0962   12.8933 H   0  0  0  0  0
   61.1048   69.9751   14.4815 H   0  0  0  0  0
   61.7125   67.6801   14.0413 H   0  0  0  0  0
   60.7210   67.7568   15.4872 H   0  0  0  0  0
   62.6617   66.4865   15.8204 H   0  0  0  0  0
   60.8175   71.8053   16.3060 H   0  0  0  0  0
   61.7071   72.5821   18.3437 H   0  0  0  0  0
   63.8042   71.9394   16.6365 H   0  0  0  0  0
   63.5364   74.1978   16.5241 H   0  0  0  0  0
   60.4882   76.4224   14.3814 H   0  0  0  0  0
   59.7601   76.2562   15.9979 H   0  0  0  0  0
   60.8919   77.5898   15.6640 H   0  0  0  0  0
   63.6739   75.6355   16.3424 H   0  0  0  0  0
   62.7047   76.4437   17.4255 H   0  0  0  0  0
   63.9443   77.8861   16.1817 H   0  0  0  0  0
  1  2  1  0  0  0
  2  3  1  0  0  0
  2 11  1  0  0  0
  3  4  1  0  0  0
  3  5  1  0  0  0
  5  6  1  0  0  0
  5  8  1  0  0  0
  6  7  1  0  0  0
  8  9  1  0  0  0
  9 10  1  0  0  0
  9 11  1  0  0  0
 11 12  1  0  0  0
 12 13  1  0  0  0
 13 14  2  0  0  0
 13 15  1  0  0  0
 15 16  1  0  0  0
 15 17  1  0  0  0
 17 18  1  0  0  0
  1 19  1  0  0  0
  2 20  1  0  0  0
  3 21  1  0  0  0
  4 22  1  0  0  0
  5 23  1  0  0  0
  6 24  1  0  0  0
  6 25  1  0  0  0
  7 26  1  0  0  0
  9 27  1  0  0  0
 10 28  1  0  0  0
 11 29  1  0  0  0
 12 30  1  0  0  0
 16 31  1  0  0  0
 16 32  1  0  0  0
 16 33  1  0  0  0
 17 34  1  0  0  0
 17 35  1  0  0  0
 18 36  1  0  0  0
M  END
$$$$
