### 
### Created by X-TOOL on Mon Sep 10 21:12:56 2018
### 

@<TRIPOS>MOLECULE
2joa_ligand
  133   136     1     0     0
SMALL
GAST_HUCK


@<TRIPOS>ATOM
      1 N           0.1080   -4.0340   -2.1130 N.4       1 ASP         0.2391
      2 CA         -0.4550   -2.6770   -1.8940 C.3       1 ASP         0.0764
      3 C          -1.3780   -2.2720   -3.0380 C.2       1 ASP         0.2285
      4 O          -1.3820   -2.8980   -4.0980 O.2       1 ASP        -0.3906
      5 CB          0.7040   -1.6840   -1.7690 C.3       1 ASP         0.0607
      6 CG          0.7580   -1.0260   -0.4050 C.2       1 ASP         0.0425
      7 OD1        -0.0300   -0.0860   -0.1680 O.co2     1 ASP        -0.5686
      8 OD2         1.5870   -1.4500    0.4270 O.co2     1 ASP        -0.5686
      9 N          -2.1600   -1.2190   -2.8170 N.am      1 SER        -0.2588
     10 CA         -3.0870   -0.7290   -3.8300 C.3       1 SER         0.1540
     11 C          -2.3680    0.1550   -4.8430 C.2       1 SER         0.2062
     12 O          -2.1160   -0.2590   -5.9750 O.2       1 SER        -0.3943
     13 CB         -4.2260    0.0520   -3.1710 C.3       1 SER         0.0843
     14 OG         -3.8250    0.5810   -1.9180 O.3       1 SER        -0.3903
     15 N          -2.0380    1.3740   -4.4300 N.am      1 ARG        -0.2637
     16 CA         -1.3470    2.3160   -5.3040 C.3       1 ARG         0.1311
     17 C          -2.1830    2.6180   -6.5450 C.2       1 ARG         0.2039
     18 O          -1.8500    2.1870   -7.6500 O.2       1 ARG        -0.3944
     19 CB          0.0160    1.7550   -5.7140 C.3       1 ARG        -0.0092
     20 CG          1.1380    2.1150   -4.7540 C.3       1 ARG        -0.0156
     21 CD          2.4970    1.7450   -5.3250 C.3       1 ARG         0.0627
     22 NE          3.1120    2.8590   -6.0440 N.pl3     1 ARG        -0.2723
     23 CZ          3.7700    3.8530   -5.4500 C.cat     1 ARG         0.2882
     24 NH1         3.8950    3.8800   -4.1290 N.pl3     1 ARG        -0.2849
     25 NH2         4.3030    4.8230   -6.1800 N.pl3     1 ARG        -0.2849
     26 N          -3.2680    3.3610   -6.3550 N.am      1 ILE        -0.2635
     27 CA         -4.1500    3.7210   -7.4600 C.3       1 ILE         0.1335
     28 C          -3.6440    4.9630   -8.1840 C.2       1 ILE         0.2042
     29 O          -3.2680    5.9510   -7.5550 O.2       1 ILE        -0.3944
     30 CB         -5.5890    3.9740   -6.9760 C.3       1 ILE        -0.0037
     31 CG1        -5.5910    4.9550   -5.8020 C.3       1 ILE        -0.0491
     32 CG2        -6.2540    2.6640   -6.5820 C.3       1 ILE        -0.0582
     33 CD1        -6.9090    5.6770   -5.6210 C.3       1 ILE        -0.0648
     34 N          -3.6390    4.9050   -9.5120 N.am      1 TRP        -0.2627
     35 CA         -3.1810    6.0260  -10.3250 C.3       1 TRP         0.1352
     36 C          -4.3070    6.5550  -11.2060 C.2       1 TRP         0.2052
     37 O          -4.5020    6.0880  -12.3290 O.2       1 TRP        -0.3942
     38 CB         -1.9960    5.6010  -11.1930 C.3       1 TRP         0.0042
     39 CG         -0.7190    5.4470  -10.4240 C.2       1 TRP        -0.0418
     40 CD1        -0.5390    4.7480   -9.2640 C.2       1 TRP         0.0167
     41 CD2         0.5550    6.0070  -10.7580 C.ar      1 TRP        -0.0214
     42 NE1         0.7710    4.8370   -8.8580 N.pl3     1 TRP        -0.2890
     43 CE2         1.4630    5.6040   -9.7580 C.ar      1 TRP         0.0603
     44 CE3         1.0200    6.8050  -11.8060 C.ar      1 TRP        -0.0747
     45 CZ2         2.8050    5.9760   -9.7790 C.ar      1 TRP        -0.0443
     46 CZ3         2.3510    7.1750  -11.8240 C.ar      1 TRP        -0.0792
     47 CH2         3.2300    6.7590  -10.8160 C.ar      1 TRP        -0.0768
     48 N          -5.0470    7.5320  -10.6910 N.am      1 TRP        -0.2626
     49 CA         -6.1550    8.1240  -11.4310 C.3       1 TRP         0.1351
     50 C          -5.6440    8.9680  -12.5940 C.2       1 TRP         0.2046
     51 O          -5.7020   10.1980  -12.5550 O.2       1 TRP        -0.3943
     52 CB         -7.0160    8.9820  -10.5010 C.3       1 TRP         0.0042
     53 CG         -8.4340    9.1320  -10.9660 C.2       1 TRP        -0.0418
     54 CD1        -9.0150    8.5250  -12.0420 C.2       1 TRP         0.0167
     55 CD2        -9.4490    9.9450  -10.3670 C.ar      1 TRP        -0.0214
     56 NE1       -10.3300    8.9120  -12.1490 N.pl3     1 TRP        -0.2890
     57 CE2       -10.6200    9.7830  -11.1310 C.ar      1 TRP         0.0603
     58 CE3        -9.4810   10.7950   -9.2580 C.ar      1 TRP        -0.0747
     59 CZ2       -11.8080   10.4380  -10.8210 C.ar      1 TRP        -0.0443
     60 CZ3       -10.6610   11.4440   -8.9500 C.ar      1 TRP        -0.0792
     61 CH2       -11.8110   11.2640   -9.7290 C.ar      1 TRP        -0.0768
     62 N          -5.1440    8.3020  -13.6290 N.am      1 VAL        -0.2691
     63 CA         -4.6250    8.9920  -14.8020 C.3       1 VAL         0.0967
     64 C          -5.6490    9.0010  -15.9320 C.2       1 VAL         0.0603
     65 O          -5.4360    9.7400  -16.9170 O.co2     1 VAL        -0.5666
     66 CB         -3.3240    8.3430  -15.3100 C.3       1 VAL        -0.0118
     67 CG1        -2.6900    9.1950  -16.3980 C.3       1 VAL        -0.0590
     68 CG2        -2.3520    8.1250  -14.1590 C.3       1 VAL        -0.0590
     69 OXT        -6.6560    8.2700  -15.8230 O.co2     1 VAL        -0.5666
     70 H1          0.7127   -4.2751   -1.3434 H         1 ASP         0.2016
     71 H2          0.6363   -4.0441   -2.9714 H         1 ASP         0.2016
     72 H3         -0.6429   -4.7037   -2.1727 H         1 ASP         0.2016
     73 H4         -1.0336   -2.6762   -0.9585 H         1 ASP         0.1117
     74 H5          0.5832   -0.9023   -2.5334 H         1 ASP         0.0512
     75 H6          1.6488   -2.2208   -1.9396 H         1 ASP         0.0512
     76 H7         -2.1109   -0.7519   -1.9342 H         1 SER         0.1885
     77 H8         -3.5132   -1.5934   -4.3602 H         1 SER         0.0823
     78 H9         -5.0823   -0.6215   -3.0190 H         1 SER         0.0606
     79 H10        -4.5232    0.8797   -3.8317 H         1 SER         0.0606
     80 H11        -4.5488    1.0599   -1.5314 H         1 SER         0.2097
     81 H12        -2.2688    1.6525   -3.4977 H         1 ARG         0.1883
     82 H13        -1.1897    3.2540   -4.7514 H         1 ARG         0.0800
     83 H14         0.2696    2.1505   -6.7086 H         1 ARG         0.0313
     84 H15        -0.0602    0.6588   -5.7638 H         1 ARG         0.0313
     85 H16         0.9876    1.5732   -3.8086 H         1 ARG         0.0301
     86 H17         1.1126    3.1982   -4.5640 H         1 ARG         0.0301
     87 H18         2.3725    0.9005   -6.0187 H         1 ARG         0.0689
     88 H19         3.1596    1.4466   -4.4992 H         1 ARG         0.0689
     89 H20         3.0318    2.8764   -7.0707 H         1 ARG         0.2642
     90 H21         4.4051    4.6515   -3.6756 H         1 ARG         0.2615
     91 H22         3.4819    3.1295   -3.5572 H         1 ARG         0.2615
     92 H23         4.2089    4.8068   -7.2056 H         1 ARG         0.2615
     93 H24         4.8112    5.5927   -5.7215 H         1 ARG         0.2615
     94 H25        -3.4852    3.6810   -5.4328 H         1 ILE         0.1883
     95 H26        -4.1643    2.8824   -8.1718 H         1 ILE         0.0803
     96 H27        -6.1617    4.4197   -7.8026 H         1 ILE         0.0345
     97 H28        -4.8041    5.7044   -5.9730 H         1 ILE         0.0267
     98 H29        -5.3709    4.3959   -4.8806 H         1 ILE         0.0267
     99 H30        -6.2418    1.9744   -7.4389 H         1 ILE         0.0235
    100 H31        -7.2944    2.8568   -6.2813 H         1 ILE         0.0235
    101 H32        -5.7067    2.2134   -5.7409 H         1 ILE         0.0235
    102 H33        -6.8371    6.3619   -4.7633 H         1 ILE         0.0230
    103 H34        -7.7072    4.9427   -5.4378 H         1 ILE         0.0230
    104 H35        -7.1405    6.2512   -6.5303 H         1 ILE         0.0230
    105 H36        -3.9571    4.0721   -9.9649 H         1 TRP         0.1884
    106 H37        -2.8538    6.8332   -9.6532 H         1 TRP         0.0815
    107 H38        -1.8439    6.3624  -11.9722 H         1 TRP         0.0397
    108 H39        -2.2373    4.6369  -11.6645 H         1 TRP         0.0397
    109 H40        -1.3195    4.2003   -8.7379 H         1 TRP         0.0795
    110 H41         1.1678    4.3986   -8.0147 H         1 TRP         0.2216
    111 H42         0.3476    7.1286  -12.5922 H         1 TRP         0.0540
    112 H43         3.4883    5.6560   -9.0007 H         1 TRP         0.0541
    113 H44         2.7209    7.7971  -12.6310 H         1 TRP         0.0510
    114 H45         4.2692    7.0643  -10.8590 H         1 TRP         0.0530
    115 H46        -4.8384    7.8693   -9.7730 H         1 TRP         0.1884
    116 H47        -6.7767    7.3118  -11.8357 H         1 TRP         0.0815
    117 H48        -6.5643    9.9827  -10.4334 H         1 TRP         0.0397
    118 H49        -7.0240    8.5152   -9.5050 H         1 TRP         0.0397
    119 H50        -8.5106    7.8351  -12.7169 H         1 TRP         0.0795
    120 H51       -10.9895    8.5986  -12.8755 H         1 TRP         0.2216
    121 H52        -8.5956   10.9424   -8.6503 H         1 TRP         0.0540
    122 H53       -12.6991   10.2993  -11.4225 H         1 TRP         0.0541
    123 H54       -10.6975   12.1038   -8.0907 H         1 TRP         0.0510
    124 H55       -12.7212   11.7889   -9.4622 H         1 TRP         0.0530
    125 H56        -5.1235    7.3026  -13.6021 H         1 VAL         0.1875
    126 H57        -4.4079   10.0322  -14.5177 H         1 VAL         0.0729
    127 H58        -3.5728    7.3623  -15.7416 H         1 VAL         0.0336
    128 H59        -1.7638    8.7148  -16.7466 H         1 VAL         0.0234
    129 H60        -2.4570   10.1914  -15.9944 H         1 VAL         0.0234
    130 H61        -3.3905    9.2952  -17.2402 H         1 VAL         0.0234
    131 H62        -2.8320    7.5072  -13.3857 H         1 VAL         0.0234
    132 H63        -2.0694    9.0970  -13.7285 H         1 VAL         0.0234
    133 H64        -1.4522    7.6131  -14.5309 H         1 VAL         0.0234
@<TRIPOS>BOND
     1    1    2 1  
     2    2    3 1  
     3    2    5 1  
     4    3    4 2  
     5    3    9 am 
     6    5    6 1  
     7    6    7 ar 
     8    6    8 ar 
     9    9   10 1  
    10   10   11 1  
    11   10   13 1  
    12   11   12 2  
    13   11   15 am 
    14   13   14 1  
    15   15   16 1  
    16   16   17 1  
    17   16   19 1  
    18   17   18 2  
    19   17   26 am 
    20   19   20 1  
    21   20   21 1  
    22   21   22 1  
    23   22   23 ar 
    24   23   24 ar 
    25   23   25 ar 
    26   26   27 1  
    27   27   28 1  
    28   27   30 1  
    29   28   29 2  
    30   28   34 am 
    31   30   31 1  
    32   30   32 1  
    33   31   33 1  
    34   34   35 1  
    35   35   36 1  
    36   35   38 1  
    37   36   37 2  
    38   36   48 am 
    39   38   39 1  
    40   39   40 2  
    41   39   41 1  
    42   40   42 1  
    43   41   43 ar 
    44   41   44 ar 
    45   42   43 1  
    46   43   45 ar 
    47   44   46 ar 
    48   45   47 ar 
    49   46   47 ar 
    50   48   49 1  
    51   49   50 1  
    52   49   52 1  
    53   50   51 2  
    54   50   62 am 
    55   52   53 1  
    56   53   54 2  
    57   53   55 1  
    58   54   56 1  
    59   55   57 ar 
    60   55   58 ar 
    61   56   57 1  
    62   57   59 ar 
    63   58   60 ar 
    64   59   61 ar 
    65   60   61 ar 
    66   62   63 1  
    67   63   64 1  
    68   63   66 1  
    69   64   65 ar 
    70   64   69 ar 
    71   66   67 1  
    72   66   68 1  
    73    1   70 1  
    74    1   71 1  
    75    1   72 1  
    76    2   73 1  
    77    5   74 1  
    78    5   75 1  
    79    9   76 1  
    80   10   77 1  
    81   13   78 1  
    82   13   79 1  
    83   14   80 1  
    84   15   81 1  
    85   16   82 1  
    86   19   83 1  
    87   19   84 1  
    88   20   85 1  
    89   20   86 1  
    90   21   87 1  
    91   21   88 1  
    92   22   89 1  
    93   24   90 1  
    94   24   91 1  
    95   25   92 1  
    96   25   93 1  
    97   26   94 1  
    98   27   95 1  
    99   30   96 1  
   100   31   97 1  
   101   31   98 1  
   102   32   99 1  
   103   32  100 1  
   104   32  101 1  
   105   33  102 1  
   106   33  103 1  
   107   33  104 1  
   108   34  105 1  
   109   35  106 1  
   110   38  107 1  
   111   38  108 1  
   112   40  109 1  
   113   42  110 1  
   114   44  111 1  
   115   45  112 1  
   116   46  113 1  
   117   47  114 1  
   118   48  115 1  
   119   49  116 1  
   120   52  117 1  
   121   52  118 1  
   122   54  119 1  
   123   56  120 1  
   124   58  121 1  
   125   59  122 1  
   126   60  123 1  
   127   61  124 1  
   128   62  125 1  
   129   63  126 1  
   130   66  127 1  
   131   67  128 1  
   132   67  129 1  
   133   67  130 1  
   134   68  131 1  
   135   68  132 1  
   136   68  133 1  
@<TRIPOS>SUBSTRUCTURE
     1 ASP         1

