2joa_ligand
  -I-interpret- 

132135  0  0  0  0  0  0  0  0999 V2000
    0.1080   -4.0340   -2.1130 N   0  3  0  0  0
   -0.4550   -2.6770   -1.8940 C   0  0  0  0  0
   -1.3780   -2.2720   -3.0380 C   0  0  0  0  0
   -1.3820   -2.8980   -4.0980 O   0  0  0  0  0
    0.7040   -1.6840   -1.7690 C   0  0  0  0  0
    0.7580   -1.0260   -0.4050 C   0  0  0  0  0
   -0.0300   -0.0860   -0.1680 O   0  0  0  0  0
    1.5870   -1.4500    0.4270 O   0  0  0  0  0
   -2.1600   -1.2190   -2.8170 N   0  0  0  0  0
   -3.0870   -0.7290   -3.8300 C   0  0  0  0  0
   -2.3680    0.1550   -4.8430 C   0  0  0  0  0
   -2.1160   -0.2590   -5.9750 O   0  0  0  0  0
   -4.2260    0.0520   -3.1710 C   0  0  0  0  0
   -3.8250    0.5810   -1.9180 O   0  0  0  0  0
   -2.0380    1.3740   -4.4300 N   0  0  0  0  0
   -1.3470    2.3160   -5.3040 C   0  0  0  0  0
   -2.1830    2.6180   -6.5450 C   0  0  0  0  0
   -1.8500    2.1870   -7.6500 O   0  0  0  0  0
    0.0160    1.7550   -5.7140 C   0  0  0  0  0
    1.1380    2.1150   -4.7540 C   0  0  0  0  0
    2.4970    1.7450   -5.3250 C   0  0  0  0  0
    3.1120    2.8590   -6.0440 N   0  0  0  0  0
    3.7700    3.8530   -5.4500 C   0  0  0  0  0
    3.8950    3.8800   -4.1290 N   0  0  0  0  0
    4.3030    4.8230   -6.1800 N   0  0  0  0  0
   -3.2680    3.3610   -6.3550 N   0  0  0  0  0
   -4.1500    3.7210   -7.4600 C   0  0  0  0  0
   -3.6440    4.9630   -8.1840 C   0  0  0  0  0
   -3.2680    5.9510   -7.5550 O   0  0  0  0  0
   -5.5890    3.9740   -6.9760 C   0  0  0  0  0
   -5.5910    4.9550   -5.8020 C   0  0  0  0  0
   -6.2540    2.6640   -6.5820 C   0  0  0  0  0
   -6.9090    5.6770   -5.6210 C   0  0  0  0  0
   -3.6390    4.9050   -9.5120 N   0  0  0  0  0
   -3.1810    6.0260  -10.3250 C   0  0  0  0  0
   -4.3070    6.5550  -11.2060 C   0  0  0  0  0
   -4.5020    6.0880  -12.3290 O   0  0  0  0  0
   -1.9960    5.6010  -11.1930 C   0  0  0  0  0
   -0.7190    5.4470  -10.4240 C   0  0  0  0  0
   -0.5390    4.7480   -9.2640 C   0  0  0  0  0
    0.5550    6.0070  -10.7580 C   0  0  0  0  0
    0.7710    4.8370   -8.8580 N   0  0  0  0  0
    1.4630    5.6040   -9.7580 C   0  0  0  0  0
    1.0200    6.8050  -11.8060 C   0  0  0  0  0
    2.8050    5.9760   -9.7790 C   0  0  0  0  0
    2.3510    7.1750  -11.8240 C   0  0  0  0  0
    3.2300    6.7590  -10.8160 C   0  0  0  0  0
   -5.0470    7.5320  -10.6910 N   0  0  0  0  0
   -6.1550    8.1240  -11.4310 C   0  0  0  0  0
   -5.6440    8.9680  -12.5940 C   0  0  0  0  0
   -5.7020   10.1980  -12.5550 O   0  0  0  0  0
   -7.0160    8.9820  -10.5010 C   0  0  0  0  0
   -8.4340    9.1320  -10.9660 C   0  0  0  0  0
   -9.0150    8.5250  -12.0420 C   0  0  0  0  0
   -9.4490    9.9450  -10.3670 C   0  0  0  0  0
  -10.3300    8.9120  -12.1490 N   0  0  0  0  0
  -10.6200    9.7830  -11.1310 C   0  0  0  0  0
   -9.4810   10.7950   -9.2580 C   0  0  0  0  0
  -11.8080   10.4380  -10.8210 C   0  0  0  0  0
  -10.6610   11.4440   -8.9500 C   0  0  0  0  0
  -11.8110   11.2640   -9.7290 C   0  0  0  0  0
   -5.1440    8.3020  -13.6290 N   0  0  0  0  0
   -4.6250    8.9920  -14.8020 C   0  0  0  0  0
   -5.6490    9.0010  -15.9320 C   0  0  0  0  0
   -5.4360    9.7400  -16.9170 O   0  0  0  0  0
   -3.3240    8.3430  -15.3100 C   0  0  0  0  0
   -2.6900    9.1950  -16.3980 C   0  0  0  0  0
   -2.3520    8.1250  -14.1590 C   0  0  0  0  0
   -6.6560    8.2700  -15.8230 O   0  0  0  0  0
   -0.6536   -4.7071   -2.1983 H   0  0  0  0  0
    0.6630   -4.0365   -2.9688 H   0  0  0  0  0
    0.6999   -4.2870   -1.3218 H   0  0  0  0  0
   -1.0491   -2.6776   -0.9801 H   0  0  0  0  0
    0.5596   -0.9022   -2.5146 H   0  0  0  0  0
    1.6346   -2.2323   -1.9155 H   0  0  0  0  0
   -0.5757    0.0753   -0.9412 H   0  0  0  0  0
   -2.1099   -0.7425   -1.9165 H   0  0  0  0  0
   -3.5012   -1.5892   -4.3559 H   0  0  0  0  0
   -5.0656   -0.6245   -3.0111 H   0  0  0  0  0
   -4.5060    0.8781   -3.8246 H   0  0  0  0  0
   -4.5564    1.0649   -1.5274 H   0  0  0  0  0
   -2.2734    1.6581   -3.4791 H   0  0  0  0  0
   -1.1983    3.2453   -4.7541 H   0  0  0  0  0
    0.2667    2.1838   -6.6842 H   0  0  0  0  0
   -0.0683    0.6683   -5.7243 H   0  0  0  0  0
    0.9903    1.5622   -3.8263 H   0  0  0  0  0
    1.1157    3.1914   -4.5837 H   0  0  0  0  0
    2.3589    0.9221   -6.0263 H   0  0  0  0  0
    3.1511    1.4718   -4.4970 H   0  0  0  0  0
    3.0326    2.8762   -7.0608 H   0  0  0  0  0
    4.3992    4.6445   -3.6800 H   0  0  0  0  0
    3.4868    3.1362   -3.5628 H   0  0  0  0  0
    4.2089    4.8075   -7.1955 H   0  0  0  0  0
   -3.4895    3.6874   -5.4144 H   0  0  0  0  0
   -4.1519    2.8759   -8.1485 H   0  0  0  0  0
   -6.1590    4.4154   -7.7935 H   0  0  0  0  0
   -4.8295    5.7085   -6.0033 H   0  0  0  0  0
   -5.4048    4.3805   -4.8946 H   0  0  0  0  0
   -6.2808    1.9979   -7.4444 H   0  0  0  0  0
   -5.6854    2.1968   -5.7780 H   0  0  0  0  0
   -7.2707    2.8619   -6.2423 H   0  0  0  0  0
   -7.1372    6.2455   -6.5226 H   0  0  0  0  0
   -7.6991    4.9483   -5.4396 H   0  0  0  0  0
   -6.8365    6.3553   -4.7709 H   0  0  0  0  0
   -3.9635    4.0555   -9.9739 H   0  0  0  0  0
   -2.8641    6.8242   -9.6538 H   0  0  0  0  0
   -1.8385    6.3808  -11.9381 H   0  0  0  0  0
   -2.2376    4.6303  -11.6259 H   0  0  0  0  0
   -1.3202    4.1998   -8.7374 H   0  0  0  0  0
    0.3438    7.1304  -12.5966 H   0  0  0  0  0
    3.4921    5.6543   -8.9964 H   0  0  0  0  0
    2.7229    7.8005  -12.6355 H   0  0  0  0  0
    4.2750    7.0660  -10.8592 H   0  0  0  0  0
   -4.8343    7.8761   -9.7546 H   0  0  0  0  0
   -6.7637    7.3146  -11.8341 H   0  0  0  0  0
   -6.5740    9.9779  -10.4721 H   0  0  0  0  0
   -7.0407    8.4881   -9.5296 H   0  0  0  0  0
   -8.5102    7.8345  -12.7176 H   0  0  0  0  0
   -8.5907   10.9432   -8.6469 H   0  0  0  0  0
  -12.7040   10.2985  -11.4258 H   0  0  0  0  0
  -10.6977   12.1075   -8.0860 H   0  0  0  0  0
  -12.7262   11.7918   -9.4607 H   0  0  0  0  0
   -5.1230    7.2826  -13.6016 H   0  0  0  0  0
   -4.4141   10.0167  -14.4961 H   0  0  0  0  0
   -4.6083   10.2095  -16.7903 H   0  0  0  0  0
   -3.5683    7.3713  -15.7392 H   0  0  0  0  0
   -3.3851    9.2935  -17.2318 H   0  0  0  0  0
   -2.4596   10.1820  -15.9968 H   0  0  0  0  0
   -1.7724    8.7182  -16.7426 H   0  0  0  0  0
   -2.1138    9.0843  -13.6996 H   0  0  0  0  0
   -2.8095    7.4695  -13.4180 H   0  0  0  0  0
   -1.4391    7.6657  -14.5381 H   0  0  0  0  0
  1  2  1  0  0  0
  2  3  1  0  0  0
  2  5  1  0  0  0
  3  4  2  0  0  0
  3  9  1  0  0  0
  5  6  1  0  0  0
  6  7  1  0  0  0
  6  8  2  0  0  0
  9 10  1  0  0  0
 10 11  1  0  0  0
 10 13  1  0  0  0
 11 12  2  0  0  0
 11 15  1  0  0  0
 13 14  1  0  0  0
 15 16  1  0  0  0
 16 17  1  0  0  0
 16 19  1  0  0  0
 17 18  2  0  0  0
 17 26  1  0  0  0
 19 20  1  0  0  0
 20 21  1  0  0  0
 21 22  1  0  0  0
 22 23  1  0  0  0
 23 24  1  0  0  0
 23 25  2  0  0  0
 26 27  1  0  0  0
 27 28  1  0  0  0
 27 30  1  0  0  0
 28 29  2  0  0  0
 28 34  1  0  0  0
 30 31  1  0  0  0
 30 32  1  0  0  0
 31 33  1  0  0  0
 34 35  1  0  0  0
 35 36  1  0  0  0
 35 38  1  0  0  0
 36 37  2  0  0  0
 36 48  1  0  0  0
 38 39  1  0  0  0
 39 40  4  0  0  0
 39 41  4  0  0  0
 40 42  4  0  0  0
 41 43  4  0  0  0
 41 44  4  0  0  0
 42 43  4  0  0  0
 43 45  4  0  0  0
 44 46  4  0  0  0
 45 47  4  0  0  0
 46 47  4  0  0  0
 48 49  1  0  0  0
 49 50  1  0  0  0
 49 52  1  0  0  0
 50 51  2  0  0  0
 50 62  1  0  0  0
 52 53  1  0  0  0
 53 54  4  0  0  0
 53 55  4  0  0  0
 54 56  4  0  0  0
 55 57  4  0  0  0
 55 58  4  0  0  0
 56 57  4  0  0  0
 57 59  4  0  0  0
 58 60  4  0  0  0
 59 61  4  0  0  0
 60 61  4  0  0  0
 62 63  1  0  0  0
 63 64  1  0  0  0
 63 66  1  0  0  0
 64 65  1  0  0  0
 64 69  2  0  0  0
 66 67  1  0  0  0
 66 68  1  0  0  0
  1 70  1  0  0  0
  1 71  1  0  0  0
  1 72  1  0  0  0
  2 73  1  0  0  0
  5 74  1  0  0  0
  5 75  1  0  0  0
  7 76  1  0  0  0
  9 77  1  0  0  0
 10 78  1  0  0  0
 13 79  1  0  0  0
 13 80  1  0  0  0
 14 81  1  0  0  0
 15 82  1  0  0  0
 16 83  1  0  0  0
 19 84  1  0  0  0
 19 85  1  0  0  0
 20 86  1  0  0  0
 20 87  1  0  0  0
 21 88  1  0  0  0
 21 89  1  0  0  0
 22 90  1  0  0  0
 24 91  1  0  0  0
 24 92  1  0  0  0
 25 93  1  0  0  0
 26 94  1  0  0  0
 27 95  1  0  0  0
 30 96  1  0  0  0
 31 97  1  0  0  0
 31 98  1  0  0  0
 32 99  1  0  0  0
 32100  1  0  0  0
 32101  1  0  0  0
 33102  1  0  0  0
 33103  1  0  0  0
 33104  1  0  0  0
 34105  1  0  0  0
 35106  1  0  0  0
 38107  1  0  0  0
 38108  1  0  0  0
 40109  1  0  0  0
 44110  1  0  0  0
 45111  1  0  0  0
 46112  1  0  0  0
 47113  1  0  0  0
 48114  1  0  0  0
 49115  1  0  0  0
 52116  1  0  0  0
 52117  1  0  0  0
 54118  1  0  0  0
 58119  1  0  0  0
 59120  1  0  0  0
 60121  1  0  0  0
 61122  1  0  0  0
 62123  1  0  0  0
 63124  1  0  0  0
 65125  1  0  0  0
 66126  1  0  0  0
 67127  1  0  0  0
 67128  1  0  0  0
 67129  1  0  0  0
 68130  1  0  0  0
 68131  1  0  0  0
 68132  1  0  0  0
M  END
$$$$
