5yc4_ligand
  -I-interpret- 

168167  0  0  0  0  0  0  0  0999 V2000
   20.5070   -8.0480   17.9670 N   0  3  0  0  0
   19.5930   -7.4480   17.0030 C   0  0  0  0  0
   18.1640   -7.4490   17.5310 C   0  0  0  0  0
   17.8020   -8.2830   18.3620 O   0  0  0  0  0
   19.6650   -8.1850   15.6730 C   0  0  0  0  0
   17.3540   -6.5120   17.0490 N   0  0  0  0  0
   15.9530   -6.4580   17.4420 C   0  0  0  0  0
   15.1590   -7.5460   16.7270 C   0  0  0  0  0
   14.7330   -7.3690   15.5860 O   0  0  0  0  0
   15.3480   -5.0860   17.1400 C   0  0  0  0  0
   13.9780   -4.8910   17.7640 C   0  0  0  0  0
   13.2550   -3.6810   17.2050 C   0  0  0  0  0
   11.9670   -3.4880   17.8650 N   0  0  0  0  0
   11.0110   -2.6780   17.4240 C   0  0  0  0  0
   11.1880   -1.9830   16.3080 N   0  0  0  0  0
    9.8720   -2.5700   18.0950 N   0  0  0  0  0
   14.9660   -8.6730   17.4040 N   0  0  0  0  0
   14.2580   -9.8020   16.8160 C   0  0  0  0  0
   12.9840  -10.1260   17.5860 C   0  0  0  0  0
   12.7230   -9.5540   18.6440 O   0  0  0  0  0
   15.1410  -11.0620   16.7720 C   0  0  0  0  0
   15.3180  -11.5730   18.1000 O   0  0  0  0  0
   16.5000  -10.7410   16.1650 C   0  0  0  0  0
   12.1990  -11.0510   17.0440 N   0  0  0  0  0
   10.9990  -11.5170   17.6990 C   0  0  0  0  0
    9.8710  -10.4620   17.7350 C   0  0  0  0  0
    8.5840  -10.9080   17.0750 C   0  0  0  0  0
    8.2850  -10.0250   15.8760 C   0  0  0  0  0
    6.9860   -9.2690   16.1360 C   0  0  0  0  0
    6.3150   -8.6050   14.9500 N   0  3  0  0  0
   10.4760  -12.8290   17.1130 C   0  0  0  0  0
   10.4810  -13.0990   15.9100 O   0  0  0  0  0
    6.3890   -9.4540   13.7250 C   0  0  0  0  0
    6.9100   -7.2650   14.6660 C   0  0  0  0  0
    4.8730   -8.4160   15.2990 C   0  0  0  0  0
   10.0310  -13.6910   18.0220 N   0  0  0  0  0
    9.4170  -14.9560   17.6450 C   0  0  0  0  0
    7.9380  -14.9280   18.0070 C   0  0  0  0  0
    7.5820  -14.6820   19.1570 O   0  0  0  0  0
   10.1170  -16.1280   18.3370 C   0  0  0  0  0
    9.5610  -17.4990   17.9700 C   0  0  0  0  0
   10.0210  -17.9750   16.6050 C   0  0  0  0  0
   11.1060  -17.6210   16.1440 O   0  0  0  0  0
    9.1950  -18.7850   15.9520 N   0  0  0  0  0
    7.0770  -15.1720   17.0250 N   0  0  0  0  0
    5.6390  -15.1380   17.2640 C   0  0  0  0  0
    5.1680  -16.4310   17.9230 C   0  0  0  0  0
    5.8400  -17.4600   17.8460 O   0  0  0  0  0
    4.8500  -14.9080   15.9620 C   0  0  0  0  0
    4.9810  -16.0520   15.1080 O   0  0  0  0  0
    5.3660  -13.6720   15.2390 C   0  0  0  0  0
    4.0120  -16.3660   18.5760 N   0  0  0  0  0
    3.4660  -17.5160   19.2890 C   0  0  0  0  0
    2.8010  -18.5080   18.3430 C   0  0  0  0  0
    2.5480  -18.2010   17.1760 O   0  0  0  0  0
    2.4740  -17.0570   20.3470 C   0  0  0  0  0
    2.5230  -19.7020   18.8560 N   0  0  0  0  0
    1.7980  -20.7160   18.1030 C   0  0  0  0  0
    0.2950  -20.4740   18.2150 C   0  0  0  0  0
   -0.1410  -19.5190   18.8590 O   0  0  0  0  0
    2.1570  -22.1170   18.6020 C   0  0  0  0  0
    3.6130  -22.4970   18.3840 C   0  0  0  0  0
    3.9890  -23.7350   19.1850 C   0  0  0  0  0
    5.3760  -24.1350   18.9580 N   0  0  0  0  0
    5.7440  -25.1690   18.2080 C   0  0  0  0  0
    4.8260  -25.9190   17.6130 N   0  0  0  0  0
    7.0300  -25.4580   18.0570 N   0  0  0  0  0
   -0.4950  -21.3400   17.5900 N   0  0  0  0  0
   -1.9440  -21.1790   17.5820 C   0  0  0  0  0
   -2.5910  -21.8230   18.8050 C   0  0  0  0  0
   -2.0300  -22.7360   19.4090 O   0  0  0  0  0
   -2.5350  -21.7710   16.3020 C   0  0  0  0  0
   -1.9820  -21.1500   15.0310 C   0  0  0  0  0
   -2.5930  -21.7800   13.7930 C   0  0  0  0  0
   -2.0360  -21.1540   12.5260 C   0  0  0  0  0
   -2.6390  -21.7490   11.3020 N   0  3  0  0  0
   -3.6870  -21.4430   19.2130 O   0  0  0  0  0
   20.4463   -7.5430   18.8511 H   0  0  0  0  0
   20.2516   -9.0246   18.1136 H   0  0  0  0  0
   21.4604   -7.9948   17.6084 H   0  0  0  0  0
   19.8975   -6.4129   16.8480 H   0  0  0  0  0
   19.3368   -9.2151   15.8117 H   0  0  0  0  0
   19.0172   -7.6902   14.9494 H   0  0  0  0  0
   20.6924   -8.1755   15.3090 H   0  0  0  0  0
   17.7192   -5.8205   16.3941 H   0  0  0  0  0
   15.9002   -6.6262   18.5176 H   0  0  0  0  0
   15.2351   -5.0037   16.0590 H   0  0  0  0  0
   16.0135   -4.3306   17.5577 H   0  0  0  0  0
   14.1138   -4.7378   18.8346 H   0  0  0  0  0
   13.3782   -5.7739   17.5433 H   0  0  0  0  0
   13.0816   -3.8389   16.1405 H   0  0  0  0  0
   13.8702   -2.7974   17.3749 H   0  0  0  0  0
   11.7893   -4.0105   18.7228 H   0  0  0  0  0
   10.4492   -1.3675   15.9679 H   0  0  0  0  0
   12.0629   -2.0641   15.7900 H   0  0  0  0  0
    9.7304   -3.1088   18.9494 H   0  0  0  0  0
   15.3217   -8.7492   18.3569 H   0  0  0  0  0
   13.9999   -9.5062   15.7992 H   0  0  0  0  0
   14.6484  -11.8116   16.1527 H   0  0  0  0  0
   15.8690  -12.3585   18.0686 H   0  0  0  0  0
   16.3641  -10.3679   15.1499 H   0  0  0  0  0
   16.9961   -9.9815   16.7693 H   0  0  0  0  0
   17.1092  -11.6446   16.1428 H   0  0  0  0  0
   12.4517  -11.4441   16.1373 H   0  0  0  0  0
   11.3045  -11.7037   18.7285 H   0  0  0  0  0
   10.2283   -9.5900   17.1872 H   0  0  0  0  0
    9.6447  -10.2684   18.7835 H   0  0  0  0  0
    7.7665  -10.8299   17.7918 H   0  0  0  0  0
    8.6892  -11.9410   16.7434 H   0  0  0  0  0
    8.1831  -10.6386   14.9809 H   0  0  0  0  0
    9.1006   -9.3179   15.7248 H   0  0  0  0  0
    7.2485   -8.4591   16.8166 H   0  0  0  0  0
    6.2777  -10.0162   16.4940 H   0  0  0  0  0
    7.4338   -9.6337   13.4716 H   0  0  0  0  0
    5.8906  -10.4050   13.9129 H   0  0  0  0  0
    5.8965   -8.9412   12.8988 H   0  0  0  0  0
    6.7873   -6.6222   15.5377 H   0  0  0  0  0
    7.9710   -7.3797   14.4440 H   0  0  0  0  0
    6.4045   -6.8185   13.8097 H   0  0  0  0  0
    4.4191   -9.3863   15.5008 H   0  0  0  0  0
    4.7945   -7.7855   16.1847 H   0  0  0  0  0
    4.3582   -7.9390   14.4650 H   0  0  0  0  0
   10.1223  -13.4596   19.0112 H   0  0  0  0  0
    9.5214  -15.0939   16.5688 H   0  0  0  0  0
    9.9704  -16.0000   19.4095 H   0  0  0  0  0
   11.1597  -16.1103   18.0198 H   0  0  0  0  0
    8.4739  -17.4228   17.9476 H   0  0  0  0  0
    9.9200  -18.2135   18.7107 H   0  0  0  0  0
    9.4508  -19.1392   15.0303 H   0  0  0  0  0
    8.3050  -19.0527   16.3723 H   0  0  0  0  0
    7.4267  -15.3861   16.0910 H   0  0  0  0  0
    5.4473  -14.3004   17.9347 H   0  0  0  0  0
    3.8000  -14.7573   16.2127 H   0  0  0  0  0
    4.4875  -15.9035   14.2981 H   0  0  0  0  0
    5.2497  -12.8006   15.8835 H   0  0  0  0  0
    6.4199  -13.8080   14.9964 H   0  0  0  0  0
    4.7966  -13.5253   14.3212 H   0  0  0  0  0
    3.4925  -15.4882   18.5787 H   0  0  0  0  0
    4.2988  -18.0275   19.7717 H   0  0  0  0  0
    2.9794  -16.4033   21.0579 H   0  0  0  0  0
    1.6591  -16.5141   19.8680 H   0  0  0  0  0
    2.0751  -17.9259   20.8705 H   0  0  0  0  0
    2.8267  -19.9147   19.8062 H   0  0  0  0  0
    2.0865  -20.6463   17.0542 H   0  0  0  0  0
    1.5500  -22.8261   18.0391 H   0  0  0  0  0
    1.9760  -22.1336   19.6767 H   0  0  0  0  0
    4.2402  -21.6682   18.7125 H   0  0  0  0  0
    3.7603  -22.7114   17.3255 H   0  0  0  0  0
    3.3426  -24.5539   18.8694 H   0  0  0  0  0
    3.8701  -23.5045   20.2437 H   0  0  0  0  0
    6.1098  -23.5848   19.4043 H   0  0  0  0  0
    3.8362  -25.7027   17.7306 H   0  0  0  0  0
    7.3099  -26.2547   17.4849 H   0  0  0  0  0
    7.7388  -24.8835   18.5130 H   0  0  0  0  0
   -0.0787  -22.1350   17.1051 H   0  0  0  0  0
   -2.1571  -20.1106   17.6171 H   0  0  0  0  0
   -1.1903  -22.9295   18.9859 H   0  0  0  0  0
   -3.6078  -21.5790   16.3189 H   0  0  0  0  0
   -2.2803  -22.8307   16.2848 H   0  0  0  0  0
   -0.9048  -21.3147   15.0065 H   0  0  0  0  0
   -2.2235  -20.0871   15.0326 H   0  0  0  0  0
   -3.6707  -21.6183   13.8162 H   0  0  0  0  0
   -2.3539  -22.8434   13.7898 H   0  0  0  0  0
   -0.9612  -21.3337   12.4997 H   0  0  0  0  0
   -2.2695  -20.0894   12.5394 H   0  0  0  0  0
   -2.2396  -21.3028   10.4763 H   0  0  0  0  0
   -2.4410  -22.7493   11.2787 H   0  0  0  0  0
   -3.6481  -21.6012   11.3153 H   0  0  0  0  0
  1  2  1  0  0  0
  2  3  1  0  0  0
  2  5  1  0  0  0
  3  4  2  0  0  0
  3  6  1  0  0  0
  6  7  1  0  0  0
  7  8  1  0  0  0
  7 10  1  0  0  0
  8  9  2  0  0  0
  8 17  1  0  0  0
 10 11  1  0  0  0
 11 12  1  0  0  0
 12 13  1  0  0  0
 13 14  1  0  0  0
 14 15  1  0  0  0
 14 16  2  0  0  0
 17 18  1  0  0  0
 18 19  1  0  0  0
 18 21  1  0  0  0
 19 20  2  0  0  0
 19 24  1  0  0  0
 21 22  1  0  0  0
 21 23  1  0  0  0
 24 25  1  0  0  0
 25 26  1  0  0  0
 25 31  1  0  0  0
 26 27  1  0  0  0
 27 28  1  0  0  0
 28 29  1  0  0  0
 29 30  1  0  0  0
 30 33  1  0  0  0
 30 34  1  0  0  0
 30 35  1  0  0  0
 31 32  2  0  0  0
 31 36  1  0  0  0
 36 37  1  0  0  0
 37 38  1  0  0  0
 37 40  1  0  0  0
 38 39  2  0  0  0
 38 45  1  0  0  0
 40 41  1  0  0  0
 41 42  1  0  0  0
 42 43  2  0  0  0
 42 44  1  0  0  0
 45 46  1  0  0  0
 46 47  1  0  0  0
 46 49  1  0  0  0
 47 48  2  0  0  0
 47 52  1  0  0  0
 49 50  1  0  0  0
 49 51  1  0  0  0
 52 53  1  0  0  0
 53 54  1  0  0  0
 53 56  1  0  0  0
 54 55  2  0  0  0
 54 57  1  0  0  0
 57 58  1  0  0  0
 58 59  1  0  0  0
 58 61  1  0  0  0
 59 60  2  0  0  0
 59 68  1  0  0  0
 61 62  1  0  0  0
 62 63  1  0  0  0
 63 64  1  0  0  0
 64 65  1  0  0  0
 65 66  2  0  0  0
 65 67  1  0  0  0
 68 69  1  0  0  0
 69 70  1  0  0  0
 69 72  1  0  0  0
 70 71  1  0  0  0
 70 77  2  0  0  0
 72 73  1  0  0  0
 73 74  1  0  0  0
 74 75  1  0  0  0
 75 76  1  0  0  0
  1 78  1  0  0  0
  1 79  1  0  0  0
  1 80  1  0  0  0
  2 81  1  0  0  0
  5 82  1  0  0  0
  5 83  1  0  0  0
  5 84  1  0  0  0
  6 85  1  0  0  0
  7 86  1  0  0  0
 10 87  1  0  0  0
 10 88  1  0  0  0
 11 89  1  0  0  0
 11 90  1  0  0  0
 12 91  1  0  0  0
 12 92  1  0  0  0
 13 93  1  0  0  0
 15 94  1  0  0  0
 15 95  1  0  0  0
 16 96  1  0  0  0
 17 97  1  0  0  0
 18 98  1  0  0  0
 21 99  1  0  0  0
 22100  1  0  0  0
 23101  1  0  0  0
 23102  1  0  0  0
 23103  1  0  0  0
 24104  1  0  0  0
 25105  1  0  0  0
 26106  1  0  0  0
 26107  1  0  0  0
 27108  1  0  0  0
 27109  1  0  0  0
 28110  1  0  0  0
 28111  1  0  0  0
 29112  1  0  0  0
 29113  1  0  0  0
 33114  1  0  0  0
 33115  1  0  0  0
 33116  1  0  0  0
 34117  1  0  0  0
 34118  1  0  0  0
 34119  1  0  0  0
 35120  1  0  0  0
 35121  1  0  0  0
 35122  1  0  0  0
 36123  1  0  0  0
 37124  1  0  0  0
 40125  1  0  0  0
 40126  1  0  0  0
 41127  1  0  0  0
 41128  1  0  0  0
 44129  1  0  0  0
 44130  1  0  0  0
 45131  1  0  0  0
 46132  1  0  0  0
 49133  1  0  0  0
 50134  1  0  0  0
 51135  1  0  0  0
 51136  1  0  0  0
 51137  1  0  0  0
 52138  1  0  0  0
 53139  1  0  0  0
 56140  1  0  0  0
 56141  1  0  0  0
 56142  1  0  0  0
 57143  1  0  0  0
 58144  1  0  0  0
 61145  1  0  0  0
 61146  1  0  0  0
 62147  1  0  0  0
 62148  1  0  0  0
 63149  1  0  0  0
 63150  1  0  0  0
 64151  1  0  0  0
 66152  1  0  0  0
 67153  1  0  0  0
 67154  1  0  0  0
 68155  1  0  0  0
 69156  1  0  0  0
 71157  1  0  0  0
 72158  1  0  0  0
 72159  1  0  0  0
 73160  1  0  0  0
 73161  1  0  0  0
 74162  1  0  0  0
 74163  1  0  0  0
 75164  1  0  0  0
 75165  1  0  0  0
 76166  1  0  0  0
 76167  1  0  0  0
 76168  1  0  0  0
M  END
$$$$
