### 
### Created by X-TOOL on Wed Jan  1 15:39:38 2020
### 

@<TRIPOS>MOLECULE
5yc4_ligand
  169   168     1     0     0
SMALL
GAST_HUCK


@<TRIPOS>ATOM
      1 N          20.5070   -8.0480   17.9670 N.4       1 ALA         0.2377
      2 CA         19.5930   -7.4480   17.0030 C.3       1 ALA         0.0621
      3 C          18.1640   -7.4490   17.5310 C.2       1 ALA         0.2264
      4 O          17.8020   -8.2830   18.3620 O.2       1 ALA        -0.3907
      5 CB         19.6650   -8.1850   15.6730 C.3       1 ALA        -0.0040
      6 N          17.3540   -6.5120   17.0490 N.am      1 ARG        -0.2610
      7 CA         15.9530   -6.4580   17.4420 C.3       1 ARG         0.1312
      8 C          15.1590   -7.5460   16.7270 C.2       1 ARG         0.2040
      9 O          14.7330   -7.3690   15.5860 O.2       1 ARG        -0.3944
     10 CB         15.3480   -5.0860   17.1400 C.3       1 ARG        -0.0092
     11 CG         13.9780   -4.8910   17.7640 C.3       1 ARG        -0.0156
     12 CD         13.2550   -3.6810   17.2050 C.3       1 ARG         0.0627
     13 NE         11.9670   -3.4880   17.8650 N.pl3     1 ARG        -0.2723
     14 CZ         11.0110   -2.6780   17.4240 C.cat     1 ARG         0.2882
     15 NH1        11.1880   -1.9830   16.3080 N.pl3     1 ARG        -0.2849
     16 NH2         9.8720   -2.5700   18.0950 N.pl3     1 ARG        -0.2849
     17 N          14.9660   -8.6730   17.4040 N.am      1 THR        -0.2613
     18 CA         14.2580   -9.8020   16.8160 C.3       1 THR         0.1565
     19 C          12.9840  -10.1260   17.5860 C.2       1 THR         0.2065
     20 O          12.7230   -9.5540   18.6440 O.2       1 THR        -0.3943
     21 CB         15.1410  -11.0620   16.7720 C.3       1 THR         0.0924
     22 OG1        15.3180  -11.5730   18.1000 O.3       1 THR        -0.3874
     23 CG2        16.5000  -10.7410   16.1650 C.3       1 THR        -0.0346
     24 N          12.1990  -11.0510   17.0440 N.am      1 M3L        -0.2637
     25 CA         10.9990  -11.5170   17.6990 C.3       1 M3L         0.1310
     26 CB          9.8710  -10.4620   17.7350 C.3       1 M3L        -0.0122
     27 CG          8.5840  -10.9080   17.0750 C.3       1 M3L        -0.0440
     28 CD          8.2850  -10.0250   15.8760 C.3       1 M3L        -0.0123
     29 CE          6.9860   -9.2690   16.1360 C.3       1 M3L        -0.0309
     30 NZ          6.3150   -8.6050   14.9500 N.4       1 M3L         0.2369
     31 C          10.4760  -12.8290   17.1130 C.2       1 M3L         0.2039
     32 O          10.4810  -13.0990   15.9100 O.2       1 M3L        -0.3944
     33 CM1         6.3890   -9.4540   13.7250 C.3       1 M3L        -0.0418
     34 CM2         6.9100   -7.2650   14.6660 C.3       1 M3L        -0.0418
     35 CM3         4.8730   -8.4160   15.2990 C.3       1 M3L        -0.0418
     36 N          10.0310  -13.6910   18.0220 N.am      1 GLN        -0.2636
     37 CA          9.4170  -14.9560   17.6450 C.3       1 GLN         0.1330
     38 C           7.9380  -14.9280   18.0070 C.2       1 GLN         0.2041
     39 O           7.5820  -14.6820   19.1570 O.2       1 GLN        -0.3944
     40 CB         10.1170  -16.1280   18.3370 C.3       1 GLN         0.0045
     41 CG          9.5610  -17.4990   17.9700 C.3       1 GLN         0.0412
     42 CD         10.0210  -17.9750   16.6050 C.2       1 GLN         0.1737
     43 OE1        11.1060  -17.6210   16.1440 O.2       1 GLN        -0.3973
     44 NE2         9.1950  -18.7850   15.9520 N.am      1 GLN        -0.3009
     45 N           7.0770  -15.1720   17.0250 N.am      1 THR        -0.2613
     46 CA          5.6390  -15.1380   17.2640 C.3       1 THR         0.1565
     47 C           5.1680  -16.4310   17.9230 C.2       1 THR         0.2065
     48 O           5.8400  -17.4600   17.8460 O.2       1 THR        -0.3943
     49 CB          4.8500  -14.9080   15.9620 C.3       1 THR         0.0924
     50 OG1         4.9810  -16.0520   15.1080 O.3       1 THR        -0.3874
     51 CG2         5.3660  -13.6720   15.2390 C.3       1 THR        -0.0346
     52 N           4.0120  -16.3660   18.5760 N.am      1 ALA        -0.2639
     53 CA          3.4660  -17.5160   19.2890 C.3       1 ALA         0.1282
     54 C           2.8010  -18.5080   18.3430 C.2       1 ALA         0.2036
     55 O           2.5480  -18.2010   17.1760 O.2       1 ALA        -0.3944
     56 CB          2.4740  -17.0570   20.3470 C.3       1 ALA        -0.0244
     57 N           2.5230  -19.7020   18.8560 N.am      1 ARG        -0.2637
     58 CA          1.7980  -20.7160   18.1030 C.3       1 ARG         0.1310
     59 C           0.2950  -20.4740   18.2150 C.2       1 ARG         0.2033
     60 O          -0.1410  -19.5190   18.8590 O.2       1 ARG        -0.3944
     61 CB          2.1570  -22.1170   18.6020 C.3       1 ARG        -0.0092
     62 CG          3.6130  -22.4970   18.3840 C.3       1 ARG        -0.0156
     63 CD          3.9890  -23.7350   19.1850 C.3       1 ARG         0.0627
     64 NE          5.3760  -24.1350   18.9580 N.pl3     1 ARG        -0.2723
     65 CZ          5.7440  -25.1690   18.2080 C.cat     1 ARG         0.2882
     66 NH1         4.8260  -25.9190   17.6130 N.pl3     1 ARG        -0.2849
     67 NH2         7.0300  -25.4580   18.0570 N.pl3     1 ARG        -0.2849
     68 N          -0.4950  -21.3400   17.5900 N.am      1 LYS        -0.2695
     69 CA         -1.9440  -21.1790   17.5820 C.3       1 LYS         0.0944
     70 C          -2.5910  -21.8230   18.8050 C.2       1 LYS         0.0601
     71 O          -2.0300  -22.7360   19.4090 O.co2     1 LYS        -0.5666
     72 CB         -2.5350  -21.7710   16.3020 C.3       1 LYS        -0.0177
     73 CG         -1.9820  -21.1500   15.0310 C.3       1 LYS        -0.0446
     74 CD         -2.5930  -21.7800   13.7930 C.3       1 LYS        -0.0125
     75 CE         -2.0360  -21.1540   12.5260 C.3       1 LYS        -0.0354
     76 NZ         -2.6390  -21.7490   11.3020 N.4       1 LYS         0.2185
     77 OXT        -3.6870  -21.4430   19.2130 O.co2     1 LYS        -0.5666
     78 H1         21.4437   -8.0353   17.5948 H         1 ALA         0.2015
     79 H2         20.2293   -9.0004   18.1456 H         1 ALA         0.2015
     80 H3         20.4801   -7.5232   18.8272 H         1 ALA         0.2015
     81 H4         19.9002   -6.4045   16.8393 H         1 ALA         0.1095
     82 H5         18.9702   -7.7201   14.9581 H         1 ALA         0.0310
     83 H6         19.3869   -9.2387   15.8222 H         1 ALA         0.0310
     84 H7         20.6899   -8.1287   15.2776 H         1 ALA         0.0310
     85 H8         17.7120   -5.8341   16.4069 H         1 ARG         0.1884
     86 H9         15.8907   -6.6341   18.5260 H         1 ARG         0.0800
     87 H10        15.2551   -4.9763   16.0494 H         1 ARG         0.0313
     88 H11        16.0243   -4.3112   17.5302 H         1 ARG         0.0313
     89 H12        14.0996   -4.7595   18.8493 H         1 ARG         0.0301
     90 H13        13.3702   -5.7869   17.5690 H         1 ARG         0.0301
     91 H14        13.0883   -3.8279   16.1277 H         1 ARG         0.0689
     92 H15        13.8765   -2.7870   17.3614 H         1 ARG         0.0689
     93 H16        11.7875   -4.0156   18.7312 H         1 ARG         0.2642
     94 H17        10.4449   -1.3557   15.9686 H         1 ARG         0.2615
     95 H18        12.0686   -2.0706   15.7809 H         1 ARG         0.2615
     96 H19         9.7319   -3.1085   18.9618 H         1 ARG         0.2615
     97 H20         9.1276   -1.9477   17.7493 H         1 ARG         0.2615
     98 H21        15.3147   -8.7477   18.3383 H         1 THR         0.1884
     99 H22        13.9842   -9.5311   15.7856 H         1 THR         0.0826
    100 H23        14.6446  -11.8251   16.1546 H         1 THR         0.0639
    101 H24        15.8633  -12.3503   18.0689 H         1 THR         0.2101
    102 H25        17.1158  -11.6522   16.1421 H         1 THR         0.0257
    103 H26        17.0018   -9.9746   16.7740 H         1 THR         0.0257
    104 H27        16.3643  -10.3644   15.1405 H         1 THR         0.0257
    105 H28        12.4467  -11.4364   16.1551 H         1 M3L         0.1883
    106 H29        11.2769  -11.7212   18.7435 H         1 M3L         0.0800
    107 H30        10.2276   -9.5578   17.2200 H         1 M3L         0.0312
    108 H31         9.6548  -10.2237   18.7869 H         1 M3L         0.0312
    109 H32         7.7583  -10.8332   17.7980 H         1 M3L         0.0269
    110 H33         8.6870  -11.9515   16.7427 H         1 M3L         0.0269
    111 H34         8.1768  -10.6477   14.9757 H         1 M3L         0.0317
    112 H35         9.1070   -9.3088   15.7298 H         1 M3L         0.0317
    113 H36         7.2039   -8.4831   16.8742 H         1 M3L         0.0815
    114 H37         6.2679   -9.9844   16.5632 H         1 M3L         0.0815
    115 H38         5.8922   -8.9375   12.8904 H         1 M3L         0.0778
    116 H39         5.8863  -10.4141   13.9133 H         1 M3L         0.0778
    117 H40         7.4430   -9.6361   13.4682 H         1 M3L         0.0778
    118 H41         6.8548   -6.6403   15.5697 H         1 M3L         0.0778
    119 H42         6.3516   -6.7811   13.8511 H         1 M3L         0.0778
    120 H43         7.9619   -7.3865   14.3680 H         1 M3L         0.0778
    121 H44         4.4161   -9.3937   15.5120 H         1 M3L         0.0778
    122 H45         4.3502   -7.9432   14.4545 H         1 M3L         0.0778
    123 H46         4.7920   -7.7722   16.1872 H         1 M3L         0.0778
    124 H47        10.1205  -13.4641   18.9918 H         1 GLN         0.1883
    125 H48         9.5131  -15.0851   16.5568 H         1 GLN         0.0801
    126 H49        10.0160  -15.9956   19.4243 H         1 GLN         0.0337
    127 H50        11.1818  -16.1037   18.0620 H         1 GLN         0.0337
    128 H51         8.4624  -17.4443   17.9710 H         1 GLN         0.0504
    129 H52         9.8926  -18.2263   18.7257 H         1 GLN         0.0504
    130 H53         9.4450  -19.1309   15.0476 H         1 GLN         0.1814
    131 H54         8.3232  -19.0489   16.3648 H         1 GLN         0.1814
    132 H55         7.4199  -15.3819   16.1094 H         1 THR         0.1884
    133 H56         5.4277  -14.3022   17.9472 H         1 THR         0.0826
    134 H57         3.7881  -14.7615   16.2086 H         1 THR         0.0639
    135 H58         4.4926  -15.9050   14.3065 H         1 THR         0.2101
    136 H59         4.7921  -13.5229   14.3125 H         1 THR         0.0257
    137 H60         6.4296  -13.8080   14.9935 H         1 THR         0.0257
    138 H61         5.2492  -12.7918   15.8883 H         1 THR         0.0257
    139 H62         3.5026  -15.5054   18.5787 H         1 ALA         0.1883
    140 H63         4.2975  -18.0303   19.7930 H         1 ALA         0.0797
    141 H64         2.0707  -17.9330   20.8761 H         1 ALA         0.0277
    142 H65         1.6511  -16.5090   19.8649 H         1 ALA         0.0277
    143 H66         2.9829  -16.3972   21.0651 H         1 ALA         0.0277
    144 H67         2.8208  -19.9106   19.7876 H         1 ARG         0.1883
    145 H68         2.0870  -20.6393   17.0444 H         1 ARG         0.0800
    146 H69         1.5263  -22.8454   18.0713 H         1 ARG         0.0313
    147 H70         1.9448  -22.1651   19.6802 H         1 ARG         0.0313
    148 H71         4.2526  -21.6592   18.6986 H         1 ARG         0.0301
    149 H72         3.7739  -22.6999   17.3149 H         1 ARG         0.0301
    150 H73         3.3280  -24.5631   18.8896 H         1 ARG         0.0689
    151 H74         3.8522  -23.5204   20.2551 H         1 ARG         0.0689
    152 H75         6.1170  -23.5794   19.4086 H         1 ARG         0.2642
    153 H76         5.1127  -26.7199   17.0322 H         1 ARG         0.2615
    154 H77         3.8265  -25.7006   17.7318 H         1 ARG         0.2615
    155 H78         7.7457  -24.8779   18.5175 H         1 ARG         0.2615
    156 H79         7.3127  -26.2625   17.4793 H         1 ARG         0.2615
    157 H80        -0.0869  -22.1194   17.1146 H         1 LYS         0.1875
    158 H81        -2.1684  -20.1024   17.6030 H         1 LYS         0.0726
    159 H82        -3.6240  -21.6170   16.3185 H         1 LYS         0.0305
    160 H83        -2.3173  -22.8491   16.2851 H         1 LYS         0.0305
    161 H84        -0.8922  -21.2971   15.0061 H         1 LYS         0.0269
    162 H85        -2.2068  -20.0732   15.0321 H         1 LYS         0.0269
    163 H86        -3.6829  -21.6333   13.8164 H         1 LYS         0.0317
    164 H87        -2.3679  -22.8567   13.7900 H         1 LYS         0.0317
    165 H88        -0.9478  -21.3126   12.4995 H         1 LYS         0.0813
    166 H89        -2.2491  -20.0749   12.5390 H         1 LYS         0.0813
    167 H90        -2.2450  -21.3087   10.4853 H         1 LYS         0.1994
    168 H91        -3.6364  -21.6035   11.3140 H         1 LYS         0.1994
    169 H92        -2.4439  -22.7376   11.2778 H         1 LYS         0.1994
@<TRIPOS>BOND
     1    1    2 1  
     2    2    3 1  
     3    2    5 1  
     4    3    4 2  
     5    3    6 am 
     6    6    7 1  
     7    7    8 1  
     8    7   10 1  
     9    8    9 2  
    10    8   17 am 
    11   10   11 1  
    12   11   12 1  
    13   12   13 1  
    14   13   14 ar 
    15   14   15 ar 
    16   14   16 ar 
    17   17   18 1  
    18   18   19 1  
    19   18   21 1  
    20   19   20 2  
    21   19   24 am 
    22   21   22 1  
    23   21   23 1  
    24   24   25 1  
    25   25   26 1  
    26   25   31 1  
    27   26   27 1  
    28   27   28 1  
    29   28   29 1  
    30   29   30 1  
    31   30   33 1  
    32   30   34 1  
    33   30   35 1  
    34   31   32 2  
    35   31   36 am 
    36   36   37 1  
    37   37   38 1  
    38   37   40 1  
    39   38   39 2  
    40   38   45 am 
    41   40   41 1  
    42   41   42 1  
    43   42   43 2  
    44   42   44 am 
    45   45   46 1  
    46   46   47 1  
    47   46   49 1  
    48   47   48 2  
    49   47   52 am 
    50   49   50 1  
    51   49   51 1  
    52   52   53 1  
    53   53   54 1  
    54   53   56 1  
    55   54   55 2  
    56   54   57 am 
    57   57   58 1  
    58   58   59 1  
    59   58   61 1  
    60   59   60 2  
    61   59   68 am 
    62   61   62 1  
    63   62   63 1  
    64   63   64 1  
    65   64   65 ar 
    66   65   66 ar 
    67   65   67 ar 
    68   68   69 1  
    69   69   70 1  
    70   69   72 1  
    71   70   71 ar 
    72   70   77 ar 
    73   72   73 1  
    74   73   74 1  
    75   74   75 1  
    76   75   76 1  
    77    1   78 1  
    78    1   79 1  
    79    1   80 1  
    80    2   81 1  
    81    5   82 1  
    82    5   83 1  
    83    5   84 1  
    84    6   85 1  
    85    7   86 1  
    86   10   87 1  
    87   10   88 1  
    88   11   89 1  
    89   11   90 1  
    90   12   91 1  
    91   12   92 1  
    92   13   93 1  
    93   15   94 1  
    94   15   95 1  
    95   16   96 1  
    96   16   97 1  
    97   17   98 1  
    98   18   99 1  
    99   21  100 1  
   100   22  101 1  
   101   23  102 1  
   102   23  103 1  
   103   23  104 1  
   104   24  105 1  
   105   25  106 1  
   106   26  107 1  
   107   26  108 1  
   108   27  109 1  
   109   27  110 1  
   110   28  111 1  
   111   28  112 1  
   112   29  113 1  
   113   29  114 1  
   114   33  115 1  
   115   33  116 1  
   116   33  117 1  
   117   34  118 1  
   118   34  119 1  
   119   34  120 1  
   120   35  121 1  
   121   35  122 1  
   122   35  123 1  
   123   36  124 1  
   124   37  125 1  
   125   40  126 1  
   126   40  127 1  
   127   41  128 1  
   128   41  129 1  
   129   44  130 1  
   130   44  131 1  
   131   45  132 1  
   132   46  133 1  
   133   49  134 1  
   134   50  135 1  
   135   51  136 1  
   136   51  137 1  
   137   51  138 1  
   138   52  139 1  
   139   53  140 1  
   140   56  141 1  
   141   56  142 1  
   142   56  143 1  
   143   57  144 1  
   144   58  145 1  
   145   61  146 1  
   146   61  147 1  
   147   62  148 1  
   148   62  149 1  
   149   63  150 1  
   150   63  151 1  
   151   64  152 1  
   152   66  153 1  
   153   66  154 1  
   154   67  155 1  
   155   67  156 1  
   156   68  157 1  
   157   69  158 1  
   158   72  159 1  
   159   72  160 1  
   160   73  161 1  
   161   73  162 1  
   162   74  163 1  
   163   74  164 1  
   164   75  165 1  
   165   75  166 1  
   166   76  167 1  
   167   76  168 1  
   168   76  169 1  
@<TRIPOS>SUBSTRUCTURE
     1 ALA         1

