1v2r_ligand
  -I-interpret- 

 54 55  0  0  0  0  0  0  0  0999 V2000
   -2.2590   17.7940   16.8290 N   0  0  0  0  0
   -3.5220   17.1800   17.3670 C   0  0  0  0  0
   -3.1670   16.2540   18.5350 C   0  0  0  0  0
   -4.6950   18.1800   17.8190 C   0  0  0  0  0
   -5.8440   17.9850   17.3540 O   0  0  0  0  0
   -4.4060   19.2580   18.7270 O   0  0  0  0  0
   -3.0960   19.5770   19.3330 C   0  0  0  0  0
   -2.3960   14.9840   18.1870 C   0  0  0  0  0
   -1.3750   14.5490   19.0660 C   0  0  0  0  0
   -0.6240   13.3730   18.7900 C   0  0  0  0  0
   -0.9000   12.6210   17.6180 C   0  0  0  0  0
   -1.9400   13.0130   16.6660 C   0  0  0  0  0
   -2.6840   14.2220   16.9880 C   0  0  0  0  0
   -2.1940   12.2450   15.5100 C   0  0  0  0  0
   -2.8020   12.6830   14.4240 N   0  0  0  0  0
   -1.8550   10.9670   15.3660 N   0  0  0  0  0
   -2.2090   18.6440   15.7890 C   0  0  0  0  0
   -0.8900   19.3420   15.4820 C   0  0  0  0  0
   -0.8170   19.7340   14.0540 N   0  0  0  0  0
   -3.1750   18.8670   15.0580 O   0  0  0  0  0
    3.5270   24.1330   16.8910 C   0  0  0  0  0
    2.5500   23.4060   16.0500 C   0  0  0  0  0
    2.9560   22.4740   15.0330 C   0  0  0  0  0
    1.9540   21.8030   14.2500 C   0  0  0  0  0
    0.5710   22.1060   14.5200 C   0  0  0  0  0
    0.1870   23.0270   15.5260 C   0  0  0  0  0
    1.1760   23.6660   16.2780 C   0  0  0  0  0
   -0.7070   21.3550   13.6280 S   0  0  0  0  0
   -0.4570   21.3940   12.0590 O   0  0  0  0  0
   -2.0790   21.9120   14.1430 O   0  0  0  0  0
   -1.3800   17.5486   17.2846 H   0  0  0  0  0
   -3.9462   16.6498   16.5143 H   0  0  0  0  0
   -4.1159   15.9246   18.9582 H   0  0  0  0  0
   -2.5163   16.8319   19.1913 H   0  0  0  0  0
   -2.7538   18.7272   19.9236 H   0  0  0  0  0
   -2.3738   19.7873   18.5442 H   0  0  0  0  0
   -3.1979   20.4509   19.9765 H   0  0  0  0  0
   -1.1613   15.1236   19.9673 H   0  0  0  0  0
    0.1599   13.0506   19.4753 H   0  0  0  0  0
   -0.3175   11.7211   17.4205 H   0  0  0  0  0
   -3.4720   14.5605   16.3153 H   0  0  0  0  0
   -3.1297   13.6478   14.3769 H   0  0  0  0  0
   -2.0757   10.4753   14.5000 H   0  0  0  0  0
   -1.3743   10.4786   16.1215 H   0  0  0  0  0
   -0.0718   18.6551   15.6986 H   0  0  0  0  0
   -0.8182   20.2400   16.0956 H   0  0  0  0  0
   -0.8336   19.0174   13.3283 H   0  0  0  0  0
    4.1299   23.4157   17.4478 H   0  0  0  0  0
    4.1739   24.7368   16.2546 H   0  0  0  0  0
    2.9942   24.7800   17.5878 H   0  0  0  0  0
    4.0137   22.2780   14.8573 H   0  0  0  0  0
    2.2317   21.0873   13.4762 H   0  0  0  0  0
   -0.8670   23.2344   15.7109 H   0  0  0  0  0
    0.8859   24.3760   17.0525 H   0  0  0  0  0
  1  2  1  0  0  0
 17  1  1  0  0  0
  2  3  1  0  0  0
  2  4  1  0  0  0
  3  8  1  0  0  0
  4  5  2  0  0  0
  4  6  1  0  0  0
  6  7  1  0  0  0
  8  9  4  0  0  0
  8 13  4  0  0  0
  9 10  4  0  0  0
 10 11  4  0  0  0
 12 11  4  0  0  0
 13 12  4  0  0  0
 12 14  1  0  0  0
 14 15  2  0  0  0
 14 16  1  0  0  0
 18 17  1  0  0  0
 17 20  2  0  0  0
 19 18  1  0  0  0
 28 19  1  0  0  0
 22 21  1  0  0  0
 23 22  4  0  0  0
 22 27  4  0  0  0
 24 23  4  0  0  0
 25 24  4  0  0  0
 25 26  4  0  0  0
 25 28  1  0  0  0
 26 27  4  0  0  0
 28 29  2  0  0  0
 28 30  2  0  0  0
  1 31  1  0  0  0
  2 32  1  0  0  0
  3 33  1  0  0  0
  3 34  1  0  0  0
  7 35  1  0  0  0
  7 36  1  0  0  0
  7 37  1  0  0  0
  9 38  1  0  0  0
 10 39  1  0  0  0
 11 40  1  0  0  0
 13 41  1  0  0  0
 15 42  1  0  0  0
 16 43  1  0  0  0
 16 44  1  0  0  0
 18 45  1  0  0  0
 18 46  1  0  0  0
 19 47  1  0  0  0
 21 48  1  0  0  0
 21 49  1  0  0  0
 21 50  1  0  0  0
 23 51  1  0  0  0
 24 52  1  0  0  0
 26 53  1  0  0  0
 27 54  1  0  0  0
M  END
$$$$
