3wns_ligand
  -I-interpret- 

 13 12  0  0  0  0  0  0  0  0999 V2000
   30.2600   17.2050  102.3970 C   0  0  0  0  0
   30.1220   15.7460  102.1740 C   0  0  0  0  0
   29.0520   14.9700  102.6190 C   0  0  0  0  0
   30.9290   18.9840  100.6830 C   0  0  0  0  0
   30.1710   17.8500  101.0880 N   0  0  0  0  0
   31.9880   19.6580  101.7240 S   0  0  0  0  0
   31.2131   17.4329  102.8743 H   0  0  0  0  0
   29.4748   17.5690  103.0596 H   0  0  0  0  0
   30.9153   15.2425  101.6215 H   0  0  0  0  0
   28.2371   15.4332  103.1754 H   0  0  0  0  0
   29.0306   13.9004  102.4104 H   0  0  0  0  0
   30.8026   19.3996   99.6833 H   0  0  0  0  0
   29.5150   17.4568  100.4131 H   0  0  0  0  0
  1  2  1  0  0  0
  1  5  1  0  0  0
  2  3  2  0  0  0
  5  4  1  0  0  0
  4  6  2  0  0  0
  1  7  1  0  0  0
  1  8  1  0  0  0
  2  9  1  0  0  0
  3 10  1  0  0  0
  3 11  1  0  0  0
  4 12  1  0  0  0
  5 13  1  0  0  0
M  END
$$$$
