4ovf_ligand
  -I-interpret- 

 28 30  0  0  0  0  0  0  0  0999 V2000
    6.9900   -1.6820   -9.6800 Cl  0  0  0  0  0
    7.6370   -3.2200  -10.3320 C   0  0  0  0  0
    8.7190   -3.8770   -9.7410 C   0  0  0  0  0
    9.1560   -5.0740  -10.3180 C   0  0  0  0  0
    7.0230   -3.7550  -11.4630 C   0  0  0  0  0
    7.4670   -4.9490  -12.0250 C   0  0  0  0  0
    8.5410   -5.6140  -11.4460 C   0  0  0  0  0
    9.1670   -6.7570  -11.7660 N   0  0  0  0  0
   10.1600   -6.9750  -10.8880 C   0  0  0  0  0
   10.1810   -5.9360   -9.9660 C   0  0  0  0  0
   11.1640   -5.8380   -8.8260 C   0  0  0  0  0
   11.6860   -7.2490   -8.5550 C   0  0  0  0  0
   11.1120   -8.1480  -10.8830 C   0  0  0  0  0
   12.2000   -7.9640   -9.8110 C   0  0  0  0  0
   12.7580   -9.3010   -9.4020 C   0  0  0  0  0
   12.0270  -10.4070   -9.4890 O   0  0  0  0  0
   13.8940   -9.3880   -8.9750 O   0  0  0  0  0
    9.2082   -3.4690   -8.8565 H   0  0  0  0  0
    6.1814   -3.2301  -11.9150 H   0  0  0  0  0
    6.9776   -5.3575  -12.9092 H   0  0  0  0  0
   10.6815   -5.4305   -7.9376 H   0  0  0  0  0
   11.9846   -5.1686   -9.0839 H   0  0  0  0  0
   10.8556   -7.8352   -8.1614 H   0  0  0  0  0
   12.5234   -7.1608   -7.8628 H   0  0  0  0  0
   11.5897   -8.2172  -11.8603 H   0  0  0  0  0
   10.5504   -9.0555  -10.6616 H   0  0  0  0  0
   12.9719   -7.3415  -10.2635 H   0  0  0  0  0
   11.1601  -10.1895   -9.8393 H   0  0  0  0  0
  1  2  1  0  0  0
  2  3  4  0  0  0
  2  5  4  0  0  0
  3  4  4  0  0  0
  4  7  4  0  0  0
  4 10  4  0  0  0
  5  6  4  0  0  0
  6  7  4  0  0  0
  7  8  4  0  0  0
  8  9  4  0  0  0
  9 10  4  0  0  0
  9 13  1  0  0  0
 10 11  1  0  0  0
 11 12  1  0  0  0
 12 14  1  0  0  0
 13 14  1  0  0  0
 14 15  1  0  0  0
 15 16  1  0  0  0
 15 17  2  0  0  0
  3 18  1  0  0  0
  5 19  1  0  0  0
  6 20  1  0  0  0
 11 21  1  0  0  0
 11 22  1  0  0  0
 12 23  1  0  0  0
 12 24  1  0  0  0
 13 25  1  0  0  0
 13 26  1  0  0  0
 14 27  1  0  0  0
 16 28  1  0  0  0
M  END
$$$$
