1b74_ligand
  -I-interpret- 

 21 20  0  0  0  0  0  0  0  0999 V2000
   22.8340   33.4800   29.8040 N   0  3  0  0  0
   22.3240   33.5900   28.5110 C   0  0  0  0  0
   21.8400   32.2630   28.0660 C   0  0  0  0  0
   21.3130   32.1230   26.9450 O   0  0  0  0  0
   21.9730   31.2790   28.8100 O   0  0  0  0  0
   21.2510   34.6010   28.5290 C   0  0  0  0  0
   21.7630   35.9030   29.1310 C   0  0  0  0  0
   20.6480   36.8320   29.1300 C   0  0  0  0  0
   19.4880   36.3960   28.9370 O   0  0  0  0  0
   21.0120   38.1270   29.3580 N   0  0  0  0  0
   23.5798   32.7843   29.8160 H   0  0  0  0  0
   23.2049   34.3829   30.0999 H   0  0  0  0  0
   22.0891   33.1926   30.4387 H   0  0  0  0  0
   23.0877   33.9107   27.8024 H   0  0  0  0  0
   21.2848   32.9719   26.4976 H   0  0  0  0  0
   20.4227   34.2307   29.1331 H   0  0  0  0  0
   20.9196   34.7870   27.5074 H   0  0  0  0  0
   22.5967   36.2973   28.5500 H   0  0  0  0  0
   22.1332   35.7427   30.1436 H   0  0  0  0  0
   20.3023   38.8592   29.3843 H   0  0  0  0  0
   21.9938   38.3630   29.5021 H   0  0  0  0  0
  1  2  1  0  0  0
  2  3  1  0  0  0
  2  6  1  0  0  0
  3  4  1  0  0  0
  3  5  2  0  0  0
  6  7  1  0  0  0
  7  8  1  0  0  0
  8  9  2  0  0  0
  8 10  1  0  0  0
  1 11  1  0  0  0
  1 12  1  0  0  0
  1 13  1  0  0  0
  2 14  1  0  0  0
  4 15  1  0  0  0
  6 16  1  0  0  0
  6 17  1  0  0  0
  7 18  1  0  0  0
  7 19  1  0  0  0
 10 20  1  0  0  0
 10 21  1  0  0  0
M  END
$$$$
