5doh_ligand
  -I-interpret- 

 44 46  0  0  0  0  0  0  0  0999 V2000
   -5.3030    5.4240    3.9690 F   0  0  0  0  0
   -4.9380    5.2180    2.6770 C   0  0  0  0  0
   -4.5620    6.3600    2.0100 C   0  0  0  0  0
   -4.6270    7.8240    2.8990 S   0  0  0  0  0
   -2.9840    7.7460    3.0500 C   0  0  0  0  0
   -2.8830    9.0120    3.9520 C   0  0  0  0  0
   -3.4320    8.9020    5.2630 O   0  0  0  0  0
   -4.1610    6.2400    0.7220 C   0  0  0  0  0
   -3.7070    7.3600    0.1490 F   0  0  0  0  0
   -4.2460    5.0590    0.0740 C   0  0  0  0  0
   -3.8420    5.1440   -1.2170 F   0  0  0  0  0
   -5.0970    3.9820    2.1010 C   0  0  0  0  0
   -4.7490    3.9450    0.7590 C   0  0  0  0  0
   -4.7350    2.4260   -0.2420 S   0  0  0  0  0
   -5.9720    2.2130   -1.1250 O   0  0  0  0  0
   -4.6290    0.9120    0.6640 N   0  0  0  0  0
   -3.5610    2.3340   -1.2320 O   0  0  0  0  0
   -5.6220    2.8240    2.7330 N   0  0  0  0  0
   -5.8530    2.8000    4.2100 C   0  0  0  0  0
   -6.3200    1.4220    4.3910 C   0  0  0  0  0
   -5.5970    0.3100    4.2280 C   0  0  0  0  0
   -6.2090   -0.9960    4.3410 C   0  0  0  0  0
   -7.5970   -1.0980    4.4930 C   0  0  0  0  0
   -8.3320    0.1160    4.6770 C   0  0  0  0  0
   -7.6680    1.3660    4.5900 C   0  0  0  0  0
   -8.2980    2.7320    4.6900 C   0  0  0  0  0
   -7.0530    3.6430    4.7240 C   0  0  0  0  0
   -2.3956    7.7352    2.1325 H   0  0  0  0  0
   -2.5589    6.8195    3.4360 H   0  0  0  0  0
   -3.4571    9.7893    3.4478 H   0  0  0  0  0
   -1.8184    9.2046    4.0850 H   0  0  0  0  0
   -3.3161    9.7338    5.7281 H   0  0  0  0  0
   -5.3169    0.1751    0.5081 H   0  0  0  0  0
   -3.8800    0.7752    1.3427 H   0  0  0  0  0
   -5.8438    2.0003    2.1738 H   0  0  0  0  0
   -4.9603    3.1636    4.7189 H   0  0  0  0  0
   -4.5325    0.3880    4.0071 H   0  0  0  0  0
   -5.5934   -1.8949    4.3080 H   0  0  0  0  0
   -8.0988   -2.0654    4.4720 H   0  0  0  0  0
   -9.4016    0.0799    4.8839 H   0  0  0  0  0
   -8.9489    2.8500    5.5563 H   0  0  0  0  0
   -8.9820    2.9581    3.8720 H   0  0  0  0  0
   -7.2025    4.5211    4.0957 H   0  0  0  0  0
   -6.8658    3.9997    5.7368 H   0  0  0  0  0
  1  2  1  0  0  0
  2  3  4  0  0  0
  2 12  4  0  0  0
  3  4  1  0  0  0
  3  8  4  0  0  0
  4  5  1  0  0  0
  5  6  1  0  0  0
  6  7  1  0  0  0
  8  9  1  0  0  0
  8 10  4  0  0  0
 10 11  1  0  0  0
 10 13  4  0  0  0
 12 13  4  0  0  0
 12 18  1  0  0  0
 13 14  1  0  0  0
 14 15  2  0  0  0
 14 16  1  0  0  0
 14 17  2  0  0  0
 18 19  1  0  0  0
 19 20  1  0  0  0
 19 27  1  0  0  0
 20 21  4  0  0  0
 20 25  4  0  0  0
 21 22  4  0  0  0
 22 23  4  0  0  0
 23 24  4  0  0  0
 24 25  4  0  0  0
 25 26  1  0  0  0
 26 27  1  0  0  0
  5 28  1  0  0  0
  5 29  1  0  0  0
  6 30  1  0  0  0
  6 31  1  0  0  0
  7 32  1  0  0  0
 16 33  1  0  0  0
 16 34  1  0  0  0
 18 35  1  0  0  0
 19 36  1  0  0  0
 21 37  1  0  0  0
 22 38  1  0  0  0
 23 39  1  0  0  0
 24 40  1  0  0  0
 26 41  1  0  0  0
 26 42  1  0  0  0
 27 43  1  0  0  0
 27 44  1  0  0  0
M  END
$$$$
