5f94_ligand
  -I-interpret- 

 37 39  0  0  0  0  0  0  0  0999 V2000
  -21.6210  -17.3950    7.1330 C   0  0  0  0  0
  -20.3640  -17.7480    7.6060 C   0  0  0  0  0
  -19.5950  -18.6280    6.8360 C   0  0  0  0  0
  -20.0210  -19.1480    5.6750 N   0  0  0  0  0
  -21.2350  -18.7830    5.2430 C   0  0  0  0  0
  -22.0610  -17.9210    5.9250 C   0  0  0  0  0
  -22.4940  -16.4480    7.8870 C   0  0  0  0  0
  -18.2890  -19.0210    7.1630 N   0  0  0  0  0
  -22.0680  -16.1120    9.1240 N   0  0  0  0  0
  -23.5260  -16.0110    7.3880 O   0  0  0  0  0
  -17.5280  -18.6240    8.2030 C   0  0  0  0  0
  -16.0970  -19.1210    8.1610 C   0  0  0  0  0
  -17.9310  -17.8940    9.1060 O   0  0  0  0  0
  -15.0200  -18.1880    8.6560 C   0  0  0  0  0
  -15.4000  -19.3640    9.4770 C   0  0  0  0  0
  -22.6770  -15.1680    9.9820 C   0  0  0  0  0
  -23.9770  -14.6620    9.9300 C   0  0  0  0  0
  -24.4820  -13.7330   10.7450 N   0  0  0  0  0
  -23.6640  -13.2570   11.6810 C   0  0  0  0  0
  -22.3600  -13.6840   11.8480 C   0  0  0  0  0
  -21.8790  -14.6660   10.9950 C   0  0  0  0  0
  -20.6830  -15.3140   11.1500 O   0  0  0  0  0
  -20.0440  -15.2340   12.4300 C   0  0  0  0  0
  -19.9875  -17.3515    8.5489 H   0  0  0  0  0
  -21.5884  -19.1927    4.2968 H   0  0  0  0  0
  -23.0402  -17.6560    5.5263 H   0  0  0  0  0
  -17.8582  -19.6959    6.5310 H   0  0  0  0  0
  -21.2314  -16.5818    9.4702 H   0  0  0  0  0
  -16.2680  -19.7010    7.2541 H   0  0  0  0  0
  -14.4078  -17.2974    8.5139 H   0  0  0  0  0
  -15.2701  -19.9658   10.3765 H   0  0  0  0  0
  -24.6360  -15.0593    9.1581 H   0  0  0  0  0
  -24.0436  -12.4876   12.3533 H   0  0  0  0  0
  -21.7275  -13.2607   12.6283 H   0  0  0  0  0
  -19.8380  -14.1903   12.6672 H   0  0  0  0  0
  -20.7008  -15.6578   13.1897 H   0  0  0  0  0
  -19.1088  -15.7933   12.4034 H   0  0  0  0  0
  1  2  4  0  0  0
  1  6  4  0  0  0
  1  7  1  0  0  0
  2  3  4  0  0  0
  3  4  4  0  0  0
  3  8  1  0  0  0
  4  5  4  0  0  0
  5  6  4  0  0  0
  7  9  1  0  0  0
  7 10  2  0  0  0
  8 11  1  0  0  0
  9 16  1  0  0  0
 11 12  1  0  0  0
 11 13  2  0  0  0
 12 14  1  0  0  0
 12 15  1  0  0  0
 14 15  2  0  0  0
 16 17  4  0  0  0
 16 21  4  0  0  0
 17 18  4  0  0  0
 18 19  4  0  0  0
 19 20  4  0  0  0
 20 21  4  0  0  0
 21 22  1  0  0  0
 22 23  1  0  0  0
  2 24  1  0  0  0
  5 25  1  0  0  0
  6 26  1  0  0  0
  8 27  1  0  0  0
  9 28  1  0  0  0
 12 29  1  0  0  0
 14 30  1  0  0  0
 15 31  1  0  0  0
 17 32  1  0  0  0
 19 33  1  0  0  0
 20 34  1  0  0  0
 23 35  1  0  0  0
 23 36  1  0  0  0
 23 37  1  0  0  0
M  END
$$$$
