6dak_ligand
  -I-interpret- 

 41 44  0  0  0  0  0  0  0  0999 V2000
  -12.0290   23.1100    3.2970 O   0  0  0  0  0
  -11.7140   23.9350    4.0950 C   0  0  0  0  0
  -12.6730   24.4260    5.1600 C   0  0  0  0  0
  -12.4630   25.8110    5.7590 C   0  0  0  0  0
  -13.4180   26.3230    6.8290 C   0  0  0  0  0
  -14.5740   25.4410    7.2890 C   0  0  0  0  0
  -14.7790   24.0570    6.6770 C   0  0  0  0  0
  -13.8270   23.5430    5.6090 C   0  0  0  0  0
  -10.3980   24.5110    4.1040 N   0  0  0  0  0
   -9.4440   24.0390    3.1370 C   0  0  0  0  0
   -9.6120   24.9150    1.9170 C   0  0  0  0  0
   -8.8000   26.1880    1.7920 C   0  0  0  0  0
   -8.9510   27.0850    0.5780 C   0  0  0  0  0
   -9.9240   26.7040   -0.5250 C   0  0  0  0  0
  -10.7270   25.4380   -0.3540 C   0  0  0  0  0
  -11.7620   25.0500   -1.3660 C   0  0  0  0  0
  -12.4470   25.9310   -2.1920 C   0  0  0  0  0
  -13.2930   25.1890   -2.9000 N   0  0  0  0  0
  -14.3480   25.2620   -3.9670 C   0  0  0  0  0
  -14.7680   23.8620   -4.3110 C   0  0  0  0  0
  -14.1270   22.9830   -3.3100 C   0  0  0  0  0
  -13.1590   23.8540   -2.5060 C   0  0  0  0  0
  -12.2060   23.7840   -1.5550 N   0  0  0  0  0
  -10.6020   24.5340    0.8510 C   0  0  0  0  0
  -11.6330   26.4326    5.4232 H   0  0  0  0  0
  -13.2764   27.3128    7.2630 H   0  0  0  0  0
  -15.2573   25.8003    8.0585 H   0  0  0  0  0
  -15.6112   23.4352    7.0072 H   0  0  0  0  0
  -13.9696   22.5551    5.1710 H   0  0  0  0  0
  -10.1472   25.2347    4.7776 H   0  0  0  0  0
   -9.6161   22.9903    2.8946 H   0  0  0  0  0
   -8.4276   24.0981    3.5264 H   0  0  0  0  0
   -8.1006   26.4619    2.5819 H   0  0  0  0  0
   -8.3636   27.9996    0.4973 H   0  0  0  0  0
  -10.0385   27.3262   -1.4126 H   0  0  0  0  0
  -12.3174   27.0118   -2.2485 H   0  0  0  0  0
  -14.7412   26.1747   -4.4147 H   0  0  0  0  0
  -15.4150   23.5556   -5.1330 H   0  0  0  0  0
  -13.5965   22.1652   -3.7977 H   0  0  0  0  0
  -14.8743   22.5324   -2.6569 H   0  0  0  0  0
  -11.2102   23.6343    0.9444 H   0  0  0  0  0
  1  2  2  0  0  0
  2  3  1  0  0  0
  2  9  1  0  0  0
  3  4  4  0  0  0
  3  8  4  0  0  0
  4  5  4  0  0  0
  5  6  4  0  0  0
  6  7  4  0  0  0
  7  8  4  0  0  0
  9 10  1  0  0  0
 10 11  1  0  0  0
 11 12  4  0  0  0
 11 24  4  0  0  0
 12 13  4  0  0  0
 13 14  4  0  0  0
 14 15  4  0  0  0
 15 16  1  0  0  0
 15 24  4  0  0  0
 16 17  4  0  0  0
 16 23  4  0  0  0
 17 18  4  0  0  0
 18 19  1  0  0  0
 18 22  4  0  0  0
 19 20  2  0  0  0
 20 21  1  0  0  0
 21 22  1  0  0  0
 22 23  4  0  0  0
  4 25  1  0  0  0
  5 26  1  0  0  0
  6 27  1  0  0  0
  7 28  1  0  0  0
  8 29  1  0  0  0
  9 30  1  0  0  0
 10 31  1  0  0  0
 10 32  1  0  0  0
 12 33  1  0  0  0
 13 34  1  0  0  0
 14 35  1  0  0  0
 17 36  1  0  0  0
 19 37  1  0  0  0
 20 38  1  0  0  0
 21 39  1  0  0  0
 21 40  1  0  0  0
 24 41  1  0  0  0
M  END
$$$$
