3r5j_ligand
  -I-interpret- 

 70 69  0  0  0  0  0  0  0  0999 V2000
  -29.6520   18.0510   31.2110 C   0  0  0  0  0
  -28.8540   18.8590   31.6830 O   0  0  0  0  0
  -30.3510   18.3050   29.9040 C   0  0  0  0  0
  -30.0560   16.9640   31.8710 N   0  0  0  0  0
  -29.2360   16.2690   32.8580 C   0  0  0  0  0
  -28.6370   14.9760   32.3150 C   0  0  0  0  0
  -29.1640   14.3650   31.3770 O   0  0  0  0  0
  -30.0490   15.9780   34.1090 C   0  0  0  0  0
  -27.5390   14.5570   32.9370 N   0  0  0  0  0
  -26.8880   13.2950   32.6020 C   0  0  0  0  0
  -27.5560   12.0920   33.2850 C   0  0  0  0  0
  -27.8520   12.1310   34.4870 O   0  0  0  0  0
  -25.3930   13.3960   32.9190 C   0  0  0  0  0
  -24.6830   14.4340   32.0410 C   0  0  0  0  0
  -24.8300   14.3640   30.8000 O   0  0  0  0  0
  -23.9580   15.3070   32.5670 O   0  0  0  0  0
  -27.8080   11.0400   32.4990 N   0  0  0  0  0
  -28.4000    9.7760   32.9750 C   0  0  0  0  0
  -27.5940    8.5670   32.4810 C   0  0  0  0  0
  -26.7190    8.7120   31.6230 O   0  0  0  0  0
  -29.8830    9.6050   32.5200 C   0  0  0  0  0
  -30.7830   10.6780   33.1450 C   0  0  0  0  0
  -30.0030    9.5860   30.9860 C   0  0  0  0  0
  -27.9120    7.3850   33.0120 N   0  0  0  0  0
  -27.1990    6.1420   32.6830 C   0  0  0  0  0
  -27.8710    5.3370   31.5630 C   0  0  0  0  0
  -29.0810    5.0940   31.5940 O   0  0  0  0  0
  -27.0380    5.2810   33.9300 C   0  0  0  0  0
  -27.0730    4.9240   30.5800 N   0  0  0  0  0
  -27.5420    4.0830   29.4730 C   0  0  0  0  0
  -27.8620    2.6450   29.9060 C   0  0  0  0  0
  -27.5468    1.6476   29.2036 O   0  0  0  0  0
  -26.5290    4.0990   28.3160 C   0  0  0  0  0
  -27.0300    4.8820   27.1280 C   0  0  0  0  0
  -26.2190    5.2120   26.2370 O   0  0  0  0  0
  -28.2510    5.1560   27.0870 O   0  0  0  0  0
  -28.4593    2.4562   30.9993 O   0  0  0  0  0
  -30.9395   19.2193   29.9799 H   0  0  0  0  0
  -29.6099   18.4131   29.1121 H   0  0  0  0  0
  -31.0085   17.4661   29.6760 H   0  0  0  0  0
  -30.9882   16.5992   31.6751 H   0  0  0  0  0
  -28.4069   16.9322   33.1047 H   0  0  0  0  0
  -30.8530   15.2836   33.8649 H   0  0  0  0  0
  -29.4021   15.5352   34.8663 H   0  0  0  0  0
  -30.4729   16.9073   34.4896 H   0  0  0  0  0
  -27.1381   15.1377   33.6735 H   0  0  0  0  0
  -27.0033   13.1157   31.5331 H   0  0  0  0  0
  -24.9395   12.4234   32.7280 H   0  0  0  0  0
  -25.2871   13.7028   33.9595 H   0  0  0  0  0
  -25.4183   13.6352   30.5892 H   0  0  0  0  0
  -27.5764   11.1166   31.5086 H   0  0  0  0  0
  -28.3725    9.8228   34.0636 H   0  0  0  0  0
  -30.2297    8.6370   32.8817 H   0  0  0  0  0
  -30.7408   10.5981   34.2313 H   0  0  0  0  0
  -30.4364   11.6649   32.8382 H   0  0  0  0  0
  -31.8092   10.5310   32.8082 H   0  0  0  0  0
  -29.6231   10.5242   30.5815 H   0  0  0  0  0
  -29.4210    8.7549   30.5876 H   0  0  0  0  0
  -31.0496    9.4655   30.7062 H   0  0  0  0  0
  -28.6848    7.3418   33.6763 H   0  0  0  0  0
  -26.2182    6.4351   32.3085 H   0  0  0  0  0
  -26.4690    5.8316   34.6791 H   0  0  0  0  0
  -28.0219    5.0336   34.3286 H   0  0  0  0  0
  -26.5084    4.3642   33.6710 H   0  0  0  0  0
  -26.0925    5.2047   30.5975 H   0  0  0  0  0
  -28.4814    4.5136   29.1263 H   0  0  0  0  0
  -26.3630    3.0699   27.9974 H   0  0  0  0  0
  -25.6150    4.5736   28.6730 H   0  0  0  0  0
  -28.6824    4.8078   27.8707 H   0  0  0  0  0
  -28.6321    3.3024   31.4185 H   0  0  0  0  0
  1  2  2  0  0  0
  1  3  1  0  0  0
  1  4  1  0  0  0
  4  5  1  0  0  0
  5  6  1  0  0  0
  5  8  1  0  0  0
  6  7  2  0  0  0
  6  9  1  0  0  0
  9 10  1  0  0  0
 10 11  1  0  0  0
 10 13  1  0  0  0
 11 12  2  0  0  0
 11 17  1  0  0  0
 13 14  1  0  0  0
 14 15  1  0  0  0
 14 16  2  0  0  0
 17 18  1  0  0  0
 18 19  1  0  0  0
 18 21  1  0  0  0
 19 20  2  0  0  0
 19 24  1  0  0  0
 21 22  1  0  0  0
 21 23  1  0  0  0
 24 25  1  0  0  0
 25 26  1  0  0  0
 25 28  1  0  0  0
 26 27  2  0  0  0
 26 29  1  0  0  0
 29 30  1  0  0  0
 30 31  1  0  0  0
 30 33  1  0  0  0
 31 32  2  0  0  0
 33 34  1  0  0  0
 34 35  2  0  0  0
 34 36  1  0  0  0
 31 37  1  0  0  0
  3 38  1  0  0  0
  3 39  1  0  0  0
  3 40  1  0  0  0
  4 41  1  0  0  0
  5 42  1  0  0  0
  8 43  1  0  0  0
  8 44  1  0  0  0
  8 45  1  0  0  0
  9 46  1  0  0  0
 10 47  1  0  0  0
 13 48  1  0  0  0
 13 49  1  0  0  0
 15 50  1  0  0  0
 17 51  1  0  0  0
 18 52  1  0  0  0
 21 53  1  0  0  0
 22 54  1  0  0  0
 22 55  1  0  0  0
 22 56  1  0  0  0
 23 57  1  0  0  0
 23 58  1  0  0  0
 23 59  1  0  0  0
 24 60  1  0  0  0
 25 61  1  0  0  0
 28 62  1  0  0  0
 28 63  1  0  0  0
 28 64  1  0  0  0
 29 65  1  0  0  0
 30 66  1  0  0  0
 33 67  1  0  0  0
 33 68  1  0  0  0
 36 69  1  0  0  0
 37 70  1  0  0  0
M  END
$$$$
