4bw4_ligand
  -I-interpret- 

 50 54  0  0  0  0  0  0  0  0999 V2000
   13.4400    4.6070    7.3460 C   0  0  0  0  0
   12.8670    4.7930    8.6480 O   0  0  0  0  0
   13.1690    3.8840    9.6000 C   0  0  0  0  0
   13.7890    2.7940    9.2490 N   0  0  0  0  0
   14.0430    1.9320   10.2860 C   0  0  0  0  0
   14.7200    0.7010   10.0280 C   0  0  0  0  0
   15.2250    0.1030    8.8820 N   0  0  0  0  0
   15.1970    0.6720    7.5550 C   0  0  0  0  0
   16.4000    1.1770    7.0710 C   0  0  0  0  0
   16.4410    1.7580    5.8160 C   0  0  0  0  0
   15.3000    1.8560    5.0540 C   0  0  0  0  0
   14.0940    1.3650    5.5260 C   0  0  0  0  0
   14.0340    0.7780    6.7850 C   0  0  0  0  0
   12.8920    0.2510    7.3870 O   0  0  0  0  0
   11.7500    0.3190    6.7040 C   0  0  0  0  0
   11.3750    1.5490    6.3840 F   0  0  0  0  0
   10.7970   -0.1820    7.4640 F   0  0  0  0  0
   11.7610   -0.4120    5.6050 F   0  0  0  0  0
   15.7760   -1.0640    9.2160 C   0  0  0  0  0
   16.3160   -1.8240    8.4300 O   0  0  0  0  0
   15.6220   -1.2340   10.5640 N   0  0  0  0  0
   14.9590   -0.1480   11.1110 C   0  0  0  0  0
   14.5290    0.2340   12.3780 C   0  0  0  0  0
   13.9030    1.3520   12.6630 N   0  0  0  0  0
   13.6460    2.2240   11.6300 C   0  0  0  0  0
   12.9760    3.4250   11.9420 C   0  0  0  0  0
   12.7430    4.2600   10.8860 C   0  0  0  0  0
   12.0560    5.5540   11.0950 C   0  0  0  0  0
   10.7920    5.7940   11.6750 C   0  0  0  0  0
    9.7970    4.8340   12.2360 C   0  0  0  0  0
   10.5180    7.0710   11.6790 N   0  0  0  0  0
   11.6370    7.7160   11.0900 O   0  0  0  0  0
   12.5350    6.7780   10.7640 C   0  0  0  0  0
   13.7910    7.2630   10.1370 C   0  0  0  0  0
   14.5271    4.6216    7.4234 H   0  0  0  0  0
   13.1161    3.6481    6.9415 H   0  0  0  0  0
   13.1106    5.4106    6.6873 H   0  0  0  0  0
   17.3041    1.1152    7.6767 H   0  0  0  0  0
   17.3849    2.1411    5.4281 H   0  0  0  0  0
   15.3453    2.3239    4.0706 H   0  0  0  0  0
   13.1957    1.4385    4.9130 H   0  0  0  0  0
   15.9484   -2.0441   11.0909 H   0  0  0  0  0
   14.7284   -0.4515   13.2016 H   0  0  0  0  0
   12.6649    3.6706   12.9574 H   0  0  0  0  0
    9.4875    4.1370   11.4573 H   0  0  0  0  0
   10.2505    4.2826   13.0597 H   0  0  0  0  0
    8.9287    5.3836   12.5995 H   0  0  0  0  0
   14.6405    6.9683   10.7531 H   0  0  0  0  0
   13.8920    6.8259    9.1436 H   0  0  0  0  0
   13.7590    8.3495   10.0558 H   0  0  0  0  0
  1  2  1  0  0  0
  2  3  1  0  0  0
  3  4  4  0  0  0
  3 27  4  0  0  0
  4  5  4  0  0  0
  5  6  4  0  0  0
  5 25  4  0  0  0
  6  7  1  0  0  0
  6 22  4  0  0  0
  7  8  1  0  0  0
  7 19  1  0  0  0
  8  9  4  0  0  0
  8 13  4  0  0  0
  9 10  4  0  0  0
 10 11  4  0  0  0
 11 12  4  0  0  0
 12 13  4  0  0  0
 13 14  1  0  0  0
 14 15  1  0  0  0
 15 16  1  0  0  0
 15 17  1  0  0  0
 15 18  1  0  0  0
 19 20  2  0  0  0
 19 21  1  0  0  0
 21 22  1  0  0  0
 22 23  4  0  0  0
 23 24  4  0  0  0
 24 25  4  0  0  0
 25 26  4  0  0  0
 26 27  4  0  0  0
 27 28  1  0  0  0
 28 29  4  0  0  0
 28 33  4  0  0  0
 29 30  1  0  0  0
 29 31  4  0  0  0
 31 32  4  0  0  0
 32 33  4  0  0  0
 33 34  1  0  0  0
  1 35  1  0  0  0
  1 36  1  0  0  0
  1 37  1  0  0  0
  9 38  1  0  0  0
 10 39  1  0  0  0
 11 40  1  0  0  0
 12 41  1  0  0  0
 21 42  1  0  0  0
 23 43  1  0  0  0
 26 44  1  0  0  0
 30 45  1  0  0  0
 30 46  1  0  0  0
 30 47  1  0  0  0
 34 48  1  0  0  0
 34 49  1  0  0  0
 34 50  1  0  0  0
M  END
$$$$
