### 
### Created by X-TOOL on Mon Sep 10 21:13:34 2018
### 

@<TRIPOS>MOLECULE
5mav_ligand
  248   250     1     0     0
SMALL
GAST_HUCK


@<TRIPOS>ATOM
      1 N        -489.2250  -30.1340   77.5460 N.4       1 LYS         0.2379
      2 CA       -488.1230  -30.5590   76.6900 C.3       1 LYS         0.0650
      3 C        -487.1530  -31.4620   77.4420 C.2       1 LYS         0.2268
      4 O        -486.1960  -31.9630   76.8630 O.2       1 LYS        -0.3907
      5 CB       -487.3790  -29.3480   76.1240 C.3       1 LYS         0.0080
      6 CG       -488.0070  -28.7560   74.8700 C.3       1 LYS        -0.0410
      7 CD       -487.0340  -28.7800   73.7020 C.3       1 LYS        -0.0123
      8 CE       -485.7450  -28.0460   74.0350 C.3       1 LYS        -0.0354
      9 NZ       -484.7530  -28.1240   72.9260 N.4       1 LYS         0.2185
     10 N        -487.3950  -31.6560   78.7350 N.am      1 ASP        -0.2595
     11 CA       -486.6490  -32.6380   79.5120 C.3       1 ASP         0.1424
     12 C        -487.2840  -34.0080   79.3190 C.2       1 ASP         0.2057
     13 O        -488.4500  -34.2100   79.6730 O.2       1 ASP        -0.3943
     14 CB       -486.6370  -32.2650   80.9930 C.3       1 ASP         0.0406
     15 CG       -485.4550  -31.3960   81.3730 C.2       1 ASP         0.0393
     16 OD1      -484.3390  -31.6470   80.8700 O.co2     1 ASP        -0.5688
     17 OD2      -485.6420  -30.4640   82.1830 O.co2     1 ASP        -0.5688
     18 N        -486.5320  -34.9460   78.7520 N.am      1 SER        -0.2615
     19 CA       -487.0330  -36.3080   78.6570 C.3       1 SER         0.1539
     20 C        -487.0080  -36.9600   80.0340 C.2       1 SER         0.2062
     21 O        -486.1480  -36.6680   80.8680 O.2       1 SER        -0.3943
     22 CB       -486.2040  -37.1270   77.6660 C.3       1 SER         0.0843
     23 OG       -484.9390  -37.4690   78.2060 O.3       1 SER        -0.3903
     24 N        -487.9800  -37.8300   80.2810 N.am      1 LYS        -0.2637
     25 CA       -487.9890  -38.5760   81.5280 C.3       1 LYS         0.1310
     26 C        -487.0350  -39.7580   81.4360 C.2       1 LYS         0.2039
     27 O        -486.8360  -40.3450   80.3680 O.2       1 LYS        -0.3944
     28 CB       -489.3990  -39.0590   81.8710 C.3       1 LYS        -0.0122
     29 CG       -490.2300  -38.0420   82.6380 C.3       1 LYS        -0.0440
     30 CD       -490.8500  -37.0100   81.7120 C.3       1 LYS        -0.0124
     31 CE       -491.4660  -35.8650   82.4980 C.3       1 LYS        -0.0354
     32 NZ       -492.4300  -36.3440   83.5270 N.4       1 LYS         0.2185
     33 N        -486.4300  -40.0990   82.5760 N.am      1 ILE        -0.2635
     34 CA       -485.4550  -41.1800   82.5940 C.3       1 ILE         0.1335
     35 C        -486.1310  -42.5370   82.4470 C.2       1 ILE         0.2042
     36 O        -485.4630  -43.5290   82.1320 O.2       1 ILE        -0.3944
     37 CB       -484.6080  -41.1050   83.8780 C.3       1 ILE        -0.0037
     38 CG1      -483.1890  -41.5950   83.6070 C.3       1 ILE        -0.0491
     39 CG2      -485.2500  -41.9090   84.9940 C.3       1 ILE        -0.0582
     40 CD1      -482.3030  -41.5030   84.7980 C.3       1 ILE        -0.0648
     41 N        -487.4480  -42.6040   82.6540 N.am      1 THR        -0.2613
     42 CA       -488.2030  -43.8180   82.3720 C.3       1 THR         0.1565
     43 C        -488.3330  -44.0880   80.8790 C.2       1 THR         0.2066
     44 O        -488.8220  -45.1570   80.5010 O.2       1 THR        -0.3943
     45 CB       -489.5960  -43.7350   82.9980 C.3       1 THR         0.0924
     46 OG1      -490.3300  -42.6630   82.3930 O.3       1 THR        -0.3874
     47 CG2      -489.4930  -43.4900   84.4950 C.3       1 THR        -0.0346
     48 N        -487.9230  -43.1480   80.0320 N.am      1 ASP        -0.2621
     49 CA       -487.8970  -43.3490   78.5910 C.3       1 ASP         0.1423
     50 C        -486.6100  -44.0100   78.1190 C.2       1 ASP         0.2057
     51 O        -486.4280  -44.1930   76.9110 O.2       1 ASP        -0.3943
     52 CB       -488.0860  -42.0120   77.8670 C.3       1 ASP         0.0406
     53 CG       -489.3530  -41.2960   78.2890 C.2       1 ASP         0.0393
     54 OD1      -490.2330  -41.9460   78.8900 O.co2     1 ASP        -0.5688
     55 OD2      -489.4700  -40.0820   78.0180 O.co2     1 ASP        -0.5688
     56 N        -485.7140  -44.3650   79.0420 N.am      1 HIS        -0.2624
     57 CA       -484.4730  -45.0440   78.7070 C.3       1 HIS         0.1369
     58 C        -484.2200  -46.2860   79.5450 C.2       1 HIS         0.2055
     59 O        -483.2780  -47.0270   79.2440 O.2       1 HIS        -0.3942
     60 CB       -483.2780  -44.0900   78.8640 C.3       1 HIS         0.0145
     61 CG       -483.4040  -42.8280   78.0700 C.2       1 HIS        -0.0027
     62 ND1      -483.7350  -41.6190   78.6430 N.2       1 HIS        -0.3252
     63 CD2      -483.2420  -42.5860   76.7480 C.2       1 HIS         0.0291
     64 CE1      -483.7720  -40.6860   77.7070 C.2       1 HIS         0.0907
     65 NE2      -483.4760  -41.2470   76.5490 N.pl3     1 HIS        -0.2752
     66 N        -485.0200  -46.5360   80.5800 N.am      1 PHE        -0.2618
     67 CA       -484.8550  -47.6870   81.4570 C.3       1 PHE         0.1404
     68 C        -486.2310  -48.2440   81.7850 C.2       1 PHE         0.2060
     69 O        -487.1470  -47.4820   82.1090 O.2       1 PHE        -0.3942
     70 CB       -484.1170  -47.3000   82.7440 C.3       1 PHE         0.0214
     71 CG       -482.7500  -46.7200   82.5130 C.ar      1 PHE        -0.0386
     72 CD1      -481.7760  -47.4450   81.8470 C.ar      1 PHE        -0.0601
     73 CD2      -482.4350  -45.4510   82.9740 C.ar      1 PHE        -0.0601
     74 CE1      -480.5160  -46.9140   81.6390 C.ar      1 PHE        -0.0686
     75 CE2      -481.1760  -44.9150   82.7690 C.ar      1 PHE        -0.0686
     76 CZ       -480.2160  -45.6480   82.1010 C.ar      1 PHE        -0.0687
     77 N        -486.3740  -49.5620   81.7070 N.am      1 MET        -0.2636
     78 CA       -487.6660  -50.1990   81.9060 C.3       1 MET         0.1317
     79 C        -487.8440  -50.6440   83.3550 C.2       1 MET         0.2039
     80 O        -486.8790  -50.8700   84.0900 O.2       1 MET        -0.3944
     81 CB       -487.8280  -51.3900   80.9610 C.3       1 MET        -0.0034
     82 CG       -487.9530  -50.9940   79.4980 C.3       1 MET        -0.0024
     83 SD       -487.9360  -52.4020   78.3720 S.3       1 MET        -0.1639
     84 CE       -486.1740  -52.6740   78.1960 C.3       1 MET        -0.0181
     85 N        -489.1070  -50.7670   83.7580 N.am      1 ARG        -0.2637
     86 CA       -489.4420  -51.1470   85.1230 C.3       1 ARG         0.1311
     87 C        -489.3090  -52.6540   85.3020 C.2       1 ARG         0.2039
     88 O        -489.8360  -53.4310   84.5010 O.2       1 ARG        -0.3944
     89 CB       -490.8670  -50.7090   85.4670 C.3       1 ARG        -0.0092
     90 CG       -491.2300  -49.3150   84.9920 C.3       1 ARG        -0.0156
     91 CD       -491.7350  -48.4560   86.1390 C.3       1 ARG         0.0627
     92 NE       -492.1040  -47.1150   85.6950 N.pl3     1 ARG        -0.2723
     93 CZ       -493.3550  -46.6790   85.5930 C.cat     1 ARG         0.2882
     94 NH1      -494.3670  -47.4740   85.9120 N.pl3     1 ARG        -0.2849
     95 NH2      -493.5950  -45.4420   85.1770 N.pl3     1 ARG        -0.2849
     96 N        -488.6060  -53.0630   86.3480 N.am      1 LEU        -0.2637
     97 CA       -488.6360  -54.4940   86.6040 C.3       1 LEU         0.1314
     98 C        -489.7280  -54.8170   87.6220 C.2       1 LEU         0.2064
     99 O        -490.0030  -54.0170   88.5250 O.2       1 LEU        -0.3942
    100 CB       -487.2850  -54.9790   87.1180 C.3       1 LEU        -0.0101
    101 CG       -486.0330  -54.4270   86.4490 C.3       1 LEU        -0.0425
    102 CD1      -484.8250  -54.6890   87.3370 C.3       1 LEU        -0.0625
    103 CD2      -485.8310  -55.0240   85.0580 C.3       1 LEU        -0.0625
    104 N        -490.3540  -55.9830   87.5140 N.am      1 PRO        -0.2498
    105 CA       -491.6090  -56.2320   88.2270 C.3       1 PRO         0.1337
    106 C        -491.3810  -56.5930   89.6910 C.2       1 PRO         0.2035
    107 O        -490.2730  -56.5110   90.2170 O.2       1 PRO        -0.3944
    108 CB       -492.2020  -57.4100   87.4560 C.3       1 PRO        -0.0104
    109 CG       -491.0020  -58.1820   87.0280 C.3       1 PRO        -0.0281
    110 CD       -489.9450  -57.1500   86.7090 C.3       1 PRO         0.0369
    111 N        -492.4800  -56.9790   90.3380 N.am      1 LYS        -0.2695
    112 CA       -492.5350  -57.5330   91.6910 C.3       1 LYS         0.0944
    113 C        -491.2340  -58.1450   92.2070 C.2       1 LYS         0.0601
    114 O        -491.2530  -59.0160   93.0800 O.co2     1 LYS        -0.5666
    115 CB       -493.6330  -58.5930   91.7270 C.3       1 LYS        -0.0177
    116 CG       -493.7700  -59.3370   90.3920 C.3       1 LYS        -0.0446
    117 CD       -493.0000  -60.6590   90.4050 C.3       1 LYS        -0.0125
    118 CE       -493.1430  -61.4290   89.0920 C.3       1 LYS        -0.0354
    119 NZ       -492.5940  -62.8150   89.1780 N.4       1 LYS         0.2185
    120 OXT      -490.1460  -57.7770   91.7580 O.co2     1 LYS        -0.5666
    121 H1       -489.8478  -29.5396   77.0217 H         1 LYS         0.2015
    122 H2       -488.8600  -29.6247   78.3356 H         1 LYS         0.2015
    123 H3       -489.7288  -30.9439   77.8722 H         1 LYS         0.2015
    124 H4       -488.5441  -31.1305   75.8497 H         1 LYS         0.1098
    125 H5       -486.3517  -29.6575   75.8814 H         1 LYS         0.0346
    126 H6       -487.3535  -28.5668   76.8980 H         1 LYS         0.0346
    127 H7       -488.2986  -27.7148   75.0723 H         1 LYS         0.0270
    128 H8       -488.8995  -29.3419   74.6051 H         1 LYS         0.0270
    129 H9       -487.5060  -28.2972   72.8336 H         1 LYS         0.0317
    130 H10      -486.7965  -29.8255   73.4561 H         1 LYS         0.0317
    131 H11      -485.3042  -28.4948   74.9373 H         1 LYS         0.0813
    132 H12      -485.9787  -26.9886   74.2281 H         1 LYS         0.0813
    133 H13      -483.9165  -27.6262   73.1878 H         1 LYS         0.1994
    134 H14      -485.1447  -27.7091   72.0950 H         1 LYS         0.1994
    135 H15      -484.5266  -29.0894   72.7449 H         1 LYS         0.1994
    136 H16      -488.1057  -31.1153   79.1851 H         1 ASP         0.1886
    137 H17      -485.6115  -32.6682   79.1477 H         1 ASP         0.0819
    138 H18      -486.5982  -33.1897   81.5875 H         1 ASP         0.0478
    139 H19      -487.5631  -31.7186   81.2248 H         1 ASP         0.0478
    140 H20      -485.6273  -34.7166   78.3930 H         1 SER         0.1884
    141 H21      -488.0728  -36.2761   78.2996 H         1 SER         0.0823
    142 H22      -486.0540  -36.5356   76.7508 H         1 SER         0.0606
    143 H23      -486.7494  -38.0502   77.4207 H         1 SER         0.0606
    144 H24      -484.4605  -36.6756   78.4158 H         1 SER         0.2097
    145 H25      -488.7064  -37.9720   79.6085 H         1 LYS         0.1883
    146 H26      -487.6453  -37.9103   82.3334 H         1 LYS         0.0800
    147 H27      -489.3139  -39.9689   82.4832 H         1 LYS         0.0312
    148 H28      -489.9217  -39.2960   80.9326 H         1 LYS         0.0312
    149 H29      -489.5828  -37.5270   83.3632 H         1 LYS         0.0269
    150 H30      -491.0336  -38.5691   83.1732 H         1 LYS         0.0269
    151 H31      -491.6330  -37.4933   81.1093 H         1 LYS         0.0317
    152 H32      -490.0701  -36.6100   81.0473 H         1 LYS         0.0317
    153 H33      -491.9949  -35.1999   81.7995 H         1 LYS         0.0813
    154 H34      -490.6618  -35.3061   82.9989 H         1 LYS         0.0813
    155 H35      -492.8128  -35.5540   84.0224 H         1 LYS         0.1994
    156 H36      -491.9541  -36.9497   84.1771 H         1 LYS         0.1994
    157 H37      -493.1757  -36.8524   83.0781 H         1 LYS         0.1994
    158 H38      -486.6473  -39.6101   83.4208 H         1 ILE         0.1883
    159 H39      -484.7817  -41.0461   81.7346 H         1 ILE         0.0803
    160 H40      -484.5559  -40.0536   84.1970 H         1 ILE         0.0345
    161 H41      -482.7559  -40.9851   82.8005 H         1 ILE         0.0267
    162 H42      -483.2367  -42.6462   83.2865 H         1 ILE         0.0267
    163 H43      -486.2706  -41.5392   85.1720 H         1 ILE         0.0235
    164 H44      -484.6553  -41.8006   85.9130 H         1 ILE         0.0235
    165 H45      -485.2895  -42.9698   84.7058 H         1 ILE         0.0235
    166 H46      -481.2992  -41.8698   84.5374 H         1 ILE         0.0230
    167 H47      -482.7176  -42.1162   85.6117 H         1 ILE         0.0230
    168 H48      -482.2368  -40.4551   85.1257 H         1 ILE         0.0230
    169 H49      -487.9277  -41.8024   83.0109 H         1 THR         0.1884
    170 H50      -487.6660  -44.6636   82.8264 H         1 THR         0.0826
    171 H51      -490.1258  -44.6831   82.8234 H         1 THR         0.0639
    172 H52      -491.1948  -42.6131   82.7831 H         1 THR         0.2101
    173 H53      -490.5028  -43.4333   84.9276 H         1 THR         0.0257
    174 H54      -488.9629  -42.5433   84.6760 H         1 THR         0.0257
    175 H55      -488.9389  -44.3161   84.9645 H         1 THR         0.0257
    176 H56      -487.6207  -42.2686   80.3999 H         1 ASP         0.1884
    177 H57      -488.7356  -44.0099   78.3265 H         1 ASP         0.0819
    178 H58      -488.1318  -42.2008   76.7843 H         1 ASP         0.0478
    179 H59      -487.2247  -41.3653   78.0904 H         1 ASP         0.0478
    180 H60      -485.9036  -44.1558   80.0013 H         1 HIS         0.1885
    181 H61      -484.5370  -45.3534   77.6534 H         1 HIS         0.0817
    182 H62      -482.3690  -44.6161   78.5370 H         1 HIS         0.0420
    183 H63      -483.1848  -43.8230   79.9270 H         1 HIS         0.0420
    184 H64      -482.9760  -43.3161   75.9850 H         1 HIS         0.0729
    185 H65      -484.0066  -39.6343   77.8643 H         1 HIS         0.1199
    186 H66      -483.4283  -40.7595   75.6429 H         1 HIS         0.2361
    187 H67      -485.7711  -45.9020   80.7641 H         1 PHE         0.1885
    188 H68      -484.2689  -48.4563   80.9328 H         1 PHE         0.0823
    189 H69      -484.0100  -48.2010   83.3658 H         1 PHE         0.0474
    190 H70      -484.7231  -46.5546   83.2797 H         1 PHE         0.0474
    191 H71      -482.0039  -48.4408   81.4843 H         1 PHE         0.0557
    192 H72      -483.1842  -44.8717   83.5015 H         1 PHE         0.0557
    193 H73      -479.7642  -47.4916   81.1134 H         1 PHE         0.0599
    194 H74      -480.9438  -43.9205   83.1326 H         1 PHE         0.0599
    195 H75      -479.2287  -45.2306   81.9395 H         1 PHE         0.0559
    196 H76      -485.5751  -50.1292   81.5069 H         1 MET         0.1883
    197 H77      -488.4504  -49.4637   81.6735 H         1 MET         0.0800
    198 H78      -488.7340  -51.9427   81.2502 H         1 MET         0.0320
    199 H79      -486.9495  -52.0429   81.0706 H         1 MET         0.0320
    200 H80      -487.1118  -50.3329   79.2425 H         1 MET         0.0378
    201 H81      -488.9001  -50.4511   79.3633 H         1 MET         0.0378
    202 H82      -486.0000  -53.5241   77.5200 H         1 MET         0.0340
    203 H83      -485.7366  -52.8935   79.1812 H         1 MET         0.0340
    204 H84      -485.7035  -51.7715   77.7787 H         1 MET         0.0340
    205 H85      -489.8451  -50.5938   83.1059 H         1 ARG         0.1883
    206 H86      -488.7429  -50.6460   85.8088 H         1 ARG         0.0800
    207 H87      -490.9810  -50.7395   86.5606 H         1 ARG         0.0313
    208 H88      -491.5661  -51.4218   85.0054 H         1 ARG         0.0313
    209 H89      -492.0170  -49.3904   84.2272 H         1 ARG         0.0301
    210 H90      -490.3384  -48.8416   84.5552 H         1 ARG         0.0301
    211 H91      -490.9423  -48.3737   86.8972 H         1 ARG         0.0689
    212 H92      -492.6181  -48.9390   86.5827 H         1 ARG         0.0689
    213 H93      -491.3454  -46.4648   85.4446 H         1 ARG         0.2642
    214 H94      -495.3354  -47.1324   85.8316 H         1 ARG         0.2615
    215 H95      -494.1848  -48.4332   86.2402 H         1 ARG         0.2615
    216 H96      -492.8116  -44.8212   84.9282 H         1 ARG         0.2615
    217 H97      -494.5647  -45.1026   85.1029 H         1 ARG         0.2615
    218 H98      -488.0889  -52.4293   86.9234 H         1 LEU         0.1883
    219 H99      -488.8625  -55.0158   85.6625 H         1 LEU         0.0800
    220 H100     -487.2634  -56.0728   87.0036 H         1 LEU         0.0315
    221 H101     -487.2278  -54.7208   88.1857 H         1 LEU         0.0315
    222 H102     -486.1523  -53.3392   86.3375 H         1 LEU         0.0298
    223 H103     -483.9211  -54.2902   86.8534 H         1 LEU         0.0232
    224 H104     -484.7110  -55.7722   87.4908 H         1 LEU         0.0232
    225 H105     -484.9698  -54.1939   88.3086 H         1 LEU         0.0232
    226 H106     -486.7173  -54.8200   84.4392 H         1 LEU         0.0232
    227 H107     -485.6856  -56.1110   85.1431 H         1 LEU         0.0232
    228 H108     -484.9448  -54.5710   84.5897 H         1 LEU         0.0232
    229 H109     -492.2687  -55.3535   88.1722 H         1 PRO         0.0802
    230 H110     -492.7767  -57.0613   86.5853 H         1 PRO         0.0313
    231 H111     -492.8506  -58.0180   88.1039 H         1 PRO         0.0313
    232 H112     -491.2312  -58.7845   86.1367 H         1 PRO         0.0287
    233 H113     -490.6611  -58.8422   87.8391 H         1 PRO         0.0287
    234 H114     -488.9469  -57.5036   87.0069 H         1 PRO         0.0524
    235 H115     -489.9429  -56.9071   85.6362 H         1 PRO         0.0524
    236 H116     -493.3491  -56.8808   89.8531 H         1 LYS         0.1875
    237 H117     -492.8073  -56.7149   92.3740 H         1 LYS         0.0726
    238 H118     -494.5902  -58.1028   91.9583 H         1 LYS         0.0305
    239 H119     -493.3946  -59.3223   92.5152 H         1 LYS         0.0305
    240 H120     -493.3746  -58.7011   89.5862 H         1 LYS         0.0269
    241 H121     -494.8341  -59.5450   90.2063 H         1 LYS         0.0269
    242 H122     -493.3844  -61.2838   91.2247 H         1 LYS         0.0317
    243 H123     -491.9344  -60.4456   90.5752 H         1 LYS         0.0317
    244 H124     -492.6033  -60.8844   88.3033 H         1 LYS         0.0813
    245 H125     -494.2103  -61.4881   88.8323 H         1 LYS         0.0813
    246 H126     -492.7119  -63.2787   88.2908 H         1 LYS         0.1994
    247 H127     -493.0861  -63.3276   89.8930 H         1 LYS         0.1994
    248 H128     -491.6135  -62.7744   89.4082 H         1 LYS         0.1994
@<TRIPOS>BOND
     1    1    2 1  
     2    2    3 1  
     3    2    5 1  
     4    3    4 2  
     5    3   10 am 
     6    5    6 1  
     7    6    7 1  
     8    7    8 1  
     9    8    9 1  
    10   10   11 1  
    11   11   12 1  
    12   11   14 1  
    13   12   13 2  
    14   12   18 am 
    15   14   15 1  
    16   15   16 ar 
    17   15   17 ar 
    18   18   19 1  
    19   19   20 1  
    20   19   22 1  
    21   20   21 2  
    22   20   24 am 
    23   22   23 1  
    24   24   25 1  
    25   25   26 1  
    26   25   28 1  
    27   26   27 2  
    28   26   33 am 
    29   28   29 1  
    30   29   30 1  
    31   30   31 1  
    32   31   32 1  
    33   33   34 1  
    34   34   35 1  
    35   34   37 1  
    36   35   36 2  
    37   35   41 am 
    38   37   38 1  
    39   37   39 1  
    40   38   40 1  
    41   41   42 1  
    42   42   43 1  
    43   42   45 1  
    44   43   44 2  
    45   43   48 am 
    46   45   46 1  
    47   45   47 1  
    48   48   49 1  
    49   49   50 1  
    50   49   52 1  
    51   50   51 2  
    52   50   56 am 
    53   52   53 1  
    54   53   54 ar 
    55   53   55 ar 
    56   56   57 1  
    57   57   58 1  
    58   57   60 1  
    59   58   59 2  
    60   58   66 am 
    61   60   61 1  
    62   61   62 1  
    63   61   63 2  
    64   62   64 2  
    65   63   65 1  
    66   64   65 1  
    67   66   67 1  
    68   67   68 1  
    69   67   70 1  
    70   68   69 2  
    71   68   77 am 
    72   70   71 1  
    73   71   72 ar 
    74   71   73 ar 
    75   72   74 ar 
    76   73   75 ar 
    77   74   76 ar 
    78   75   76 ar 
    79   77   78 1  
    80   78   79 1  
    81   78   81 1  
    82   79   80 2  
    83   79   85 am 
    84   81   82 1  
    85   82   83 1  
    86   83   84 1  
    87   85   86 1  
    88   86   87 1  
    89   86   89 1  
    90   87   88 2  
    91   87   96 am 
    92   89   90 1  
    93   90   91 1  
    94   91   92 1  
    95   92   93 ar 
    96   93   94 ar 
    97   93   95 ar 
    98   96   97 1  
    99   97   98 1  
   100   97  100 1  
   101   98   99 2  
   102   98  104 am 
   103  100  101 1  
   104  101  102 1  
   105  101  103 1  
   106  104  105 1  
   107  104  110 1  
   108  105  106 1  
   109  105  108 1  
   110  106  107 2  
   111  106  111 am 
   112  108  109 1  
   113  109  110 1  
   114  111  112 1  
   115  112  113 1  
   116  112  115 1  
   117  113  114 ar 
   118  113  120 ar 
   119  115  116 1  
   120  116  117 1  
   121  117  118 1  
   122  118  119 1  
   123    1  121 1  
   124    1  122 1  
   125    1  123 1  
   126    2  124 1  
   127    5  125 1  
   128    5  126 1  
   129    6  127 1  
   130    6  128 1  
   131    7  129 1  
   132    7  130 1  
   133    8  131 1  
   134    8  132 1  
   135    9  133 1  
   136    9  134 1  
   137    9  135 1  
   138   10  136 1  
   139   11  137 1  
   140   14  138 1  
   141   14  139 1  
   142   18  140 1  
   143   19  141 1  
   144   22  142 1  
   145   22  143 1  
   146   23  144 1  
   147   24  145 1  
   148   25  146 1  
   149   28  147 1  
   150   28  148 1  
   151   29  149 1  
   152   29  150 1  
   153   30  151 1  
   154   30  152 1  
   155   31  153 1  
   156   31  154 1  
   157   32  155 1  
   158   32  156 1  
   159   32  157 1  
   160   33  158 1  
   161   34  159 1  
   162   37  160 1  
   163   38  161 1  
   164   38  162 1  
   165   39  163 1  
   166   39  164 1  
   167   39  165 1  
   168   40  166 1  
   169   40  167 1  
   170   40  168 1  
   171   41  169 1  
   172   42  170 1  
   173   45  171 1  
   174   46  172 1  
   175   47  173 1  
   176   47  174 1  
   177   47  175 1  
   178   48  176 1  
   179   49  177 1  
   180   52  178 1  
   181   52  179 1  
   182   56  180 1  
   183   57  181 1  
   184   60  182 1  
   185   60  183 1  
   186   63  184 1  
   187   64  185 1  
   188   65  186 1  
   189   66  187 1  
   190   67  188 1  
   191   70  189 1  
   192   70  190 1  
   193   72  191 1  
   194   73  192 1  
   195   74  193 1  
   196   75  194 1  
   197   76  195 1  
   198   77  196 1  
   199   78  197 1  
   200   81  198 1  
   201   81  199 1  
   202   82  200 1  
   203   82  201 1  
   204   84  202 1  
   205   84  203 1  
   206   84  204 1  
   207   85  205 1  
   208   86  206 1  
   209   89  207 1  
   210   89  208 1  
   211   90  209 1  
   212   90  210 1  
   213   91  211 1  
   214   91  212 1  
   215   92  213 1  
   216   94  214 1  
   217   94  215 1  
   218   95  216 1  
   219   95  217 1  
   220   96  218 1  
   221   97  219 1  
   222  100  220 1  
   223  100  221 1  
   224  101  222 1  
   225  102  223 1  
   226  102  224 1  
   227  102  225 1  
   228  103  226 1  
   229  103  227 1  
   230  103  228 1  
   231  105  229 1  
   232  108  230 1  
   233  108  231 1  
   234  109  232 1  
   235  109  233 1  
   236  110  234 1  
   237  110  235 1  
   238  111  236 1  
   239  112  237 1  
   240  115  238 1  
   241  115  239 1  
   242  116  240 1  
   243  116  241 1  
   244  117  242 1  
   245  117  243 1  
   246  118  244 1  
   247  118  245 1  
   248  119  246 1  
   249  119  247 1  
   250  119  248 1  
@<TRIPOS>SUBSTRUCTURE
     1 LYS         1

