5mav_ligand
  -I-interpret- 

249251  0  0  0  0  0  0  0  0999 V2000
 -489.2250  -30.1340   77.5460 N   0  3  0  0  0
 -488.1230  -30.5590   76.6900 C   0  0  0  0  0
 -487.1530  -31.4620   77.4420 C   0  0  0  0  0
 -486.1960  -31.9630   76.8630 O   0  0  0  0  0
 -487.3790  -29.3480   76.1240 C   0  0  0  0  0
 -488.0070  -28.7560   74.8700 C   0  0  0  0  0
 -487.0340  -28.7800   73.7020 C   0  0  0  0  0
 -485.7450  -28.0460   74.0350 C   0  0  0  0  0
 -484.7530  -28.1240   72.9260 N   0  3  0  0  0
 -487.3950  -31.6560   78.7350 N   0  0  0  0  0
 -486.6490  -32.6380   79.5120 C   0  0  0  0  0
 -487.2840  -34.0080   79.3190 C   0  0  0  0  0
 -488.4500  -34.2100   79.6730 O   0  0  0  0  0
 -486.6370  -32.2650   80.9930 C   0  0  0  0  0
 -485.4550  -31.3960   81.3730 C   0  0  0  0  0
 -484.3390  -31.6470   80.8700 O   0  0  0  0  0
 -485.6420  -30.4640   82.1830 O   0  0  0  0  0
 -486.5320  -34.9460   78.7520 N   0  0  0  0  0
 -487.0330  -36.3080   78.6570 C   0  0  0  0  0
 -487.0080  -36.9600   80.0340 C   0  0  0  0  0
 -486.1480  -36.6680   80.8680 O   0  0  0  0  0
 -486.2040  -37.1270   77.6660 C   0  0  0  0  0
 -484.9390  -37.4690   78.2060 O   0  0  0  0  0
 -487.9800  -37.8300   80.2810 N   0  0  0  0  0
 -487.9890  -38.5760   81.5280 C   0  0  0  0  0
 -487.0350  -39.7580   81.4360 C   0  0  0  0  0
 -486.8360  -40.3450   80.3680 O   0  0  0  0  0
 -489.3990  -39.0590   81.8710 C   0  0  0  0  0
 -490.2300  -38.0420   82.6380 C   0  0  0  0  0
 -490.8500  -37.0100   81.7120 C   0  0  0  0  0
 -491.4660  -35.8650   82.4980 C   0  0  0  0  0
 -492.4300  -36.3440   83.5270 N   0  3  0  0  0
 -486.4300  -40.0990   82.5760 N   0  0  0  0  0
 -485.4550  -41.1800   82.5940 C   0  0  0  0  0
 -486.1310  -42.5370   82.4470 C   0  0  0  0  0
 -485.4630  -43.5290   82.1320 O   0  0  0  0  0
 -484.6080  -41.1050   83.8780 C   0  0  0  0  0
 -483.1890  -41.5950   83.6070 C   0  0  0  0  0
 -485.2500  -41.9090   84.9940 C   0  0  0  0  0
 -482.3030  -41.5030   84.7980 C   0  0  0  0  0
 -487.4480  -42.6040   82.6540 N   0  0  0  0  0
 -488.2030  -43.8180   82.3720 C   0  0  0  0  0
 -488.3330  -44.0880   80.8790 C   0  0  0  0  0
 -488.8220  -45.1570   80.5010 O   0  0  0  0  0
 -489.5960  -43.7350   82.9980 C   0  0  0  0  0
 -490.3300  -42.6630   82.3930 O   0  0  0  0  0
 -489.4930  -43.4900   84.4950 C   0  0  0  0  0
 -487.9230  -43.1480   80.0320 N   0  0  0  0  0
 -487.8970  -43.3490   78.5910 C   0  0  0  0  0
 -486.6100  -44.0100   78.1190 C   0  0  0  0  0
 -486.4280  -44.1930   76.9110 O   0  0  0  0  0
 -488.0860  -42.0120   77.8670 C   0  0  0  0  0
 -489.3530  -41.2960   78.2890 C   0  0  0  0  0
 -490.2330  -41.9460   78.8900 O   0  0  0  0  0
 -489.4700  -40.0820   78.0180 O   0  0  0  0  0
 -485.7140  -44.3650   79.0420 N   0  0  0  0  0
 -484.4730  -45.0440   78.7070 C   0  0  0  0  0
 -484.2200  -46.2860   79.5450 C   0  0  0  0  0
 -483.2780  -47.0270   79.2440 O   0  0  0  0  0
 -483.2780  -44.0900   78.8640 C   0  0  0  0  0
 -483.4040  -42.8280   78.0700 C   0  0  0  0  0
 -483.7350  -41.6190   78.6430 N   0  0  0  0  0
 -483.2420  -42.5860   76.7480 C   0  0  0  0  0
 -483.7720  -40.6860   77.7070 C   0  0  0  0  0
 -483.4760  -41.2470   76.5490 N   0  0  0  0  0
 -485.0200  -46.5360   80.5800 N   0  0  0  0  0
 -484.8550  -47.6870   81.4570 C   0  0  0  0  0
 -486.2310  -48.2440   81.7850 C   0  0  0  0  0
 -487.1470  -47.4820   82.1090 O   0  0  0  0  0
 -484.1170  -47.3000   82.7440 C   0  0  0  0  0
 -482.7500  -46.7200   82.5130 C   0  0  0  0  0
 -481.7760  -47.4450   81.8470 C   0  0  0  0  0
 -482.4350  -45.4510   82.9740 C   0  0  0  0  0
 -480.5160  -46.9140   81.6390 C   0  0  0  0  0
 -481.1760  -44.9150   82.7690 C   0  0  0  0  0
 -480.2160  -45.6480   82.1010 C   0  0  0  0  0
 -486.3740  -49.5620   81.7070 N   0  0  0  0  0
 -487.6660  -50.1990   81.9060 C   0  0  0  0  0
 -487.8440  -50.6440   83.3550 C   0  0  0  0  0
 -486.8790  -50.8700   84.0900 O   0  0  0  0  0
 -487.8280  -51.3900   80.9610 C   0  0  0  0  0
 -487.9530  -50.9940   79.4980 C   0  0  0  0  0
 -487.9360  -52.4020   78.3720 S   0  0  0  0  0
 -486.1740  -52.6740   78.1960 C   0  0  0  0  0
 -489.1070  -50.7670   83.7580 N   0  0  0  0  0
 -489.4420  -51.1470   85.1230 C   0  0  0  0  0
 -489.3090  -52.6540   85.3020 C   0  0  0  0  0
 -489.8360  -53.4310   84.5010 O   0  0  0  0  0
 -490.8670  -50.7090   85.4670 C   0  0  0  0  0
 -491.2300  -49.3150   84.9920 C   0  0  0  0  0
 -491.7350  -48.4560   86.1390 C   0  0  0  0  0
 -492.1040  -47.1150   85.6950 N   0  0  0  0  0
 -493.3550  -46.6790   85.5930 C   0  0  0  0  0
 -494.3670  -47.4740   85.9120 N   0  0  0  0  0
 -493.5950  -45.4420   85.1770 N   0  0  0  0  0
 -488.6060  -53.0630   86.3480 N   0  0  0  0  0
 -488.6360  -54.4940   86.6040 C   0  0  0  0  0
 -489.7280  -54.8170   87.6220 C   0  0  0  0  0
 -490.0030  -54.0170   88.5250 O   0  0  0  0  0
 -487.2850  -54.9790   87.1180 C   0  0  0  0  0
 -486.0330  -54.4270   86.4490 C   0  0  0  0  0
 -484.8250  -54.6890   87.3370 C   0  0  0  0  0
 -485.8310  -55.0240   85.0580 C   0  0  0  0  0
 -490.3540  -55.9830   87.5140 N   0  0  0  0  0
 -491.6090  -56.2320   88.2270 C   0  0  0  0  0
 -491.3810  -56.5930   89.6910 C   0  0  0  0  0
 -490.2730  -56.5110   90.2170 O   0  0  0  0  0
 -492.2020  -57.4100   87.4560 C   0  0  0  0  0
 -491.0020  -58.1820   87.0280 C   0  0  0  0  0
 -489.9450  -57.1500   86.7090 C   0  0  0  0  0
 -492.4800  -56.9790   90.3380 N   0  0  0  0  0
 -492.5350  -57.5330   91.6910 C   0  0  0  0  0
 -491.2340  -58.1450   92.2070 C   0  0  0  0  0
 -491.2530  -59.0160   93.0800 O   0  0  0  0  0
 -493.6330  -58.5930   91.7270 C   0  0  0  0  0
 -493.7700  -59.3370   90.3920 C   0  0  0  0  0
 -493.0000  -60.6590   90.4050 C   0  0  0  0  0
 -493.1430  -61.4290   89.0920 C   0  0  0  0  0
 -492.5940  -62.8150   89.1780 N   0  3  0  0  0
 -490.1460  -57.7770   91.7580 O   0  0  0  0  0
 -489.7062  -30.9556   77.9118 H   0  0  0  0  0
 -488.8585  -29.5804   78.3203 H   0  0  0  0  0
 -489.8782  -29.5699   77.0024 H   0  0  0  0  0
 -488.5499  -31.1287   75.8646 H   0  0  0  0  0
 -486.3783  -29.6846   75.8530 H   0  0  0  0  0
 -487.3999  -28.5725   76.8896 H   0  0  0  0  0
 -488.2796  -27.7205   75.0737 H   0  0  0  0  0
 -488.8816  -29.3504   74.6057 H   0  0  0  0  0
 -487.5032  -28.2851   72.8517 H   0  0  0  0  0
 -486.7914  -29.8184   73.4762 H   0  0  0  0  0
 -485.3063  -28.5125   74.9170 H   0  0  0  0  0
 -485.9853  -26.9962   74.2030 H   0  0  0  0  0
 -483.9071  -27.6199   73.1920 H   0  0  0  0  0
 -484.5248  -29.1013   72.7437 H   0  0  0  0  0
 -485.1504  -27.7040   72.0857 H   0  0  0  0  0
 -488.1199  -31.1045   79.1941 H   0  0  0  0  0
 -485.6161  -32.6582   79.1645 H   0  0  0  0  0
 -486.5698  -33.1884   81.5682 H   0  0  0  0  0
 -487.5458  -31.7004   81.2014 H   0  0  0  0  0
 -484.4178  -32.3987   80.2781 H   0  0  0  0  0
 -485.6092  -34.7120   78.3858 H   0  0  0  0  0
 -488.0596  -36.2776   78.2918 H   0  0  0  0  0
 -486.0463  -36.5277   76.7693 H   0  0  0  0  0
 -486.7439  -38.0469   77.4413 H   0  0  0  0  0
 -484.4450  -37.9809   77.5614 H   0  0  0  0  0
 -488.7209  -37.9748   79.5951 H   0  0  0  0  0
 -487.6573  -37.9109   82.3253 H   0  0  0  0  0
 -489.2945  -39.9379   82.5072 H   0  0  0  0  0
 -489.9128  -39.2532   80.9295 H   0  0  0  0  0
 -489.5767  -37.5245   83.3406 H   0  0  0  0  0
 -491.0339  -38.5712   83.1497 H   0  0  0  0  0
 -491.6342  -37.4928   81.1288 H   0  0  0  0  0
 -490.0688  -36.6081   81.0668 H   0  0  0  0  0
 -492.0055  -35.2255   81.7994 H   0  0  0  0  0
 -490.6629  -35.3324   83.0074 H   0  0  0  0  0
 -492.8167  -35.5438   84.0276 H   0  0  0  0  0
 -493.1840  -36.8583   83.0716 H   0  0  0  0  0
 -491.9474  -36.9568   84.1842 H   0  0  0  0  0
 -486.6517  -39.6003   83.4377 H   0  0  0  0  0
 -484.7899  -41.0623   81.7385 H   0  0  0  0  0
 -484.5585  -40.0641   84.1976 H   0  0  0  0  0
 -482.7633  -40.9628   82.8277 H   0  0  0  0  0
 -483.2501  -42.6447   83.3198 H   0  0  0  0  0
 -486.2426  -41.5100   85.2029 H   0  0  0  0  0
 -485.3333  -42.9517   84.6873 H   0  0  0  0  0
 -484.6335  -41.8407   85.8903 H   0  0  0  0  0
 -482.2383  -40.4642   85.1217 H   0  0  0  0  0
 -482.7149  -42.1109   85.6035 H   0  0  0  0  0
 -481.3087  -41.8667   84.5386 H   0  0  0  0  0
 -487.9373  -41.7864   83.0180 H   0  0  0  0  0
 -487.6461  -44.6453   82.8119 H   0  0  0  0  0
 -490.1117  -44.6802   82.8286 H   0  0  0  0  0
 -491.2039  -42.6126   82.7872 H   0  0  0  0  0
 -488.9437  -44.3092   84.9590 H   0  0  0  0  0
 -488.9675  -42.5518   84.6730 H   0  0  0  0  0
 -490.4941  -43.4340   84.9224 H   0  0  0  0  0
 -487.6147  -42.2510   80.4072 H   0  0  0  0  0
 -488.7195  -44.0220   78.3487 H   0  0  0  0  0
 -488.1554  -42.2157   76.7984 H   0  0  0  0  0
 -487.2396  -41.3722   78.1169 H   0  0  0  0  0
 -488.6838  -39.7811   77.5566 H   0  0  0  0  0
 -485.9074  -44.1517   80.0205 H   0  0  0  0  0
 -484.5789  -45.3612   77.6696 H   0  0  0  0  0
 -482.3937  -44.6146   78.5022 H   0  0  0  0  0
 -483.2231  -43.8082   79.9155 H   0  0  0  0  0
 -482.9757  -43.3168   75.9843 H   0  0  0  0  0
 -484.0068  -39.6333   77.8644 H   0  0  0  0  0
 -485.7862  -45.8894   80.7678 H   0  0  0  0  0
 -484.2547  -48.4429   80.9507 H   0  0  0  0  0
 -483.9876  -48.2105   83.3291 H   0  0  0  0  0
 -484.7133  -46.5350   83.2414 H   0  0  0  0  0
 -482.0052  -48.4463   81.4823 H   0  0  0  0  0
 -483.1883  -44.8685   83.5044 H   0  0  0  0  0
 -479.7601  -47.4948   81.1105 H   0  0  0  0  0
 -480.9426  -43.9150   83.1346 H   0  0  0  0  0
 -479.2232  -45.2283   81.9386 H   0  0  0  0  0
 -485.5591  -50.1406   81.5029 H   0  0  0  0  0
 -488.4392  -49.4646   81.6802 H   0  0  0  0  0
 -488.7471  -51.9056   81.2396 H   0  0  0  0  0
 -486.9348  -52.0073   81.0573 H   0  0  0  0  0
 -487.0961  -50.3665   79.2528 H   0  0  0  0  0
 -488.9098  -50.4864   79.3753 H   0  0  0  0  0
 -485.7090  -51.7791   77.7825 H   0  0  0  0  0
 -485.7418  -52.8913   79.1728 H   0  0  0  0  0
 -486.0029  -53.5166   77.5260 H   0  0  0  0  0
 -489.8598  -50.5903   83.0928 H   0  0  0  0  0
 -488.7467  -50.6465   85.7970 H   0  0  0  0  0
 -490.9454  -50.7055   86.5542 H   0  0  0  0  0
 -491.5429  -51.4022   84.9663 H   0  0  0  0  0
 -492.0201  -49.3972   84.2456 H   0  0  0  0  0
 -490.3385  -48.8473   84.5742 H   0  0  0  0  0
 -490.9356  -48.3642   86.8743 H   0  0  0  0  0
 -492.6212  -48.9327   86.5580 H   0  0  0  0  0
 -491.3528  -46.4711   85.4470 H   0  0  0  0  0
 -494.1866  -48.4238   86.2370 H   0  0  0  0  0
 -494.5552  -45.1059   85.1036 H   0  0  0  0  0
 -492.8192  -44.8273   84.9306 H   0  0  0  0  0
 -488.0786  -52.4167   86.9349 H   0  0  0  0  0
 -488.8530  -55.0083   85.6678 H   0  0  0  0  0
 -487.2686  -56.0520   86.9272 H   0  0  0  0  0
 -487.2316  -54.6477   88.1551 H   0  0  0  0  0
 -486.1538  -53.3515   86.3191 H   0  0  0  0  0
 -484.9698  -54.1980   88.2993 H   0  0  0  0  0
 -484.7131  -55.7626   87.4886 H   0  0  0  0  0
 -483.9300  -54.2934   86.8568 H   0  0  0  0  0
 -485.7302  -56.1063   85.1396 H   0  0  0  0  0
 -486.6909  -54.7841   84.4327 H   0  0  0  0  0
 -484.9282  -54.6063   84.6124 H   0  0  0  0  0
 -492.2558  -55.3553   88.2599 H   0  0  0  0  0
 -492.8174  -57.0922   86.6143 H   0  0  0  0  0
 -492.8877  -58.0034   88.0607 H   0  0  0  0  0
 -491.2198  -58.8087   86.1632 H   0  0  0  0  0
 -490.6685  -58.8645   87.8097 H   0  0  0  0  0
 -488.9386  -57.4928   86.9492 H   0  0  0  0  0
 -489.8869  -56.9249   85.6441 H   0  0  0  0  0
 -493.3664  -56.8788   89.8434 H   0  0  0  0  0
 -492.7349  -56.6908   92.3534 H   0  0  0  0  0
 -492.1621  -59.1978   93.3294 H   0  0  0  0  0
 -494.5790  -58.0924   91.9333 H   0  0  0  0  0
 -493.3736  -59.3219   92.4948 H   0  0  0  0  0
 -493.3609  -58.7070   89.6022 H   0  0  0  0  0
 -494.8250  -59.5537   90.2243 H   0  0  0  0  0
 -493.4058  -61.2780   91.2051 H   0  0  0  0  0
 -491.9437  -60.4328   90.5502 H   0  0  0  0  0
 -492.5833  -60.8929   88.3255 H   0  0  0  0  0
 -494.2054  -61.5023   88.8596 H   0  0  0  0  0
 -492.7138  -63.2832   88.2798 H   0  0  0  0  0
 -491.6019  -62.7726   89.4110 H   0  0  0  0  0
 -493.0926  -63.3326   89.9018 H   0  0  0  0  0
  1  2  1  0  0  0
  2  3  1  0  0  0
  2  5  1  0  0  0
  3  4  2  0  0  0
  3 10  1  0  0  0
  5  6  1  0  0  0
  6  7  1  0  0  0
  7  8  1  0  0  0
  8  9  1  0  0  0
 10 11  1  0  0  0
 11 12  1  0  0  0
 11 14  1  0  0  0
 12 13  2  0  0  0
 12 18  1  0  0  0
 14 15  1  0  0  0
 15 16  1  0  0  0
 15 17  2  0  0  0
 18 19  1  0  0  0
 19 20  1  0  0  0
 19 22  1  0  0  0
 20 21  2  0  0  0
 20 24  1  0  0  0
 22 23  1  0  0  0
 24 25  1  0  0  0
 25 26  1  0  0  0
 25 28  1  0  0  0
 26 27  2  0  0  0
 26 33  1  0  0  0
 28 29  1  0  0  0
 29 30  1  0  0  0
 30 31  1  0  0  0
 31 32  1  0  0  0
 33 34  1  0  0  0
 34 35  1  0  0  0
 34 37  1  0  0  0
 35 36  2  0  0  0
 35 41  1  0  0  0
 37 38  1  0  0  0
 37 39  1  0  0  0
 38 40  1  0  0  0
 41 42  1  0  0  0
 42 43  1  0  0  0
 42 45  1  0  0  0
 43 44  2  0  0  0
 43 48  1  0  0  0
 45 46  1  0  0  0
 45 47  1  0  0  0
 48 49  1  0  0  0
 49 50  1  0  0  0
 49 52  1  0  0  0
 50 51  2  0  0  0
 50 56  1  0  0  0
 52 53  1  0  0  0
 53 54  2  0  0  0
 53 55  1  0  0  0
 56 57  1  0  0  0
 57 58  1  0  0  0
 57 60  1  0  0  0
 58 59  2  0  0  0
 58 66  1  0  0  0
 60 61  1  0  0  0
 61 62  4  0  0  0
 61 63  4  0  0  0
 62 64  4  0  0  0
 63 65  4  0  0  0
 64 65  4  0  0  0
 66 67  1  0  0  0
 67 68  1  0  0  0
 67 70  1  0  0  0
 68 69  2  0  0  0
 68 77  1  0  0  0
 70 71  1  0  0  0
 71 72  4  0  0  0
 71 73  4  0  0  0
 72 74  4  0  0  0
 73 75  4  0  0  0
 74 76  4  0  0  0
 75 76  4  0  0  0
 77 78  1  0  0  0
 78 79  1  0  0  0
 78 81  1  0  0  0
 79 80  2  0  0  0
 79 85  1  0  0  0
 81 82  1  0  0  0
 82 83  1  0  0  0
 83 84  1  0  0  0
 85 86  1  0  0  0
 86 87  1  0  0  0
 86 89  1  0  0  0
 87 88  2  0  0  0
 87 96  1  0  0  0
 89 90  1  0  0  0
 90 91  1  0  0  0
 91 92  1  0  0  0
 92 93  1  0  0  0
 93 94  2  0  0  0
 93 95  1  0  0  0
 96 97  1  0  0  0
 97 98  1  0  0  0
 97100  1  0  0  0
 98 99  2  0  0  0
 98104  1  0  0  0
100101  1  0  0  0
101102  1  0  0  0
101103  1  0  0  0
104105  1  0  0  0
104110  1  0  0  0
105106  1  0  0  0
105108  1  0  0  0
106107  2  0  0  0
106111  1  0  0  0
108109  1  0  0  0
109110  1  0  0  0
111112  1  0  0  0
112113  1  0  0  0
112115  1  0  0  0
113114  1  0  0  0
113120  2  0  0  0
115116  1  0  0  0
116117  1  0  0  0
117118  1  0  0  0
118119  1  0  0  0
  1121  1  0  0  0
  1122  1  0  0  0
  1123  1  0  0  0
  2124  1  0  0  0
  5125  1  0  0  0
  5126  1  0  0  0
  6127  1  0  0  0
  6128  1  0  0  0
  7129  1  0  0  0
  7130  1  0  0  0
  8131  1  0  0  0
  8132  1  0  0  0
  9133  1  0  0  0
  9134  1  0  0  0
  9135  1  0  0  0
 10136  1  0  0  0
 11137  1  0  0  0
 14138  1  0  0  0
 14139  1  0  0  0
 16140  1  0  0  0
 18141  1  0  0  0
 19142  1  0  0  0
 22143  1  0  0  0
 22144  1  0  0  0
 23145  1  0  0  0
 24146  1  0  0  0
 25147  1  0  0  0
 28148  1  0  0  0
 28149  1  0  0  0
 29150  1  0  0  0
 29151  1  0  0  0
 30152  1  0  0  0
 30153  1  0  0  0
 31154  1  0  0  0
 31155  1  0  0  0
 32156  1  0  0  0
 32157  1  0  0  0
 32158  1  0  0  0
 33159  1  0  0  0
 34160  1  0  0  0
 37161  1  0  0  0
 38162  1  0  0  0
 38163  1  0  0  0
 39164  1  0  0  0
 39165  1  0  0  0
 39166  1  0  0  0
 40167  1  0  0  0
 40168  1  0  0  0
 40169  1  0  0  0
 41170  1  0  0  0
 42171  1  0  0  0
 45172  1  0  0  0
 46173  1  0  0  0
 47174  1  0  0  0
 47175  1  0  0  0
 47176  1  0  0  0
 48177  1  0  0  0
 49178  1  0  0  0
 52179  1  0  0  0
 52180  1  0  0  0
 55181  1  0  0  0
 56182  1  0  0  0
 57183  1  0  0  0
 60184  1  0  0  0
 60185  1  0  0  0
 63186  1  0  0  0
 64187  1  0  0  0
 66188  1  0  0  0
 67189  1  0  0  0
 70190  1  0  0  0
 70191  1  0  0  0
 72192  1  0  0  0
 73193  1  0  0  0
 74194  1  0  0  0
 75195  1  0  0  0
 76196  1  0  0  0
 77197  1  0  0  0
 78198  1  0  0  0
 81199  1  0  0  0
 81200  1  0  0  0
 82201  1  0  0  0
 82202  1  0  0  0
 84203  1  0  0  0
 84204  1  0  0  0
 84205  1  0  0  0
 85206  1  0  0  0
 86207  1  0  0  0
 89208  1  0  0  0
 89209  1  0  0  0
 90210  1  0  0  0
 90211  1  0  0  0
 91212  1  0  0  0
 91213  1  0  0  0
 92214  1  0  0  0
 94215  1  0  0  0
 95216  1  0  0  0
 95217  1  0  0  0
 96218  1  0  0  0
 97219  1  0  0  0
100220  1  0  0  0
100221  1  0  0  0
101222  1  0  0  0
102223  1  0  0  0
102224  1  0  0  0
102225  1  0  0  0
103226  1  0  0  0
103227  1  0  0  0
103228  1  0  0  0
105229  1  0  0  0
108230  1  0  0  0
108231  1  0  0  0
109232  1  0  0  0
109233  1  0  0  0
110234  1  0  0  0
110235  1  0  0  0
111236  1  0  0  0
112237  1  0  0  0
114238  1  0  0  0
115239  1  0  0  0
115240  1  0  0  0
116241  1  0  0  0
116242  1  0  0  0
117243  1  0  0  0
117244  1  0  0  0
118245  1  0  0  0
118246  1  0  0  0
119247  1  0  0  0
119248  1  0  0  0
119249  1  0  0  0
M  END
$$$$
