3twd_ligand
  -I-interpret- 

 60 62  0  0  0  0  0  0  0  0999 V2000
   23.8730  -26.9290  -15.6780 C   0  0  0  0  0
   24.7420  -25.8120  -15.4050 O   0  0  0  0  0
   25.3060  -25.2360  -16.5180 C   0  0  0  0  0
   24.9900  -25.6330  -17.8100 C   0  0  0  0  0
   25.6060  -24.9990  -18.8980 C   0  0  0  0  0
   26.5600  -23.9880  -18.6800 C   0  0  0  0  0
   26.8830  -23.5880  -17.3840 C   0  0  0  0  0
   26.2550  -24.2110  -16.3070 C   0  0  0  0  0
   26.5350  -23.9000  -14.9660 N   0  0  0  0  0
   27.5510  -23.1750  -14.4460 C   0  0  0  0  0
   28.4100  -22.6220  -15.1190 O   0  0  0  0  0
   27.5440  -23.1200  -12.9330 C   0  0  0  0  0
   27.9470  -21.7550  -12.3920 C   0  0  0  0  0
   27.9440  -21.9340  -10.8930 C   0  0  0  0  0
   28.8140  -22.5570  -10.3120 O   0  0  0  0  0
   26.9580  -21.3860  -10.2020 O   0  0  0  0  0
   27.3370  -23.1420  -20.0360 S   0  0  0  0  0
   27.9580  -24.0910  -20.8630 O   0  0  0  0  0
   27.9950  -22.0560  -19.4150 O   0  0  0  0  0
   26.0010  -22.5020  -20.8190 N   0  0  0  0  0
   24.9040  -21.9840  -20.0840 C   0  0  0  0  0
   23.6350  -22.5840  -20.2030 C   0  0  0  0  0
   22.5540  -22.0940  -19.4640 C   0  0  0  0  0
   22.7340  -21.0070  -18.6110 C   0  0  0  0  0
   23.9950  -20.4030  -18.4790 C   0  0  0  0  0
   25.0700  -20.8800  -19.2220 C   0  0  0  0  0
   26.0160  -22.5440  -22.2280 C   0  0  0  0  0
   26.5180  -21.4590  -22.9440 C   0  0  0  0  0
   26.5610  -21.5060  -24.3330 C   0  0  0  0  0
   26.1130  -22.6380  -25.0020 C   0  0  0  0  0
   25.6200  -23.7350  -24.2960 C   0  0  0  0  0
   25.5700  -23.6840  -22.9100 C   0  0  0  0  0
   26.1700  -22.6740  -26.3940 N   0  0  0  0  0
   25.3230  -25.3540  -20.1970 O   0  0  0  0  0
   24.2670  -26.3210  -20.3770 C   0  0  0  0  0
   23.0508  -26.6011  -16.3140 H   0  0  0  0  0
   24.4373  -27.7111  -16.1859 H   0  0  0  0  0
   23.4760  -27.3166  -14.7398 H   0  0  0  0  0
   24.2679  -26.4322  -17.9774 H   0  0  0  0  0
   27.6162  -22.7993  -17.2155 H   0  0  0  0  0
   25.8754  -24.2761  -14.2849 H   0  0  0  0  0
   28.2660  -23.8507  -12.5685 H   0  0  0  0  0
   26.5284  -23.3269  -12.5956 H   0  0  0  0  0
   27.2648  -20.9679  -12.7132 H   0  0  0  0  0
   28.9198  -21.4357  -12.7658 H   0  0  0  0  0
   26.3604  -20.9344  -10.8024 H   0  0  0  0  0
   23.4955  -23.4324  -20.8729 H   0  0  0  0  0
   21.5733  -22.5609  -19.5549 H   0  0  0  0  0
   21.8884  -20.6220  -18.0410 H   0  0  0  0  0
   24.1309  -19.5637  -17.7970 H   0  0  0  0  0
   26.0444  -20.3987  -19.1377 H   0  0  0  0  0
   26.8763  -20.5752  -22.4162 H   0  0  0  0  0
   26.9457  -20.6557  -24.8962 H   0  0  0  0  0
   25.2776  -24.6231  -24.8272 H   0  0  0  0  0
   25.1821  -24.5345  -22.3494 H   0  0  0  0  0
   26.5377  -21.8748  -26.9102 H   0  0  0  0  0
   25.8440  -23.4996  -26.8966 H   0  0  0  0  0
   24.5306  -27.2450  -19.8624 H   0  0  0  0  0
   23.3394  -25.9253  -19.9635 H   0  0  0  0  0
   24.1362  -26.5205  -21.4406 H   0  0  0  0  0
  1  2  1  0  0  0
  2  3  1  0  0  0
  3  4  4  0  0  0
  3  8  4  0  0  0
  4  5  4  0  0  0
  5  6  4  0  0  0
  5 34  1  0  0  0
  6  7  4  0  0  0
  6 17  1  0  0  0
  7  8  4  0  0  0
  8  9  1  0  0  0
  9 10  1  0  0  0
 10 11  2  0  0  0
 10 12  1  0  0  0
 12 13  1  0  0  0
 13 14  1  0  0  0
 14 15  2  0  0  0
 14 16  1  0  0  0
 17 18  2  0  0  0
 17 19  2  0  0  0
 17 20  1  0  0  0
 20 21  1  0  0  0
 20 27  1  0  0  0
 21 22  4  0  0  0
 21 26  4  0  0  0
 22 23  4  0  0  0
 23 24  4  0  0  0
 24 25  4  0  0  0
 25 26  4  0  0  0
 27 28  4  0  0  0
 27 32  4  0  0  0
 28 29  4  0  0  0
 29 30  4  0  0  0
 30 31  4  0  0  0
 30 33  1  0  0  0
 31 32  4  0  0  0
 34 35  1  0  0  0
  1 36  1  0  0  0
  1 37  1  0  0  0
  1 38  1  0  0  0
  4 39  1  0  0  0
  7 40  1  0  0  0
  9 41  1  0  0  0
 12 42  1  0  0  0
 12 43  1  0  0  0
 13 44  1  0  0  0
 13 45  1  0  0  0
 16 46  1  0  0  0
 22 47  1  0  0  0
 23 48  1  0  0  0
 24 49  1  0  0  0
 25 50  1  0  0  0
 26 51  1  0  0  0
 28 52  1  0  0  0
 29 53  1  0  0  0
 31 54  1  0  0  0
 32 55  1  0  0  0
 33 56  1  0  0  0
 33 57  1  0  0  0
 35 58  1  0  0  0
 35 59  1  0  0  0
 35 60  1  0  0  0
M  END
$$$$
