4bao_ligand
  -I-interpret- 

 64 66  0  0  0  0  0  0  0  0999 V2000
   18.8260  -14.4920   24.2160 C   0  0  0  0  0
   18.9260  -15.7910   25.0380 C   0  0  0  0  0
   19.4630  -15.4470   26.4360 C   0  0  0  0  0
   20.8600  -14.8050   26.3340 C   0  0  0  0  0
   20.7940  -13.4950   25.5410 C   0  0  0  0  0
   20.2040  -13.7840   24.1440 C   0  0  0  0  0
   16.9740  -15.5260   22.8620 N   0  3  0  0  0
   18.2640  -14.7820   22.8100 C   0  0  0  0  0
   17.9860  -13.4590   22.1550 C   0  0  0  0  0
   16.9690  -12.8750   22.4850 O   0  0  0  0  0
   18.7990  -12.9000   21.2270 N   0  0  0  0  0
   18.6330  -11.7020   20.3900 C   0  0  0  0  0
   17.2430  -11.8200   19.8070 C   0  0  0  0  0
   16.9390  -12.8630   19.2540 O   0  0  0  0  0
   16.3140  -10.8710   20.0530 N   0  0  0  0  0
   14.9510  -11.0570   19.5600 C   0  0  0  0  0
   13.9780  -11.0110   20.7090 C   0  0  0  0  0
   13.6590  -12.1700   21.4040 C   0  0  0  0  0
   12.7390  -12.1230   22.4440 C   0  0  0  0  0
   12.1560  -10.8880   22.8020 C   0  0  0  0  0
   12.5010   -9.7210   22.0970 C   0  0  0  0  0
   13.4130   -9.7910   21.0600 C   0  0  0  0  0
   11.1650  -10.8050   23.9070 C   0  0  0  0  0
   10.4330  -11.9160   24.2990 N   0  0  0  0  0
   10.9450   -9.6670   24.5050 N   0  0  0  0  0
   19.7940  -12.1380   19.4720 C   0  0  0  0  0
   20.0340  -13.2510   20.4970 C   0  0  0  0  0
   16.3960  -15.9280   21.5510 C   0  0  0  0  0
   14.9570  -16.3940   21.6930 C   0  0  0  0  0
   14.3610  -16.3550   22.7550 O   0  0  0  0  0
   14.3000  -16.8850   20.6250 N   0  0  0  0  0
   18.1329  -13.8154   24.7160 H   0  0  0  0  0
   19.5993  -16.4916   24.5441 H   0  0  0  0  0
   17.9426  -16.2535   25.1219 H   0  0  0  0  0
   19.5359  -16.3627   27.0228 H   0  0  0  0  0
   18.7828  -14.7414   26.9131 H   0  0  0  0  0
   21.5297  -15.4953   25.8212 H   0  0  0  0  0
   21.2254  -14.5921   27.3386 H   0  0  0  0  0
   21.7950  -13.0761   25.4383 H   0  0  0  0  0
   20.1626  -12.7783   26.0661 H   0  0  0  0  0
   20.0661  -12.8309   23.6335 H   0  0  0  0  0
   20.8938  -14.4436   23.6175 H   0  0  0  0  0
   16.2974  -14.8944   23.2906 H   0  0  0  0  0
   17.1638  -16.3913   23.3676 H   0  0  0  0  0
   18.9918  -15.3860   22.2682 H   0  0  0  0  0
   18.6803  -10.6742   20.7499 H   0  0  0  0  0
   16.5615  -10.0323   20.5780 H   0  0  0  0  0
   14.8771  -12.0256   19.0655 H   0  0  0  0  0
   14.7123  -10.2604   18.8553 H   0  0  0  0  0
   14.1297  -13.1153   21.1340 H   0  0  0  0  0
   12.4692  -13.0331   22.9797 H   0  0  0  0  0
   12.0514   -8.7654   22.3669 H   0  0  0  0  0
   13.6893   -8.8873   20.5168 H   0  0  0  0  0
    9.7387  -11.8332   25.0416 H   0  0  0  0  0
   10.5890  -12.8158   23.8447 H   0  0  0  0  0
   11.4533   -8.8317   24.2147 H   0  0  0  0  0
   20.5806  -11.4525   19.1566 H   0  0  0  0  0
   19.6568  -12.3396   18.4096 H   0  0  0  0  0
   20.1703  -14.2741   20.1467 H   0  0  0  0  0
   20.9799  -13.2788   21.0379 H   0  0  0  0  0
   16.9871  -16.7526   21.1525 H   0  0  0  0  0
   16.4140  -15.0635   20.8873 H   0  0  0  0  0
   13.3374  -17.2079   20.7226 H   0  0  0  0  0
   14.7650  -16.9340   19.7185 H   0  0  0  0  0
  1  2  1  0  0  0
  1  6  1  0  0  0
  1  8  1  0  0  0
  2  3  1  0  0  0
  3  4  1  0  0  0
  4  5  1  0  0  0
  5  6  1  0  0  0
  8  7  1  0  0  0
  7 28  1  0  0  0
  8  9  1  0  0  0
  9 10  2  0  0  0
  9 11  1  0  0  0
 11 12  1  0  0  0
 11 27  1  0  0  0
 12 13  1  0  0  0
 12 26  1  0  0  0
 13 14  2  0  0  0
 13 15  1  0  0  0
 15 16  1  0  0  0
 16 17  1  0  0  0
 17 18  4  0  0  0
 17 22  4  0  0  0
 18 19  4  0  0  0
 19 20  4  0  0  0
 20 21  4  0  0  0
 20 23  1  0  0  0
 21 22  4  0  0  0
 23 24  1  0  0  0
 23 25  2  0  0  0
 26 27  1  0  0  0
 28 29  1  0  0  0
 29 30  2  0  0  0
 29 31  1  0  0  0
  1 32  1  0  0  0
  2 33  1  0  0  0
  2 34  1  0  0  0
  3 35  1  0  0  0
  3 36  1  0  0  0
  4 37  1  0  0  0
  4 38  1  0  0  0
  5 39  1  0  0  0
  5 40  1  0  0  0
  6 41  1  0  0  0
  6 42  1  0  0  0
  7 43  1  0  0  0
  7 44  1  0  0  0
  8 45  1  0  0  0
 12 46  1  0  0  0
 15 47  1  0  0  0
 16 48  1  0  0  0
 16 49  1  0  0  0
 18 50  1  0  0  0
 19 51  1  0  0  0
 21 52  1  0  0  0
 22 53  1  0  0  0
 24 54  1  0  0  0
 24 55  1  0  0  0
 25 56  1  0  0  0
 26 57  1  0  0  0
 26 58  1  0  0  0
 27 59  1  0  0  0
 27 60  1  0  0  0
 28 61  1  0  0  0
 28 62  1  0  0  0
 31 63  1  0  0  0
 31 64  1  0  0  0
M  END
$$$$
