1h25_ligand
  -I-interpret- 

192194  0  0  0  0  0  0  0  0999 V2000
    2.2980   82.3260   78.5900 N   0  3  0  0  0
    3.3010   81.9780   79.6220 C   0  0  0  0  0
    4.7360   82.2950   79.2220 C   0  0  0  0  0
    5.0630   82.3620   78.0330 O   0  0  0  0  0
    3.1830   80.4460   79.7210 C   0  0  0  0  0
    2.0790   79.9990   78.7390 C   0  0  0  0  0
    1.8550   81.1410   77.8240 C   0  0  0  0  0
    5.5840   82.4580   80.2430 N   0  0  0  0  0
    7.0400   82.6110   80.1110 C   0  0  0  0  0
    7.6900   81.8770   78.9210 C   0  0  0  0  0
    8.6980   82.3180   78.3690 O   0  0  0  0  0
    7.6910   82.0350   81.3710 C   0  0  0  0  0
    7.9510   83.0050   82.5080 C   0  0  0  0  0
    8.5900   82.2600   83.6860 C   0  0  0  0  0
    9.8740   82.9630   84.1280 C   0  0  0  0  0
   10.5410   82.3030   85.3000 N   0  3  0  0  0
    7.2100   80.6900   78.6080 N   0  0  0  0  0
    7.7890   79.9330   77.5080 C   0  0  0  0  0
    7.7030   80.7080   76.2140 C   0  0  0  0  0
    8.6810   81.0590   75.6160 O   0  0  0  0  0
    6.9030   78.6880   77.4650 C   0  0  0  0  0
    6.4590   78.5330   78.8910 C   0  0  0  0  0
    6.1830   79.9210   79.3300 C   0  0  0  0  0
    6.4980   81.0100   75.7880 N   0  0  0  0  0
    6.3400   81.7210   74.5350 C   0  0  0  0  0
    7.0110   83.0910   74.5270 C   0  0  0  0  0
    6.7610   83.9320   75.3940 O   0  0  0  0  0
    4.8680   81.8960   74.2050 C   0  0  0  0  0
    4.4200   83.2670   74.6560 C   0  0  0  0  0
    3.6380   83.9630   73.5260 C   0  0  0  0  0
    3.6070   83.0910   75.8940 C   0  0  0  0  0
    7.8700   83.2990   73.5370 N   0  0  0  0  0
    8.5460   84.5720   73.3400 C   0  0  0  0  0
    9.4540   84.5310   72.1440 C   0  0  0  0  0
   10.0490   83.5050   71.8400 O   0  0  0  0  0
    9.3680   84.9790   74.5550 C   0  0  0  0  0
    9.9610   83.8700   75.3390 C   0  0  0  0  0
   10.6630   84.4960   76.5200 C   0  0  0  0  0
   12.0200   85.0800   76.0540 C   0  0  0  0  0
   12.6820   86.1200   76.9200 N   0  3  0  0  0
    9.5510   85.6560   71.4630 N   0  0  0  0  0
   10.4610   85.7530   70.3600 C   0  0  0  0  0
   11.8180   85.9470   70.9830 C   0  0  0  0  0
   11.9880   86.8040   71.8570 O   0  0  0  0  0
   10.1230   86.9450   69.4830 C   0  0  0  0  0
   11.1950   87.2950   68.4910 C   0  0  0  0  0
   10.7890   88.5520   67.7910 C   0  0  0  0  0
   11.5470   88.7590   66.5090 C   0  0  0  0  0
   10.7130   89.6370   65.6570 N   0  3  0  0  0
   12.7790   85.1310   70.5590 N   0  0  0  0  0
   14.1310   85.2360   71.0820 C   0  0  0  0  0
   14.8490   86.3140   70.3220 C   0  0  0  0  0
   15.0400   86.2040   69.1120 O   0  0  0  0  0
   14.8720   83.9240   70.9220 C   0  0  0  0  0
   14.3700   82.8320   71.8440 C   0  0  0  0  0
   15.2160   81.5640   71.6450 C   0  0  0  0  0
   14.4050   83.3390   73.2950 C   0  0  0  0  0
   15.2370   87.3540   71.0490 N   0  0  0  0  0
   15.9620   88.4770   70.4790 C   0  0  0  0  0
   17.4480   88.3330   70.7890 C   0  0  0  0  0
   17.8270   88.0580   71.9390 O   0  0  0  0  0
   15.4190   89.7950   71.0430 C   0  0  0  0  0
   13.8910   89.9420   70.8900 C   0  0  0  0  0
   13.4190   91.3790   70.8230 C   0  0  0  0  0
   12.0230   91.4900   70.3970 N   0  0  0  0  0
   11.6460   91.6810   69.1330 C   0  0  0  0  0
   12.5610   91.7620   68.1710 N   0  0  0  0  0
   10.3570   91.7800   68.8290 N   0  0  0  0  0
   18.2810   88.5200   69.7650 N   0  0  0  0  0
   19.7290   88.3740   69.9120 C   0  0  0  0  0
   20.5600   89.6060   69.5460 C   0  0  0  0  0
   21.6630   89.7770   70.0700 O   0  0  0  0  0
   20.2070   87.1660   69.1040 C   0  0  0  0  0
   19.6140   85.8780   69.5740 C   0  0  0  0  0
   18.5790   85.2830   68.8800 C   0  0  0  0  0
   20.0770   85.2780   70.7380 C   0  0  0  0  0
   18.0450   84.1130   69.3210 C   0  0  0  0  0
   19.5410   84.1090   71.1800 C   0  0  0  0  0
   18.5200   83.5280   70.4780 C   0  0  0  0  0
   20.0490   90.4480   68.6440 N   0  0  0  0  0
   20.7650   91.6640   68.2390 C   0  0  0  0  0
   21.0790   92.5590   69.4470 C   0  0  0  0  0
   22.1820   93.1240   69.5610 O   0  0  0  0  0
   19.9400   92.4520   67.2310 C   0  0  0  0  0
   18.8450   91.6130   66.6000 C   0  0  0  0  0
   19.1120   90.9420   65.5680 O   0  0  0  0  0
   17.6800   91.5660   67.0740 O   0  0  0  0  0
   20.2390   92.7450   70.3470 O   0  0  0  0  0
    2.7262   82.9842   77.9390 H   0  0  0  0  0
    1.4844   82.7248   79.0584 H   0  0  0  0  0
    3.1091   82.5410   80.5354 H   0  0  0  0  0
    2.9299   80.1489   80.7387 H   0  0  0  0  0
    4.1321   79.9741   79.4667 H   0  0  0  0  0
    1.1642   79.7344   79.2693 H   0  0  0  0  0
    2.3792   79.1071   78.1890 H   0  0  0  0  0
    2.4070   81.0295   76.8908 H   0  0  0  0  0
    0.8115   81.2199   77.5190 H   0  0  0  0  0
    5.1910   82.4776   81.1841 H   0  0  0  0  0
    7.2002   83.6776   79.9536 H   0  0  0  0  0
    8.6689   81.6660   81.0617 H   0  0  0  0  0
    6.9899   81.2969   81.7605 H   0  0  0  0  0
    7.0078   83.4473   82.8287 H   0  0  0  0  0
    8.6267   83.7893   82.1668 H   0  0  0  0  0
    8.8309   81.2436   83.3746 H   0  0  0  0  0
    7.8881   82.2457   84.5198 H   0  0  0  0  0
    9.6073   83.9761   84.4290 H   0  0  0  0  0
   10.5717   82.9302   83.2912 H   0  0  0  0  0
   11.3869   82.8186   85.5430 H   0  0  0  0  0
    9.9028   82.3002   86.0956 H   0  0  0  0  0
   10.7849   81.3434   85.0548 H   0  0  0  0  0
    8.8476   79.7092   77.6399 H   0  0  0  0  0
    7.4296   77.8100   77.0909 H   0  0  0  0  0
    6.0669   78.7908   76.7732 H   0  0  0  0  0
    7.2128   78.0451   79.5090 H   0  0  0  0  0
    5.5859   77.8873   78.9853 H   0  0  0  0  0
    5.1673   80.2471   79.1060 H   0  0  0  0  0
    6.2353   80.0466   80.4115 H   0  0  0  0  0
    5.6788   80.7459   76.3353 H   0  0  0  0  0
    6.8335   81.1074   73.7813 H   0  0  0  0  0
    4.2838   81.1321   74.7180 H   0  0  0  0  0
    4.7188   81.7967   73.1298 H   0  0  0  0  0
    5.2696   83.9111   74.8829 H   0  0  0  0  0
    4.2797   84.0643   72.6508 H   0  0  0  0  0
    2.7633   83.3652   73.2696 H   0  0  0  0  0
    3.3195   84.9502   73.8609 H   0  0  0  0  0
    2.7444   82.4619   75.6743 H   0  0  0  0  0
    4.2169   82.6177   76.6635 H   0  0  0  0  0
    3.2676   84.0652   76.2458 H   0  0  0  0  0
    8.0639   82.5360   72.8885 H   0  0  0  0  0
    7.7580   85.3081   73.1808 H   0  0  0  0  0
    8.6846   85.4979   75.2272 H   0  0  0  0  0
   10.2038   85.5672   74.1761 H   0  0  0  0  0
   10.6616   83.2975   74.7311 H   0  0  0  0  0
    9.1898   83.1749   75.6709 H   0  0  0  0  0
   10.8336   83.7405   77.2870 H   0  0  0  0  0
   10.0444   85.2925   76.9335 H   0  0  0  0  0
   11.8077   85.5837   75.1110 H   0  0  0  0  0
   12.7082   84.2348   76.0426 H   0  0  0  0  0
   13.5605   86.4095   76.4901 H   0  0  0  0  0
   12.0649   86.9269   77.0120 H   0  0  0  0  0
   12.8672   85.7251   77.8421 H   0  0  0  0  0
    8.9773   86.4587   71.7217 H   0  0  0  0  0
   10.4154   84.8673   69.7263 H   0  0  0  0  0
    9.9966   87.8053   70.1403 H   0  0  0  0  0
    9.2287   86.6867   68.9159 H   0  0  0  0  0
   11.3175   86.4867   67.7700 H   0  0  0  0  0
   12.1465   87.4408   69.0024 H   0  0  0  0  0
   11.0039   89.3922   68.4513 H   0  0  0  0  0
    9.7286   88.4782   67.5497 H   0  0  0  0  0
   11.7392   87.8071   66.0140 H   0  0  0  0  0
   12.5182   89.2146   66.7019 H   0  0  0  0  0
   11.1918   89.8045   64.7721 H   0  0  0  0  0
    9.8163   89.1843   65.4795 H   0  0  0  0  0
   10.5583   90.5249   66.1346 H   0  0  0  0  0
   12.5643   84.4222   69.8576 H   0  0  0  0  0
   14.0906   85.4768   72.1443 H   0  0  0  0  0
   15.9182   84.1059   71.1679 H   0  0  0  0  0
   14.7201   83.5841   69.8976 H   0  0  0  0  0
   13.3373   82.5742   71.6092 H   0  0  0  0  0
   15.1337   81.2326   70.6099 H   0  0  0  0  0
   16.2583   81.7843   71.8756 H   0  0  0  0  0
   14.8537   80.7792   72.3090 H   0  0  0  0  0
   15.4285   83.6020   73.5620 H   0  0  0  0  0
   13.7669   84.2179   73.3869 H   0  0  0  0  0
   14.0443   82.5553   73.9612 H   0  0  0  0  0
   15.0182   87.3656   72.0452 H   0  0  0  0  0
   15.8257   88.4854   69.3976 H   0  0  0  0  0
   15.8851   90.6080   70.4863 H   0  0  0  0  0
   15.6464   89.8153   72.1088 H   0  0  0  0  0
   13.4313   89.4895   71.7687 H   0  0  0  0  0
   13.6108   89.4638   69.9514 H   0  0  0  0  0
   14.0364   91.9025   70.0931 H   0  0  0  0  0
   13.5013   91.8074   71.8219 H   0  0  0  0  0
   11.2963   91.4169   71.1091 H   0  0  0  0  0
   12.2720   91.8998   67.2026 H   0  0  0  0  0
   13.5517   91.6863   68.4017 H   0  0  0  0  0
    9.6529   91.7099   69.5637 H   0  0  0  0  0
   17.8980   88.7719   68.8538 H   0  0  0  0  0
   19.8945   88.2322   70.9800 H   0  0  0  0  0
   21.2885   87.0956   69.2201 H   0  0  0  0  0
   19.8987   87.3155   68.0692 H   0  0  0  0  0
   18.1893   85.7523   67.9767 H   0  0  0  0  0
   20.8799   85.7500   71.3042 H   0  0  0  0  0
   17.2409   83.6362   68.7605 H   0  0  0  0  0
   19.9217   83.6384   72.0865 H   0  0  0  0  0
   18.0788   82.5972   70.8346 H   0  0  0  0  0
   19.1412   90.2416   68.2273 H   0  0  0  0  0
   21.7052   91.3540   67.7829 H   0  0  0  0  0
   20.6074   92.7883   66.4376 H   0  0  0  0  0
   19.4687   93.2828   67.7561 H   0  0  0  0  0
   20.0315   91.0782   65.3281 H   0  0  0  0  0
   19.4379   92.2578   70.1411 H   0  0  0  0  0
  1  2  1  0  0  0
  1  7  1  0  0  0
  2  3  1  0  0  0
  2  5  1  0  0  0
  3  4  2  0  0  0
  3  8  1  0  0  0
  5  6  1  0  0  0
  6  7  1  0  0  0
  8  9  1  0  0  0
  9 10  1  0  0  0
  9 12  1  0  0  0
 10 11  2  0  0  0
 10 17  1  0  0  0
 12 13  1  0  0  0
 13 14  1  0  0  0
 14 15  1  0  0  0
 15 16  1  0  0  0
 17 18  1  0  0  0
 17 23  1  0  0  0
 18 19  1  0  0  0
 18 21  1  0  0  0
 19 20  2  0  0  0
 19 24  1  0  0  0
 21 22  1  0  0  0
 22 23  1  0  0  0
 24 25  1  0  0  0
 25 26  1  0  0  0
 25 28  1  0  0  0
 26 27  2  0  0  0
 26 32  1  0  0  0
 28 29  1  0  0  0
 29 30  1  0  0  0
 29 31  1  0  0  0
 32 33  1  0  0  0
 33 34  1  0  0  0
 33 36  1  0  0  0
 34 35  2  0  0  0
 34 41  1  0  0  0
 36 37  1  0  0  0
 37 38  1  0  0  0
 38 39  1  0  0  0
 39 40  1  0  0  0
 41 42  1  0  0  0
 42 43  1  0  0  0
 42 45  1  0  0  0
 43 44  2  0  0  0
 43 50  1  0  0  0
 45 46  1  0  0  0
 46 47  1  0  0  0
 47 48  1  0  0  0
 48 49  1  0  0  0
 50 51  1  0  0  0
 51 52  1  0  0  0
 51 54  1  0  0  0
 52 53  2  0  0  0
 52 58  1  0  0  0
 54 55  1  0  0  0
 55 56  1  0  0  0
 55 57  1  0  0  0
 58 59  1  0  0  0
 59 60  1  0  0  0
 59 62  1  0  0  0
 60 61  2  0  0  0
 60 69  1  0  0  0
 62 63  1  0  0  0
 63 64  1  0  0  0
 64 65  1  0  0  0
 65 66  1  0  0  0
 66 67  1  0  0  0
 66 68  2  0  0  0
 69 70  1  0  0  0
 70 71  1  0  0  0
 70 73  1  0  0  0
 71 72  2  0  0  0
 71 80  1  0  0  0
 73 74  1  0  0  0
 74 75  4  0  0  0
 74 76  4  0  0  0
 75 77  4  0  0  0
 76 78  4  0  0  0
 77 79  4  0  0  0
 78 79  4  0  0  0
 80 81  1  0  0  0
 81 82  1  0  0  0
 81 84  1  0  0  0
 82 83  2  0  0  0
 82 88  1  0  0  0
 84 85  1  0  0  0
 85 86  1  0  0  0
 85 87  2  0  0  0
  1 89  1  0  0  0
  1 90  1  0  0  0
  2 91  1  0  0  0
  5 92  1  0  0  0
  5 93  1  0  0  0
  6 94  1  0  0  0
  6 95  1  0  0  0
  7 96  1  0  0  0
  7 97  1  0  0  0
  8 98  1  0  0  0
  9 99  1  0  0  0
 12100  1  0  0  0
 12101  1  0  0  0
 13102  1  0  0  0
 13103  1  0  0  0
 14104  1  0  0  0
 14105  1  0  0  0
 15106  1  0  0  0
 15107  1  0  0  0
 16108  1  0  0  0
 16109  1  0  0  0
 16110  1  0  0  0
 18111  1  0  0  0
 21112  1  0  0  0
 21113  1  0  0  0
 22114  1  0  0  0
 22115  1  0  0  0
 23116  1  0  0  0
 23117  1  0  0  0
 24118  1  0  0  0
 25119  1  0  0  0
 28120  1  0  0  0
 28121  1  0  0  0
 29122  1  0  0  0
 30123  1  0  0  0
 30124  1  0  0  0
 30125  1  0  0  0
 31126  1  0  0  0
 31127  1  0  0  0
 31128  1  0  0  0
 32129  1  0  0  0
 33130  1  0  0  0
 36131  1  0  0  0
 36132  1  0  0  0
 37133  1  0  0  0
 37134  1  0  0  0
 38135  1  0  0  0
 38136  1  0  0  0
 39137  1  0  0  0
 39138  1  0  0  0
 40139  1  0  0  0
 40140  1  0  0  0
 40141  1  0  0  0
 41142  1  0  0  0
 42143  1  0  0  0
 45144  1  0  0  0
 45145  1  0  0  0
 46146  1  0  0  0
 46147  1  0  0  0
 47148  1  0  0  0
 47149  1  0  0  0
 48150  1  0  0  0
 48151  1  0  0  0
 49152  1  0  0  0
 49153  1  0  0  0
 49154  1  0  0  0
 50155  1  0  0  0
 51156  1  0  0  0
 54157  1  0  0  0
 54158  1  0  0  0
 55159  1  0  0  0
 56160  1  0  0  0
 56161  1  0  0  0
 56162  1  0  0  0
 57163  1  0  0  0
 57164  1  0  0  0
 57165  1  0  0  0
 58166  1  0  0  0
 59167  1  0  0  0
 62168  1  0  0  0
 62169  1  0  0  0
 63170  1  0  0  0
 63171  1  0  0  0
 64172  1  0  0  0
 64173  1  0  0  0
 65174  1  0  0  0
 67175  1  0  0  0
 67176  1  0  0  0
 68177  1  0  0  0
 69178  1  0  0  0
 70179  1  0  0  0
 73180  1  0  0  0
 73181  1  0  0  0
 75182  1  0  0  0
 76183  1  0  0  0
 77184  1  0  0  0
 78185  1  0  0  0
 79186  1  0  0  0
 80187  1  0  0  0
 81188  1  0  0  0
 84189  1  0  0  0
 84190  1  0  0  0
 86191  1  0  0  0
 88192  1  0  0  0
M  END
$$$$
