### 
### Created by X-TOOL on Mon Sep 10 21:12:50 2018
### 

@<TRIPOS>MOLECULE
1h25_ligand
  191   193     1     0     0
SMALL
GAST_HUCK


@<TRIPOS>ATOM
      1 N           2.2980   82.3260   78.5900 N.4       1 PRO         0.2461
      2 CA          3.3010   81.9780   79.6220 C.3       1 PRO         0.0670
      3 C           4.7360   82.2950   79.2220 C.2       1 PRO         0.2268
      4 O           5.0630   82.3620   78.0330 O.2       1 PRO        -0.3907
      5 CB          3.1830   80.4460   79.7210 C.3       1 PRO         0.0127
      6 CG          2.0790   79.9990   78.7390 C.3       1 PRO        -0.0053
      7 CD          1.8550   81.1410   77.8240 C.3       1 PRO        -0.0313
      8 N           5.5840   82.4580   80.2430 N.am      1 LYS        -0.2610
      9 CA          7.0400   82.6110   80.1110 C.3       1 LYS         0.1313
     10 C           7.6900   81.8770   78.9210 C.2       1 LYS         0.2064
     11 O           8.6980   82.3180   78.3690 O.2       1 LYS        -0.3942
     12 CB          7.6910   82.0350   81.3710 C.3       1 LYS        -0.0122
     13 CG          7.9510   83.0050   82.5080 C.3       1 LYS        -0.0440
     14 CD          8.5900   82.2600   83.6860 C.3       1 LYS        -0.0124
     15 CE          9.8740   82.9630   84.1280 C.3       1 LYS        -0.0354
     16 NZ         10.5410   82.3030   85.3000 N.4       1 LYS         0.2185
     17 N           7.2100   80.6900   78.6080 N.am      1 PRO        -0.2498
     18 CA          7.7890   79.9330   77.5080 C.3       1 PRO         0.1338
     19 C           7.7030   80.7080   76.2140 C.2       1 PRO         0.2041
     20 O           8.6810   81.0590   75.6160 O.2       1 PRO        -0.3944
     21 CB          6.9030   78.6880   77.4650 C.3       1 PRO        -0.0104
     22 CG          6.4590   78.5330   78.8910 C.3       1 PRO        -0.0281
     23 CD          6.1830   79.9210   79.3300 C.3       1 PRO         0.0369
     24 N           6.4980   81.0100   75.7880 N.am      1 LEU        -0.2637
     25 CA          6.3400   81.7210   74.5350 C.3       1 LEU         0.1312
     26 C           7.0110   83.0910   74.5270 C.2       1 LEU         0.2039
     27 O           6.7610   83.9320   75.3940 O.2       1 LEU        -0.3944
     28 CB          4.8680   81.8960   74.2050 C.3       1 LEU        -0.0101
     29 CG          4.4200   83.2670   74.6560 C.3       1 LEU        -0.0425
     30 CD1         3.6380   83.9630   73.5260 C.3       1 LEU        -0.0625
     31 CD2         3.6070   83.0910   75.8940 C.3       1 LEU        -0.0625
     32 N           7.8700   83.2990   73.5370 N.am      1 LYS        -0.2637
     33 CA          8.5460   84.5720   73.3400 C.3       1 LYS         0.1310
     34 C           9.4540   84.5310   72.1440 C.2       1 LYS         0.2039
     35 O          10.0490   83.5050   71.8400 O.2       1 LYS        -0.3944
     36 CB          9.3680   84.9790   74.5550 C.3       1 LYS        -0.0122
     37 CG          9.9610   83.8700   75.3390 C.3       1 LYS        -0.0440
     38 CD         10.6630   84.4960   76.5200 C.3       1 LYS        -0.0124
     39 CE         12.0200   85.0800   76.0540 C.3       1 LYS        -0.0354
     40 NZ         12.6820   86.1200   76.9200 N.4       1 LYS         0.2185
     41 N           9.5510   85.6560   71.4630 N.am      1 LYS        -0.2637
     42 CA         10.4610   85.7530   70.3600 C.3       1 LYS         0.1310
     43 C          11.8180   85.9470   70.9830 C.2       1 LYS         0.2039
     44 O          11.9880   86.8040   71.8570 O.2       1 LYS        -0.3944
     45 CB         10.1230   86.9450   69.4830 C.3       1 LYS        -0.0122
     46 CG         11.1950   87.2950   68.4910 C.3       1 LYS        -0.0440
     47 CD         10.7890   88.5520   67.7910 C.3       1 LYS        -0.0124
     48 CE         11.5470   88.7590   66.5090 C.3       1 LYS        -0.0354
     49 NZ         10.7130   89.6370   65.6570 N.4       1 LYS         0.2185
     50 N          12.7790   85.1310   70.5590 N.am      1 LEU        -0.2637
     51 CA         14.1310   85.2360   71.0820 C.3       1 LEU         0.1312
     52 C          14.8490   86.3140   70.3220 C.2       1 LEU         0.2039
     53 O          15.0400   86.2040   69.1120 O.2       1 LEU        -0.3944
     54 CB         14.8720   83.9240   70.9220 C.3       1 LEU        -0.0101
     55 CG         14.3700   82.8320   71.8440 C.3       1 LEU        -0.0425
     56 CD1        15.2160   81.5640   71.6450 C.3       1 LEU        -0.0625
     57 CD2        14.4050   83.3390   73.2950 C.3       1 LEU        -0.0625
     58 N          15.2370   87.3540   71.0490 N.am      1 ARG        -0.2637
     59 CA         15.9620   88.4770   70.4790 C.3       1 ARG         0.1311
     60 C          17.4480   88.3330   70.7890 C.2       1 ARG         0.2040
     61 O          17.8270   88.0580   71.9390 O.2       1 ARG        -0.3944
     62 CB         15.4190   89.7950   71.0430 C.3       1 ARG        -0.0092
     63 CG         13.8910   89.9420   70.8900 C.3       1 ARG        -0.0156
     64 CD         13.4190   91.3790   70.8230 C.3       1 ARG         0.0627
     65 NE         12.0230   91.4900   70.3970 N.pl3     1 ARG        -0.2723
     66 CZ         11.6460   91.6810   69.1330 C.cat     1 ARG         0.2882
     67 NH1        12.5610   91.7620   68.1710 N.pl3     1 ARG        -0.2849
     68 NH2        10.3570   91.7800   68.8290 N.pl3     1 ARG        -0.2849
     69 N          18.2810   88.5200   69.7650 N.am      1 PHE        -0.2619
     70 CA         19.7290   88.3740   69.9120 C.3       1 PHE         0.1404
     71 C          20.5600   89.6060   69.5460 C.2       1 PHE         0.2055
     72 O          21.6630   89.7770   70.0700 O.2       1 PHE        -0.3942
     73 CB         20.2070   87.1660   69.1040 C.3       1 PHE         0.0214
     74 CG         19.6140   85.8780   69.5740 C.ar      1 PHE        -0.0386
     75 CD1        18.5790   85.2830   68.8800 C.ar      1 PHE        -0.0601
     76 CD2        20.0770   85.2780   70.7380 C.ar      1 PHE        -0.0601
     77 CE1        18.0450   84.1130   69.3210 C.ar      1 PHE        -0.0686
     78 CE2        19.5410   84.1090   71.1800 C.ar      1 PHE        -0.0686
     79 CZ         18.5200   83.5280   70.4780 C.ar      1 PHE        -0.0687
     80 N          20.0490   90.4480   68.6440 N.am      1 ASP        -0.2678
     81 CA         20.7650   91.6640   68.2390 C.3       1 ASP         0.1058
     82 C          21.0790   92.5590   69.4470 C.2       1 ASP         0.0618
     83 O          22.1820   93.1240   69.5610 O.co2     1 ASP        -0.5665
     84 CB         19.9400   92.4520   67.2310 C.3       1 ASP         0.0351
     85 CG         18.8450   91.6130   66.6000 C.2       1 ASP         0.0387
     86 OD1        19.1120   90.9420   65.5680 O.co2     1 ASP        -0.5688
     87 OD2        17.6800   91.5660   67.0740 O.co2     1 ASP        -0.5688
     88 OXT        20.2390   92.7450   70.3470 O.co2     1 ASP        -0.5665
     89 H1          2.7053   82.9918   77.9522 H         1 PRO         0.2035
     90 H2          1.4971   82.7395   79.0413 H         1 PRO         0.2035
     91 H3          3.0624   82.4721   80.5754 H         1 PRO         0.1099
     92 H4          2.9123   80.1561   80.7470 H         1 PRO         0.0347
     93 H5          4.1401   79.9775   79.4480 H         1 PRO         0.0347
     94 H6          1.1548   79.7616   79.2862 H         1 PRO         0.0320
     95 H7          2.4072   79.1150   78.1726 H         1 PRO         0.0320
     96 H8          2.4514   81.0263   76.9069 H         1 PRO         0.0814
     97 H9          0.7902   81.2246   77.5609 H         1 PRO         0.0814
     98 H10         5.1987   82.4773   81.1656 H         1 LYS         0.1884
     99 H11         7.2655   83.6842   80.0248 H         1 LYS         0.0800
    100 H12         8.6573   81.5990   81.0774 H         1 LYS         0.0312
    101 H13         7.0320   81.2418   81.7538 H         1 LYS         0.0312
    102 H14         6.9998   83.4531   82.8313 H         1 LYS         0.0269
    103 H15         8.6316   83.7977   82.1641 H         1 LYS         0.0269
    104 H16         8.8278   81.2311   83.3781 H         1 LYS         0.0317
    105 H17         7.8817   82.2366   84.5272 H         1 LYS         0.0317
    106 H18         9.6272   83.9986   84.4048 H         1 LYS         0.0813
    107 H19        10.5781   82.9672   83.2829 H         1 LYS         0.0813
    108 H20        11.3772   82.8117   85.5410 H         1 LYS         0.1994
    109 H21        10.7826   81.3546   85.0589 H         1 LYS         0.1994
    110 H22         9.9112   82.2996   86.0870 H         1 LYS         0.1994
    111 H23         8.8375   79.6701   77.7115 H         1 PRO         0.0802
    112 H24         7.4741   77.8088   77.1320 H         1 PRO         0.0313
    113 H25         6.0415   78.8398   76.7981 H         1 PRO         0.0313
    114 H26         7.2540   78.0800   79.5016 H         1 PRO         0.0287
    115 H27         5.5513   77.9148   78.9535 H         1 PRO         0.0287
    116 H28         5.1706   80.2369   79.0382 H         1 PRO         0.0524
    117 H29         6.3000   80.0248   80.4188 H         1 PRO         0.0524
    118 H30         5.6948   80.7511   76.3246 H         1 LEU         0.1883
    119 H31         6.8048   81.1116   73.7459 H         1 LEU         0.0800
    120 H32         4.2796   81.1263   74.7260 H         1 LEU         0.0315
    121 H33         4.7197   81.7986   73.1194 H         1 LEU         0.0315
    122 H34         5.3023   83.8790   74.8948 H         1 LEU         0.0298
    123 H35         3.3160   84.9595   73.8628 H         1 LEU         0.0232
    124 H36         2.7549   83.3607   73.2663 H         1 LEU         0.0232
    125 H37         4.2846   84.0659   72.6421 H         1 LEU         0.0232
    126 H38         4.2139   82.5910   76.6632 H         1 LEU         0.0232
    127 H39         2.7230   82.4767   75.6679 H         1 LEU         0.0232
    128 H40         3.2846   84.0754   76.2640 H         1 LEU         0.0232
    129 H41         8.0601   82.5509   72.9012 H         1 LYS         0.1883
    130 H42         7.7763   85.3390   73.1689 H         1 LYS         0.0800
    131 H43         8.7137   85.5538   75.2269 H         1 LYS         0.0312
    132 H44        10.1899   85.6212   74.2056 H         1 LYS         0.0312
    133 H45        10.6816   83.3133   74.7219 H         1 LYS         0.0269
    134 H46         9.1714   83.1875   75.6863 H         1 LYS         0.0269
    135 H47        10.8368   83.7321   77.2921 H         1 LYS         0.0317
    136 H48        10.0388   85.3012   76.9348 H         1 LYS         0.0317
    137 H49        11.8575   85.5341   75.0654 H         1 LYS         0.0813
    138 H50        12.7223   84.2386   75.9601 H         1 LYS         0.0813
    139 H51        13.5504   86.4069   76.4961 H         1 LYS         0.1994
    140 H52        12.8655   85.7309   77.8316 H         1 LYS         0.1994
    141 H53        12.0731   86.9180   77.0117 H         1 LYS         0.1994
    142 H54         8.9886   86.4430   71.7166 H         1 LYS         0.1883
    143 H55        10.4366   84.8328   69.7578 H         1 LYS         0.0800
    144 H56         9.9549   87.8164   70.1329 H         1 LYS         0.0312
    145 H57         9.2002   86.7170   68.9294 H         1 LYS         0.0312
    146 H58        11.3065   86.4807   67.7599 H         1 LYS         0.0269
    147 H59        12.1500   87.4515   69.0140 H         1 LYS         0.0269
    148 H60        10.9803   89.4061   68.4573 H         1 LYS         0.0317
    149 H61         9.7144   88.4988   67.5623 H         1 LYS         0.0317
    150 H62        11.7152   87.7941   66.0083 H         1 LYS         0.0813
    151 H63        12.5151   89.2392   66.7145 H         1 LYS         0.0813
    152 H64        11.1853   89.8032   64.7821 H         1 LYS         0.1994
    153 H65        10.5595   90.5149   66.1280 H         1 LYS         0.1994
    154 H66         9.8266   89.1907   65.4808 H         1 LYS         0.1994
    155 H67        12.5685   84.4361   69.8713 H         1 LEU         0.1883
    156 H68        14.0906   85.5000   72.1491 H         1 LEU         0.0800
    157 H69        15.9372   84.0972   71.1347 H         1 LEU         0.0315
    158 H70        14.7563   83.5829   69.8826 H         1 LEU         0.0315
    159 H71        13.3274   82.5962   71.5843 H         1 LEU         0.0298
    160 H72        14.8513   80.7711   72.3146 H         1 LEU         0.0232
    161 H73        16.2682   81.7850   71.8774 H         1 LEU         0.0232
    162 H74        15.1338   81.2285   70.6007 H         1 LEU         0.0232
    163 H75        13.7861   84.2442   73.3821 H         1 LEU         0.0232
    164 H76        15.4419   83.5754   73.5759 H         1 LEU         0.0232
    165 H77        14.0120   82.5603   73.9651 H         1 LEU         0.0232
    166 H78        15.0225   87.3654   72.0257 H         1 ARG         0.1883
    167 H79        15.8240   88.4755   69.3877 H         1 ARG         0.0800
    168 H80        15.9044   90.6277   70.5129 H         1 ARG         0.0313
    169 H81        15.6690   89.8460   72.1130 H         1 ARG         0.0313
    170 H82        13.4080   89.4582   71.7518 H         1 ARG         0.0301
    171 H83        13.5846   89.4329   69.9643 H         1 ARG         0.0301
    172 H84        14.0509   91.9251   70.1072 H         1 ARG         0.0689
    173 H85        13.5205   91.8308   71.8208 H         1 ARG         0.0689
    174 H86        11.2892   91.4162   71.1160 H         1 ARG         0.2642
    175 H87        12.2696   91.9096   67.1942 H         1 ARG         0.2615
    176 H88        13.5610   91.6771   68.4029 H         1 ARG         0.2615
    177 H89         9.6464   91.7176   69.5720 H         1 ARG         0.2615
    178 H90        10.0679   91.9192   67.8502 H         1 ARG         0.2615
    179 H91        17.9055   88.7669   68.8717 H         1 PHE         0.1885
    180 H92        19.9208   88.1675   70.9753 H         1 PHE         0.0823
    181 H93        21.3017   87.0991   69.1878 H         1 PHE         0.0474
    182 H94        19.9284   87.3164   68.0506 H         1 PHE         0.0474
    183 H95        18.1914   85.7498   67.9817 H         1 PHE         0.0557
    184 H96        20.8755   85.7474   71.3011 H         1 PHE         0.0557
    185 H97        17.2453   83.6388   68.7636 H         1 PHE         0.0599
    186 H98        19.9196   83.6409   72.0815 H         1 PHE         0.0599
    187 H99        18.0813   82.6024   70.8326 H         1 PHE         0.0559
    188 H100       19.1590   90.2457   68.2354 H         1 ASP         0.1877
    189 H101       21.7131   91.3672   67.7667 H         1 ASP         0.0745
    190 H102       20.6073   92.8175   66.4366 H         1 ASP         0.0471
    191 H103       19.4779   93.3080   67.7445 H         1 ASP         0.0471
@<TRIPOS>BOND
     1    1    2 1  
     2    1    7 1  
     3    2    3 1  
     4    2    5 1  
     5    3    4 2  
     6    3    8 am 
     7    5    6 1  
     8    6    7 1  
     9    8    9 1  
    10    9   10 1  
    11    9   12 1  
    12   10   11 2  
    13   10   17 am 
    14   12   13 1  
    15   13   14 1  
    16   14   15 1  
    17   15   16 1  
    18   17   18 1  
    19   17   23 1  
    20   18   19 1  
    21   18   21 1  
    22   19   20 2  
    23   19   24 am 
    24   21   22 1  
    25   22   23 1  
    26   24   25 1  
    27   25   26 1  
    28   25   28 1  
    29   26   27 2  
    30   26   32 am 
    31   28   29 1  
    32   29   30 1  
    33   29   31 1  
    34   32   33 1  
    35   33   34 1  
    36   33   36 1  
    37   34   35 2  
    38   34   41 am 
    39   36   37 1  
    40   37   38 1  
    41   38   39 1  
    42   39   40 1  
    43   41   42 1  
    44   42   43 1  
    45   42   45 1  
    46   43   44 2  
    47   43   50 am 
    48   45   46 1  
    49   46   47 1  
    50   47   48 1  
    51   48   49 1  
    52   50   51 1  
    53   51   52 1  
    54   51   54 1  
    55   52   53 2  
    56   52   58 am 
    57   54   55 1  
    58   55   56 1  
    59   55   57 1  
    60   58   59 1  
    61   59   60 1  
    62   59   62 1  
    63   60   61 2  
    64   60   69 am 
    65   62   63 1  
    66   63   64 1  
    67   64   65 1  
    68   65   66 ar 
    69   66   67 ar 
    70   66   68 ar 
    71   69   70 1  
    72   70   71 1  
    73   70   73 1  
    74   71   72 2  
    75   71   80 am 
    76   73   74 1  
    77   74   75 ar 
    78   74   76 ar 
    79   75   77 ar 
    80   76   78 ar 
    81   77   79 ar 
    82   78   79 ar 
    83   80   81 1  
    84   81   82 1  
    85   81   84 1  
    86   82   83 ar 
    87   82   88 ar 
    88   84   85 1  
    89   85   86 ar 
    90   85   87 ar 
    91    1   89 1  
    92    1   90 1  
    93    2   91 1  
    94    5   92 1  
    95    5   93 1  
    96    6   94 1  
    97    6   95 1  
    98    7   96 1  
    99    7   97 1  
   100    8   98 1  
   101    9   99 1  
   102   12  100 1  
   103   12  101 1  
   104   13  102 1  
   105   13  103 1  
   106   14  104 1  
   107   14  105 1  
   108   15  106 1  
   109   15  107 1  
   110   16  108 1  
   111   16  109 1  
   112   16  110 1  
   113   18  111 1  
   114   21  112 1  
   115   21  113 1  
   116   22  114 1  
   117   22  115 1  
   118   23  116 1  
   119   23  117 1  
   120   24  118 1  
   121   25  119 1  
   122   28  120 1  
   123   28  121 1  
   124   29  122 1  
   125   30  123 1  
   126   30  124 1  
   127   30  125 1  
   128   31  126 1  
   129   31  127 1  
   130   31  128 1  
   131   32  129 1  
   132   33  130 1  
   133   36  131 1  
   134   36  132 1  
   135   37  133 1  
   136   37  134 1  
   137   38  135 1  
   138   38  136 1  
   139   39  137 1  
   140   39  138 1  
   141   40  139 1  
   142   40  140 1  
   143   40  141 1  
   144   41  142 1  
   145   42  143 1  
   146   45  144 1  
   147   45  145 1  
   148   46  146 1  
   149   46  147 1  
   150   47  148 1  
   151   47  149 1  
   152   48  150 1  
   153   48  151 1  
   154   49  152 1  
   155   49  153 1  
   156   49  154 1  
   157   50  155 1  
   158   51  156 1  
   159   54  157 1  
   160   54  158 1  
   161   55  159 1  
   162   56  160 1  
   163   56  161 1  
   164   56  162 1  
   165   57  163 1  
   166   57  164 1  
   167   57  165 1  
   168   58  166 1  
   169   59  167 1  
   170   62  168 1  
   171   62  169 1  
   172   63  170 1  
   173   63  171 1  
   174   64  172 1  
   175   64  173 1  
   176   65  174 1  
   177   67  175 1  
   178   67  176 1  
   179   68  177 1  
   180   68  178 1  
   181   69  179 1  
   182   70  180 1  
   183   73  181 1  
   184   73  182 1  
   185   75  183 1  
   186   76  184 1  
   187   77  185 1  
   188   78  186 1  
   189   79  187 1  
   190   80  188 1  
   191   81  189 1  
   192   84  190 1  
   193   84  191 1  
@<TRIPOS>SUBSTRUCTURE
     1 PRO         1

