2b1z_ligand
  -I-interpret- 

 43 46  0  0  0  0  0  0  0  0999 V2000
    2.0560    2.2620   -5.4180 C   0  0  0  0  0
    1.9420    3.7380   -5.8200 C   0  0  0  0  0
    2.1170    3.9360   -7.3300 C   0  0  0  0  0
    3.5500    3.5740   -7.8020 C   0  0  0  0  0
    4.6750    3.9070   -6.7960 C   0  0  0  0  0
    6.0170    3.7490   -7.1750 C   0  0  0  0  0
    6.3010    3.2900   -8.4550 C   0  0  0  0  0
    7.6190    3.1200   -8.8720 C   0  0  0  0  0
    8.6670    3.4030   -8.0040 C   0  0  0  0  0
    9.9510    3.2350   -8.4210 O   0  0  0  0  0
    8.3900    3.8640   -6.7130 C   0  0  0  0  0
    7.0660    4.0380   -6.3040 C   0  0  0  0  0
    6.7790    4.4960   -5.0250 C   0  0  0  0  0
    5.4530    4.6610   -4.6280 C   0  0  0  0  0
    4.4140    4.3510   -5.5000 C   0  0  0  0  0
    2.9430    4.5980   -5.0880 C   0  0  0  0  0
    2.5580    4.4350   -3.6200 C   0  0  0  0  0
    1.0090    4.5140   -3.7260 C   0  0  0  0  0
    0.6680    4.3840   -5.2360 C   0  0  0  0  0
   -0.5630    3.5350   -5.4630 C   0  0  0  0  0
    0.4330    5.6830   -5.7920 O   0  0  0  0  0
    3.0564    1.8989   -5.6533 H   0  0  0  0  0
    1.8746    2.1632   -4.3477 H   0  0  0  0  0
    1.3176    1.6788   -5.9683 H   0  0  0  0  0
    1.9382    4.9866   -7.5588 H   0  0  0  0  0
    1.4135    3.2805   -7.8433 H   0  0  0  0  0
    3.7443    4.1648   -8.6971 H   0  0  0  0  0
    3.5690    2.4940   -7.9480 H   0  0  0  0  0
    5.4845    3.0607   -9.1397 H   0  0  0  0  0
    7.8289    2.7644   -9.8808 H   0  0  0  0  0
   10.5508    3.4715   -7.7097 H   0  0  0  0  0
    9.2068    4.0873   -6.0266 H   0  0  0  0  0
    7.5889    4.7261   -4.3328 H   0  0  0  0  0
    5.2288    5.0349   -3.6290 H   0  0  0  0  0
    2.8987    5.6542   -5.3538 H   0  0  0  0  0
    2.9990    5.1795   -2.9572 H   0  0  0  0  0
    2.9282    3.5187   -3.1602 H   0  0  0  0  0
    0.6357    5.4539   -3.3193 H   0  0  0  0  0
    0.5355    3.7207   -3.1475 H   0  0  0  0  0
   -0.3923    2.5356   -5.0629 H   0  0  0  0  0
   -1.4147    3.9897   -4.9572 H   0  0  0  0  0
   -0.7659    3.4700   -6.5320 H   0  0  0  0  0
    0.2228    5.5973   -6.7248 H   0  0  0  0  0
  1  2  1  0  0  0
  2  3  1  0  0  0
  2 16  1  0  0  0
  2 19  1  0  0  0
  3  4  1  0  0  0
  4  5  1  0  0  0
  5  6  4  0  0  0
  5 15  4  0  0  0
  6  7  4  0  0  0
  6 12  4  0  0  0
  7  8  4  0  0  0
  8  9  4  0  0  0
  9 10  1  0  0  0
  9 11  4  0  0  0
 11 12  4  0  0  0
 12 13  4  0  0  0
 13 14  4  0  0  0
 14 15  4  0  0  0
 15 16  1  0  0  0
 16 17  1  0  0  0
 17 18  1  0  0  0
 18 19  1  0  0  0
 19 20  1  0  0  0
 19 21  1  0  0  0
  1 22  1  0  0  0
  1 23  1  0  0  0
  1 24  1  0  0  0
  3 25  1  0  0  0
  3 26  1  0  0  0
  4 27  1  0  0  0
  4 28  1  0  0  0
  7 29  1  0  0  0
  8 30  1  0  0  0
 10 31  1  0  0  0
 11 32  1  0  0  0
 13 33  1  0  0  0
 14 34  1  0  0  0
 16 35  1  0  0  0
 17 36  1  0  0  0
 17 37  1  0  0  0
 18 38  1  0  0  0
 18 39  1  0  0  0
 20 40  1  0  0  0
 20 41  1  0  0  0
 20 42  1  0  0  0
 21 43  1  0  0  0
M  END
$$$$
