2ww2_ligand
  -I-interpret- 

 28 29  0  0  0  0  0  0  0  0999 V2000
  -25.3520  -30.6910   88.4460 C   0  0  0  0  0
  -25.7860  -31.8930   87.7980 O   0  0  0  0  0
  -26.1290  -29.5160   87.8660 C   0  0  0  0  0
  -25.7080  -28.2800   88.5330 N   0  3  0  0  0
  -26.1110  -28.3050   89.9520 C   0  0  0  0  0
  -25.3210  -29.4160   90.6620 C   0  0  0  0  0
  -25.5510  -30.7750   89.9740 C   0  0  0  0  0
  -26.3940  -27.2500   87.7290 C   0  0  0  0  0
  -26.2730  -27.7790   86.2790 C   0  0  0  0  0
  -25.3690  -26.9640   85.5080 O   0  0  0  0  0
  -25.7280  -29.2110   86.4290 C   0  0  0  0  0
  -24.2960  -29.2270   86.3090 O   0  0  0  0  0
  -24.2855  -30.5528   88.2680 H   0  0  0  0  0
  -25.6504  -31.8116   86.8511 H   0  0  0  0  0
  -27.1797  -29.7855   87.9730 H   0  0  0  0  0
  -24.7012  -28.1209   88.5702 H   0  0  0  0  0
  -27.1807  -28.4986   90.0323 H   0  0  0  0  0
  -25.8993  -27.3420   90.4166 H   0  0  0  0  0
  -25.6602  -29.4832   91.6957 H   0  0  0  0  0
  -24.2588  -29.1751   90.6186 H   0  0  0  0  0
  -24.8274  -31.4857   90.3732 H   0  0  0  0  0
  -26.5779  -31.0852   90.1673 H   0  0  0  0  0
  -25.9497  -26.2621   87.8506 H   0  0  0  0  0
  -27.4302  -27.1047   88.0344 H   0  0  0  0  0
  -27.2269  -27.7549   85.7522 H   0  0  0  0  0
  -25.3103  -27.3105   84.6147 H   0  0  0  0  0
  -26.0988  -29.9139   85.6830 H   0  0  0  0  0
  -23.9780  -30.1276   86.4055 H   0  0  0  0  0
  1  2  1  0  0  0
  1  3  1  0  0  0
  1  7  1  0  0  0
  3  4  1  0  0  0
  3 11  1  0  0  0
  4  5  1  0  0  0
  4  8  1  0  0  0
  5  6  1  0  0  0
  6  7  1  0  0  0
  8  9  1  0  0  0
  9 10  1  0  0  0
  9 11  1  0  0  0
 11 12  1  0  0  0
  1 13  1  0  0  0
  2 14  1  0  0  0
  3 15  1  0  0  0
  4 16  1  0  0  0
  5 17  1  0  0  0
  5 18  1  0  0  0
  6 19  1  0  0  0
  6 20  1  0  0  0
  7 21  1  0  0  0
  7 22  1  0  0  0
  8 23  1  0  0  0
  8 24  1  0  0  0
  9 25  1  0  0  0
 10 26  1  0  0  0
 11 27  1  0  0  0
 12 28  1  0  0  0
M  END
$$$$
