3s9z_ligand
  -I-interpret- 

 22 22  0  0  0  0  0  0  0  0999 V2000
   37.8690   80.5380   65.6980 O   0  0  0  0  0
   38.1730   80.8980   64.4060 C   0  0  0  0  0
   39.2930   80.8200   64.0190 O   0  0  0  0  0
   37.0300   80.8120   63.4140 C   0  0  0  0  0
   37.0230   81.5610   62.4960 O   0  0  0  0  0
   35.9820   79.7170   63.6220 C   0  0  0  0  0
   35.2920   79.1610   62.6430 C   0  0  0  0  0
   35.1740   79.8370   61.4350 O   0  0  0  0  0
   34.5270   77.8510   62.9020 C   0  0  0  0  0
   35.0930   76.8820   63.7610 C   0  0  0  0  0
   34.3950   75.6830   64.0120 C   0  0  0  0  0
   33.1310   75.4240   63.4200 C   0  0  0  0  0
   32.5600   76.3810   62.5530 C   0  0  0  0  0
   33.2670   77.5870   62.3190 C   0  0  0  0  0
   32.4770   78.8830   61.1470 Br  0  0  0  0  0
   36.9289   80.6590   65.8499 H   0  0  0  0  0
   35.7935   79.3752   64.6397 H   0  0  0  0  0
   34.6487   79.3126   60.8261 H   0  0  0  0  0
   36.0624   77.0603   64.2263 H   0  0  0  0  0
   34.8356   74.9386   64.6752 H   0  0  0  0  0
   32.6052   74.4933   63.6332 H   0  0  0  0  0
   31.5980   76.1967   62.0748 H   0  0  0  0  0
  1  2  1  0  0  0
  2  3  2  0  0  0
  2  4  1  0  0  0
  4  5  2  0  0  0
  4  6  1  0  0  0
  6  7  2  0  0  0
  7  8  1  0  0  0
  7  9  1  0  0  0
  9 10  4  0  0  0
  9 14  4  0  0  0
 10 11  4  0  0  0
 11 12  4  0  0  0
 12 13  4  0  0  0
 13 14  4  0  0  0
 14 15  1  0  0  0
  1 16  1  0  0  0
  6 17  1  0  0  0
  8 18  1  0  0  0
 10 19  1  0  0  0
 11 20  1  0  0  0
 12 21  1  0  0  0
 13 22  1  0  0  0
M  END
$$$$
