### 
### Created by X-TOOL on Mon Sep 10 21:13:12 2018
### 

@<TRIPOS>MOLECULE
2lsr_ligand
  285   285     1     0     0
SMALL
GAST_HUCK


@<TRIPOS>ATOM
      1 N         -10.3760    9.6950   11.0860 N.4       1 GLY         0.2357
      2 CA        -10.3210    8.3940   11.7280 C.3       1 GLY         0.0545
      3 C          -9.2200    7.5100   11.1710 C.2       1 GLY         0.2237
      4 O          -9.2170    6.3000   11.3930 O.2       1 GLY        -0.3910
      5 N          -8.2830    8.1150   10.4450 N.am      1 SER        -0.2591
      6 CA         -7.1730    7.3710    9.8570 C.3       1 SER         0.1540
      7 C          -7.6790    6.2410    8.9680 C.2       1 SER         0.2062
      8 O          -7.7720    5.0920    9.4020 O.2       1 SER        -0.3943
      9 CB         -6.2730    6.8070   10.9570 C.3       1 SER         0.0843
     10 OG         -4.9070    6.8680   10.5810 O.3       1 SER        -0.3903
     11 N          -8.0020    6.5720    7.7230 N.am      1 LEU        -0.2636
     12 CA         -8.4960    5.5820    6.7720 C.3       1 LEU         0.1312
     13 C          -7.3720    4.6540    6.3220 C.2       1 LEU         0.2039
     14 O          -7.5610    3.4430    6.1940 O.2       1 LEU        -0.3944
     15 CB         -9.1190    6.2770    5.5600 C.3       1 LEU        -0.0101
     16 CG        -10.6110    6.5840    5.6890 C.3       1 LEU        -0.0425
     17 CD1       -11.0400    7.6000    4.6430 C.3       1 LEU        -0.0625
     18 CD2       -11.4300    5.3070    5.5610 C.3       1 LEU        -0.0625
     19 N          -6.1960    5.2280    6.0880 N.am      1 LEU        -0.2637
     20 CA         -5.0400    4.4490    5.6580 C.3       1 LEU         0.1312
     21 C          -4.7590    3.3200    6.6410 C.2       1 LEU         0.2039
     22 O          -4.6550    2.1560    6.2520 O.2       1 LEU        -0.3944
     23 CB         -3.8100    5.3500    5.5310 C.3       1 LEU        -0.0101
     24 CG         -2.5510    4.6560    5.0060 C.3       1 LEU        -0.0425
     25 CD1        -2.5490    4.6380    3.4850 C.3       1 LEU        -0.0625
     26 CD2        -1.3010    5.3460    5.5350 C.3       1 LEU        -0.0625
     27 N          -4.6430    3.6730    7.9180 N.am      1 LYS        -0.2637
     28 CA         -4.3780    2.6940    8.9670 C.3       1 LYS         0.1310
     29 C          -5.4410    1.5990    8.9780 C.2       1 LYS         0.2039
     30 O          -5.1510    0.4440    9.2880 O.2       1 LYS        -0.3944
     31 CB         -4.3290    3.3830   10.3330 C.3       1 LYS        -0.0122
     32 CG         -3.6890    2.5350   11.4190 C.3       1 LYS        -0.0440
     33 CD         -4.7340    1.9400   12.3510 C.3       1 LYS        -0.0124
     34 CE         -5.2790    2.9820   13.3130 C.3       1 LYS        -0.0354
     35 NZ         -4.4910    3.0390   14.5760 N.4       1 LYS         0.2185
     36 N          -6.6710    1.9690    8.6390 N.am      1 GLU        -0.2636
     37 CA         -7.7750    1.0150    8.6130 C.3       1 GLU         0.1325
     38 C          -7.5470   -0.0570    7.5550 C.2       1 GLU         0.2040
     39 O          -7.8070   -1.2370    7.7860 O.2       1 GLU        -0.3944
     40 CB         -9.1000    1.7330    8.3500 C.3       1 GLU        -0.0008
     41 CG         -9.6440    2.4720    9.5620 C.3       1 GLU         0.0044
     42 CD         -9.8730    1.5560   10.7490 C.2       1 GLU         0.0350
     43 OE1        -9.9890    0.3300   10.5390 O.co2     1 GLU        -0.5690
     44 OE2        -9.9360    2.0640   11.8880 O.co2     1 GLU        -0.5690
     45 N          -7.0660    0.3610    6.3900 N.am      1 VAL        -0.2635
     46 CA         -6.8140   -0.5700    5.2960 C.3       1 VAL         0.1332
     47 C          -5.6480   -1.5010    5.6190 C.2       1 VAL         0.2041
     48 O          -5.6700   -2.6810    5.2640 O.2       1 VAL        -0.3944
     49 CB         -6.5350    0.1640    3.9690 C.3       1 VAL        -0.0063
     50 CG1        -6.4550   -0.8270    2.8180 C.3       1 VAL        -0.0584
     51 CG2        -7.6080    1.2080    3.7050 C.3       1 VAL        -0.0584
     52 N          -4.6350   -0.9740    6.3030 N.am      1 LEU        -0.2637
     53 CA         -3.4750   -1.7820    6.6750 C.3       1 LEU         0.1312
     54 C          -3.8920   -2.9010    7.6220 C.2       1 LEU         0.2039
     55 O          -3.4960   -4.0540    7.4540 O.2       1 LEU        -0.3944
     56 CB         -2.3860   -0.9290    7.3400 C.3       1 LEU        -0.0101
     57 CG         -2.3190    0.5320    6.8920 C.3       1 LEU        -0.0425
     58 CD1        -1.0830    1.2090    7.4670 C.3       1 LEU        -0.0625
     59 CD2        -2.3240    0.6300    5.3730 C.3       1 LEU        -0.0625
     60 N          -4.7000   -2.5480    8.6160 N.am      1 GLU        -0.2636
     61 CA         -5.1810   -3.5180    9.5920 C.3       1 GLU         0.1325
     62 C          -6.0900   -4.5440    8.9260 C.2       1 GLU         0.2041
     63 O          -6.0850   -5.7200    9.2870 O.2       1 GLU        -0.3944
     64 CB         -5.9290   -2.8100   10.7230 C.3       1 GLU        -0.0008
     65 CG         -6.0900   -3.6640   11.9710 C.3       1 GLU         0.0044
     66 CD         -4.9330   -3.5070   12.9380 C.2       1 GLU         0.0350
     67 OE1        -3.8610   -4.0960   12.6820 O.co2     1 GLU        -0.5690
     68 OE2        -5.0990   -2.7970   13.9520 O.co2     1 GLU        -0.5690
     69 N          -6.8670   -4.0890    7.9500 N.am      1 ASP        -0.2622
     70 CA         -7.7800   -4.9670    7.2280 C.3       1 ASP         0.1423
     71 C          -7.0090   -6.0770    6.5260 C.2       1 ASP         0.2057
     72 O          -7.4270   -7.2350    6.5210 O.2       1 ASP        -0.3943
     73 CB         -8.5930   -4.1680    6.2070 C.3       1 ASP         0.0406
     74 CG         -9.8720   -3.6070    6.7970 C.2       1 ASP         0.0393
     75 OD1       -10.4340   -4.2460    7.7110 O.co2     1 ASP        -0.5688
     76 OD2       -10.3120   -2.5300    6.3440 O.co2     1 ASP        -0.5688
     77 N          -5.8770   -5.7140    5.9360 N.am      1 TYR        -0.2620
     78 CA         -5.0360   -6.6740    5.2330 C.3       1 TYR         0.1390
     79 C          -4.4070   -7.6580    6.2120 C.2       1 TYR         0.2057
     80 O          -4.5270   -8.8760    6.0570 O.2       1 TYR        -0.3942
     81 CB         -3.9420   -5.9450    4.4480 C.3       1 TYR         0.0163
     82 CG         -4.1480   -5.9720    2.9510 C.ar      1 TYR        -0.0493
     83 CD1        -4.1180   -7.1690    2.2480 C.ar      1 TYR        -0.0685
     84 CD2        -4.3740   -4.7990    2.2400 C.ar      1 TYR        -0.0685
     85 CE1        -4.3050   -7.1980    0.8790 C.ar      1 TYR        -0.0398
     86 CE2        -4.5630   -4.8190    0.8720 C.ar      1 TYR        -0.0398
     87 CZ         -4.5270   -6.0200    0.1950 C.ar      1 TYR         0.0805
     88 OH         -4.7140   -6.0440   -1.1680 O.3       1 TYR        -0.3376
     89 N          -3.7410   -7.1180    7.2260 N.am      1 LEU        -0.2636
     90 CA         -3.0890   -7.9370    8.2410 C.3       1 LEU         0.1312
     91 C          -4.0550   -8.9710    8.8080 C.2       1 LEU         0.2039
     92 O          -3.6710  -10.1050    9.0900 O.2       1 LEU        -0.3944
     93 CB         -2.5450   -7.0570    9.3680 C.3       1 LEU        -0.0101
     94 CG         -1.2190   -6.3590    9.0600 C.3       1 LEU        -0.0425
     95 CD1        -1.0420   -5.1360    9.9470 C.3       1 LEU        -0.0625
     96 CD2        -0.0570   -7.3240    9.2400 C.3       1 LEU        -0.0625
     97 N          -5.3130   -8.5730    8.9600 N.am      1 ARG        -0.2637
     98 CA         -6.3330   -9.4720    9.4800 C.3       1 ARG         0.1311
     99 C          -6.7720  -10.4530    8.4050 C.2       1 ARG         0.2039
    100 O          -7.0270  -11.6240    8.6840 O.2       1 ARG        -0.3944
    101 CB         -7.5360   -8.6810    9.9990 C.3       1 ARG        -0.0092
    102 CG         -7.4210   -8.2850   11.4610 C.3       1 ARG        -0.0156
    103 CD         -7.4630   -9.5010   12.3720 C.3       1 ARG         0.0627
    104 NE         -7.5570   -9.1270   13.7830 N.pl3     1 ARG        -0.2723
    105 CZ         -8.6870   -8.7420   14.3740 C.cat     1 ARG         0.2882
    106 NH1        -9.8180   -8.6850   13.6830 N.pl3     1 ARG        -0.2849
    107 NH2        -8.6840   -8.4180   15.6590 N.pl3     1 ARG        -0.2849
    108 N          -6.8340   -9.9710    7.1710 N.am      1 LEU        -0.2637
    109 CA         -7.2180  -10.8120    6.0500 C.3       1 LEU         0.1312
    110 C          -6.1340  -11.8520    5.7730 C.2       1 LEU         0.2039
    111 O          -6.3520  -12.8040    5.0210 O.2       1 LEU        -0.3944
    112 CB         -7.4650   -9.9600    4.8010 C.3       1 LEU        -0.0101
    113 CG         -8.9240   -9.8910    4.3450 C.3       1 LEU        -0.0425
    114 CD1        -9.6100   -8.6680    4.9320 C.3       1 LEU        -0.0625
    115 CD2        -9.0090   -9.8770    2.8250 C.3       1 LEU        -0.0625
    116 N          -4.9640  -11.6670    6.3860 N.am      1 LYS        -0.2637
    117 CA         -3.8520  -12.5950    6.2050 C.3       1 LYS         0.1309
    118 C          -4.0450  -13.8440    7.0580 C.2       1 LYS         0.2033
    119 O          -4.4200  -14.9030    6.5540 O.2       1 LYS        -0.3944
    120 CB         -2.5260  -11.9190    6.5620 C.3       1 LYS        -0.0122
    121 CG         -2.0710  -10.8770    5.5490 C.3       1 LYS        -0.0440
    122 CD         -2.1550  -11.4000    4.1240 C.3       1 LYS        -0.0124
    123 CE         -1.0730  -10.7940    3.2420 C.3       1 LYS        -0.0354
    124 NZ         -0.9880  -11.4740    1.9210 N.4       1 LYS         0.2185
    125 N          -3.7850  -13.7100    8.3520 N.am      1 LYS        -0.2695
    126 CA         -3.9280  -14.8240    9.2830 C.3       1 LYS         0.0944
    127 C          -3.0320  -15.9920    8.8780 C.2       1 LYS         0.0601
    128 O          -2.3400  -15.8730    7.8440 O.co2     1 LYS        -0.5666
    129 CB         -5.3880  -15.2780    9.3480 C.3       1 LYS        -0.0177
    130 CG         -6.0660  -14.9580   10.6700 C.3       1 LYS        -0.0446
    131 CD         -7.4010  -15.6720   10.7990 C.3       1 LYS        -0.0125
    132 CE         -8.4060  -14.8390   11.5790 C.3       1 LYS        -0.0354
    133 NZ         -8.8260  -13.6270   10.8240 N.4       1 LYS         0.2185
    134 OXT        -3.0310  -17.0130    9.5960 O.co2     1 LYS        -0.5666
    135 H         -11.1304   10.2443   11.4977 H         1 GLY         0.2012
    136 H          -9.4882   10.1781   11.2229 H         1 GLY         0.2012
    137 H         -10.5479    9.5733   10.0880 H         1 GLY         0.2012
    138 H         -11.2730    7.8936   11.5508 H         1 GLY         0.1061
    139 H         -10.1184    8.5525   12.7872 H         1 GLY         0.1061
    140 H          -8.3417    9.1223   10.2958 H         1 SER         0.1885
    141 H          -6.5958    8.0592    9.2395 H         1 SER         0.0823
    142 H          -6.5416    5.7643   11.1268 H         1 SER         0.0606
    143 H          -6.4128    7.4007   11.8604 H         1 SER         0.0606
    144 H          -4.3654    6.5086   11.2875 H         1 SER         0.2097
    145 H          -7.9022    7.5422    7.4244 H         1 LEU         0.1883
    146 H          -9.2590    4.9830    7.2692 H         1 LEU         0.0800
    147 H          -9.0092    5.5965    4.7156 H         1 LEU         0.0315
    148 H          -8.6089    7.2338    5.4488 H         1 LEU         0.0315
    149 H         -10.7904    7.0115    6.6755 H         1 LEU         0.0298
    150 H         -10.4757    8.5222    4.7812 H         1 LEU         0.0232
    151 H         -10.8458    7.1993    3.6481 H         1 LEU         0.0232
    152 H         -12.1051    7.8044    4.7523 H         1 LEU         0.0232
    153 H         -11.2437    4.8534    4.5875 H         1 LEU         0.0232
    154 H         -11.1412    4.6112    6.3487 H         1 LEU         0.0232
    155 H         -12.4894    5.5453    5.6554 H         1 LEU         0.0232
    156 H          -6.0998    6.2359    6.2119 H         1 LEU         0.1883
    157 H          -5.2629    4.0150    4.6833 H         1 LEU         0.0800
    158 H          -3.5771    5.7076    6.5340 H         1 LEU         0.0315
    159 H          -4.0633    6.1286    4.8114 H         1 LEU         0.0315
    160 H          -2.5506    3.6259    5.3623 H         1 LEU         0.0298
    161 H          -3.4266    4.0990    3.1281 H         1 LEU         0.0232
    162 H          -2.5726    5.6615    3.1108 H         1 LEU         0.0232
    163 H          -1.6464    4.1407    3.1300 H         1 LEU         0.0232
    164 H          -1.2953    6.3857    5.2076 H         1 LEU         0.0232
    165 H          -1.2993    5.3067    6.6243 H         1 LEU         0.0232
    166 H          -0.4167    4.8378    5.1505 H         1 LEU         0.0232
    167 H          -4.7421    4.6561    8.1713 H         1 LYS         0.1883
    168 H          -3.4120    2.2332    8.7607 H         1 LYS         0.0800
    169 H          -5.3570    3.5812   10.6363 H         1 LYS         0.0312
    170 H          -3.7252    4.2839   10.2233 H         1 LYS         0.0312
    171 H          -3.0247    3.1695   12.0057 H         1 LYS         0.0269
    172 H          -3.1455    1.7184   10.9438 H         1 LYS         0.0269
    173 H          -4.2664    1.1448   12.9316 H         1 LYS         0.0317
    174 H          -5.5593    1.5614   11.7479 H         1 LYS         0.0317
    175 H          -6.3053    2.7128   13.5626 H         1 LYS         0.0813
    176 H          -5.2203    3.9571   12.8295 H         1 LYS         0.0813
    177 H          -4.8886    3.7484   15.1917 H         1 LYS         0.1994
    178 H          -4.5239    2.1298   15.0372 H         1 LYS         0.1994
    179 H          -3.5229    3.2777   14.3609 H         1 LYS         0.1994
    180 H          -6.8479    2.9425    8.3911 H         1 GLU         0.1883
    181 H          -7.8211    0.5326    9.5893 H         1 GLU         0.0801
    182 H          -9.8329    0.9749    8.0738 H         1 GLU         0.0330
    183 H          -8.9211    2.4728    7.5697 H         1 GLU         0.0330
    184 H         -10.6034    2.9092    9.2856 H         1 GLU         0.0433
    185 H          -8.9100    3.2229    9.8544 H         1 GLU         0.0433
    186 H          -6.8688    1.3530    6.2576 H         1 VAL         0.1883
    187 H          -7.7210   -1.1628    5.1773 H         1 VAL         0.0802
    188 H          -5.5739    0.6719    4.0494 H         1 VAL         0.0343
    189 H          -5.6495   -1.5368    3.0066 H         1 VAL         0.0234
    190 H          -7.4008   -1.3625    2.7349 H         1 VAL         0.0234
    191 H          -6.2576   -0.2895    1.8905 H         1 VAL         0.0234
    192 H          -8.5807    0.7200    3.6437 H         1 VAL         0.0234
    193 H          -7.6148    1.9338    4.5182 H         1 VAL         0.0234
    194 H          -7.3951    1.7162    2.7645 H         1 VAL         0.0234
    195 H          -4.6687    0.0093    6.5719 H         1 LEU         0.1883
    196 H          -3.0660   -2.2101    5.7598 H         1 LEU         0.0800
    197 H          -1.4319   -1.3792    7.0658 H         1 LEU         0.0315
    198 H          -2.6144   -0.9141    8.4057 H         1 LEU         0.0315
    199 H          -3.2023    1.0469    7.2699 H         1 LEU         0.0298
    200 H          -1.1239    1.1731    8.5556 H         1 LEU         0.0232
    201 H          -0.1904    0.6895    7.1183 H         1 LEU         0.0232
    202 H          -1.0526    2.2475    7.1373 H         1 LEU         0.0232
    203 H          -1.4606    0.0984    4.9730 H         1 LEU         0.0232
    204 H          -3.2392    0.1834    4.9844 H         1 LEU         0.0232
    205 H          -2.2758    1.6781    5.0777 H         1 LEU         0.0232
    206 H          -4.9910   -1.5738    8.6982 H         1 GLU         0.1883
    207 H          -4.3190   -4.0372   10.0110 H         1 GLU         0.0801
    208 H          -6.9280   -2.5727   10.3571 H         1 GLU         0.0330
    209 H          -5.3476   -1.9307   11.0003 H         1 GLU         0.0330
    210 H          -6.1282   -4.7081   11.6604 H         1 GLU         0.0433
    211 H          -6.9990   -3.3449   12.4809 H         1 GLU         0.0433
    212 H          -6.8241   -3.1012    7.6993 H         1 ASP         0.1884
    213 H          -8.4638   -5.4168    7.9479 H         1 ASP         0.0819
    214 H          -8.8639   -4.8395    5.3922 H         1 ASP         0.0478
    215 H          -7.9816   -3.3307    5.8703 H         1 ASP         0.0478
    216 H          -5.5879   -4.7366    5.9757 H         1 TYR         0.1885
    217 H          -5.6622   -7.2310    4.5360 H         1 TYR         0.0821
    218 H          -2.9992   -6.4507    4.6565 H         1 TYR         0.0453
    219 H          -3.9574   -4.9008    4.7604 H         1 TYR         0.0453
    220 H          -3.9440   -8.1015    2.7849 H         1 TYR         0.0530
    221 H          -4.4025   -3.8475    2.7710 H         1 TYR         0.0530
    222 H          -4.2773   -8.1463    0.3423 H         1 TYR         0.0525
    223 H          -4.7398   -3.8900    0.3300 H         1 TYR         0.0525
    224 H          -4.6594   -6.9498   -1.4815 H         1 TYR         0.2458
    225 H          -3.6839   -6.1021    7.2968 H         1 LEU         0.1883
    226 H          -2.2587   -8.4620    7.7687 H         1 LEU         0.0800
    227 H          -2.3653   -7.7123   10.2203 H         1 LEU         0.0315
    228 H          -3.2819   -6.2720    9.5381 H         1 LEU         0.0315
    229 H          -1.2345   -6.0292    8.0212 H         1 LEU         0.0298
    230 H          -1.8600   -4.4380    9.7687 H         1 LEU         0.0232
    231 H          -1.0464   -5.4435   10.9927 H         1 LEU         0.0232
    232 H          -0.0932   -4.6532    9.7129 H         1 LEU         0.0232
    233 H          -0.0396   -7.6818   10.2695 H         1 LEU         0.0232
    234 H          -0.1797   -8.1689    8.5624 H         1 LEU         0.0232
    235 H           0.8781   -6.8104    9.0167 H         1 LEU         0.0232
    236 H          -5.5694   -7.6186    8.7074 H         1 ARG         0.1883
    237 H          -5.9044  -10.0323   10.3109 H         1 ARG         0.0800
    238 H          -8.4132   -9.3208    9.9024 H         1 ARG         0.0313
    239 H          -7.5981   -7.7620    9.4161 H         1 ARG         0.0313
    240 H          -8.2614   -7.6372   11.7106 H         1 ARG         0.0301
    241 H          -6.4680   -7.7766   11.6072 H         1 ARG         0.0301
    242 H          -6.5410  -10.0648   12.2300 H         1 ARG         0.0689
    243 H          -8.3451  -10.0879   12.1159 H         1 ARG         0.0689
    244 H          -6.7080   -9.1631   14.3471 H         1 ARG         0.2642
    245 H          -9.8250   -8.9366   12.6945 H         1 ARG         0.2615
    246 H         -10.6806   -8.3896   14.1402 H         1 ARG         0.2615
    247 H          -7.8170   -8.4636   16.1944 H         1 ARG         0.2615
    248 H          -9.5487   -8.1231   16.1126 H         1 ARG         0.2615
    249 H          -6.6076   -8.9903    7.0055 H         1 LEU         0.1883
    250 H          -8.1429  -11.3288    6.3062 H         1 LEU         0.0800
    251 H          -6.9025  -10.4207    3.9890 H         1 LEU         0.0315
    252 H          -7.1639   -8.9422    5.0492 H         1 LEU         0.0315
    253 H          -9.4401  -10.7797    4.7083 H         1 LEU         0.0298
    254 H          -9.5815   -8.7243    6.0202 H         1 LEU         0.0232
    255 H          -9.0923   -7.7681    4.5998 H         1 LEU         0.0232
    256 H         -10.6463   -8.6377    4.5955 H         1 LEU         0.0232
    257 H          -8.4763   -9.0072    2.4406 H         1 LEU         0.0232
    258 H          -8.5567  -10.7861    2.4287 H         1 LEU         0.0232
    259 H         -10.0547   -9.8277    2.5213 H         1 LEU         0.0232
    260 H          -4.8435  -10.8581    6.9955 H         1 LYS         0.1883
    261 H          -3.8267  -12.8905    5.1561 H         1 LYS         0.0800
    262 H          -1.7633  -12.6972    6.5908 H         1 LYS         0.0312
    263 H          -2.6701  -11.4053    7.5125 H         1 LYS         0.0312
    264 H          -1.0319  -10.6246    5.7605 H         1 LYS         0.0269
    265 H          -2.7242  -10.0085    5.6341 H         1 LYS         0.0269
    266 H          -3.1273  -11.1279    3.7134 H         1 LYS         0.0317
    267 H          -2.0179  -12.4811    4.1447 H         1 LYS         0.0317
    268 H          -0.1147  -10.9101    3.7483 H         1 LYS         0.0813
    269 H          -1.3185   -9.7458    3.0715 H         1 LYS         0.0813
    270 H          -0.2535  -11.0391    1.3627 H         1 LYS         0.1994
    271 H          -0.7710  -12.4607    2.0612 H         1 LYS         0.1994
    272 H          -1.8815  -11.3866    1.4368 H         1 LYS         0.1994
    273 H          -3.4770  -12.8041    8.7053 H         1 LYS         0.1875
    274 H          -3.6192  -14.4820   10.2708 H         1 LYS         0.0726
    275 H          -5.3991  -16.3614    9.2287 H         1 LYS         0.0305
    276 H          -5.9305  -14.7475    8.5655 H         1 LYS         0.0305
    277 H          -6.2435  -13.8835   10.7155 H         1 LYS         0.0269
    278 H          -5.4170  -15.2908   11.4801 H         1 LYS         0.0269
    279 H          -7.2411  -16.6088   11.3327 H         1 LYS         0.0317
    280 H          -7.7982  -15.8445    9.7987 H         1 LYS         0.0317
    281 H          -7.9357  -14.5173   12.5082 H         1 LYS         0.0813
    282 H          -9.2891  -15.4512   11.7618 H         1 LYS         0.0813
    283 H          -9.4978  -13.0976   11.3797 H         1 LYS         0.1994
    284 H          -8.0091  -13.0470   10.6327 H         1 LYS         0.1994
    285 H          -9.2579  -13.9088    9.9440 H         1 LYS         0.1994
@<TRIPOS>BOND
     1    1    2 1  
     2    2    3 1  
     3    3    4 2  
     4    3    5 am 
     5    5    6 1  
     6    6    7 1  
     7    6    9 1  
     8    7    8 2  
     9    7   11 am 
    10    9   10 1  
    11   11   12 1  
    12   12   13 1  
    13   12   15 1  
    14   13   14 2  
    15   13   19 am 
    16   15   16 1  
    17   16   17 1  
    18   16   18 1  
    19   19   20 1  
    20   20   21 1  
    21   20   23 1  
    22   21   22 2  
    23   21   27 am 
    24   23   24 1  
    25   24   25 1  
    26   24   26 1  
    27   27   28 1  
    28   28   29 1  
    29   28   31 1  
    30   29   30 2  
    31   29   36 am 
    32   31   32 1  
    33   32   33 1  
    34   33   34 1  
    35   34   35 1  
    36   36   37 1  
    37   37   38 1  
    38   37   40 1  
    39   38   39 2  
    40   38   45 am 
    41   40   41 1  
    42   41   42 1  
    43   42   43 ar 
    44   42   44 ar 
    45   45   46 1  
    46   46   47 1  
    47   46   49 1  
    48   47   48 2  
    49   47   52 am 
    50   49   50 1  
    51   49   51 1  
    52   52   53 1  
    53   53   54 1  
    54   53   56 1  
    55   54   55 2  
    56   54   60 am 
    57   56   57 1  
    58   57   58 1  
    59   57   59 1  
    60   60   61 1  
    61   61   62 1  
    62   61   64 1  
    63   62   63 2  
    64   62   69 am 
    65   64   65 1  
    66   65   66 1  
    67   66   67 ar 
    68   66   68 ar 
    69   69   70 1  
    70   70   71 1  
    71   70   73 1  
    72   71   72 2  
    73   71   77 am 
    74   73   74 1  
    75   74   75 ar 
    76   74   76 ar 
    77   77   78 1  
    78   78   79 1  
    79   78   81 1  
    80   79   80 2  
    81   79   89 am 
    82   81   82 1  
    83   82   83 ar 
    84   82   84 ar 
    85   83   85 ar 
    86   84   86 ar 
    87   85   87 ar 
    88   86   87 ar 
    89   87   88 1  
    90   89   90 1  
    91   90   91 1  
    92   90   93 1  
    93   91   92 2  
    94   91   97 am 
    95   93   94 1  
    96   94   95 1  
    97   94   96 1  
    98   97   98 1  
    99   98   99 1  
   100   98  101 1  
   101   99  100 2  
   102   99  108 am 
   103  101  102 1  
   104  102  103 1  
   105  103  104 1  
   106  104  105 ar 
   107  105  106 ar 
   108  105  107 ar 
   109  108  109 1  
   110  109  110 1  
   111  109  112 1  
   112  110  111 2  
   113  110  116 am 
   114  112  113 1  
   115  113  114 1  
   116  113  115 1  
   117  116  117 1  
   118  117  118 1  
   119  117  120 1  
   120  118  119 2  
   121  118  125 am 
   122  120  121 1  
   123  121  122 1  
   124  122  123 1  
   125  123  124 1  
   126  125  126 1  
   127  126  127 1  
   128  126  129 1  
   129  127  128 ar 
   130  127  134 ar 
   131  129  130 1  
   132  130  131 1  
   133  131  132 1  
   134  132  133 1  
   135    1  135 1  
   136    1  136 1  
   137    1  137 1  
   138    2  138 1  
   139    2  139 1  
   140    5  140 1  
   141    6  141 1  
   142    9  142 1  
   143    9  143 1  
   144   10  144 1  
   145   11  145 1  
   146   12  146 1  
   147   15  147 1  
   148   15  148 1  
   149   16  149 1  
   150   17  150 1  
   151   17  151 1  
   152   17  152 1  
   153   18  153 1  
   154   18  154 1  
   155   18  155 1  
   156   19  156 1  
   157   20  157 1  
   158   23  158 1  
   159   23  159 1  
   160   24  160 1  
   161   25  161 1  
   162   25  162 1  
   163   25  163 1  
   164   26  164 1  
   165   26  165 1  
   166   26  166 1  
   167   27  167 1  
   168   28  168 1  
   169   31  169 1  
   170   31  170 1  
   171   32  171 1  
   172   32  172 1  
   173   33  173 1  
   174   33  174 1  
   175   34  175 1  
   176   34  176 1  
   177   35  177 1  
   178   35  178 1  
   179   35  179 1  
   180   36  180 1  
   181   37  181 1  
   182   40  182 1  
   183   40  183 1  
   184   41  184 1  
   185   41  185 1  
   186   45  186 1  
   187   46  187 1  
   188   49  188 1  
   189   50  189 1  
   190   50  190 1  
   191   50  191 1  
   192   51  192 1  
   193   51  193 1  
   194   51  194 1  
   195   52  195 1  
   196   53  196 1  
   197   56  197 1  
   198   56  198 1  
   199   57  199 1  
   200   58  200 1  
   201   58  201 1  
   202   58  202 1  
   203   59  203 1  
   204   59  204 1  
   205   59  205 1  
   206   60  206 1  
   207   61  207 1  
   208   64  208 1  
   209   64  209 1  
   210   65  210 1  
   211   65  211 1  
   212   69  212 1  
   213   70  213 1  
   214   73  214 1  
   215   73  215 1  
   216   77  216 1  
   217   78  217 1  
   218   81  218 1  
   219   81  219 1  
   220   83  220 1  
   221   84  221 1  
   222   85  222 1  
   223   86  223 1  
   224   88  224 1  
   225   89  225 1  
   226   90  226 1  
   227   93  227 1  
   228   93  228 1  
   229   94  229 1  
   230   95  230 1  
   231   95  231 1  
   232   95  232 1  
   233   96  233 1  
   234   96  234 1  
   235   96  235 1  
   236   97  236 1  
   237   98  237 1  
   238  101  238 1  
   239  101  239 1  
   240  102  240 1  
   241  102  241 1  
   242  103  242 1  
   243  103  243 1  
   244  104  244 1  
   245  106  245 1  
   246  106  246 1  
   247  107  247 1  
   248  107  248 1  
   249  108  249 1  
   250  109  250 1  
   251  112  251 1  
   252  112  252 1  
   253  113  253 1  
   254  114  254 1  
   255  114  255 1  
   256  114  256 1  
   257  115  257 1  
   258  115  258 1  
   259  115  259 1  
   260  116  260 1  
   261  117  261 1  
   262  120  262 1  
   263  120  263 1  
   264  121  264 1  
   265  121  265 1  
   266  122  266 1  
   267  122  267 1  
   268  123  268 1  
   269  123  269 1  
   270  124  270 1  
   271  124  271 1  
   272  124  272 1  
   273  125  273 1  
   274  126  274 1  
   275  129  275 1  
   276  129  276 1  
   277  130  277 1  
   278  130  278 1  
   279  131  279 1  
   280  131  280 1  
   281  132  281 1  
   282  132  282 1  
   283  133  283 1  
   284  133  284 1  
   285  133  285 1  
@<TRIPOS>SUBSTRUCTURE
     1 GLY         1

