2lsr_ligand
  -I-interpret- 

288288  0  0  0  0  0  0  0  0999 V2000
  -10.3760    9.6950   11.0860 N   0  3  0  0  0
  -10.3210    8.3940   11.7280 C   0  0  0  0  0
   -9.2200    7.5100   11.1710 C   0  0  0  0  0
   -9.2170    6.3000   11.3930 O   0  0  0  0  0
   -8.2830    8.1150   10.4450 N   0  0  0  0  0
   -7.1730    7.3710    9.8570 C   0  0  0  0  0
   -7.6790    6.2410    8.9680 C   0  0  0  0  0
   -7.7720    5.0920    9.4020 O   0  0  0  0  0
   -6.2730    6.8070   10.9570 C   0  0  0  0  0
   -4.9070    6.8680   10.5810 O   0  0  0  0  0
   -8.0020    6.5720    7.7230 N   0  0  0  0  0
   -8.4960    5.5820    6.7720 C   0  0  0  0  0
   -7.3720    4.6540    6.3220 C   0  0  0  0  0
   -7.5610    3.4430    6.1940 O   0  0  0  0  0
   -9.1190    6.2770    5.5600 C   0  0  0  0  0
  -10.6110    6.5840    5.6890 C   0  0  0  0  0
  -11.0400    7.6000    4.6430 C   0  0  0  0  0
  -11.4300    5.3070    5.5610 C   0  0  0  0  0
   -6.1960    5.2280    6.0880 N   0  0  0  0  0
   -5.0400    4.4490    5.6580 C   0  0  0  0  0
   -4.7590    3.3200    6.6410 C   0  0  0  0  0
   -4.6550    2.1560    6.2520 O   0  0  0  0  0
   -3.8100    5.3500    5.5310 C   0  0  0  0  0
   -2.5510    4.6560    5.0060 C   0  0  0  0  0
   -2.5490    4.6380    3.4850 C   0  0  0  0  0
   -1.3010    5.3460    5.5350 C   0  0  0  0  0
   -4.6430    3.6730    7.9180 N   0  0  0  0  0
   -4.3780    2.6940    8.9670 C   0  0  0  0  0
   -5.4410    1.5990    8.9780 C   0  0  0  0  0
   -5.1510    0.4440    9.2880 O   0  0  0  0  0
   -4.3290    3.3830   10.3330 C   0  0  0  0  0
   -3.6890    2.5350   11.4190 C   0  0  0  0  0
   -4.7340    1.9400   12.3510 C   0  0  0  0  0
   -5.2790    2.9820   13.3130 C   0  0  0  0  0
   -4.4910    3.0390   14.5760 N   0  3  0  0  0
   -6.6710    1.9690    8.6390 N   0  0  0  0  0
   -7.7750    1.0150    8.6130 C   0  0  0  0  0
   -7.5470   -0.0570    7.5550 C   0  0  0  0  0
   -7.8070   -1.2370    7.7860 O   0  0  0  0  0
   -9.1000    1.7330    8.3500 C   0  0  0  0  0
   -9.6440    2.4720    9.5620 C   0  0  0  0  0
   -9.8730    1.5560   10.7490 C   0  0  0  0  0
   -9.9890    0.3300   10.5390 O   0  0  0  0  0
   -9.9360    2.0640   11.8880 O   0  0  0  0  0
   -7.0660    0.3610    6.3900 N   0  0  0  0  0
   -6.8140   -0.5700    5.2960 C   0  0  0  0  0
   -5.6480   -1.5010    5.6190 C   0  0  0  0  0
   -5.6700   -2.6810    5.2640 O   0  0  0  0  0
   -6.5350    0.1640    3.9690 C   0  0  0  0  0
   -6.4550   -0.8270    2.8180 C   0  0  0  0  0
   -7.6080    1.2080    3.7050 C   0  0  0  0  0
   -4.6350   -0.9740    6.3030 N   0  0  0  0  0
   -3.4750   -1.7820    6.6750 C   0  0  0  0  0
   -3.8920   -2.9010    7.6220 C   0  0  0  0  0
   -3.4960   -4.0540    7.4540 O   0  0  0  0  0
   -2.3860   -0.9290    7.3400 C   0  0  0  0  0
   -2.3190    0.5320    6.8920 C   0  0  0  0  0
   -1.0830    1.2090    7.4670 C   0  0  0  0  0
   -2.3240    0.6300    5.3730 C   0  0  0  0  0
   -4.7000   -2.5480    8.6160 N   0  0  0  0  0
   -5.1810   -3.5180    9.5920 C   0  0  0  0  0
   -6.0900   -4.5440    8.9260 C   0  0  0  0  0
   -6.0850   -5.7200    9.2870 O   0  0  0  0  0
   -5.9290   -2.8100   10.7230 C   0  0  0  0  0
   -6.0900   -3.6640   11.9710 C   0  0  0  0  0
   -4.9330   -3.5070   12.9380 C   0  0  0  0  0
   -3.8610   -4.0960   12.6820 O   0  0  0  0  0
   -5.0990   -2.7970   13.9520 O   0  0  0  0  0
   -6.8670   -4.0890    7.9500 N   0  0  0  0  0
   -7.7800   -4.9670    7.2280 C   0  0  0  0  0
   -7.0090   -6.0770    6.5260 C   0  0  0  0  0
   -7.4270   -7.2350    6.5210 O   0  0  0  0  0
   -8.5930   -4.1680    6.2070 C   0  0  0  0  0
   -9.8720   -3.6070    6.7970 C   0  0  0  0  0
  -10.4340   -4.2460    7.7110 O   0  0  0  0  0
  -10.3120   -2.5300    6.3440 O   0  0  0  0  0
   -5.8770   -5.7140    5.9360 N   0  0  0  0  0
   -5.0360   -6.6740    5.2330 C   0  0  0  0  0
   -4.4070   -7.6580    6.2120 C   0  0  0  0  0
   -4.5270   -8.8760    6.0570 O   0  0  0  0  0
   -3.9420   -5.9450    4.4480 C   0  0  0  0  0
   -4.1480   -5.9720    2.9510 C   0  0  0  0  0
   -4.1180   -7.1690    2.2480 C   0  0  0  0  0
   -4.3740   -4.7990    2.2400 C   0  0  0  0  0
   -4.3050   -7.1980    0.8790 C   0  0  0  0  0
   -4.5630   -4.8190    0.8720 C   0  0  0  0  0
   -4.5270   -6.0200    0.1950 C   0  0  0  0  0
   -4.7140   -6.0440   -1.1680 O   0  0  0  0  0
   -3.7410   -7.1180    7.2260 N   0  0  0  0  0
   -3.0890   -7.9370    8.2410 C   0  0  0  0  0
   -4.0550   -8.9710    8.8080 C   0  0  0  0  0
   -3.6710  -10.1050    9.0900 O   0  0  0  0  0
   -2.5450   -7.0570    9.3680 C   0  0  0  0  0
   -1.2190   -6.3590    9.0600 C   0  0  0  0  0
   -1.0420   -5.1360    9.9470 C   0  0  0  0  0
   -0.0570   -7.3240    9.2400 C   0  0  0  0  0
   -5.3130   -8.5730    8.9600 N   0  0  0  0  0
   -6.3330   -9.4720    9.4800 C   0  0  0  0  0
   -6.7720  -10.4530    8.4050 C   0  0  0  0  0
   -7.0270  -11.6240    8.6840 O   0  0  0  0  0
   -7.5360   -8.6810    9.9990 C   0  0  0  0  0
   -7.4210   -8.2850   11.4610 C   0  0  0  0  0
   -7.4630   -9.5010   12.3720 C   0  0  0  0  0
   -7.5570   -9.1270   13.7830 N   0  0  0  0  0
   -8.6870   -8.7420   14.3740 C   0  0  0  0  0
   -9.8180   -8.6850   13.6830 N   0  0  0  0  0
   -8.6840   -8.4180   15.6590 N   0  0  0  0  0
   -6.8340   -9.9710    7.1710 N   0  0  0  0  0
   -7.2180  -10.8120    6.0500 C   0  0  0  0  0
   -6.1340  -11.8520    5.7730 C   0  0  0  0  0
   -6.3520  -12.8040    5.0210 O   0  0  0  0  0
   -7.4650   -9.9600    4.8010 C   0  0  0  0  0
   -8.9240   -9.8910    4.3450 C   0  0  0  0  0
   -9.6100   -8.6680    4.9320 C   0  0  0  0  0
   -9.0090   -9.8770    2.8250 C   0  0  0  0  0
   -4.9640  -11.6670    6.3860 N   0  0  0  0  0
   -3.8520  -12.5950    6.2050 C   0  0  0  0  0
   -4.0450  -13.8440    7.0580 C   0  0  0  0  0
   -4.4200  -14.9030    6.5540 O   0  0  0  0  0
   -2.5260  -11.9190    6.5620 C   0  0  0  0  0
   -2.0710  -10.8770    5.5490 C   0  0  0  0  0
   -2.1550  -11.4000    4.1240 C   0  0  0  0  0
   -1.0730  -10.7940    3.2420 C   0  0  0  0  0
   -0.9880  -11.4740    1.9210 N   0  3  0  0  0
   -3.7850  -13.7100    8.3520 N   0  0  0  0  0
   -3.9280  -14.8240    9.2830 C   0  0  0  0  0
   -3.0320  -15.9920    8.8780 C   0  0  0  0  0
   -2.3400  -15.8730    7.8440 O   0  0  0  0  0
   -5.3880  -15.2780    9.3480 C   0  0  0  0  0
   -6.0660  -14.9580   10.6700 C   0  0  0  0  0
   -7.4010  -15.6720   10.7990 C   0  0  0  0  0
   -8.4060  -14.8390   11.5790 C   0  0  0  0  0
   -8.8260  -13.6270   10.8240 N   0  3  0  0  0
   -3.0310  -17.0130    9.5960 O   0  0  0  0  0
  -11.1304   10.2443   11.4977 H   0  0  0  0  0
   -9.4882   10.1781   11.2229 H   0  0  0  0  0
  -10.5479    9.5733   10.0880 H   0  0  0  0  0
  -11.2730    7.8936   11.5508 H   0  0  0  0  0
  -10.1184    8.5525   12.7872 H   0  0  0  0  0
   -8.3417    9.1223   10.2958 H   0  0  0  0  0
   -6.5958    8.0592    9.2395 H   0  0  0  0  0
   -6.5416    5.7643   11.1268 H   0  0  0  0  0
   -6.4128    7.4007   11.8604 H   0  0  0  0  0
   -4.3654    6.5086   11.2875 H   0  0  0  0  0
   -7.9022    7.5422    7.4244 H   0  0  0  0  0
   -9.2590    4.9830    7.2692 H   0  0  0  0  0
   -9.0092    5.5965    4.7156 H   0  0  0  0  0
   -8.6089    7.2338    5.4488 H   0  0  0  0  0
  -10.7904    7.0115    6.6755 H   0  0  0  0  0
  -10.4757    8.5222    4.7812 H   0  0  0  0  0
  -10.8458    7.1993    3.6481 H   0  0  0  0  0
  -12.1051    7.8044    4.7523 H   0  0  0  0  0
  -11.2437    4.8534    4.5875 H   0  0  0  0  0
  -11.1412    4.6112    6.3487 H   0  0  0  0  0
  -12.4894    5.5453    5.6554 H   0  0  0  0  0
   -6.0998    6.2359    6.2119 H   0  0  0  0  0
   -5.2629    4.0150    4.6833 H   0  0  0  0  0
   -3.5771    5.7076    6.5340 H   0  0  0  0  0
   -4.0633    6.1286    4.8114 H   0  0  0  0  0
   -2.5506    3.6259    5.3623 H   0  0  0  0  0
   -3.4266    4.0990    3.1281 H   0  0  0  0  0
   -2.5726    5.6615    3.1108 H   0  0  0  0  0
   -1.6464    4.1407    3.1300 H   0  0  0  0  0
   -1.2953    6.3857    5.2076 H   0  0  0  0  0
   -1.2993    5.3067    6.6243 H   0  0  0  0  0
   -0.4167    4.8378    5.1505 H   0  0  0  0  0
   -4.7421    4.6561    8.1713 H   0  0  0  0  0
   -3.4120    2.2332    8.7607 H   0  0  0  0  0
   -5.3570    3.5812   10.6363 H   0  0  0  0  0
   -3.7252    4.2839   10.2233 H   0  0  0  0  0
   -3.0247    3.1695   12.0057 H   0  0  0  0  0
   -3.1455    1.7184   10.9438 H   0  0  0  0  0
   -4.2664    1.1448   12.9316 H   0  0  0  0  0
   -5.5593    1.5614   11.7479 H   0  0  0  0  0
   -6.3053    2.7128   13.5626 H   0  0  0  0  0
   -5.2203    3.9571   12.8295 H   0  0  0  0  0
   -4.8886    3.7484   15.1917 H   0  0  0  0  0
   -4.5239    2.1298   15.0372 H   0  0  0  0  0
   -3.5229    3.2777   14.3609 H   0  0  0  0  0
   -6.8479    2.9425    8.3911 H   0  0  0  0  0
   -7.8211    0.5326    9.5893 H   0  0  0  0  0
   -9.8329    0.9749    8.0738 H   0  0  0  0  0
   -8.9211    2.4728    7.5697 H   0  0  0  0  0
  -10.6034    2.9092    9.2856 H   0  0  0  0  0
   -8.9100    3.2229    9.8544 H   0  0  0  0  0
   -9.9089    0.1587    9.5978 H   0  0  0  0  0
   -6.8688    1.3530    6.2576 H   0  0  0  0  0
   -7.7210   -1.1628    5.1773 H   0  0  0  0  0
   -5.5739    0.6719    4.0494 H   0  0  0  0  0
   -5.6495   -1.5368    3.0066 H   0  0  0  0  0
   -7.4008   -1.3625    2.7349 H   0  0  0  0  0
   -6.2576   -0.2895    1.8905 H   0  0  0  0  0
   -8.5807    0.7200    3.6437 H   0  0  0  0  0
   -7.6148    1.9338    4.5182 H   0  0  0  0  0
   -7.3951    1.7162    2.7645 H   0  0  0  0  0
   -4.6687    0.0093    6.5719 H   0  0  0  0  0
   -3.0660   -2.2101    5.7598 H   0  0  0  0  0
   -1.4319   -1.3792    7.0658 H   0  0  0  0  0
   -2.6144   -0.9141    8.4057 H   0  0  0  0  0
   -3.2023    1.0469    7.2699 H   0  0  0  0  0
   -1.1239    1.1731    8.5556 H   0  0  0  0  0
   -0.1904    0.6895    7.1183 H   0  0  0  0  0
   -1.0526    2.2475    7.1373 H   0  0  0  0  0
   -1.4606    0.0984    4.9730 H   0  0  0  0  0
   -3.2392    0.1834    4.9844 H   0  0  0  0  0
   -2.2758    1.6781    5.0777 H   0  0  0  0  0
   -4.9910   -1.5738    8.6982 H   0  0  0  0  0
   -4.3190   -4.0372   10.0110 H   0  0  0  0  0
   -6.9280   -2.5727   10.3571 H   0  0  0  0  0
   -5.3476   -1.9307   11.0003 H   0  0  0  0  0
   -6.1282   -4.7081   11.6604 H   0  0  0  0  0
   -6.9990   -3.3449   12.4809 H   0  0  0  0  0
   -3.9528   -4.5820   11.8592 H   0  0  0  0  0
   -6.8241   -3.1012    7.6993 H   0  0  0  0  0
   -8.4638   -5.4168    7.9479 H   0  0  0  0  0
   -8.8639   -4.8395    5.3922 H   0  0  0  0  0
   -7.9816   -3.3307    5.8703 H   0  0  0  0  0
   -9.9287   -5.0394    7.9027 H   0  0  0  0  0
   -5.5879   -4.7366    5.9757 H   0  0  0  0  0
   -5.6622   -7.2310    4.5360 H   0  0  0  0  0
   -2.9992   -6.4507    4.6565 H   0  0  0  0  0
   -3.9574   -4.9008    4.7604 H   0  0  0  0  0
   -3.9440   -8.1015    2.7849 H   0  0  0  0  0
   -4.4025   -3.8475    2.7710 H   0  0  0  0  0
   -4.2773   -8.1463    0.3423 H   0  0  0  0  0
   -4.7398   -3.8900    0.3300 H   0  0  0  0  0
   -4.8546   -5.1493   -1.4864 H   0  0  0  0  0
   -3.6839   -6.1021    7.2968 H   0  0  0  0  0
   -2.2587   -8.4620    7.7687 H   0  0  0  0  0
   -2.3653   -7.7123   10.2203 H   0  0  0  0  0
   -3.2819   -6.2720    9.5381 H   0  0  0  0  0
   -1.2345   -6.0292    8.0212 H   0  0  0  0  0
   -1.8600   -4.4380    9.7687 H   0  0  0  0  0
   -1.0464   -5.4435   10.9927 H   0  0  0  0  0
   -0.0932   -4.6532    9.7129 H   0  0  0  0  0
   -0.0396   -7.6818   10.2695 H   0  0  0  0  0
   -0.1797   -8.1689    8.5624 H   0  0  0  0  0
    0.8781   -6.8104    9.0167 H   0  0  0  0  0
   -5.5694   -7.6186    8.7074 H   0  0  0  0  0
   -5.9044  -10.0323   10.3109 H   0  0  0  0  0
   -8.4132   -9.3208    9.9024 H   0  0  0  0  0
   -7.5981   -7.7620    9.4161 H   0  0  0  0  0
   -8.2614   -7.6372   11.7106 H   0  0  0  0  0
   -6.4680   -7.7766   11.6072 H   0  0  0  0  0
   -6.5410  -10.0648   12.2300 H   0  0  0  0  0
   -8.3451  -10.0879   12.1159 H   0  0  0  0  0
   -6.7080   -9.1631   14.3471 H   0  0  0  0  0
  -10.6812   -8.3926   14.1409 H   0  0  0  0  0
   -9.8244   -8.9336   12.6938 H   0  0  0  0  0
   -7.8170   -8.4636   16.1944 H   0  0  0  0  0
   -6.6076   -8.9903    7.0055 H   0  0  0  0  0
   -8.1429  -11.3288    6.3062 H   0  0  0  0  0
   -6.9025  -10.4207    3.9890 H   0  0  0  0  0
   -7.1639   -8.9422    5.0492 H   0  0  0  0  0
   -9.4401  -10.7797    4.7083 H   0  0  0  0  0
   -9.5815   -8.7243    6.0202 H   0  0  0  0  0
   -9.0923   -7.7681    4.5998 H   0  0  0  0  0
  -10.6463   -8.6377    4.5955 H   0  0  0  0  0
   -8.4763   -9.0072    2.4406 H   0  0  0  0  0
   -8.5567  -10.7861    2.4287 H   0  0  0  0  0
  -10.0547   -9.8277    2.5213 H   0  0  0  0  0
   -4.8435  -10.8581    6.9955 H   0  0  0  0  0
   -3.8267  -12.8905    5.1561 H   0  0  0  0  0
   -1.7633  -12.6972    6.5908 H   0  0  0  0  0
   -2.6701  -11.4053    7.5125 H   0  0  0  0  0
   -1.0319  -10.6246    5.7605 H   0  0  0  0  0
   -2.7242  -10.0085    5.6341 H   0  0  0  0  0
   -3.1273  -11.1279    3.7134 H   0  0  0  0  0
   -2.0179  -12.4811    4.1447 H   0  0  0  0  0
   -0.1147  -10.9101    3.7483 H   0  0  0  0  0
   -1.3185   -9.7458    3.0715 H   0  0  0  0  0
   -0.2535  -11.0391    1.3627 H   0  0  0  0  0
   -0.7710  -12.4607    2.0612 H   0  0  0  0  0
   -1.8815  -11.3866    1.4368 H   0  0  0  0  0
   -3.4770  -12.8041    8.7053 H   0  0  0  0  0
   -3.6192  -14.4820   10.2708 H   0  0  0  0  0
   -2.4973  -15.0107    7.4525 H   0  0  0  0  0
   -5.3991  -16.3614    9.2287 H   0  0  0  0  0
   -5.9305  -14.7475    8.5655 H   0  0  0  0  0
   -6.2435  -13.8835   10.7155 H   0  0  0  0  0
   -5.4170  -15.2908   11.4801 H   0  0  0  0  0
   -7.2411  -16.6088   11.3327 H   0  0  0  0  0
   -7.7982  -15.8445    9.7987 H   0  0  0  0  0
   -7.9357  -14.5173   12.5082 H   0  0  0  0  0
   -9.2891  -15.4512   11.7618 H   0  0  0  0  0
   -9.4978  -13.0976   11.3797 H   0  0  0  0  0
   -8.0091  -13.0470   10.6327 H   0  0  0  0  0
   -9.2579  -13.9088    9.9440 H   0  0  0  0  0
  1  2  1  0  0  0
  2  3  1  0  0  0
  3  4  2  0  0  0
  3  5  1  0  0  0
  5  6  1  0  0  0
  6  7  1  0  0  0
  6  9  1  0  0  0
  7  8  2  0  0  0
  7 11  1  0  0  0
  9 10  1  0  0  0
 11 12  1  0  0  0
 12 13  1  0  0  0
 12 15  1  0  0  0
 13 14  2  0  0  0
 13 19  1  0  0  0
 15 16  1  0  0  0
 16 17  1  0  0  0
 16 18  1  0  0  0
 19 20  1  0  0  0
 20 21  1  0  0  0
 20 23  1  0  0  0
 21 22  2  0  0  0
 21 27  1  0  0  0
 23 24  1  0  0  0
 24 25  1  0  0  0
 24 26  1  0  0  0
 27 28  1  0  0  0
 28 29  1  0  0  0
 28 31  1  0  0  0
 29 30  2  0  0  0
 29 36  1  0  0  0
 31 32  1  0  0  0
 32 33  1  0  0  0
 33 34  1  0  0  0
 34 35  1  0  0  0
 36 37  1  0  0  0
 37 38  1  0  0  0
 37 40  1  0  0  0
 38 39  2  0  0  0
 38 45  1  0  0  0
 40 41  1  0  0  0
 41 42  1  0  0  0
 42 43  1  0  0  0
 42 44  2  0  0  0
 45 46  1  0  0  0
 46 47  1  0  0  0
 46 49  1  0  0  0
 47 48  2  0  0  0
 47 52  1  0  0  0
 49 50  1  0  0  0
 49 51  1  0  0  0
 52 53  1  0  0  0
 53 54  1  0  0  0
 53 56  1  0  0  0
 54 55  2  0  0  0
 54 60  1  0  0  0
 56 57  1  0  0  0
 57 58  1  0  0  0
 57 59  1  0  0  0
 60 61  1  0  0  0
 61 62  1  0  0  0
 61 64  1  0  0  0
 62 63  2  0  0  0
 62 69  1  0  0  0
 64 65  1  0  0  0
 65 66  1  0  0  0
 66 67  1  0  0  0
 66 68  2  0  0  0
 69 70  1  0  0  0
 70 71  1  0  0  0
 70 73  1  0  0  0
 71 72  2  0  0  0
 71 77  1  0  0  0
 73 74  1  0  0  0
 74 75  1  0  0  0
 74 76  2  0  0  0
 77 78  1  0  0  0
 78 79  1  0  0  0
 78 81  1  0  0  0
 79 80  2  0  0  0
 79 89  1  0  0  0
 81 82  1  0  0  0
 82 83  4  0  0  0
 82 84  4  0  0  0
 83 85  4  0  0  0
 84 86  4  0  0  0
 85 87  4  0  0  0
 86 87  4  0  0  0
 87 88  1  0  0  0
 89 90  1  0  0  0
 90 91  1  0  0  0
 90 93  1  0  0  0
 91 92  2  0  0  0
 91 97  1  0  0  0
 93 94  1  0  0  0
 94 95  1  0  0  0
 94 96  1  0  0  0
 97 98  1  0  0  0
 98 99  1  0  0  0
 98101  1  0  0  0
 99100  2  0  0  0
 99108  1  0  0  0
101102  1  0  0  0
102103  1  0  0  0
103104  1  0  0  0
104105  1  0  0  0
105106  1  0  0  0
105107  2  0  0  0
108109  1  0  0  0
109110  1  0  0  0
109112  1  0  0  0
110111  2  0  0  0
110116  1  0  0  0
112113  1  0  0  0
113114  1  0  0  0
113115  1  0  0  0
116117  1  0  0  0
117118  1  0  0  0
117120  1  0  0  0
118119  2  0  0  0
118125  1  0  0  0
120121  1  0  0  0
121122  1  0  0  0
122123  1  0  0  0
123124  1  0  0  0
125126  1  0  0  0
126127  1  0  0  0
126129  1  0  0  0
127128  1  0  0  0
127134  2  0  0  0
129130  1  0  0  0
130131  1  0  0  0
131132  1  0  0  0
132133  1  0  0  0
  1135  1  0  0  0
  1136  1  0  0  0
  1137  1  0  0  0
  2138  1  0  0  0
  2139  1  0  0  0
  5140  1  0  0  0
  6141  1  0  0  0
  9142  1  0  0  0
  9143  1  0  0  0
 10144  1  0  0  0
 11145  1  0  0  0
 12146  1  0  0  0
 15147  1  0  0  0
 15148  1  0  0  0
 16149  1  0  0  0
 17150  1  0  0  0
 17151  1  0  0  0
 17152  1  0  0  0
 18153  1  0  0  0
 18154  1  0  0  0
 18155  1  0  0  0
 19156  1  0  0  0
 20157  1  0  0  0
 23158  1  0  0  0
 23159  1  0  0  0
 24160  1  0  0  0
 25161  1  0  0  0
 25162  1  0  0  0
 25163  1  0  0  0
 26164  1  0  0  0
 26165  1  0  0  0
 26166  1  0  0  0
 27167  1  0  0  0
 28168  1  0  0  0
 31169  1  0  0  0
 31170  1  0  0  0
 32171  1  0  0  0
 32172  1  0  0  0
 33173  1  0  0  0
 33174  1  0  0  0
 34175  1  0  0  0
 34176  1  0  0  0
 35177  1  0  0  0
 35178  1  0  0  0
 35179  1  0  0  0
 36180  1  0  0  0
 37181  1  0  0  0
 40182  1  0  0  0
 40183  1  0  0  0
 41184  1  0  0  0
 41185  1  0  0  0
 43186  1  0  0  0
 45187  1  0  0  0
 46188  1  0  0  0
 49189  1  0  0  0
 50190  1  0  0  0
 50191  1  0  0  0
 50192  1  0  0  0
 51193  1  0  0  0
 51194  1  0  0  0
 51195  1  0  0  0
 52196  1  0  0  0
 53197  1  0  0  0
 56198  1  0  0  0
 56199  1  0  0  0
 57200  1  0  0  0
 58201  1  0  0  0
 58202  1  0  0  0
 58203  1  0  0  0
 59204  1  0  0  0
 59205  1  0  0  0
 59206  1  0  0  0
 60207  1  0  0  0
 61208  1  0  0  0
 64209  1  0  0  0
 64210  1  0  0  0
 65211  1  0  0  0
 65212  1  0  0  0
 67213  1  0  0  0
 69214  1  0  0  0
 70215  1  0  0  0
 73216  1  0  0  0
 73217  1  0  0  0
 75218  1  0  0  0
 77219  1  0  0  0
 78220  1  0  0  0
 81221  1  0  0  0
 81222  1  0  0  0
 83223  1  0  0  0
 84224  1  0  0  0
 85225  1  0  0  0
 86226  1  0  0  0
 88227  1  0  0  0
 89228  1  0  0  0
 90229  1  0  0  0
 93230  1  0  0  0
 93231  1  0  0  0
 94232  1  0  0  0
 95233  1  0  0  0
 95234  1  0  0  0
 95235  1  0  0  0
 96236  1  0  0  0
 96237  1  0  0  0
 96238  1  0  0  0
 97239  1  0  0  0
 98240  1  0  0  0
101241  1  0  0  0
101242  1  0  0  0
102243  1  0  0  0
102244  1  0  0  0
103245  1  0  0  0
103246  1  0  0  0
104247  1  0  0  0
106248  1  0  0  0
106249  1  0  0  0
107250  1  0  0  0
108251  1  0  0  0
109252  1  0  0  0
112253  1  0  0  0
112254  1  0  0  0
113255  1  0  0  0
114256  1  0  0  0
114257  1  0  0  0
114258  1  0  0  0
115259  1  0  0  0
115260  1  0  0  0
115261  1  0  0  0
116262  1  0  0  0
117263  1  0  0  0
120264  1  0  0  0
120265  1  0  0  0
121266  1  0  0  0
121267  1  0  0  0
122268  1  0  0  0
122269  1  0  0  0
123270  1  0  0  0
123271  1  0  0  0
124272  1  0  0  0
124273  1  0  0  0
124274  1  0  0  0
125275  1  0  0  0
126276  1  0  0  0
128277  1  0  0  0
129278  1  0  0  0
129279  1  0  0  0
130280  1  0  0  0
130281  1  0  0  0
131282  1  0  0  0
131283  1  0  0  0
132284  1  0  0  0
132285  1  0  0  0
133286  1  0  0  0
133287  1  0  0  0
133288  1  0  0  0
M  END
$$$$
