1h8s_ligand
  -I-interpret- 

 44 46  0  0  0  0  0  0  0  0999 V2000
   22.0380   39.3580   10.4860 C   0  0  0  0  0
   21.4780   38.6520   12.7700 C   0  0  0  0  0
   15.4860   36.1150   10.4730 C   0  0  0  0  0
   18.8390   36.6500   12.7590 N   0  0  0  0  0
   14.7200   33.7270   10.8250 C   0  0  0  0  0
   16.9520   34.4130   11.6170 N   0  0  0  0  0
   20.5060   38.2190   13.7650 C   0  0  0  0  0
   13.9960   36.4000   10.1720 C   0  0  0  0  0
   20.0350   36.8540   13.5140 C   0  0  0  0  0
   21.0810   38.9440   11.4370 C   0  0  0  0  0
   23.3850   39.5030   10.8710 C   0  0  0  0  0
   23.7690   39.2510   12.2090 C   0  0  0  0  0
   22.8270   38.7900   13.1460 C   0  0  0  0  0
   15.8760   34.6060   10.5490 C   0  0  0  0  0
   16.8220   35.3550   12.7360 C   0  0  0  0  0
   18.3260   35.3360   12.8020 C   0  0  0  0  0
   18.3210   34.7670   11.4940 C   0  0  0  0  0
   16.3510   36.8010    9.4180 C   0  0  0  0  0
   19.4300   39.1090   13.7820 N   0  3  0  0  0
   14.5590   33.2500   11.9750 O   0  0  0  0  0
   13.8850   33.4570    9.9080 O   0  0  0  0  0
   20.7130   35.8860   13.9490 O   0  0  0  0  0
   19.1640   34.6650   10.5840 O   0  0  0  0  0
   15.8480   36.7080   12.0890 S   0  0  0  0  0
   21.7363   39.5644    9.4591 H   0  0  0  0  0
   18.3902   37.3973   12.2293 H   0  0  0  0  0
   20.9968   38.2153   14.7382 H   0  0  0  0  0
   13.3739   35.8880   10.9062 H   0  0  0  0  0
   13.8147   37.4735   10.2257 H   0  0  0  0  0
   13.7529   36.0387    9.1728 H   0  0  0  0  0
   20.0343   38.8479   11.1483 H   0  0  0  0  0
   24.1314   39.8093   10.1381 H   0  0  0  0  0
   24.8020   39.4152   12.5158 H   0  0  0  0  0
   23.1406   38.5405   14.1597 H   0  0  0  0  0
   16.2595   34.3181    9.5702 H   0  0  0  0  0
   16.3342   35.2629   13.7064 H   0  0  0  0  0
   18.8621   34.8789   13.6337 H   0  0  0  0  0
   16.1667   37.8751    9.4412 H   0  0  0  0  0
   17.4024   36.6068    9.6298 H   0  0  0  0  0
   16.0991   36.4091    8.4326 H   0  0  0  0  0
   19.7739   40.0531   13.9575 H   0  0  0  0  0
   18.9534   39.0816   12.8806 H   0  0  0  0  0
   18.7795   38.8401   14.5202 H   0  0  0  0  0
   14.1499   33.8958    9.0963 H   0  0  0  0  0
 10  1  4  0  0  0
  1 11  4  0  0  0
  7  2  1  0  0  0
  2 10  4  0  0  0
  2 13  4  0  0  0
  9  7  1  0  0  0
  7 19  1  0  0  0
  9 22  2  0  0  0
 12 11  4  0  0  0
 13 12  4  0  0  0
 16 15  1  0  0  0
 16 17  1  0  0  0
 15 24  1  0  0  0
 24  3  1  0  0  0
 17 23  2  0  0  0
  5 21  1  0  0  0
  5 20  2  0  0  0
  3 18  1  0  0  0
 17  6  1  0  0  0
  4 16  1  0  0  0
 15  6  1  0  0  0
  6 14  1  0  0  0
 14  5  1  0  0  0
 14  3  1  0  0  0
  9  4  1  0  0  0
  3  8  1  0  0  0
  1 25  1  0  0  0
  4 26  1  0  0  0
  7 27  1  0  0  0
  8 28  1  0  0  0
  8 29  1  0  0  0
  8 30  1  0  0  0
 10 31  1  0  0  0
 11 32  1  0  0  0
 12 33  1  0  0  0
 13 34  1  0  0  0
 14 35  1  0  0  0
 15 36  1  0  0  0
 16 37  1  0  0  0
 18 38  1  0  0  0
 18 39  1  0  0  0
 18 40  1  0  0  0
 19 41  1  0  0  0
 19 42  1  0  0  0
 19 43  1  0  0  0
 21 44  1  0  0  0
M  END
$$$$
