6e1z_ligand
  -I-interpret- 

 22 23  0  0  0  0  0  0  0  0999 V2000
    2.2460   -2.0280   -4.8750 N   0  0  0  0  0
    3.4830   -1.4940   -5.4230 C   0  0  0  0  0
    2.1120   -3.2630   -4.4140 C   0  0  0  0  0
    0.8060   -3.3800   -3.9570 C   0  0  0  0  0
    1.0890   -1.3960   -4.7150 C   0  0  0  0  0
    4.7140   -3.2100   -6.9520 C   0  0  0  0  0
    3.2490   -2.4410  -10.2840 C   0  0  0  0  0
    3.7080   -2.5830   -8.8520 C   0  0  0  0  0
    3.7980   -2.1640   -6.7530 C   0  0  0  0  0
    4.6600   -3.4800   -8.3550 C   0  0  0  0  0
    0.2110   -2.2100   -4.1490 N   0  0  0  0  0
    3.6290   -3.2390  -11.1740 O   0  0  0  0  0
    2.4360   -1.5380  -10.5350 O   0  0  0  0  0
    3.2460   -1.8330   -7.8910 O   0  0  0  0  0
    4.2966   -1.6868   -4.7238 H   0  0  0  0  0
    3.3708   -0.4213   -5.5805 H   0  0  0  0  0
    2.8788   -4.0375   -4.3968 H   0  0  0  0  0
    0.3528   -4.2700   -3.5205 H   0  0  0  0  0
    0.8920   -0.3640   -5.0054 H   0  0  0  0  0
    5.3301   -3.7064   -6.2023 H   0  0  0  0  0
    5.2331   -4.2202   -8.9134 H   0  0  0  0  0
    4.2531   -3.8635  -10.7970 H   0  0  0  0  0
  2  1  1  0  0  0
  1  3  4  0  0  0
  1  5  4  0  0  0
  9  2  1  0  0  0
  3  4  4  0  0  0
 11  4  4  0  0  0
  5 11  4  0  0  0
  6  9  4  0  0  0
 10  6  4  0  0  0
  8  7  1  0  0  0
  7 12  1  0  0  0
  7 13  2  0  0  0
  8 10  4  0  0  0
  8 14  4  0  0  0
  9 14  4  0  0  0
  2 15  1  0  0  0
  2 16  1  0  0  0
  3 17  1  0  0  0
  4 18  1  0  0  0
  5 19  1  0  0  0
  6 20  1  0  0  0
 10 21  1  0  0  0
 12 22  1  0  0  0
M  END
$$$$
