2br8_ligand
  -I-interpret- 

223228  0  0  0  0  0  0  0  0999 V2000
   63.4380  113.4570   46.1300 N   0  3  0  0  0
   64.8100  114.0430   46.1390 C   0  0  0  0  0
   65.8900  113.1050   45.6350 C   0  0  0  0  0
   65.5930  112.0730   45.0000 O   0  0  0  0  0
   67.1470  113.4740   45.9300 N   0  0  0  0  0
   68.3380  112.8070   45.4010 C   0  0  0  0  0
   68.4630  111.3430   45.8060 C   0  0  0  0  0
   68.6910  110.4650   44.9600 O   0  0  0  0  0
   69.6050  113.5350   45.8540 C   0  0  0  0  0
   71.1240  112.6110   45.4730 S   0  0  0  0  0
   68.3200  111.0880   47.1010 N   0  0  0  0  0
   68.5750  109.7760   47.6610 C   0  0  0  0  0
   67.5080  108.7260   47.3030 C   0  0  0  0  0
   67.6530  107.5530   47.6510 O   0  0  0  0  0
   68.7470  109.8910   49.1820 C   0  0  0  0  0
   70.0170  111.0720   49.6800 S   0  0  0  0  0
   66.4450  109.1390   46.6200 N   0  0  0  0  0
   65.4520  108.1870   46.1030 C   0  0  0  0  0
   65.8690  107.6870   44.7340 C   0  0  0  0  0
   65.2640  106.7490   44.1880 O   0  0  0  0  0
   64.0920  108.8410   45.9880 C   0  0  0  0  0
   63.7160  109.3390   47.2450 O   0  0  0  0  0
   66.8860  108.3490   44.1810 N   0  0  0  0  0
   67.3790  108.0420   42.8630 C   0  0  0  0  0
   68.7510  107.4230   43.0260 C   0  0  0  0  0
   69.7120  108.1140   43.3640 O   0  0  0  0  0
   67.4270  109.3020   41.9900 C   0  0  0  0  0
   67.7850  109.1560   40.4990 C   0  0  0  0  0
   66.8040  108.2670   39.7190 C   0  0  0  0  0
   67.9330  110.5230   39.8440 C   0  0  0  0  0
   68.8290  106.1140   42.8060 N   0  0  0  0  0
   70.0530  105.3580   43.0320 C   0  0  0  0  0
   71.3370  105.9180   42.4000 C   0  0  0  0  0
   72.3650  105.9380   43.1040 O   0  0  0  0  0
   69.7050  103.9710   42.4890 C   0  0  0  0  0
   68.2500  103.8840   42.7000 C   0  0  0  0  0
   67.7330  105.2400   42.3450 C   0  0  0  0  0
   71.3240  106.3610   41.1320 N   0  0  0  0  0
   72.5440  106.9280   40.5320 C   0  0  0  0  0
   73.0410  108.1620   41.2730 C   0  0  0  0  0
   74.2620  108.3920   41.3370 O   0  0  0  0  0
   72.1230  107.2790   39.0960 C   0  0  0  0  0
   70.6320  107.2860   39.0990 C   0  0  0  0  0
   70.2110  106.3300   40.1610 C   0  0  0  0  0
   72.1000  108.9340   41.8280 N   0  0  0  0  0
   72.4140  110.0990   42.6610 C   0  0  0  0  0
   72.9010  109.6580   44.0480 C   0  0  0  0  0
   74.0050  110.0400   44.4830 O   0  0  0  0  0
   71.2130  111.0500   42.7530 C   0  0  0  0  0
   71.5700  112.6710   43.4820 S   0  0  0  0  0
   72.1020  108.8320   44.7190 N   0  0  0  0  0
   72.5290  108.1970   45.9620 C   0  0  0  0  0
   73.9590  107.6370   45.8560 C   0  0  0  0  0
   74.7930  107.9090   46.7130 O   0  0  0  0  0
   71.5410  107.1040   46.3690 C   0  0  0  0  0
   74.2360  106.8790   44.7940 N   0  0  0  0  0
   75.5600  106.2980   44.5490 C   0  0  0  0  0
   76.6710  107.3260   44.4140 C   0  0  0  0  0
   77.7910  107.1120   44.8960 O   0  0  0  0  0
   75.5620  105.4830   43.2610 C   0  0  0  0  0
   75.4100  103.9760   43.1800 C   0  0  0  0  0
   76.0910  103.5910   41.8940 C   0  0  0  0  0
   76.0150  103.2210   44.3600 C   0  0  0  0  0
   76.3750  108.4190   43.7200 N   0  0  0  0  0
   77.3490  109.4800   43.5110 C   0  0  0  0  0
   77.5450  110.3370   44.7480 C   0  0  0  0  0
   78.5410  111.0420   44.8770 O   0  0  0  0  0
   76.9360  110.3430   42.3260 C   0  0  0  0  0
   77.5190  109.8480   41.0190 C   0  0  0  0  0
   78.2920  110.5530   40.3740 O   0  0  0  0  0
   77.1650  108.6280   40.6260 N   0  0  0  0  0
   76.5930  110.2470   45.6690 N   0  0  0  0  0
   76.6090  111.0460   46.8920 C   0  0  0  0  0
   76.4780  110.2290   48.1820 C   0  0  0  0  0
   75.5290  110.4380   48.9420 O   0  0  0  0  0
   75.5160  112.1070   46.8090 C   0  0  0  0  0
   75.7490  113.0750   45.6670 C   0  0  0  0  0
   76.4620  114.0650   45.8210 O   0  0  0  0  0
   75.1530  112.7900   44.5080 N   0  0  0  0  0
   77.4270  109.3160   48.4310 N   0  0  0  0  0
   77.4160  108.4810   49.6340 C   0  0  0  0  0
   77.3180  109.2860   50.9290 C   0  0  0  0  0
   76.3870  109.0780   51.7080 O   0  0  0  0  0
   78.7750  107.7630   49.5740 C   0  0  0  0  0
   79.1190  107.7220   48.1400 C   0  0  0  0  0
   78.6010  109.0210   47.5870 C   0  0  0  0  0
   78.2710  110.1910   51.1540 N   0  0  0  0  0
   78.2890  110.9990   52.3670 C   0  0  0  0  0
   76.9360  111.6520   52.6530 C   0  0  0  0  0
   76.4640  111.6100   53.7920 O   0  0  0  0  0
   79.3930  112.0620   52.3110 C   0  0  0  0  0
   80.6790  111.6690   53.0240 C   0  0  0  0  0
   81.4200  112.9000   53.5020 C   0  0  0  0  0
   82.6160  112.5300   54.3790 C   0  0  0  0  0
   83.2650  113.7360   54.9540 N   0  3  0  0  0
   76.3170  112.2380   51.6240 N   0  0  0  0  0
   75.0270  112.9180   51.7800 C   0  0  0  0  0
   73.8820  111.9460   52.0580 C   0  0  0  0  0
   72.9620  112.2470   52.8220 O   0  0  0  0  0
   74.6850  113.7670   50.5440 C   0  0  0  0  0
   73.3700  114.5140   50.6920 C   0  0  0  0  0
   73.2480  115.5750   51.6060 C   0  0  0  0  0
   72.2420  114.1510   49.9410 C   0  0  0  0  0
   72.0410  116.2510   51.7650 C   0  0  0  0  0
   71.0310  114.8300   50.0850 C   0  0  0  0  0
   70.9410  115.8730   50.9990 C   0  0  0  0  0
   69.7570  116.5440   51.1670 O   0  0  0  0  0
   73.9410  110.7850   51.4200 N   0  0  0  0  0
   72.8450  109.8420   51.4620 C   0  0  0  0  0
   73.1490  108.7360   52.4570 C   0  0  0  0  0
   72.3340  107.8490   52.6800 O   0  0  0  0  0
   72.5730  109.2990   50.0540 C   0  0  0  0  0
   71.8610  110.5480   48.9400 S   0  0  0  0  0
   74.3159  108.7302   53.0951 O   0  0  0  0  0
   62.7730  114.1461   46.4811 H   0  0  0  0  0
   63.1873  113.1959   45.1764 H   0  0  0  0  0
   63.4190  112.6298   46.7264 H   0  0  0  0  0
   65.0503  114.2832   47.1747 H   0  0  0  0  0
   64.7959  114.9051   45.4721 H   0  0  0  0  0
   67.2798  114.2654   46.5596 H   0  0  0  0  0
   68.2246  112.8411   44.3175 H   0  0  0  0  0
   69.5511  113.6566   46.9359 H   0  0  0  0  0
   69.6511  114.4860   45.3233 H   0  0  0  0  0
   68.0209  111.8399   47.7219 H   0  0  0  0  0
   69.4975  109.4128   47.2080 H   0  0  0  0  0
   69.0499  108.9112   49.5511 H   0  0  0  0  0
   67.7990  110.2391   49.5921 H   0  0  0  0  0
   66.3160  110.1367   46.4514 H   0  0  0  0  0
   65.3939  107.3520   46.8012 H   0  0  0  0  0
   63.3596  108.1083   45.6491 H   0  0  0  0  0
   64.1370  109.6579   45.2677 H   0  0  0  0  0
   62.8535  109.7552   47.1781 H   0  0  0  0  0
   67.3304  109.0993   44.7101 H   0  0  0  0  0
   66.7139  107.3427   42.3563 H   0  0  0  0  0
   68.2254  109.9105   42.4147 H   0  0  0  0  0
   66.4093  109.6923   42.0000 H   0  0  0  0  0
   68.7456  108.6422   40.4614 H   0  0  0  0  0
   66.7971  107.2674   40.1537 H   0  0  0  0  0
   65.8035  108.6959   39.7752 H   0  0  0  0  0
   67.1179  108.2092   38.6768 H   0  0  0  0  0
   66.9935  111.0690   39.9293 H   0  0  0  0  0
   68.7252  111.0802   40.3440 H   0  0  0  0  0
   68.1859  110.3947   38.7915 H   0  0  0  0  0
   70.3196  105.3846   44.0886 H   0  0  0  0  0
   70.2517  103.1729   42.9912 H   0  0  0  0  0
   69.9871  103.8451   41.4437 H   0  0  0  0  0
   67.7967  103.1034   42.0891 H   0  0  0  0  0
   68.0037  103.6109   43.7261 H   0  0  0  0  0
   67.5067  105.3527   41.2847 H   0  0  0  0  0
   66.7726  105.4710   42.8058 H   0  0  0  0  0
   73.3768  106.2261   40.5753 H   0  0  0  0  0
   72.5143  106.5558   38.3805 H   0  0  0  0  0
   72.5231  108.2460   38.7910 H   0  0  0  0  0
   70.2453  108.2858   39.2961 H   0  0  0  0  0
   70.2368  106.9908   38.1270 H   0  0  0  0  0
   69.2597  106.6088   40.6142 H   0  0  0  0  0
   70.0331  105.3288   39.7685 H   0  0  0  0  0
   71.1203  108.7018   41.6644 H   0  0  0  0  0
   73.2260  110.6515   42.1883 H   0  0  0  0  0
   70.4805  110.5688   43.4011 H   0  0  0  0  0
   70.8778  111.2320   41.7319 H   0  0  0  0  0
   71.1687  108.6380   44.3560 H   0  0  0  0  0
   72.5408  108.9615   46.7388 H   0  0  0  0  0
   70.5545  107.5439   46.5151 H   0  0  0  0  0
   71.4913  106.3500   45.5834 H   0  0  0  0  0
   71.8752  106.6414   47.2977 H   0  0  0  0  0
   73.4921  106.6949   44.1208 H   0  0  0  0  0
   75.7551  105.6821   45.4269 H   0  0  0  0  0
   76.5776  105.6327   42.8945 H   0  0  0  0  0
   74.6571  105.8334   42.7646 H   0  0  0  0  0
   74.3545  103.7058   43.2107 H   0  0  0  0  0
   75.6003  104.0930   41.0601 H   0  0  0  0  0
   77.1381  103.8909   41.9350 H   0  0  0  0  0
   76.0259  102.5114   41.7590 H   0  0  0  0  0
   77.0828  103.4325   44.4160 H   0  0  0  0  0
   75.5308  103.5424   45.2821 H   0  0  0  0  0
   75.8620  102.1507   44.2218 H   0  0  0  0  0
   75.4406  108.5174   43.3231 H   0  0  0  0  0
   78.3066  109.0051   43.2977 H   0  0  0  0  0
   77.3072  111.3531   42.4993 H   0  0  0  0  0
   75.8496  110.3068   42.2454 H   0  0  0  0  0
   77.5383  108.2434   39.7582 H   0  0  0  0  0
   76.5202  108.0768   41.1924 H   0  0  0  0  0
   75.8223  109.5963   45.5172 H   0  0  0  0  0
   77.5928  111.5114   46.9523 H   0  0  0  0  0
   75.5190  112.6726   47.7408 H   0  0  0  0  0
   74.5644  111.6031   46.6395 H   0  0  0  0  0
   75.2805  113.4049   43.7042 H   0  0  0  0  0
   74.5698  111.9572   44.4257 H   0  0  0  0  0
   76.5492  107.8203   49.6476 H   0  0  0  0  0
   78.7247  106.7640   50.0071 H   0  0  0  0  0
   79.5341  108.2835   50.1579 H   0  0  0  0  0
   80.1917  107.6112   47.9817 H   0  0  0  0  0
   78.6759  106.8610   47.6396 H   0  0  0  0  0
   79.3474  109.8146   47.6203 H   0  0  0  0  0
   78.3463  108.9510   46.5295 H   0  0  0  0  0
   79.0064  110.3212   50.4593 H   0  0  0  0  0
   78.5028  110.3164   53.1895 H   0  0  0  0  0
   79.0079  112.9505   52.8114 H   0  0  0  0  0
   79.6418  112.2105   51.2602 H   0  0  0  0  0
   81.3153  111.1211   52.3290 H   0  0  0  0  0
   80.4303  111.0494   53.8856 H   0  0  0  0  0
   80.7343  113.5077   54.0924 H   0  0  0  0  0
   81.7862  113.4423   52.6303 H   0  0  0  0  0
   83.3466  112.0062   53.7626 H   0  0  0  0  0
   82.2621  111.9050   55.1989 H   0  0  0  0  0
   84.0564  113.4521   55.5315 H   0  0  0  0  0
   83.5927  114.3374   54.1981 H   0  0  0  0  0
   82.5901  114.2438   55.5259 H   0  0  0  0  0
   76.7545  112.2116   50.7030 H   0  0  0  0  0
   75.1369  113.5702   52.6464 H   0  0  0  0  0
   74.5941  113.0949   49.6907 H   0  0  0  0  0
   75.4767  114.5050   50.4151 H   0  0  0  0  0
   74.1120  115.8733   52.1998 H   0  0  0  0  0
   72.3124  113.3250   49.2333 H   0  0  0  0  0
   71.9579  117.0679   52.4819 H   0  0  0  0  0
   70.1653  114.5453   49.4870 H   0  0  0  0  0
   69.8697  117.2283   51.8308 H   0  0  0  0  0
   74.7788  110.5515   50.8872 H   0  0  0  0  0
   71.9380  110.3423   51.8013 H   0  0  0  0  0
   71.8543  108.4845   50.1441 H   0  0  0  0  0
   73.5251  108.9790   49.6306 H   0  0  0  0  0
   74.8377  109.4847   52.8123 H   0  0  0  0  0
  2  1  1  0  0  0
  3  2  1  0  0  0
  3  4  2  0  0  0
  6  5  1  0  0  0
  6  9  1  0  0  0
  7  6  1  0  0  0
  7  8  2  0  0  0
  9 10  1  0  0  0
  5  3  1  0  0  0
 12 11  1  0  0  0
 12 15  1  0  0  0
 13 12  1  0  0  0
 13 14  2  0  0  0
 15 16  1  0  0  0
 11  7  1  0  0  0
 18 17  1  0  0  0
 18 21  1  0  0  0
 19 18  1  0  0  0
 19 20  2  0  0  0
 21 22  1  0  0  0
 17 13  1  0  0  0
 24 23  1  0  0  0
 24 27  1  0  0  0
 25 24  1  0  0  0
 25 26  2  0  0  0
 27 28  1  0  0  0
 28 29  1  0  0  0
 28 30  1  0  0  0
 23 19  1  0  0  0
 33 32  1  0  0  0
 32 35  1  0  0  0
 32 31  1  0  0  0
 31 37  1  0  0  0
 37 36  1  0  0  0
 35 36  1  0  0  0
 33 34  2  0  0  0
 31 25  1  0  0  0
 40 39  1  0  0  0
 39 42  1  0  0  0
 39 38  1  0  0  0
 38 44  1  0  0  0
 44 43  1  0  0  0
 42 43  1  0  0  0
 40 41  2  0  0  0
 38 33  1  0  0  0
 46 45  1  0  0  0
 46 49  1  0  0  0
 47 46  1  0  0  0
 47 48  2  0  0  0
 49 50  1  0  0  0
 45 40  1  0  0  0
 52 51  1  0  0  0
 52 55  1  0  0  0
 53 52  1  0  0  0
 53 54  2  0  0  0
 51 47  1  0  0  0
 57 56  1  0  0  0
 57 60  1  0  0  0
 58 57  1  0  0  0
 58 59  2  0  0  0
 60 61  1  0  0  0
 61 62  1  0  0  0
 61 63  1  0  0  0
 56 53  1  0  0  0
 65 64  1  0  0  0
 65 68  1  0  0  0
 66 65  1  0  0  0
 66 67  2  0  0  0
 68 69  1  0  0  0
 69 71  1  0  0  0
 69 70  2  0  0  0
 64 58  1  0  0  0
 73 72  1  0  0  0
 73 76  1  0  0  0
 74 73  1  0  0  0
 74 75  2  0  0  0
 76 77  1  0  0  0
 77 79  1  0  0  0
 77 78  2  0  0  0
 72 66  1  0  0  0
 82 81  1  0  0  0
 81 84  1  0  0  0
 81 80  1  0  0  0
 80 86  1  0  0  0
 86 85  1  0  0  0
 84 85  1  0  0  0
 82 83  2  0  0  0
 80 74  1  0  0  0
 88 87  1  0  0  0
 88 91  1  0  0  0
 89 88  1  0  0  0
 89 90  2  0  0  0
 91 92  1  0  0  0
 92 93  1  0  0  0
 93 94  1  0  0  0
 94 95  1  0  0  0
 87 82  1  0  0  0
 97 96  1  0  0  0
 97100  1  0  0  0
 98 97  1  0  0  0
 98 99  2  0  0  0
100101  1  0  0  0
101102  4  0  0  0
101103  4  0  0  0
103105  4  0  0  0
105106  4  0  0  0
106107  1  0  0  0
104106  4  0  0  0
102104  4  0  0  0
 96 89  1  0  0  0
108109  1  0  0  0
109112  1  0  0  0
109110  1  0  0  0
110111  2  0  0  0
112113  1  0  0  0
 98108  1  0  0  0
 10 50  1  0  0  0
 16113  1  0  0  0
110114  1  0  0  0
  1115  1  0  0  0
  1116  1  0  0  0
  1117  1  0  0  0
  2118  1  0  0  0
  2119  1  0  0  0
  5120  1  0  0  0
  6121  1  0  0  0
  9122  1  0  0  0
  9123  1  0  0  0
 11124  1  0  0  0
 12125  1  0  0  0
 15126  1  0  0  0
 15127  1  0  0  0
 17128  1  0  0  0
 18129  1  0  0  0
 21130  1  0  0  0
 21131  1  0  0  0
 22132  1  0  0  0
 23133  1  0  0  0
 24134  1  0  0  0
 27135  1  0  0  0
 27136  1  0  0  0
 28137  1  0  0  0
 29138  1  0  0  0
 29139  1  0  0  0
 29140  1  0  0  0
 30141  1  0  0  0
 30142  1  0  0  0
 30143  1  0  0  0
 32144  1  0  0  0
 35145  1  0  0  0
 35146  1  0  0  0
 36147  1  0  0  0
 36148  1  0  0  0
 37149  1  0  0  0
 37150  1  0  0  0
 39151  1  0  0  0
 42152  1  0  0  0
 42153  1  0  0  0
 43154  1  0  0  0
 43155  1  0  0  0
 44156  1  0  0  0
 44157  1  0  0  0
 45158  1  0  0  0
 46159  1  0  0  0
 49160  1  0  0  0
 49161  1  0  0  0
 51162  1  0  0  0
 52163  1  0  0  0
 55164  1  0  0  0
 55165  1  0  0  0
 55166  1  0  0  0
 56167  1  0  0  0
 57168  1  0  0  0
 60169  1  0  0  0
 60170  1  0  0  0
 61171  1  0  0  0
 62172  1  0  0  0
 62173  1  0  0  0
 62174  1  0  0  0
 63175  1  0  0  0
 63176  1  0  0  0
 63177  1  0  0  0
 64178  1  0  0  0
 65179  1  0  0  0
 68180  1  0  0  0
 68181  1  0  0  0
 71182  1  0  0  0
 71183  1  0  0  0
 72184  1  0  0  0
 73185  1  0  0  0
 76186  1  0  0  0
 76187  1  0  0  0
 79188  1  0  0  0
 79189  1  0  0  0
 81190  1  0  0  0
 84191  1  0  0  0
 84192  1  0  0  0
 85193  1  0  0  0
 85194  1  0  0  0
 86195  1  0  0  0
 86196  1  0  0  0
 87197  1  0  0  0
 88198  1  0  0  0
 91199  1  0  0  0
 91200  1  0  0  0
 92201  1  0  0  0
 92202  1  0  0  0
 93203  1  0  0  0
 93204  1  0  0  0
 94205  1  0  0  0
 94206  1  0  0  0
 95207  1  0  0  0
 95208  1  0  0  0
 95209  1  0  0  0
 96210  1  0  0  0
 97211  1  0  0  0
100212  1  0  0  0
100213  1  0  0  0
102214  1  0  0  0
103215  1  0  0  0
104216  1  0  0  0
105217  1  0  0  0
107218  1  0  0  0
108219  1  0  0  0
109220  1  0  0  0
112221  1  0  0  0
112222  1  0  0  0
114223  1  0  0  0
M  END
$$$$
