### 
### Created by X-TOOL on Mon Sep 10 21:12:52 2018
### 

@<TRIPOS>MOLECULE
2br8_ligand
  223   228     1     0     0
SMALL
GAST_HUCK


@<TRIPOS>ATOM
      1 N          63.4380  113.4570   46.1300 N.4       1 GLY         0.2357
      2 CA         64.8100  114.0430   46.1390 C.3       1 GLY         0.0545
      3 C          65.8900  113.1050   45.6350 C.2       1 GLY         0.2237
      4 O          65.5930  112.0730   45.0000 O.2       1 GLY        -0.3910
      5 N          67.1470  113.4740   45.9300 N.am      1 CYS        -0.2604
      6 CA         68.3380  112.8070   45.4010 C.3       1 CYS         0.1407
      7 C          68.4630  111.3430   45.8060 C.2       1 CYS         0.2048
      8 O          68.6910  110.4650   44.9600 O.2       1 CYS        -0.3944
      9 CB         69.6050  113.5350   45.8540 C.3       1 CYS         0.0443
     10 SG         71.1240  112.6110   45.4730 S.3       1 CYS        -0.0882
     11 N          68.3200  111.0880   47.1010 N.am      1 CYS        -0.2629
     12 CA         68.5750  109.7760   47.6610 C.3       1 CYS         0.1406
     13 C          67.5080  108.7260   47.3030 C.2       1 CYS         0.2048
     14 O          67.6530  107.5530   47.6510 O.2       1 CYS        -0.3944
     15 CB         68.7470  109.8910   49.1820 C.3       1 CYS         0.0443
     16 SG         70.0170  111.0720   49.6800 S.3       1 CYS        -0.0882
     17 N          66.4450  109.1390   46.6200 N.am      1 SER        -0.2615
     18 CA         65.4520  108.1870   46.1030 C.3       1 SER         0.1539
     19 C          65.8690  107.6870   44.7340 C.2       1 SER         0.2062
     20 O          65.2640  106.7490   44.1880 O.2       1 SER        -0.3943
     21 CB         64.0920  108.8410   45.9880 C.3       1 SER         0.0843
     22 OG         63.7160  109.3390   47.2450 O.3       1 SER        -0.3903
     23 N          66.8860  108.3490   44.1810 N.am      1 LEU        -0.2636
     24 CA         67.3790  108.0420   42.8630 C.3       1 LEU         0.1314
     25 C          68.7510  107.4230   43.0260 C.2       1 LEU         0.2064
     26 O          69.7120  108.1140   43.3640 O.2       1 LEU        -0.3942
     27 CB         67.4270  109.3020   41.9900 C.3       1 LEU        -0.0101
     28 CG         67.7850  109.1560   40.4990 C.3       1 LEU        -0.0425
     29 CD1        66.8040  108.2670   39.7190 C.3       1 LEU        -0.0625
     30 CD2        67.9330  110.5230   39.8440 C.3       1 LEU        -0.0625
     31 N          68.8290  106.1140   42.8060 N.am      1 PRO        -0.2498
     32 CA         70.0530  105.3580   43.0320 C.3       1 PRO         0.1340
     33 C          71.3370  105.9180   42.4000 C.2       1 PRO         0.2066
     34 O          72.3650  105.9380   43.1040 O.2       1 PRO        -0.3942
     35 CB         69.7050  103.9710   42.4890 C.3       1 PRO        -0.0104
     36 CG         68.2500  103.8840   42.7000 C.3       1 PRO        -0.0281
     37 CD         67.7330  105.2400   42.3450 C.3       1 PRO         0.0369
     38 N          71.3240  106.3610   41.1320 N.am      1 PRO        -0.2498
     39 CA         72.5440  106.9280   40.5320 C.3       1 PRO         0.1338
     40 C          73.0410  108.1620   41.2730 C.2       1 PRO         0.2041
     41 O          74.2620  108.3920   41.3370 O.2       1 PRO        -0.3944
     42 CB         72.1230  107.2790   39.0960 C.3       1 PRO        -0.0104
     43 CG         70.6320  107.2860   39.0990 C.3       1 PRO        -0.0281
     44 CD         70.2110  106.3300   40.1610 C.3       1 PRO         0.0369
     45 N          72.1000  108.9340   41.8280 N.am      1 CYS        -0.2629
     46 CA         72.4140  110.0990   42.6610 C.3       1 CYS         0.1406
     47 C          72.9010  109.6580   44.0480 C.2       1 CYS         0.2047
     48 O          74.0050  110.0400   44.4830 O.2       1 CYS        -0.3944
     49 CB         71.2130  111.0500   42.7530 C.3       1 CYS         0.0443
     50 SG         71.5700  112.6710   43.4820 S.3       1 CYS        -0.0882
     51 N          72.1020  108.8320   44.7190 N.am      1 ALA        -0.2640
     52 CA         72.5290  108.1970   45.9620 C.3       1 ALA         0.1282
     53 C          73.9590  107.6370   45.8560 C.2       1 ALA         0.2036
     54 O          74.7930  107.9090   46.7130 O.2       1 ALA        -0.3944
     55 CB         71.5410  107.1040   46.3690 C.3       1 ALA        -0.0244
     56 N          74.2360  106.8790   44.7940 N.am      1 LEU        -0.2637
     57 CA         75.5600  106.2980   44.5490 C.3       1 LEU         0.1312
     58 C          76.6710  107.3260   44.4140 C.2       1 LEU         0.2040
     59 O          77.7910  107.1120   44.8960 O.2       1 LEU        -0.3944
     60 CB         75.5620  105.4830   43.2610 C.3       1 LEU        -0.0101
     61 CG         75.4100  103.9760   43.1800 C.3       1 LEU        -0.0425
     62 CD1        76.0910  103.5910   41.8940 C.3       1 LEU        -0.0625
     63 CD2        76.0150  103.2210   44.3600 C.3       1 LEU        -0.0625
     64 N          76.3750  108.4190   43.7200 N.am      1 ASN        -0.2616
     65 CA         77.3490  109.4800   43.5110 C.3       1 ASN         0.1476
     66 C          77.5450  110.3370   44.7480 C.2       1 ASN         0.2064
     67 O          78.5410  111.0420   44.8770 O.2       1 ASN        -0.3942
     68 CB         76.9360  110.3430   42.3260 C.3       1 ASN         0.0773
     69 CG         77.5190  109.8480   41.0190 C.2       1 ASN         0.1780
     70 OD1        78.2920  110.5530   40.3740 O.2       1 ASN        -0.3970
     71 ND2        77.1650  108.6280   40.6260 N.am      1 ASN        -0.3007
     72 N          76.5930  110.2470   45.6690 N.am      1 ASN        -0.2615
     73 CA         76.6090  111.0460   46.8920 C.3       1 ASN         0.1478
     74 C          76.4780  110.2290   48.1820 C.2       1 ASN         0.2088
     75 O          75.5290  110.4380   48.9420 O.2       1 ASN        -0.3940
     76 CB         75.5160  112.1070   46.8090 C.3       1 ASN         0.0773
     77 CG         75.7490  113.0750   45.6670 C.2       1 ASN         0.1780
     78 OD1        76.4620  114.0650   45.8210 O.2       1 ASN        -0.3970
     79 ND2        75.1530  112.7900   44.5080 N.am      1 ASN        -0.3007
     80 N          77.4270  109.3160   48.4310 N.am      1 PRO        -0.2497
     81 CA         77.4160  108.4810   49.6340 C.3       1 PRO         0.1338
     82 C          77.3180  109.2860   50.9290 C.2       1 PRO         0.2041
     83 O          76.3870  109.0780   51.7080 O.2       1 PRO        -0.3944
     84 CB         78.7750  107.7630   49.5740 C.3       1 PRO        -0.0104
     85 CG         79.1190  107.7220   48.1400 C.3       1 PRO        -0.0281
     86 CD         78.6010  109.0210   47.5870 C.3       1 PRO         0.0369
     87 N          78.2710  110.1910   51.1540 N.am      1 LYS        -0.2637
     88 CA         78.2890  110.9990   52.3670 C.3       1 LYS         0.1310
     89 C          76.9360  111.6520   52.6530 C.2       1 LYS         0.2040
     90 O          76.4640  111.6100   53.7920 O.2       1 LYS        -0.3944
     91 CB         79.3930  112.0620   52.3110 C.3       1 LYS        -0.0122
     92 CG         80.6790  111.6690   53.0240 C.3       1 LYS        -0.0440
     93 CD         81.4200  112.9000   53.5020 C.3       1 LYS        -0.0124
     94 CE         82.6160  112.5300   54.3790 C.3       1 LYS        -0.0354
     95 NZ         83.2650  113.7360   54.9540 N.4       1 LYS         0.2185
     96 N          76.3170  112.2380   51.6240 N.am      1 TYR        -0.2621
     97 CA         75.0270  112.9180   51.7800 C.3       1 TYR         0.1390
     98 C          73.8820  111.9460   52.0580 C.2       1 TYR         0.2058
     99 O          72.9620  112.2470   52.8220 O.2       1 TYR        -0.3942
    100 CB         74.6850  113.7670   50.5440 C.3       1 TYR         0.0163
    101 CG         73.3700  114.5140   50.6920 C.ar      1 TYR        -0.0493
    102 CD1        73.2480  115.5750   51.6060 C.ar      1 TYR        -0.0685
    103 CD2        72.2420  114.1510   49.9410 C.ar      1 TYR        -0.0685
    104 CE1        72.0410  116.2510   51.7650 C.ar      1 TYR        -0.0398
    105 CE2        71.0310  114.8300   50.0850 C.ar      1 TYR        -0.0398
    106 CZ         70.9410  115.8730   50.9990 C.ar      1 TYR         0.0805
    107 OH         69.7570  116.5440   51.1670 O.3       1 TYR        -0.3376
    108 N          73.9410  110.7850   51.4200 N.am      1 CYS        -0.2614
    109 CA         72.8450  109.8420   51.4620 C.3       1 CYS         0.1517
    110 C          73.1490  108.7360   52.4570 C.2       1 CYS         0.2579
    111 O          72.3340  107.8490   52.6800 O.2       1 CYS        -0.3680
    112 CB         72.5730  109.2990   50.0540 C.3       1 CYS         0.0456
    113 SG         71.8610  110.5480   48.9400 S.3       1 CYS        -0.0880
    114 O1         74.3159  108.7302   53.0951 O.3       1 CYS        -0.2909
    115 H1         62.7799  114.1372   46.4768 H         1 GLY         0.2012
    116 H2         63.4180  112.6394   46.7192 H         1 GLY         0.2012
    117 H3         63.1891  113.1986   45.1880 H         1 GLY         0.2012
    118 H4         65.0562  114.3290   47.1722 H         1 GLY         0.1061
    119 H5         64.8065  114.9393   45.5013 H         1 GLY         0.1061
    120 H6         67.2772  114.2499   46.5472 H         1 CYS         0.1885
    121 H7         68.2806  112.8507   44.3034 H         1 CYS         0.0808
    122 H8         69.5514  113.6897   46.9417 H         1 CYS         0.0432
    123 H9         69.6504  114.5100   45.3467 H         1 CYS         0.0432
    124 H10        68.0268  111.8252   47.7098 H         1 CYS         0.1884
    125 H11        69.5276  109.4215   47.2404 H         1 CYS         0.0808
    126 H12        69.0192  108.9010   49.5767 H         1 CYS         0.0432
    127 H13        67.7878  110.2082   49.6172 H         1 CYS         0.0432
    128 H14        66.3185  110.1171   46.4547 H         1 SER         0.1884
    129 H15        65.3843  107.3343   46.7946 H         1 SER         0.0823
    130 H16        63.3536  108.0992   45.6495 H         1 SER         0.0606
    131 H17        64.1403  109.6673   45.2635 H         1 SER         0.0606
    132 H18        62.8625  109.7509   47.1788 H         1 SER         0.2097
    133 H19        67.3217  109.0846   44.6997 H         1 LEU         0.1883
    134 H20        66.7087  107.3125   42.3850 H         1 LEU         0.0800
    135 H21        68.1714  109.9774   42.4370 H         1 LEU         0.0315
    136 H22        66.4320  109.7684   42.0398 H         1 LEU         0.0315
    137 H23        68.7670  108.6625   40.4527 H         1 LEU         0.0298
    138 H24        67.1198  108.2079   38.6670 H         1 LEU         0.0232
    139 H25        65.7939  108.6988   39.7749 H         1 LEU         0.0232
    140 H26        66.7961  107.2579   40.1567 H         1 LEU         0.0232
    141 H27        68.6400  111.1334   40.4251 H         1 LEU         0.0232
    142 H28        66.9540  111.0237   39.8151 H         1 LEU         0.0232
    143 H29        68.3120  110.3993   38.8188 H         1 LEU         0.0232
    144 H30        70.2314  105.2954   44.1156 H         1 PRO         0.0802
    145 H31        70.2326  103.1844   43.0483 H         1 PRO         0.0313
    146 H32        69.9543  103.8914   41.4206 H         1 PRO         0.0313
    147 H33        67.8086  103.1173   42.0464 H         1 PRO         0.0287
    148 H34        68.0240  103.6453   43.7497 H         1 PRO         0.0287
    149 H35        67.5736  105.3362   41.2609 H         1 PRO         0.0524
    150 H36        66.7948  105.4617   42.8746 H         1 PRO         0.0524
    151 H37        73.3457  106.1749   40.5234 H         1 PRO         0.0802
    152 H38        72.5009  106.5241   38.3908 H         1 PRO         0.0313
    153 H39        72.5099  108.2696   38.8148 H         1 PRO         0.0313
    154 H40        70.2565  108.2950   39.3243 H         1 PRO         0.0287
    155 H41        70.2478  106.9617   38.1206 H         1 PRO         0.0287
    156 H42        69.2723  106.6573   40.6318 H         1 PRO         0.0524
    157 H43        70.0809  105.3190   39.7476 H         1 PRO         0.0524
    158 H44        71.1396  108.7064   41.6676 H         1 CYS         0.1884
    159 H45        73.2360  110.6472   42.1774 H         1 CYS         0.0808
    160 H46        70.4394  110.5638   43.3655 H         1 CYS         0.0432
    161 H47        70.8274  111.2114   41.7356 H         1 CYS         0.0432
    162 H48        71.1870  108.6418   44.3631 H         1 ALA         0.1883
    163 H49        72.5285  108.9650   46.7495 H         1 ALA         0.0797
    164 H50        71.8772  106.6364   47.3062 H         1 ALA         0.0277
    165 H51        71.4900  106.3424   45.5770 H         1 ALA         0.0277
    166 H52        70.5449  107.5466   46.5168 H         1 ALA         0.0277
    167 H53        73.5067  106.6985   44.1340 H         1 LEU         0.1883
    168 H54        75.7971  105.6367   45.3954 H         1 LEU         0.0800
    169 H55        76.5233  105.7063   42.7752 H         1 LEU         0.0315
    170 H56        74.7408  105.8926   42.6546 H         1 LEU         0.0315
    171 H57        74.3407  103.7233   43.1272 H         1 LEU         0.0298
    172 H58        76.0260  102.5016   41.7566 H         1 LEU         0.0232
    173 H59        77.1479  103.8930   41.9341 H         1 LEU         0.0232
    174 H60        75.5967  104.0969   41.0516 H         1 LEU         0.0232
    175 H61        75.5025  103.5180   45.2869 H         1 LEU         0.0232
    176 H62        77.0853  103.4619   44.4395 H         1 LEU         0.0232
    177 H63        75.8932  102.1389   44.2043 H         1 LEU         0.0232
    178 H64        75.4589  108.5155   43.3309 H         1 ASN         0.1885
    179 H65        78.3141  109.0089   43.2732 H         1 ASN         0.0826
    180 H66        77.2837  111.3719   42.5004 H         1 ASN         0.0551
    181 H67        75.8388  110.3348   42.2487 H         1 ASN         0.0551
    182 H68        77.5228  108.2550   39.7699 H         1 ASN         0.1814
    183 H69        76.5410  108.0835   41.1865 H         1 ASN         0.1814
    184 H70        75.8374  109.6090   45.5202 H         1 ASN         0.1885
    185 H71        77.5804  111.5604   46.9346 H         1 ASN         0.0826
    186 H72        75.4959  112.6706   47.7534 H         1 ASN         0.0551
    187 H73        74.5473  111.6078   46.6591 H         1 ASN         0.0551
    188 H74        75.2735  113.3958   43.7216 H         1 ASN         0.1814
    189 H75        74.5857  111.9706   44.4257 H         1 ASN         0.1814
    190 H76        76.5848  107.7617   49.5932 H         1 PRO         0.0802
    191 H77        78.6931  106.7446   49.9817 H         1 PRO         0.0313
    192 H78        79.5345  108.3240   50.1383 H         1 PRO         0.0313
    193 H79        80.2081  107.6492   48.0041 H         1 PRO         0.0287
    194 H80        78.6302  106.8683   47.6479 H         1 PRO         0.0287
    195 H81        79.3575  109.8146   47.6757 H         1 PRO         0.0524
    196 H82        78.3082  108.9096   46.5326 H         1 PRO         0.0524
    197 H83        78.9920  110.3187   50.4729 H         1 LYS         0.1883
    198 H84        78.5151  110.3249   53.2064 H         1 LYS         0.0800
    199 H85        79.0090  112.9820   52.7758 H         1 LYS         0.0312
    200 H86        79.6306  112.2564   51.2547 H         1 LYS         0.0312
    201 H87        81.3208  111.1077   52.3290 H         1 LYS         0.0269
    202 H88        80.4338  111.0358   53.8894 H         1 LYS         0.0269
    203 H89        80.7304  113.5282   54.0849 H         1 LYS         0.0317
    204 H90        81.7788  113.4630   52.6277 H         1 LYS         0.0317
    205 H91        83.3515  111.9853   53.7688 H         1 LYS         0.0813
    206 H92        82.2708  111.8845   55.2000 H         1 LYS         0.0813
    207 H93        84.0473  113.4566   55.5250 H         1 LYS         0.1994
    208 H94        82.5990  114.2387   55.5194 H         1 LYS         0.1994
    209 H95        83.5893  114.3311   54.2079 H         1 LYS         0.1994
    210 H96        76.7459  112.2121   50.7210 H         1 TYR         0.1885
    211 H97        75.1131  113.5931   52.6441 H         1 TYR         0.0821
    212 H98        74.6164  113.1036   49.6692 H         1 TYR         0.0453
    213 H99        75.4902  114.4997   50.3864 H         1 TYR         0.0453
    214 H100       74.1073  115.8717   52.1965 H         1 TYR         0.0530
    215 H101       72.3121  113.3295   49.2372 H         1 TYR         0.0530
    216 H102       71.9584  117.0634   52.4779 H         1 TYR         0.0525
    217 H103       70.1700  114.5468   49.4903 H         1 TYR         0.0525
    218 H104       69.8685  117.2212   51.8238 H         1 TYR         0.2458
    219 H105       74.7624  110.5561   50.8976 H         1 CYS         0.1885
    220 H106       71.9427  110.3697   51.8046 H         1 CYS         0.0825
    221 H107       71.8698  108.4567   50.1322 H         1 CYS         0.0434
    222 H108       73.5220  108.9457   49.6245 H         1 CYS         0.0434
    223 H109       74.8323  109.4769   52.8152 H         1 CYS         0.2540
@<TRIPOS>BOND
     1    2    1 1  
     2    3    2 1  
     3    3    4 2  
     4    6    5 1  
     5    6    9 1  
     6    7    6 1  
     7    7    8 2  
     8    9   10 1  
     9    5    3 am 
    10   12   11 1  
    11   12   15 1  
    12   13   12 1  
    13   13   14 2  
    14   15   16 1  
    15   11    7 am 
    16   18   17 1  
    17   18   21 1  
    18   19   18 1  
    19   19   20 2  
    20   21   22 1  
    21   17   13 am 
    22   24   23 1  
    23   24   27 1  
    24   25   24 1  
    25   25   26 2  
    26   27   28 1  
    27   28   29 1  
    28   28   30 1  
    29   23   19 am 
    30   33   32 1  
    31   32   35 1  
    32   32   31 1  
    33   31   37 1  
    34   37   36 1  
    35   35   36 1  
    36   33   34 2  
    37   31   25 am 
    38   40   39 1  
    39   39   42 1  
    40   39   38 1  
    41   38   44 1  
    42   44   43 1  
    43   42   43 1  
    44   40   41 2  
    45   38   33 am 
    46   46   45 1  
    47   46   49 1  
    48   47   46 1  
    49   47   48 2  
    50   49   50 1  
    51   45   40 am 
    52   52   51 1  
    53   52   55 1  
    54   53   52 1  
    55   53   54 2  
    56   51   47 am 
    57   57   56 1  
    58   57   60 1  
    59   58   57 1  
    60   58   59 2  
    61   60   61 1  
    62   61   62 1  
    63   61   63 1  
    64   56   53 am 
    65   65   64 1  
    66   65   68 1  
    67   66   65 1  
    68   66   67 2  
    69   68   69 1  
    70   69   71 am 
    71   69   70 2  
    72   64   58 am 
    73   73   72 1  
    74   73   76 1  
    75   74   73 1  
    76   74   75 2  
    77   76   77 1  
    78   77   79 am 
    79   77   78 2  
    80   72   66 am 
    81   82   81 1  
    82   81   84 1  
    83   81   80 1  
    84   80   86 1  
    85   86   85 1  
    86   84   85 1  
    87   82   83 2  
    88   80   74 am 
    89   88   87 1  
    90   88   91 1  
    91   89   88 1  
    92   89   90 2  
    93   91   92 1  
    94   92   93 1  
    95   93   94 1  
    96   94   95 1  
    97   87   82 am 
    98   97   96 1  
    99   97  100 1  
   100   98   97 1  
   101   98   99 2  
   102  100  101 1  
   103  101  102 ar 
   104  101  103 ar 
   105  103  105 ar 
   106  105  106 ar 
   107  106  107 1  
   108  104  106 ar 
   109  102  104 ar 
   110   96   89 am 
   111  108  109 1  
   112  109  112 1  
   113  109  110 1  
   114  110  111 2  
   115  112  113 1  
   116   98  108 am 
   117   10   50 1  
   118   16  113 1  
   119  110  114 1  
   120    1  115 1  
   121    1  116 1  
   122    1  117 1  
   123    2  118 1  
   124    2  119 1  
   125    5  120 1  
   126    6  121 1  
   127    9  122 1  
   128    9  123 1  
   129   11  124 1  
   130   12  125 1  
   131   15  126 1  
   132   15  127 1  
   133   17  128 1  
   134   18  129 1  
   135   21  130 1  
   136   21  131 1  
   137   22  132 1  
   138   23  133 1  
   139   24  134 1  
   140   27  135 1  
   141   27  136 1  
   142   28  137 1  
   143   29  138 1  
   144   29  139 1  
   145   29  140 1  
   146   30  141 1  
   147   30  142 1  
   148   30  143 1  
   149   32  144 1  
   150   35  145 1  
   151   35  146 1  
   152   36  147 1  
   153   36  148 1  
   154   37  149 1  
   155   37  150 1  
   156   39  151 1  
   157   42  152 1  
   158   42  153 1  
   159   43  154 1  
   160   43  155 1  
   161   44  156 1  
   162   44  157 1  
   163   45  158 1  
   164   46  159 1  
   165   49  160 1  
   166   49  161 1  
   167   51  162 1  
   168   52  163 1  
   169   55  164 1  
   170   55  165 1  
   171   55  166 1  
   172   56  167 1  
   173   57  168 1  
   174   60  169 1  
   175   60  170 1  
   176   61  171 1  
   177   62  172 1  
   178   62  173 1  
   179   62  174 1  
   180   63  175 1  
   181   63  176 1  
   182   63  177 1  
   183   64  178 1  
   184   65  179 1  
   185   68  180 1  
   186   68  181 1  
   187   71  182 1  
   188   71  183 1  
   189   72  184 1  
   190   73  185 1  
   191   76  186 1  
   192   76  187 1  
   193   79  188 1  
   194   79  189 1  
   195   81  190 1  
   196   84  191 1  
   197   84  192 1  
   198   85  193 1  
   199   85  194 1  
   200   86  195 1  
   201   86  196 1  
   202   87  197 1  
   203   88  198 1  
   204   91  199 1  
   205   91  200 1  
   206   92  201 1  
   207   92  202 1  
   208   93  203 1  
   209   93  204 1  
   210   94  205 1  
   211   94  206 1  
   212   95  207 1  
   213   95  208 1  
   214   95  209 1  
   215   96  210 1  
   216   97  211 1  
   217  100  212 1  
   218  100  213 1  
   219  102  214 1  
   220  103  215 1  
   221  104  216 1  
   222  105  217 1  
   223  107  218 1  
   224  108  219 1  
   225  109  220 1  
   226  112  221 1  
   227  112  222 1  
   228  114  223 1  
@<TRIPOS>SUBSTRUCTURE
     1 GLY         1

