4qnb_ligand
  -I-interpret- 

 58 61  0  0  0  0  0  0  0  0999 V2000
   16.1490   26.7250   -0.2270 O   0  0  0  0  0
   15.3040   25.9020   -0.0200 C   0  0  0  0  0
   15.2250   24.6950   -0.7830 N   0  0  0  0  0
   16.1210   24.4070   -1.8520 C   0  0  0  0  0
   15.4850   24.9000   -3.1350 C   0  0  0  0  0
   16.2770   25.4890   -4.2120 N   0  0  0  0  0
   17.7230   25.6170   -4.0020 C   0  0  0  0  0
   18.5780   24.6240   -4.4660 C   0  0  0  0  0
   19.9560   24.7330   -4.2380 C   0  0  0  0  0
   20.4560   25.8310   -3.5570 C   0  0  0  0  0
   19.5980   26.8230   -3.0860 C   0  0  0  0  0
   18.2270   26.7210   -3.3060 C   0  0  0  0  0
   15.6150   25.9290   -5.4600 C   0  0  0  0  0
   14.3080   24.7780   -3.2760 O   0  0  0  0  0
   16.3140   22.8980   -2.0330 C   0  0  0  0  0
   17.2480   22.4470   -0.9200 C   0  0  0  0  0
   18.6270   22.4770   -1.1120 C   0  0  0  0  0
   19.4680   22.0870   -0.0710 C   0  0  0  0  0
   18.9290   21.6960    1.1500 C   0  0  0  0  0
   17.5470   21.6870    1.3340 C   0  0  0  0  0
   16.7160   22.0730    0.3000 C   0  0  0  0  0
   14.2470   26.1540    1.0970 C   0  0  0  0  0
   14.8630   26.3020    2.4840 C   0  0  0  0  0
   15.1780   27.4790    3.1760 C   0  0  0  0  0
   15.0510   28.8320    2.8300 C   0  0  0  0  0
   15.4360   29.8090    3.7260 C   0  0  0  0  0
   15.9450   29.4550    4.9750 C   0  0  0  0  0
   16.0790   28.1250    5.3060 C   0  0  0  0  0
   15.6740   27.1320    4.3990 C   0  0  0  0  0
   15.6820   25.7350    4.4740 N   0  0  0  0  0
   15.1770   25.2360    3.2760 C   0  0  0  0  0
   15.2180   23.7230    3.4280 C   0  0  0  0  0
   14.5001   24.0152   -0.5531 H   0  0  0  0  0
   17.0772   24.8806   -1.6296 H   0  0  0  0  0
   18.1783   23.7648   -5.0046 H   0  0  0  0  0
   20.6325   23.9565   -4.5952 H   0  0  0  0  0
   21.5292   25.9197   -3.3882 H   0  0  0  0  0
   20.0005   27.6794   -2.5450 H   0  0  0  0  0
   17.5523   27.4945   -2.9392 H   0  0  0  0  0
   15.7848   26.9962   -5.6031 H   0  0  0  0  0
   16.0298   25.3775   -6.3037 H   0  0  0  0  0
   14.5445   25.7364   -5.3893 H   0  0  0  0  0
   16.7358   22.6727   -3.0125 H   0  0  0  0  0
   15.3603   22.3729   -1.9797 H   0  0  0  0  0
   19.0439   22.8017   -2.0653 H   0  0  0  0  0
   20.5486   22.0885   -0.2140 H   0  0  0  0  0
   19.5882   21.3960    1.9646 H   0  0  0  0  0
   17.1240   21.3768    2.2895 H   0  0  0  0  0
   15.6360   22.0827    0.4468 H   0  0  0  0  0
   13.5804   25.2919    1.1217 H   0  0  0  0  0
   13.7339   27.0865    0.8621 H   0  0  0  0  0
   14.6493   29.1115    1.8560 H   0  0  0  0  0
   15.3418   30.8609    3.4562 H   0  0  0  0  0
   16.2357   30.2279    5.6865 H   0  0  0  0  0
   16.4992   27.8430    6.2714 H   0  0  0  0  0
   14.2087   23.3222    3.3345 H   0  0  0  0  0
   15.8525   23.2980    2.6502 H   0  0  0  0  0
   15.6221   23.4684    4.4078 H   0  0  0  0  0
  1  2  2  0  0  0
  2  3  1  0  0  0
  2 22  1  0  0  0
  3  4  1  0  0  0
  4  5  1  0  0  0
  4 15  1  0  0  0
  5  6  1  0  0  0
  5 14  2  0  0  0
  6  7  1  0  0  0
  6 13  1  0  0  0
  7  8  4  0  0  0
  7 12  4  0  0  0
  8  9  4  0  0  0
  9 10  4  0  0  0
 10 11  4  0  0  0
 11 12  4  0  0  0
 15 16  1  0  0  0
 16 17  4  0  0  0
 16 21  4  0  0  0
 17 18  4  0  0  0
 18 19  4  0  0  0
 19 20  4  0  0  0
 20 21  4  0  0  0
 22 23  1  0  0  0
 23 24  4  0  0  0
 23 31  4  0  0  0
 24 25  4  0  0  0
 24 29  4  0  0  0
 25 26  4  0  0  0
 26 27  4  0  0  0
 27 28  4  0  0  0
 28 29  4  0  0  0
 29 30  4  0  0  0
 30 31  4  0  0  0
 31 32  1  0  0  0
  3 33  1  0  0  0
  4 34  1  0  0  0
  8 35  1  0  0  0
  9 36  1  0  0  0
 10 37  1  0  0  0
 11 38  1  0  0  0
 12 39  1  0  0  0
 13 40  1  0  0  0
 13 41  1  0  0  0
 13 42  1  0  0  0
 15 43  1  0  0  0
 15 44  1  0  0  0
 17 45  1  0  0  0
 18 46  1  0  0  0
 19 47  1  0  0  0
 20 48  1  0  0  0
 21 49  1  0  0  0
 22 50  1  0  0  0
 22 51  1  0  0  0
 25 52  1  0  0  0
 26 53  1  0  0  0
 27 54  1  0  0  0
 28 55  1  0  0  0
 32 56  1  0  0  0
 32 57  1  0  0  0
 32 58  1  0  0  0
M  END
$$$$
