### 
### Created by X-TOOL on Mon Sep 10 21:13:21 2018
### 

@<TRIPOS>MOLECULE
4wyy_ligand
   37    39     1     0     0
SMALL
GAST_HUCK


@<TRIPOS>ATOM
      1 C1         -6.6030  -12.2120   19.2740 C.ar      1 3VT        -0.0427
      2 C2         -6.4860  -13.5600   19.5850 C.ar      1 3VT         0.1045
      3 C3         -5.2480  -14.2050   19.6390 C.ar      1 3VT        -0.0170
      4 O4         -5.6040  -10.0530   16.9440 O.3       1 3VT        -0.8710
      5 C7         -2.5950  -11.5040   17.1450 C.3       1 3VT        -0.0046
      6 C8         -1.7700  -10.4180   16.4870 C.2       1 3VT         0.0354
      7 C9         -2.7250  -14.1540   19.3870 C.3       1 3VT        -0.0386
      8 C10        -5.1450  -15.6620   20.0180 C.3       1 3VT        -0.0367
      9 C11        -8.5500  -14.5890   18.8590 C.ar      1 3VT         0.1014
     10 C12        -8.2310  -14.2600   17.5150 C.ar      1 3VT        -0.0567
     11 C13       -10.2080  -15.1780   16.8500 C.ar      1 3VT        -0.0928
     12 C14       -10.5020  -15.5090   18.1640 C.ar      1 3VT        -0.0919
     13 O1         -0.9040   -9.8570   17.2270 O.co2     1 3VT        -0.5689
     14 O2         -1.9170  -10.1040   15.2970 O.co2     1 3VT        -0.5689
     15 C6         -3.1320  -11.1550   18.5650 C.3       1 3VT        -0.0870
     16 O          -3.7750   -9.8910   18.5450 O.3       1 3VT        -0.8433
     17 B          -5.1130  -10.0910   18.2170 B         1 3VT         3.0000
     18 C5         -4.2090  -12.1170   19.0160 C.ar      1 3VT        -0.0638
     19 C          -5.4720  -11.4550   18.9330 C.ar      1 3VT        -0.0493
     20 C4         -4.0850  -13.4800   19.3450 C.ar      1 3VT        -0.0503
     21 O3         -7.6540  -14.3120   19.8570 O.3       1 3VT        -0.2718
     22 N1         -9.6760  -15.2030   19.1830 N.ar      1 3VT        -0.3967
     23 N          -9.0740  -14.5590   16.5150 N.ar      1 3VT        -0.4393
     24 H          -7.5784  -11.7394   19.2949 H         1 3VT         0.0464
     25 H          -6.5396  -10.2167   16.9616 H         1 3VT        -0.1290
     26 H          -1.9687  -12.4044   17.2291 H         1 3VT         0.0439
     27 H          -3.4579  -11.7167   16.4969 H         1 3VT         0.0439
     28 H          -2.8484  -15.2117   19.6627 H         1 3VT         0.0359
     29 H          -2.0901  -13.6525   20.1322 H         1 3VT         0.0359
     30 H          -2.2514  -14.0861   18.3965 H         1 3VT         0.0359
     31 H          -6.1510  -16.0624   20.2119 H         1 3VT         0.0353
     32 H          -4.5294  -15.7626   20.9240 H         1 3VT         0.0353
     33 H          -4.6796  -16.2231   19.1943 H         1 3VT         0.0353
     34 H          -7.2944  -13.7609   17.2941 H         1 3VT         0.0253
     35 H         -10.9199  -15.4293   16.0721 H         1 3VT         0.0449
     36 H         -11.4273  -16.0314   18.3783 H         1 3VT         0.0350
     37 H          -2.2953  -11.1555   19.2791 H         1 3VT         0.0260
@<TRIPOS>BOND
     1    1    2 ar 
     2   19    1 ar 
     3    2    3 ar 
     4    2   21 1  
     5    3    8 1  
     6    3   20 ar 
     7   17    4 1  
     8    5    6 1  
     9   15    5 1  
    10    6   13 ar 
    11    6   14 ar 
    12   20    7 1  
    13    9   10 ar 
    14   21    9 1  
    15    9   22 ar 
    16   10   23 ar 
    17   12   11 ar 
    18   23   11 ar 
    19   22   12 ar 
    20   16   15 1  
    21   15   18 1  
    22   17   16 1  
    23   17   19 1  
    24   18   19 ar 
    25   18   20 ar 
    26    1   24 1  
    27    4   25 1  
    28    5   26 1  
    29    5   27 1  
    30    7   28 1  
    31    7   29 1  
    32    7   30 1  
    33    8   31 1  
    34    8   32 1  
    35    8   33 1  
    36   10   34 1  
    37   11   35 1  
    38   12   36 1  
    39   15   37 1  
@<TRIPOS>SUBSTRUCTURE
     1 3VT         1

