4wyy_ligand
  -I-interpret- 

 38 40  0  0  0  0  0  0  0  0999 V2000
   -6.6030  -12.2120   19.2740 C   0  0  0  0  0
   -6.4860  -13.5600   19.5850 C   0  0  0  0  0
   -5.2480  -14.2050   19.6390 C   0  0  0  0  0
   -5.6040  -10.0530   16.9440 O   0  0  0  0  0
   -2.5950  -11.5040   17.1450 C   0  0  0  0  0
   -1.7700  -10.4180   16.4870 C   0  0  0  0  0
   -2.7250  -14.1540   19.3870 C   0  0  0  0  0
   -5.1450  -15.6620   20.0180 C   0  0  0  0  0
   -8.5500  -14.5890   18.8590 C   0  0  0  0  0
   -8.2310  -14.2600   17.5150 C   0  0  0  0  0
  -10.2080  -15.1780   16.8500 C   0  0  0  0  0
  -10.5020  -15.5090   18.1640 C   0  0  0  0  0
   -0.9040   -9.8570   17.2270 O   0  0  0  0  0
   -1.9170  -10.1040   15.2970 O   0  0  0  0  0
   -3.1320  -11.1550   18.5650 C   0  0  0  0  0
   -3.7750   -9.8910   18.5450 O   0  0  0  0  0
   -5.1130  -10.0910   18.2170 B   0  0  0  0  0
   -4.2090  -12.1170   19.0160 C   0  0  0  0  0
   -5.4720  -11.4550   18.9330 C   0  0  0  0  0
   -4.0850  -13.4800   19.3450 C   0  0  0  0  0
   -7.6540  -14.3120   19.8570 O   0  0  0  0  0
   -9.6760  -15.2030   19.1830 N   0  0  0  0  0
   -9.0740  -14.5590   16.5150 N   0  0  0  0  0
   -7.5838  -11.7368   19.2950 H   0  0  0  0  0
   -6.5495  -10.2184   16.9618 H   0  0  0  0  0
   -1.9418  -12.3690   17.2598 H   0  0  0  0  0
   -3.4663  -11.6650   16.5102 H   0  0  0  0  0
   -2.5430  -14.5400   20.3900 H   0  0  0  0  0
   -2.7059  -14.9757   18.6711 H   0  0  0  0  0
   -1.9533  -13.4284   19.1299 H   0  0  0  0  0
   -5.5492  -15.8049   21.0201 H   0  0  0  0  0
   -5.7127  -16.2621   19.3069 H   0  0  0  0  0
   -4.0989  -15.9678   19.9998 H   0  0  0  0  0
   -7.2892  -13.7581   17.2929 H   0  0  0  0  0
  -10.9239  -15.4307   16.0678 H   0  0  0  0  0
  -11.4325  -16.0343   18.3795 H   0  0  0  0  0
   -0.9445  -10.2354   18.1084 H   0  0  0  0  0
   -2.2666  -11.1880   19.2269 H   0  0  0  0  0
  1  2  4  0  0  0
 19  1  4  0  0  0
  2  3  4  0  0  0
  2 21  1  0  0  0
  3  8  1  0  0  0
  3 20  4  0  0  0
 17  4  1  0  0  0
  5  6  1  0  0  0
 15  5  1  0  0  0
  6 13  1  0  0  0
  6 14  2  0  0  0
 20  7  1  0  0  0
  9 10  4  0  0  0
 21  9  1  0  0  0
  9 22  4  0  0  0
 10 23  4  0  0  0
 12 11  4  0  0  0
 23 11  4  0  0  0
 22 12  4  0  0  0
 16 15  1  0  0  0
 15 18  1  0  0  0
 17 16  1  0  0  0
 17 19  1  0  0  0
 18 19  4  0  0  0
 18 20  4  0  0  0
  1 24  1  0  0  0
  4 25  1  0  0  0
  5 26  1  0  0  0
  5 27  1  0  0  0
  7 28  1  0  0  0
  7 29  1  0  0  0
  7 30  1  0  0  0
  8 31  1  0  0  0
  8 32  1  0  0  0
  8 33  1  0  0  0
 10 34  1  0  0  0
 11 35  1  0  0  0
 12 36  1  0  0  0
 13 37  1  0  0  0
 15 38  1  0  0  0
M  END
$$$$
