6elp_ligand
  -I-interpret- 

 46 49  0  0  0  0  0  0  0  0999 V2000
    1.2430   33.7370   25.6920 C   0  0  0  0  0
    0.0670   33.3460   26.3560 C   0  0  0  0  0
   -1.1860   33.7240   25.8570 C   0  0  0  0  0
   -0.1110   35.8300   22.8520 C   0  0  0  0  0
   -0.6690   35.6420   21.6070 C   0  0  0  0  0
   -0.3960   36.7870   20.8510 C   0  0  0  0  0
    1.0910   37.6900   23.9870 C   0  0  0  0  0
    2.4810   37.6350   24.1380 C   0  0  0  0  0
    3.1170   38.1740   25.2670 C   0  0  0  0  0
    2.3380   38.7410   26.2720 C   0  0  0  0  0
    2.6130   33.2690   26.1810 C   0  0  0  0  0
    6.2470   30.2720   25.1000 C   0  0  0  0  0
    7.0470   32.3700   25.9850 C   0  0  0  0  0
    5.8340   32.9030   25.8110 N   0  0  0  0  0
    4.9940   30.8810   24.9090 C   0  0  0  0  0
   -1.2790   34.5260   24.7160 C   0  0  0  0  0
   -0.1090   34.9220   24.0330 C   0  0  0  0  0
    1.1400   34.5120   24.5430 C   0  0  0  0  0
    0.1340   32.6520   27.5230 O   0  0  0  0  0
    0.2890   37.6280   21.5810 N   0  0  0  0  0
    0.4570   37.0840   22.8660 N   0  0  0  0  0
    0.9450   38.7840   26.1310 C   0  0  0  0  0
    0.3130   38.2250   25.0270 C   0  0  0  0  0
    3.4130   36.8970   22.8810 Cl  0  0  0  0  0
   -2.5090   34.8400   24.2490 O   0  0  0  0  0
    7.2900   31.0400   25.6300 C   0  0  0  0  0
    4.8150   32.2080   25.3050 C   0  0  0  0  0
    3.4960   32.8810   24.9890 C   0  0  0  0  0
   -2.0933   33.3910   26.3611 H   0  0  0  0  0
   -1.2211   34.7637   21.2726 H   0  0  0  0  0
   -0.7049   36.9516   19.8187 H   0  0  0  0  0
    4.2031   38.1491   25.3556 H   0  0  0  0  0
    2.8103   39.1499   27.1652 H   0  0  0  0  0
    2.4839   32.4007   26.8272 H   0  0  0  0  0
    3.0916   34.0793   26.7310 H   0  0  0  0  0
    6.4025   29.2247   24.8409 H   0  0  0  0  0
    7.8503   32.9749   26.4055 H   0  0  0  0  0
    4.1729   30.3242   24.4575 H   0  0  0  0  0
    2.0495   34.8110   24.0219 H   0  0  0  0  0
   -0.7547   32.4685   27.8364 H   0  0  0  0  0
    0.3447   39.2657   26.9029 H   0  0  0  0  0
   -0.7752   38.2019   24.9686 H   0  0  0  0  0
   -2.4223   35.3910   23.4677 H   0  0  0  0  0
    8.2808   30.6059   25.7645 H   0  0  0  0  0
    3.7498   33.8155   24.4886 H   0  0  0  0  0
    2.9204   32.1552   24.4146 H   0  0  0  0  0
  1  2  4  0  0  0
 11  1  1  0  0  0
  1 18  4  0  0  0
  2  3  4  0  0  0
  2 19  1  0  0  0
  3 16  4  0  0  0
  4  5  4  0  0  0
 17  4  1  0  0  0
  4 21  4  0  0  0
  5  6  4  0  0  0
 20  6  4  0  0  0
  7  8  4  0  0  0
 21  7  1  0  0  0
  7 23  4  0  0  0
  8  9  4  0  0  0
  8 24  1  0  0  0
  9 10  4  0  0  0
 22 10  4  0  0  0
 28 11  1  0  0  0
 15 12  4  0  0  0
 12 26  4  0  0  0
 14 13  4  0  0  0
 13 26  4  0  0  0
 27 14  4  0  0  0
 27 15  4  0  0  0
 17 16  4  0  0  0
 16 25  1  0  0  0
 18 17  4  0  0  0
 21 20  4  0  0  0
 23 22  4  0  0  0
 27 28  1  0  0  0
  3 29  1  0  0  0
  5 30  1  0  0  0
  6 31  1  0  0  0
  9 32  1  0  0  0
 10 33  1  0  0  0
 11 34  1  0  0  0
 11 35  1  0  0  0
 12 36  1  0  0  0
 13 37  1  0  0  0
 15 38  1  0  0  0
 18 39  1  0  0  0
 19 40  1  0  0  0
 22 41  1  0  0  0
 23 42  1  0  0  0
 25 43  1  0  0  0
 26 44  1  0  0  0
 28 45  1  0  0  0
 28 46  1  0  0  0
M  END
$$$$
