4qvp_ligand
  -I-interpret- 

 53 54  0  0  0  0  0  0  0  0999 V2000
   62.6180 -133.2940   35.8870 N   0  0  0  0  0
   62.1700 -134.5270   36.1760 C   0  0  0  0  0
   62.2780 -135.5510   35.2360 C   0  0  0  0  0
   62.8580 -135.2960   33.9890 N   0  0  0  0  0
   63.3210 -134.0080   33.6940 C   0  0  0  0  0
   63.2000 -133.0040   34.6470 C   0  0  0  0  0
   61.6030 -134.7440   37.4270 C   0  0  0  0  0
   60.9890 -133.8390   37.9910 O   0  0  0  0  0
   61.7840 -135.9700   37.9510 N   0  0  0  0  0
   61.2870 -136.3170   39.2860 C   0  0  0  0  0
   60.5410 -137.6290   39.2560 C   0  0  0  0  0
   59.3420 -137.4010   38.5550 C   0  0  0  0  0
   59.1470 -137.9340   37.2780 C   0  0  0  0  0
   57.9540 -137.7070   36.5940 C   0  0  0  0  0
   56.9420 -136.9500   37.1800 C   0  0  0  0  0
   57.1280 -136.4180   38.4520 C   0  0  0  0  0
   58.3190 -136.6460   39.1370 C   0  0  0  0  0
   62.5260 -136.4420   40.1700 C   0  0  0  0  0
   63.5880 -136.8290   39.6860 O   0  0  0  0  0
   62.3680 -136.0750   41.4510 N   0  0  0  0  0
   63.4900 -136.1200   42.4040 C   0  0  0  0  0
   63.6860 -134.7980   43.1160 C   0  0  0  0  0
   63.6050 -133.6290   42.1140 C   0  0  0  0  0
   63.2270 -132.3560   42.8850 C   0  0  0  0  0
   64.9380 -133.4260   41.3740 C   0  0  0  0  0
   63.2270 -137.1830   43.4840 B   0  0  0  0  0
   62.0000 -136.8790   44.1710 O   0  0  0  0  0
   63.1270 -138.4800   42.8880 O   0  0  0  0  0
   61.9107 -136.5496   35.4727 H   0  0  0  0  0
   63.7725 -133.7947   32.7251 H   0  0  0  0  0
   63.5560 -131.9968   34.4305 H   0  0  0  0  0
   62.2793 -136.6756   37.4059 H   0  0  0  0  0
   60.5938 -135.5623   39.6574 H   0  0  0  0  0
   60.3370 -137.9813   40.2671 H   0  0  0  0  0
   61.1349 -138.4006   38.7661 H   0  0  0  0  0
   59.9324 -138.5307   36.8142 H   0  0  0  0  0
   57.8123 -138.1234   35.5967 H   0  0  0  0  0
   56.0088 -136.7753   36.6445 H   0  0  0  0  0
   56.3405 -135.8219   38.9131 H   0  0  0  0  0
   58.4550 -136.2320   40.1361 H   0  0  0  0  0
   61.4527 -135.7586   41.7711 H   0  0  0  0  0
   64.3807 -136.3555   41.8216 H   0  0  0  0  0
   64.6681 -134.7922   43.5888 H   0  0  0  0  0
   62.9023 -134.6786   43.8641 H   0  0  0  0  0
   62.8500 -133.8565   41.3614 H   0  0  0  0  0
   62.2616 -132.4998   43.3703 H   0  0  0  0  0
   63.9870 -132.1502   43.6388 H   0  0  0  0  0
   63.1650 -131.5175   42.1913 H   0  0  0  0  0
   65.7238 -133.2071   42.0970 H   0  0  0  0  0
   65.1896 -134.3338   40.8257 H   0  0  0  0  0
   64.8419 -132.5937   40.6767 H   0  0  0  0  0
   61.8384 -137.5439   44.8443 H   0  0  0  0  0
   62.9630 -139.1334   43.5719 H   0  0  0  0  0
  1  2  4  0  0  0
  1  6  4  0  0  0
  2  3  4  0  0  0
  2  7  1  0  0  0
  3  4  4  0  0  0
  4  5  4  0  0  0
  5  6  4  0  0  0
  7  8  2  0  0  0
  7  9  1  0  0  0
  9 10  1  0  0  0
 10 11  1  0  0  0
 10 18  1  0  0  0
 11 12  1  0  0  0
 12 13  4  0  0  0
 12 17  4  0  0  0
 13 14  4  0  0  0
 14 15  4  0  0  0
 15 16  4  0  0  0
 16 17  4  0  0  0
 18 19  2  0  0  0
 18 20  1  0  0  0
 20 21  1  0  0  0
 21 22  1  0  0  0
 21 26  1  0  0  0
 22 23  1  0  0  0
 23 24  1  0  0  0
 23 25  1  0  0  0
 26 27  1  0  0  0
 26 28  1  0  0  0
  3 29  1  0  0  0
  5 30  1  0  0  0
  6 31  1  0  0  0
  9 32  1  0  0  0
 10 33  1  0  0  0
 11 34  1  0  0  0
 11 35  1  0  0  0
 13 36  1  0  0  0
 14 37  1  0  0  0
 15 38  1  0  0  0
 16 39  1  0  0  0
 17 40  1  0  0  0
 20 41  1  0  0  0
 21 42  1  0  0  0
 22 43  1  0  0  0
 22 44  1  0  0  0
 23 45  1  0  0  0
 24 46  1  0  0  0
 24 47  1  0  0  0
 24 48  1  0  0  0
 25 49  1  0  0  0
 25 50  1  0  0  0
 25 51  1  0  0  0
 27 52  1  0  0  0
 28 53  1  0  0  0
M  END
$$$$
