### 
### Created by X-TOOL on Mon Sep 10 21:13:24 2018
### 

@<TRIPOS>MOLECULE
4qvp_ligand
   53    54     1     0     0
SMALL
GAST_HUCK


@<TRIPOS>ATOM
      1 N1         62.6180 -133.2940   35.8870 N.ar      1 BO2        -0.2509
      2 C2         62.1700 -134.5270   36.1760 C.ar      1 BO2         0.1532
      3 C3         62.2780 -135.5510   35.2360 C.ar      1 BO2         0.0620
      4 N4         62.8580 -135.2960   33.9890 N.ar      1 BO2        -0.2653
      5 C5         63.3210 -134.0080   33.6940 C.ar      1 BO2         0.0462
      6 C6         63.2000 -133.0040   34.6470 C.ar      1 BO2         0.0475
      7 C7         61.6030 -134.7440   37.4270 C.2       1 BO2         0.2349
      8 O8         60.9890 -133.8390   37.9910 O.2       1 BO2        -0.3755
      9 N9         61.7840 -135.9700   37.9510 N.am      1 BO2        -0.2600
     10 C10        61.2870 -136.3170   39.2860 C.3       1 BO2         0.1378
     11 C11        60.5410 -137.6290   39.2560 C.3       1 BO2         0.0213
     12 C12        59.3420 -137.4010   38.5550 C.ar      1 BO2        -0.0385
     13 C13        59.1470 -137.9340   37.2780 C.ar      1 BO2        -0.0601
     14 C14        57.9540 -137.7070   36.5940 C.ar      1 BO2        -0.0686
     15 C15        56.9420 -136.9500   37.1800 C.ar      1 BO2        -0.0687
     16 C16        57.1280 -136.4180   38.4520 C.ar      1 BO2        -0.0686
     17 C17        58.3190 -136.6460   39.1370 C.ar      1 BO2        -0.0601
     18 C18        62.5260 -136.4420   40.1700 C.2       1 BO2         0.1755
     19 O19        63.5880 -136.8290   39.6860 O.2       1 BO2        -0.3969
     20 N20        62.3680 -136.0750   41.4510 N.am      1 BO2        -0.4361
     21 C21        63.4900 -136.1200   42.4040 C.3       1 BO2        -0.2261
     22 C22        63.6860 -134.7980   43.1160 C.3       1 BO2        -0.1585
     23 C23        63.6050 -133.6290   42.1140 C.3       1 BO2        -0.0721
     24 C24        63.2270 -132.3560   42.8850 C.3       1 BO2        -0.0649
     25 C25        64.9380 -133.4260   41.3740 C.3       1 BO2        -0.0649
     26 B26        63.2270 -137.1830   43.4840 B         1 BO2         3.0000
     27 O27        62.0000 -136.8790   44.1710 O.3       1 BO2        -0.8710
     28 O28        63.1270 -138.4800   42.8880 O.3       1 BO2        -0.8710
     29 H          61.9127 -136.5441   35.4714 H         1 BO2         0.0978
     30 H          63.7700 -133.7959   32.7304 H         1 BO2         0.0958
     31 H          63.5541 -132.0023   34.4317 H         1 BO2         0.0941
     32 H          62.2696 -136.6618   37.4166 H         1 BO2         0.1883
     33 H          60.6227 -135.5258   39.6638 H         1 BO2         0.0823
     34 H          60.3223 -137.9635   40.2808 H         1 BO2         0.0474
     35 H          61.1409 -138.3937   38.7408 H         1 BO2         0.0474
     36 H          59.9281 -138.5274   36.8167 H         1 BO2         0.0557
     37 H          57.8131 -138.1211   35.6022 H         1 BO2         0.0599
     38 H          56.0140 -136.7763   36.6474 H         1 BO2         0.0559
     39 H          56.3448 -135.8252   38.9106 H         1 BO2         0.0599
     40 H          58.4542 -136.2343   40.1306 H         1 BO2         0.0557
     41 H          61.4706 -135.7648   41.7648 H         1 BO2         0.1459
     42 H          64.4111 -136.3677   41.8561 H         1 BO2        -0.1822
     43 H          64.6730 -134.7910   43.6016 H         1 BO2        -0.0063
     44 H          62.9017 -134.6771   43.8777 H         1 BO2        -0.0063
     45 H          62.8228 -133.8483   41.3724 H         1 BO2         0.0272
     46 H          63.1641 -131.5090   42.1859 H         1 BO2         0.0232
     47 H          63.9932 -132.1471   43.6461 H         1 BO2         0.0232
     48 H          62.2529 -132.4998   43.3752 H         1 BO2         0.0232
     49 H          65.1969 -134.3442   40.8264 H         1 BO2         0.0232
     50 H          65.7304 -133.1975   42.1019 H         1 BO2         0.0232
     51 H          64.8401 -132.5912   40.6644 H         1 BO2         0.0232
     52 H          61.8473 -137.5290   44.8468 H         1 BO2        -0.1290
     53 H          63.9367 -138.6819   42.4340 H         1 BO2        -0.1290
@<TRIPOS>BOND
     1    1    2 ar 
     2    1    6 ar 
     3    2    3 ar 
     4    2    7 1  
     5    3    4 ar 
     6    4    5 ar 
     7    5    6 ar 
     8    7    8 2  
     9    7    9 am 
    10    9   10 1  
    11   10   11 1  
    12   10   18 1  
    13   11   12 1  
    14   12   13 ar 
    15   12   17 ar 
    16   13   14 ar 
    17   14   15 ar 
    18   15   16 ar 
    19   16   17 ar 
    20   18   19 2  
    21   18   20 am 
    22   20   21 1  
    23   21   22 1  
    24   21   26 1  
    25   22   23 1  
    26   23   24 1  
    27   23   25 1  
    28   26   27 1  
    29   26   28 1  
    30    3   29 1  
    31    5   30 1  
    32    6   31 1  
    33    9   32 1  
    34   10   33 1  
    35   11   34 1  
    36   11   35 1  
    37   13   36 1  
    38   14   37 1  
    39   15   38 1  
    40   16   39 1  
    41   17   40 1  
    42   20   41 1  
    43   21   42 1  
    44   22   43 1  
    45   22   44 1  
    46   23   45 1  
    47   24   46 1  
    48   24   47 1  
    49   24   48 1  
    50   25   49 1  
    51   25   50 1  
    52   25   51 1  
    53   27   52 1  
    54   28   53 1  
@<TRIPOS>SUBSTRUCTURE
     1 BO2         1

