4qjr_ligand
  -I-interpret- 

149149  0  0  0  0  0  0  0  0999 V2000
  -17.9820   37.0660   -4.2800 C   0  0  0  0  0
  -18.5670   36.6440   -5.6250 C   0  0  0  0  0
  -18.7330   37.8340   -6.5680 C   0  0  0  0  0
  -20.1530   38.4200   -6.4780 C   0  0  0  0  0
  -20.9920   38.0360   -7.6690 C   0  0  0  0  0
  -22.3030   38.8070   -7.7360 C   0  0  0  0  0
  -23.4730   37.9830   -7.1920 C   0  0  0  0  0
  -24.5510   37.7280   -8.2630 C   0  0  0  0  0
  -24.0320   36.8200   -9.4080 C   0  0  0  0  0
  -25.0750   36.6560  -10.5310 C   0  0  0  0  0
  -24.4590   36.9360  -11.9290 C   0  0  0  0  0
  -24.8980   38.2690  -12.5090 C   0  0  0  0  0
  -23.6700   39.0500  -13.0470 C   0  0  0  0  0
  -23.8960   40.5550  -13.1790 C   0  0  0  0  0
  -22.6180   41.2270  -13.7240 C   0  0  0  0  0
  -22.8830   42.5050  -14.5640 C   0  0  0  0  0
  -23.8230   42.4760  -15.3500 O   0  0  0  0  0
  -21.7300   43.2790  -14.9140 O   0  0  0  0  0
  -21.6530   44.6580  -14.4030 C   0  0  0  0  0
  -23.0540   45.3040  -14.4120 C   0  0  0  0  0
  -23.0240   46.3750  -13.4740 O   0  0  0  0  0
  -23.8380   46.2150  -12.1310 P   0  0  0  0  0
  -24.2610   44.7720  -11.9620 O   0  0  0  0  0
  -22.9920   46.6540  -10.9660 O   0  0  0  0  0
  -25.1790   47.1560  -12.2280 O   0  0  0  0  0
  -24.9820   48.6020  -12.3210 C   0  0  0  0  0
  -25.4440   49.2290  -11.0280 C   0  0  0  0  0
  -26.6880   48.6470  -10.6790 O   0  0  0  0  0
  -25.6090   50.7510  -11.1100 C   0  0  0  0  0
  -26.2270   51.1780   -9.8990 O   0  0  0  0  0
  -25.4100   52.2610   -9.0410 P   0  0  0  0  0
  -26.2890   52.8010   -7.9400 O   0  0  0  0  0
  -24.1840   51.6120   -8.4580 O   0  0  0  0  0
  -24.9750   53.3930   -9.9490 O   0  0  0  0  0
  -26.4140   51.2400  -12.3230 C   0  0  0  0  0
  -26.2090   52.6570  -12.4700 O   0  0  0  0  0
  -27.4800   53.5760  -12.3690 P   0  0  0  0  0
  -28.0290   53.5230  -10.9650 O   0  0  0  0  0
  -27.0990   55.0000  -12.7110 O   0  0  0  0  0
  -28.5270   53.0890  -13.3310 O   0  0  0  0  0
  -26.0170   50.5800  -13.6440 C   0  0  0  0  0
  -27.0610   50.8050  -14.6020 O   0  0  0  0  0
  -26.6510   51.4870  -16.0060 P   0  0  0  0  0
  -27.8920   52.0180  -16.6840 O   0  0  0  0  0
  -25.6870   52.6280  -15.7580 O   0  0  0  0  0
  -25.9830   50.4510  -16.8920 O   0  0  0  0  0
  -25.7650   49.0750  -13.5630 C   0  0  0  0  0
  -25.1020   48.6510  -14.7120 O   0  0  0  0  0
  -20.6470   45.4210  -15.2700 C   0  0  0  0  0
  -19.8220   44.4330  -15.9300 O   0  0  0  0  0
  -18.4900   44.3550  -15.4830 C   0  0  0  0  0
  -18.0810   45.1190  -14.6170 O   0  0  0  0  0
  -17.6080   43.2020  -15.9770 C   0  0  0  0  0
  -18.3530   41.8410  -15.8880 C   0  0  0  0  0
  -18.0160   41.0500  -14.5510 C   0  0  0  0  0
  -19.0310   39.9470  -14.2740 C   0  0  0  0  0
  -18.8800   39.3430  -12.8640 C   0  0  0  0  0
  -19.6430   37.9950  -12.7240 C   0  0  0  0  0
  -19.3300   37.2880  -11.3910 C   0  0  0  0  0
  -19.5350   35.7690  -11.4850 C   0  0  0  0  0
  -19.5080   35.0760  -10.0940 C   0  0  0  0  0
  -20.2860   33.7560  -10.0920 C   0  0  0  0  0
  -20.6720   33.3140   -8.6440 C   0  0  0  0  0
  -21.6030   34.3830   -7.9440 C   0  0  0  0  0
  -22.7140   33.7320   -7.1330 C   0  0  0  0  0
  -23.0450   34.5110   -5.8670 C   0  0  0  0  0
  -24.3020   33.9980   -5.2100 C   0  0  0  0  0
  -17.0031   37.5189   -4.4370 H   0  0  0  0  0
  -18.6466   37.7890   -3.8069 H   0  0  0  0  0
  -17.8800   36.1905   -3.6388 H   0  0  0  0  0
  -19.5494   36.2055   -5.4496 H   0  0  0  0  0
  -17.8840   35.9319   -6.0881 H   0  0  0  0  0
  -18.5599   37.4957   -7.5896 H   0  0  0  0  0
  -18.0187   38.6065   -6.2831 H   0  0  0  0  0
  -20.0744   39.5068   -6.4498 H   0  0  0  0  0
  -20.6304   38.0261   -5.5808 H   0  0  0  0  0
  -21.2308   36.9760   -7.5828 H   0  0  0  0  0
  -20.4216   38.2662   -8.5689 H   0  0  0  0  0
  -22.5076   39.0466   -8.7795 H   0  0  0  0  0
  -22.2041   39.7061   -7.1278 H   0  0  0  0  0
  -23.9309   38.5412   -6.3754 H   0  0  0  0  0
  -23.0856   37.0185   -6.8637 H   0  0  0  0  0
  -24.8368   38.6879   -8.6931 H   0  0  0  0  0
  -25.3926   37.2259   -7.7857 H   0  0  0  0  0
  -23.8198   35.8348   -8.9928 H   0  0  0  0  0
  -23.1418   37.2830   -9.8339 H   0  0  0  0  0
  -25.8802   37.3706  -10.3601 H   0  0  0  0  0
  -25.4397   35.6290  -10.5149 H   0  0  0  0  0
  -24.7955   36.1504  -12.6056 H   0  0  0  0  0
  -23.3750   36.9613  -11.8172 H   0  0  0  0  0
  -25.3801   38.8566  -11.7277 H   0  0  0  0  0
  -25.5937   38.0896  -13.3287 H   0  0  0  0  0
  -23.4569   38.6674  -14.0451 H   0  0  0  0  0
  -22.8592   38.9074  -12.3326 H   0  0  0  0  0
  -24.1342   40.9718  -12.2004 H   0  0  0  0  0
  -24.7216   40.7375  -13.8668 H   0  0  0  0  0
  -22.1289   40.5061  -14.3791 H   0  0  0  0  0
  -22.0184   41.5250  -12.8639 H   0  0  0  0  0
  -21.3112   44.6800  -13.3682 H   0  0  0  0  0
  -23.8170   44.5745  -14.1405 H   0  0  0  0  0
  -23.3037   45.6701  -15.4078 H   0  0  0  0  0
  -24.7990   44.5075  -12.7118 H   0  0  0  0  0
  -23.9398   48.8952  -12.4474 H   0  0  0  0  0
  -24.6761   49.0406  -10.2777 H   0  0  0  0  0
  -27.0010   49.0324   -9.8574 H   0  0  0  0  0
  -24.6189   51.1873  -11.2421 H   0  0  0  0  0
  -27.0665   53.2118   -8.3252 H   0  0  0  0  0
  -25.7503   53.8146  -10.3268 H   0  0  0  0  0
  -27.4531   50.9769  -12.1253 H   0  0  0  0  0
  -27.3611   53.8339  -10.3495 H   0  0  0  0  0
  -26.4303   55.3079  -12.0949 H   0  0  0  0  0
  -25.0698   51.0366  -13.9310 H   0  0  0  0  0
  -24.8981   52.2910  -15.3271 H   0  0  0  0  0
  -25.1956   50.1180  -16.4553 H   0  0  0  0  0
  -26.7533   48.6238  -13.4750 H   0  0  0  0  0
  -25.5873   48.9441  -15.4867 H   0  0  0  0  0
  -20.0373   46.0860  -14.6583 H   0  0  0  0  0
  -21.1625   46.0435  -16.0013 H   0  0  0  0  0
  -16.7189   43.1520  -15.3484 H   0  0  0  0  0
  -17.3476   43.3869  -17.0192 H   0  0  0  0  0
  -18.0354   41.2276  -16.7312 H   0  0  0  0  0
  -19.4242   42.0422  -15.8992 H   0  0  0  0  0
  -18.0414   41.7552  -13.7203 H   0  0  0  0  0
  -17.0337   40.5911  -14.6630 H   0  0  0  0  0
  -18.8669   39.1503  -14.9995 H   0  0  0  0  0
  -20.0277   40.3821  -14.3475 H   0  0  0  0  0
  -19.2972   40.0475  -12.1445 H   0  0  0  0  0
  -17.8213   39.1561  -12.6845 H   0  0  0  0  0
  -19.3299   37.3408  -13.5377 H   0  0  0  0  0
  -20.7122   38.2045  -12.7550 H   0  0  0  0  0
  -20.0073   37.6774  -10.6309 H   0  0  0  0  0
  -18.2858   37.4767  -11.1415 H   0  0  0  0  0
  -18.7212   35.3566  -12.0814 H   0  0  0  0  0
  -20.5133   35.5892  -11.9308 H   0  0  0  0  0
  -19.9738   35.7461   -9.3714 H   0  0  0  0  0
  -18.4698   34.8590   -9.8425 H   0  0  0  0  0
  -19.6529   32.9839  -10.5292 H   0  0  0  0  0
  -21.2033   33.8974  -10.6636 H   0  0  0  0  0
  -19.7587   33.2132   -8.0576 H   0  0  0  0  0
  -21.2127   32.3694   -8.7028 H   0  0  0  0  0
  -22.0627   34.9938   -8.7209 H   0  0  0  0  0
  -20.9894   34.9755   -7.2653 H   0  0  0  0  0
  -22.3770   32.7383   -6.8380 H   0  0  0  0  0
  -23.6098   33.7019   -7.7533 H   0  0  0  0  0
  -23.1999   35.5557   -6.1368 H   0  0  0  0  0
  -22.2186   34.3947   -5.1659 H   0  0  0  0  0
  -25.1381   34.0955   -5.9024 H   0  0  0  0  0
  -24.1694   32.9493   -4.9439 H   0  0  0  0  0
  -24.5037   34.5797   -4.3106 H   0  0  0  0  0
  1  2  1  0  0  0
  2  3  1  0  0  0
  3  4  1  0  0  0
  4  5  1  0  0  0
  5  6  1  0  0  0
  6  7  1  0  0  0
  7  8  1  0  0  0
  8  9  1  0  0  0
  9 10  1  0  0  0
 10 11  1  0  0  0
 11 12  1  0  0  0
 12 13  1  0  0  0
 13 14  1  0  0  0
 14 15  1  0  0  0
 15 16  1  0  0  0
 16 17  2  0  0  0
 16 18  1  0  0  0
 18 19  1  0  0  0
 19 20  1  0  0  0
 19 49  1  0  0  0
 20 21  1  0  0  0
 21 22  1  0  0  0
 22 23  1  0  0  0
 22 24  2  0  0  0
 22 25  1  0  0  0
 25 26  1  0  0  0
 26 27  1  0  0  0
 26 47  1  0  0  0
 27 28  1  0  0  0
 27 29  1  0  0  0
 29 30  1  0  0  0
 29 35  1  0  0  0
 30 31  1  0  0  0
 31 32  1  0  0  0
 31 33  2  0  0  0
 31 34  1  0  0  0
 35 36  1  0  0  0
 35 41  1  0  0  0
 36 37  1  0  0  0
 37 38  1  0  0  0
 37 39  1  0  0  0
 37 40  2  0  0  0
 41 42  1  0  0  0
 41 47  1  0  0  0
 42 43  1  0  0  0
 43 44  2  0  0  0
 43 45  1  0  0  0
 43 46  1  0  0  0
 47 48  1  0  0  0
 49 50  1  0  0  0
 50 51  1  0  0  0
 51 52  2  0  0  0
 51 53  1  0  0  0
 53 54  1  0  0  0
 54 55  1  0  0  0
 55 56  1  0  0  0
 56 57  1  0  0  0
 57 58  1  0  0  0
 58 59  1  0  0  0
 59 60  1  0  0  0
 60 61  1  0  0  0
 61 62  1  0  0  0
 62 63  1  0  0  0
 63 64  1  0  0  0
 64 65  1  0  0  0
 65 66  1  0  0  0
 66 67  1  0  0  0
  1 68  1  0  0  0
  1 69  1  0  0  0
  1 70  1  0  0  0
  2 71  1  0  0  0
  2 72  1  0  0  0
  3 73  1  0  0  0
  3 74  1  0  0  0
  4 75  1  0  0  0
  4 76  1  0  0  0
  5 77  1  0  0  0
  5 78  1  0  0  0
  6 79  1  0  0  0
  6 80  1  0  0  0
  7 81  1  0  0  0
  7 82  1  0  0  0
  8 83  1  0  0  0
  8 84  1  0  0  0
  9 85  1  0  0  0
  9 86  1  0  0  0
 10 87  1  0  0  0
 10 88  1  0  0  0
 11 89  1  0  0  0
 11 90  1  0  0  0
 12 91  1  0  0  0
 12 92  1  0  0  0
 13 93  1  0  0  0
 13 94  1  0  0  0
 14 95  1  0  0  0
 14 96  1  0  0  0
 15 97  1  0  0  0
 15 98  1  0  0  0
 19 99  1  0  0  0
 20100  1  0  0  0
 20101  1  0  0  0
 23102  1  0  0  0
 26103  1  0  0  0
 27104  1  0  0  0
 28105  1  0  0  0
 29106  1  0  0  0
 32107  1  0  0  0
 34108  1  0  0  0
 35109  1  0  0  0
 38110  1  0  0  0
 39111  1  0  0  0
 41112  1  0  0  0
 45113  1  0  0  0
 46114  1  0  0  0
 47115  1  0  0  0
 48116  1  0  0  0
 49117  1  0  0  0
 49118  1  0  0  0
 53119  1  0  0  0
 53120  1  0  0  0
 54121  1  0  0  0
 54122  1  0  0  0
 55123  1  0  0  0
 55124  1  0  0  0
 56125  1  0  0  0
 56126  1  0  0  0
 57127  1  0  0  0
 57128  1  0  0  0
 58129  1  0  0  0
 58130  1  0  0  0
 59131  1  0  0  0
 59132  1  0  0  0
 60133  1  0  0  0
 60134  1  0  0  0
 61135  1  0  0  0
 61136  1  0  0  0
 62137  1  0  0  0
 62138  1  0  0  0
 63139  1  0  0  0
 63140  1  0  0  0
 64141  1  0  0  0
 64142  1  0  0  0
 65143  1  0  0  0
 65144  1  0  0  0
 66145  1  0  0  0
 66146  1  0  0  0
 67147  1  0  0  0
 67148  1  0  0  0
 67149  1  0  0  0
M  END
$$$$
