### 
### Created by X-TOOL on Mon Sep 10 21:13:18 2018
### 

@<TRIPOS>MOLECULE
4qjr_ligand
  142   142     1     0     0
SMALL
GAST_HUCK


@<TRIPOS>ATOM
      1 CBG       -17.9820   37.0660   -4.2800 C.3       1 PIZ        -0.0653
      2 CBF       -18.5670   36.6440   -5.6250 C.3       1 PIZ        -0.0559
      3 CBE       -18.7330   37.8340   -6.5680 C.3       1 PIZ        -0.0533
      4 CBD       -20.1530   38.4200   -6.4780 C.3       1 PIZ        -0.0531
      5 CBC       -20.9920   38.0360   -7.6690 C.3       1 PIZ        -0.0531
      6 CBB       -22.3030   38.8070   -7.7360 C.3       1 PIZ        -0.0531
      7 CBA       -23.4730   37.9830   -7.1920 C.3       1 PIZ        -0.0531
      8 CB9       -24.5510   37.7280   -8.2630 C.3       1 PIZ        -0.0531
      9 CB8       -24.0320   36.8200   -9.4080 C.3       1 PIZ        -0.0531
     10 CB7       -25.0750   36.6560  -10.5310 C.3       1 PIZ        -0.0531
     11 CB6       -24.4590   36.9360  -11.9290 C.3       1 PIZ        -0.0531
     12 CB5       -24.8980   38.2690  -12.5090 C.3       1 PIZ        -0.0529
     13 CB4       -23.6700   39.0500  -13.0470 C.3       1 PIZ        -0.0509
     14 CB3       -23.8960   40.5550  -13.1790 C.3       1 PIZ        -0.0348
     15 CB2       -22.6180   41.2270  -13.7240 C.3       1 PIZ         0.0487
     16 CB1       -22.8830   42.5050  -14.5640 C.2       1 PIZ         0.2341
     17 OB2       -23.8230   42.4760  -15.3500 O.2       1 PIZ        -0.3704
     18 OB1       -21.7300   43.2790  -14.9140 O.3       1 PIZ        -0.2681
     19 C7        -21.6530   44.6580  -14.4030 C.3       1 PIZ         0.1433
     20 C8        -23.0540   45.3040  -14.4120 C.3       1 PIZ         0.1167
     21 O13       -23.0240   46.3750  -13.4740 O.3       1 PIZ        -0.2511
     22 P1        -23.8380   46.2150  -12.1310 P.3       1 PIZ         0.2557
     23 O12       -24.2610   44.7720  -11.9620 O.co2     1 PIZ        -0.6177
     24 O11       -22.9920   46.6540  -10.9660 O.co2     1 PIZ        -0.6177
     25 O1        -25.1790   47.1560  -12.2280 O.3       1 PIZ        -0.2454
     26 C1        -24.9820   48.6020  -12.3210 C.3       1 PIZ         0.1515
     27 C2        -25.4440   49.2290  -11.0280 C.3       1 PIZ         0.1222
     28 O2        -26.6880   48.6470  -10.6790 O.3       1 PIZ        -0.3857
     29 C3        -25.6090   50.7510  -11.1100 C.3       1 PIZ         0.1510
     30 O3        -26.2270   51.1780   -9.8990 O.3       1 PIZ        -0.2672
     31 P3        -25.4100   52.2610   -9.0410 P.3       1 PIZ         0.2013
     32 O31       -26.2890   52.8010   -7.9400 O.co2     1 PIZ        -0.5537
     33 O32       -24.1840   51.6120   -8.4580 O.co2     1 PIZ        -0.5537
     34 O33       -24.9750   53.3930   -9.9490 O.co2     1 PIZ        -0.5537
     35 C4        -26.4140   51.2400  -12.3230 C.3       1 PIZ         0.1550
     36 O4        -26.2090   52.6570  -12.4700 O.3       1 PIZ        -0.2669
     37 P4        -27.4800   53.5760  -12.3690 P.3       1 PIZ         0.2013
     38 O41       -28.0290   53.5230  -10.9650 O.co2     1 PIZ        -0.5537
     39 O42       -27.0990   55.0000  -12.7110 O.co2     1 PIZ        -0.5537
     40 O43       -28.5270   53.0890  -13.3310 O.co2     1 PIZ        -0.5537
     41 C5        -26.0170   50.5800  -13.6440 C.3       1 PIZ         0.1510
     42 O5        -27.0610   50.8050  -14.6020 O.3       1 PIZ        -0.2672
     43 P5        -26.6510   51.4870  -16.0060 P.3       1 PIZ         0.2013
     44 O51       -27.8920   52.0180  -16.6840 O.co2     1 PIZ        -0.5537
     45 O52       -25.6870   52.6280  -15.7580 O.co2     1 PIZ        -0.5537
     46 O53       -25.9830   50.4510  -16.8920 O.co2     1 PIZ        -0.5537
     47 C6        -25.7650   49.0750  -13.5630 C.3       1 PIZ         0.1222
     48 O6        -25.1020   48.6510  -14.7120 O.3       1 PIZ        -0.3857
     49 C9        -20.6470   45.4210  -15.2700 C.3       1 PIZ         0.1098
     50 OA1       -19.8220   44.4330  -15.9300 O.3       1 PIZ        -0.2738
     51 CA1       -18.4900   44.3550  -15.4830 C.2       1 PIZ         0.2338
     52 OA2       -18.0810   45.1190  -14.6170 O.2       1 PIZ        -0.3704
     53 CA2       -17.6080   43.2020  -15.9770 C.3       1 PIZ         0.0487
     54 CA3       -18.3530   41.8410  -15.8880 C.3       1 PIZ        -0.0348
     55 CA4       -18.0160   41.0500  -14.5510 C.3       1 PIZ        -0.0509
     56 CA5       -19.0310   39.9470  -14.2740 C.3       1 PIZ        -0.0529
     57 CA6       -18.8800   39.3430  -12.8640 C.3       1 PIZ        -0.0531
     58 CA7       -19.6430   37.9950  -12.7240 C.3       1 PIZ        -0.0531
     59 CA8       -19.3300   37.2880  -11.3910 C.3       1 PIZ        -0.0531
     60 CA9       -19.5350   35.7690  -11.4850 C.3       1 PIZ        -0.0531
     61 CAA       -19.5080   35.0760  -10.0940 C.3       1 PIZ        -0.0531
     62 CAB       -20.2860   33.7560  -10.0920 C.3       1 PIZ        -0.0531
     63 CAC       -20.6720   33.3140   -8.6440 C.3       1 PIZ        -0.0531
     64 CAD       -21.6030   34.3830   -7.9440 C.3       1 PIZ        -0.0531
     65 CAE       -22.7140   33.7320   -7.1330 C.3       1 PIZ        -0.0533
     66 CAF       -23.0450   34.5110   -5.8670 C.3       1 PIZ        -0.0559
     67 CAG       -24.3020   33.9980   -5.2100 C.3       1 PIZ        -0.0653
     68 H         -17.8786   36.1832   -3.6320 H         1 PIZ         0.0230
     69 H         -18.6518   37.7956   -3.8015 H         1 PIZ         0.0230
     70 H         -16.9939   37.5232   -4.4371 H         1 PIZ         0.0230
     71 H         -19.5513   36.1828   -5.4566 H         1 PIZ         0.0263
     72 H         -17.8935   35.9104   -6.0922 H         1 PIZ         0.0263
     73 H         -18.5460   37.5030   -7.6002 H         1 PIZ         0.0265
     74 H         -18.0054   38.6126   -6.2951 H         1 PIZ         0.0265
     75 H         -20.0835   39.5167   -6.4300 H         1 PIZ         0.0265
     76 H         -20.6369   38.0429   -5.5649 H         1 PIZ         0.0265
     77 H         -21.2183   36.9613   -7.6085 H         1 PIZ         0.0265
     78 H         -20.4172   38.2387   -8.5847 H         1 PIZ         0.0265
     79 H         -22.5089   39.0697   -8.7841 H         1 PIZ         0.0265
     80 H         -22.2068   39.7263   -7.1397 H         1 PIZ         0.0265
     81 H         -23.9295   38.5271   -6.3520 H         1 PIZ         0.0265
     82 H         -23.0900   37.0149   -6.8370 H         1 PIZ         0.0265
     83 H         -24.8629   38.6929   -8.6892 H         1 PIZ         0.0265
     84 H         -25.4150   37.2406   -7.7877 H         1 PIZ         0.0265
     85 H         -23.7951   35.8282   -8.9955 H         1 PIZ         0.0265
     86 H         -23.1211   37.2680   -9.8317 H         1 PIZ         0.0265
     87 H         -25.9008   37.3616  -10.3570 H         1 PIZ         0.0265
     88 H         -25.4620   35.6265  -10.5112 H         1 PIZ         0.0265
     89 H         -24.7683   36.1348  -12.6163 H         1 PIZ         0.0265
     90 H         -23.3629   36.9369  -11.8364 H         1 PIZ         0.0265
     91 H         -25.3904   38.8621  -11.7244 H         1 PIZ         0.0265
     92 H         -25.6051   38.0916  -13.3328 H         1 PIZ         0.0265
     93 H         -23.4147   38.6508  -14.0397 H         1 PIZ         0.0267
     94 H         -22.8280   38.8864  -12.3584 H         1 PIZ         0.0267
     95 H         -24.1383   40.9763  -12.1922 H         1 PIZ         0.0291
     96 H         -24.7302   40.7401  -13.8716 H         1 PIZ         0.0291
     97 H         -22.0892   40.5003  -14.3582 H         1 PIZ         0.0518
     98 H         -21.9807   41.5008  -12.8703 H         1 PIZ         0.0518
     99 H         -21.2862   44.6417  -13.3661 H         1 PIZ         0.0704
    100 H         -23.8130   44.5645  -14.1170 H         1 PIZ         0.0651
    101 H         -23.2868   45.6877  -15.4163 H         1 PIZ         0.0651
    102 H         -23.9153   48.8309  -12.4617 H         1 PIZ         0.0711
    103 H         -24.7032   49.0037  -10.2467 H         1 PIZ         0.0654
    104 H         -26.9978   49.0284   -9.8659 H         1 PIZ         0.2100
    105 H         -24.6068   51.1997  -11.1760 H         1 PIZ         0.0706
    106 H         -27.4789   51.0371  -12.1363 H         1 PIZ         0.0710
    107 H         -25.0922   51.0603  -13.9963 H         1 PIZ         0.0706
    108 H         -26.7490   48.5844  -13.5316 H         1 PIZ         0.0654
    109 H         -25.6369   48.8419  -15.4736 H         1 PIZ         0.2100
    110 H         -20.0241   46.0734  -14.6404 H         1 PIZ         0.0644
    111 H         -21.1774   46.0299  -16.0169 H         1 PIZ         0.0644
    112 H         -16.7004   43.1545  -15.3573 H         1 PIZ         0.0518
    113 H         -17.3277   43.3889  -17.0241 H         1 PIZ         0.0518
    114 H         -18.0598   41.2212  -16.7481 H         1 PIZ         0.0291
    115 H         -19.4363   42.0286  -15.9235 H         1 PIZ         0.0291
    116 H         -18.0200   41.7571  -13.7084 H         1 PIZ         0.0267
    117 H         -17.0173   40.5989  -14.6464 H         1 PIZ         0.0267
    118 H         -18.8935   39.1471  -15.0164 H         1 PIZ         0.0265
    119 H         -20.0430   40.3671  -14.3707 H         1 PIZ         0.0265
    120 H         -19.2796   40.0556  -12.1275 H         1 PIZ         0.0265
    121 H         -17.8123   39.1693  -12.6643 H         1 PIZ         0.0265
    122 H         -19.3507   37.3341  -13.5533 H         1 PIZ         0.0265
    123 H         -20.7239   38.1921  -12.7757 H         1 PIZ         0.0265
    124 H         -19.9947   37.6887  -10.6115 H         1 PIZ         0.0265
    125 H         -18.2833   37.4891  -11.1192 H         1 PIZ         0.0265
    126 H         -18.7337   35.3430  -12.1066 H         1 PIZ         0.0265
    127 H         -20.5089   35.5733  -11.9574 H         1 PIZ         0.0265
    128 H         -19.9563   35.7529   -9.3518 H         1 PIZ         0.0265
    129 H         -18.4625   34.8718   -9.8198 H         1 PIZ         0.0265
    130 H         -19.6619   32.9738  -10.5488 H         1 PIZ         0.0265
    131 H         -21.2052   33.8832  -10.6826 H         1 PIZ         0.0265
    132 H         -19.7542   33.1946   -8.0495 H         1 PIZ         0.0265
    133 H         -21.2047   32.3529   -8.6931 H         1 PIZ         0.0265
    134 H         -22.0557   35.0200   -8.7181 H         1 PIZ         0.0265
    135 H         -20.9897   35.0017   -7.2724 H         1 PIZ         0.0265
    136 H         -22.3963   32.7176   -6.8501 H         1 PIZ         0.0265
    137 H         -23.6179   33.6725   -7.7570 H         1 PIZ         0.0265
    138 H         -23.1853   35.5706   -6.1267 H         1 PIZ         0.0263
    139 H         -22.2081   34.4145   -5.1597 H         1 PIZ         0.0263
    140 H         -24.5067   34.5843   -4.3021 H         1 PIZ         0.0230
    141 H         -24.1694   32.9397   -4.9409 H         1 PIZ         0.0230
    142 H         -25.1467   34.0959   -5.9078 H         1 PIZ         0.0230
@<TRIPOS>BOND
     1    1    2 1  
     2    2    3 1  
     3    3    4 1  
     4    4    5 1  
     5    5    6 1  
     6    6    7 1  
     7    7    8 1  
     8    8    9 1  
     9    9   10 1  
    10   10   11 1  
    11   11   12 1  
    12   12   13 1  
    13   13   14 1  
    14   14   15 1  
    15   15   16 1  
    16   16   17 2  
    17   16   18 1  
    18   18   19 1  
    19   19   20 1  
    20   19   49 1  
    21   20   21 1  
    22   21   22 1  
    23   22   23 ar 
    24   22   24 ar 
    25   22   25 1  
    26   25   26 1  
    27   26   27 1  
    28   26   47 1  
    29   27   28 1  
    30   27   29 1  
    31   29   30 1  
    32   29   35 1  
    33   30   31 1  
    34   31   32 ar 
    35   31   33 ar 
    36   31   34 ar 
    37   35   36 1  
    38   35   41 1  
    39   36   37 1  
    40   37   38 ar 
    41   37   39 ar 
    42   37   40 ar 
    43   41   42 1  
    44   41   47 1  
    45   42   43 1  
    46   43   44 ar 
    47   43   45 ar 
    48   43   46 ar 
    49   47   48 1  
    50   49   50 1  
    51   50   51 1  
    52   51   52 2  
    53   51   53 1  
    54   53   54 1  
    55   54   55 1  
    56   55   56 1  
    57   56   57 1  
    58   57   58 1  
    59   58   59 1  
    60   59   60 1  
    61   60   61 1  
    62   61   62 1  
    63   62   63 1  
    64   63   64 1  
    65   64   65 1  
    66   65   66 1  
    67   66   67 1  
    68    1   68 1  
    69    1   69 1  
    70    1   70 1  
    71    2   71 1  
    72    2   72 1  
    73    3   73 1  
    74    3   74 1  
    75    4   75 1  
    76    4   76 1  
    77    5   77 1  
    78    5   78 1  
    79    6   79 1  
    80    6   80 1  
    81    7   81 1  
    82    7   82 1  
    83    8   83 1  
    84    8   84 1  
    85    9   85 1  
    86    9   86 1  
    87   10   87 1  
    88   10   88 1  
    89   11   89 1  
    90   11   90 1  
    91   12   91 1  
    92   12   92 1  
    93   13   93 1  
    94   13   94 1  
    95   14   95 1  
    96   14   96 1  
    97   15   97 1  
    98   15   98 1  
    99   19   99 1  
   100   20  100 1  
   101   20  101 1  
   102   26  102 1  
   103   27  103 1  
   104   28  104 1  
   105   29  105 1  
   106   35  106 1  
   107   41  107 1  
   108   47  108 1  
   109   48  109 1  
   110   49  110 1  
   111   49  111 1  
   112   53  112 1  
   113   53  113 1  
   114   54  114 1  
   115   54  115 1  
   116   55  116 1  
   117   55  117 1  
   118   56  118 1  
   119   56  119 1  
   120   57  120 1  
   121   57  121 1  
   122   58  122 1  
   123   58  123 1  
   124   59  124 1  
   125   59  125 1  
   126   60  126 1  
   127   60  127 1  
   128   61  128 1  
   129   61  129 1  
   130   62  130 1  
   131   62  131 1  
   132   63  132 1  
   133   63  133 1  
   134   64  134 1  
   135   64  135 1  
   136   65  136 1  
   137   65  137 1  
   138   66  138 1  
   139   66  139 1  
   140   67  140 1  
   141   67  141 1  
   142   67  142 1  
@<TRIPOS>SUBSTRUCTURE
     1 PIZ         1

