3ow3_ligand
  -I-interpret- 

 56 60  0  0  0  0  0  0  0  0999 V2000
   11.1820   34.7530   36.8670 N   0  0  0  0  0
   12.5280   34.7370   37.0060 C   0  0  0  0  0
   13.3080   33.6550   36.9970 N   0  0  0  0  0
   12.6840   32.4930   36.7520 C   0  0  0  0  0
   11.2740   32.4060   36.6120 C   0  0  0  0  0
   10.5370   33.6060   36.6420 C   0  0  0  0  0
   13.4410   31.2100   36.6910 C   0  0  0  0  0
   12.0440   30.0140   36.5100 S   0  0  0  0  0
   10.5960   31.0650   36.3230 C   0  0  0  0  0
    9.5300   30.4410   37.3110 C   0  0  0  0  0
    9.1770   33.6140   36.4220 N   0  0  0  0  0
    8.2040   33.9320   37.4140 C   0  0  0  0  0
    7.0290   34.5900   36.7170 C   0  0  0  0  0
    6.3570   33.8360   35.6400 N   0  0  0  0  0
    7.2220   32.9550   34.8370 C   0  0  0  0  0
    8.6780   32.8090   35.2940 C   0  0  0  0  0
    5.0120   34.0590   35.3900 C   0  0  0  0  0
    4.3660   34.8540   36.0780 O   0  0  0  0  0
    4.1210   33.4490   34.2950 C   0  0  0  0  0
    3.0950   32.4720   34.9260 C   0  0  0  0  0
    3.5140   31.1160   35.5470 C   0  0  0  0  0
    2.7250   30.3540   36.3700 C   0  0  0  0  0
    3.3040   29.1480   36.7880 N   0  0  0  0  0
    4.5380   29.1270   36.2120 C   0  0  0  0  0
    4.7210   30.2770   35.4630 C   0  0  0  0  0
    5.5740   28.1660   36.2820 C   0  0  0  0  0
    6.8150   28.3140   35.6180 C   0  0  0  0  0
    6.9990   29.4830   34.8510 C   0  0  0  0  0
    5.9530   30.4420   34.7800 C   0  0  0  0  0
    3.5340   34.6350   33.5480 N   0  3  0  0  0
   13.0217   35.6998   37.1378 H   0  0  0  0  0
   14.0806   31.0252   37.5540 H   0  0  0  0  0
   14.1788   31.1623   35.8901 H   0  0  0  0  0
   10.0204   31.1676   35.4031 H   0  0  0  0  0
    9.3270   29.4102   37.0206 H   0  0  0  0  0
    9.9223   30.4629   38.3277 H   0  0  0  0  0
    8.6086   31.0214   37.2631 H   0  0  0  0  0
    8.6285   34.6062   38.1579 H   0  0  0  0  0
    7.8801   33.0280   37.9297 H   0  0  0  0  0
    7.4364   35.4804   36.2382 H   0  0  0  0  0
    6.2731   34.7292   37.4899 H   0  0  0  0  0
    7.2642   33.4025   33.8440 H   0  0  0  0  0
    6.7847   31.9593   34.9108 H   0  0  0  0  0
    8.7544   31.7778   35.6389 H   0  0  0  0  0
    9.2676   33.1406   34.4393 H   0  0  0  0  0
    4.6556   32.8246   33.5792 H   0  0  0  0  0
    2.4699   32.1814   34.0817 H   0  0  0  0  0
    2.7042   33.0301   35.7768 H   0  0  0  0  0
    1.7251   30.6623   36.6754 H   0  0  0  0  0
    5.4082   27.2676   36.8765 H   0  0  0  0  0
    7.5952   27.5568   35.6961 H   0  0  0  0  0
    7.9349   29.6493   34.3176 H   0  0  0  0  0
    6.1030   31.3382   34.1780 H   0  0  0  0  0
    2.9270   34.2980   32.8007 H   0  0  0  0  0
    2.9927   35.2086   34.1948 H   0  0  0  0  0
    4.2897   35.1917   33.1488 H   0  0  0  0  0
  1  2  4  0  0  0
  1  6  4  0  0  0
  2  3  4  0  0  0
  3  4  4  0  0  0
  4  5  4  0  0  0
  4  7  1  0  0  0
  5  6  4  0  0  0
  5  9  1  0  0  0
  6 11  1  0  0  0
  7  8  1  0  0  0
  8  9  1  0  0  0
  9 10  1  0  0  0
 11 12  1  0  0  0
 11 16  1  0  0  0
 12 13  1  0  0  0
 13 14  1  0  0  0
 14 15  1  0  0  0
 14 17  1  0  0  0
 15 16  1  0  0  0
 17 18  2  0  0  0
 17 19  1  0  0  0
 19 20  1  0  0  0
 19 30  1  0  0  0
 20 21  1  0  0  0
 21 22  4  0  0  0
 21 25  4  0  0  0
 22 23  4  0  0  0
 23 24  4  0  0  0
 24 25  4  0  0  0
 24 26  4  0  0  0
 25 29  4  0  0  0
 26 27  4  0  0  0
 27 28  4  0  0  0
 28 29  4  0  0  0
  2 31  1  0  0  0
  7 32  1  0  0  0
  7 33  1  0  0  0
  9 34  1  0  0  0
 10 35  1  0  0  0
 10 36  1  0  0  0
 10 37  1  0  0  0
 12 38  1  0  0  0
 12 39  1  0  0  0
 13 40  1  0  0  0
 13 41  1  0  0  0
 15 42  1  0  0  0
 15 43  1  0  0  0
 16 44  1  0  0  0
 16 45  1  0  0  0
 19 46  1  0  0  0
 20 47  1  0  0  0
 20 48  1  0  0  0
 22 49  1  0  0  0
 26 50  1  0  0  0
 27 51  1  0  0  0
 28 52  1  0  0  0
 29 53  1  0  0  0
 30 54  1  0  0  0
 30 55  1  0  0  0
 30 56  1  0  0  0
M  END
$$$$
