3gp0_ligand
  -I-interpret- 

 61 65  0  0  0  0  0  0  0  0999 V2000
   19.8780   60.1390   22.9360 O   0  0  0  0  0
   19.1410   59.7490   23.8470 C   0  0  0  0  0
   18.3680   58.6150   23.7530 N   0  0  0  0  0
   18.4440   57.7110   22.7500 C   0  0  0  0  0
   17.3340   56.8940   22.4470 C   0  0  0  0  0
   17.3950   55.9320   21.4600 C   0  0  0  0  0
   16.3110   55.1500   21.2400 N   0  0  0  0  0
   15.2030   55.0650   22.0270 C   0  0  0  0  0
   14.4220   54.1530   21.4650 C   0  0  0  0  0
   13.0550   53.7100   22.0060 C   0  0  0  0  0
   15.0210   53.6560   20.3830 N   0  0  0  0  0
   16.1830   54.2740   20.2330 C   0  0  0  0  0
   18.6080   55.7200   20.7550 C   0  0  0  0  0
   19.6470   57.5120   22.0380 C   0  0  0  0  0
   19.7220   56.5290   21.0490 C   0  0  0  0  0
   21.0390   56.3490   20.2500 C   0  0  0  0  0
   22.1010   56.2240   21.0030 F   0  0  0  0  0
   20.9400   55.3410   19.4480 F   0  0  0  0  0
   21.3140   57.3350   19.4510 F   0  0  0  0  0
   19.0860   60.5960   25.1220 C   0  0  0  0  0
   18.4420   60.1960   26.3010 C   0  0  0  0  0
   18.4570   61.0080   27.4390 C   0  0  0  0  0
   19.1550   62.2240   27.4160 C   0  0  0  0  0
   19.1860   63.1270   28.6500 C   0  0  0  0  0
   19.8120   62.6190   26.2570 C   0  0  0  0  0
   19.7860   61.8080   25.1080 C   0  0  0  0  0
   20.4830   63.7890   26.2300 N   0  0  0  0  0
   20.2290   64.7980   25.3740 C   0  0  0  0  0
   19.0500   64.9280   24.7240 N   0  0  0  0  0
   18.8170   65.9400   23.9070 C   0  0  0  0  0
   19.8230   66.9020   23.7160 C   0  0  0  0  0
   21.0570   66.7530   24.3810 C   0  0  0  0  0
   21.2200   65.7040   25.2090 N   0  0  0  0  0
   22.1420   67.6590   24.1940 C   0  0  0  0  0
   22.0460   68.7000   23.2470 C   0  0  0  0  0
   23.1410   69.5810   23.0690 C   0  0  0  0  0
   24.3000   69.3720   23.8450 C   0  0  0  0  0
   24.3900   68.3550   24.7240 N   0  0  0  0  0
   23.3470   67.5040   24.9260 C   0  0  0  0  0
   17.6880   58.4435   24.4937 H   0  0  0  0  0
   16.4073   57.0260   23.0055 H   0  0  0  0  0
   14.9994   55.6321   22.9353 H   0  0  0  0  0
   13.1783   53.2976   23.0074 H   0  0  0  0  0
   12.3855   54.5692   22.0455 H   0  0  0  0  0
   12.6342   52.9498   21.3478 H   0  0  0  0  0
   16.9050   54.1015   19.4348 H   0  0  0  0  0
   18.6764   54.9410   19.9957 H   0  0  0  0  0
   20.5189   58.1270   22.2608 H   0  0  0  0  0
   17.9222   59.2384   26.3310 H   0  0  0  0  0
   17.9284   60.6972   28.3402 H   0  0  0  0  0
   18.1686   63.4181   28.9113 H   0  0  0  0  0
   19.6359   62.5866   29.4829 H   0  0  0  0  0
   19.7755   64.0176   28.4322 H   0  0  0  0  0
   20.3111   62.1235   24.2064 H   0  0  0  0  0
   21.2361   63.9190   26.9056 H   0  0  0  0  0
   17.8612   66.0270   23.3903 H   0  0  0  0  0
   19.6510   67.7553   23.0600 H   0  0  0  0  0
   21.1377   68.8254   22.6576 H   0  0  0  0  0
   23.0891   70.3993   22.3508 H   0  0  0  0  0
   25.1450   70.0510   23.7306 H   0  0  0  0  0
   23.4384   66.6985   25.6547 H   0  0  0  0  0
  1  2  2  0  0  0
  2  3  1  0  0  0
  2 20  1  0  0  0
  3  4  1  0  0  0
  4  5  4  0  0  0
  4 14  4  0  0  0
  5  6  4  0  0  0
  6  7  1  0  0  0
  6 13  4  0  0  0
  7  8  4  0  0  0
  7 12  4  0  0  0
  8  9  4  0  0  0
  9 10  1  0  0  0
  9 11  4  0  0  0
 11 12  4  0  0  0
 13 15  4  0  0  0
 14 15  4  0  0  0
 15 16  1  0  0  0
 16 17  1  0  0  0
 16 18  1  0  0  0
 16 19  1  0  0  0
 20 21  4  0  0  0
 20 26  4  0  0  0
 21 22  4  0  0  0
 22 23  4  0  0  0
 23 24  1  0  0  0
 23 25  4  0  0  0
 25 26  4  0  0  0
 25 27  1  0  0  0
 27 28  1  0  0  0
 28 29  4  0  0  0
 28 33  4  0  0  0
 29 30  4  0  0  0
 30 31  4  0  0  0
 31 32  4  0  0  0
 32 33  4  0  0  0
 32 34  1  0  0  0
 34 35  4  0  0  0
 34 39  4  0  0  0
 35 36  4  0  0  0
 36 37  4  0  0  0
 37 38  4  0  0  0
 38 39  4  0  0  0
  3 40  1  0  0  0
  5 41  1  0  0  0
  8 42  1  0  0  0
 10 43  1  0  0  0
 10 44  1  0  0  0
 10 45  1  0  0  0
 12 46  1  0  0  0
 13 47  1  0  0  0
 14 48  1  0  0  0
 21 49  1  0  0  0
 22 50  1  0  0  0
 24 51  1  0  0  0
 24 52  1  0  0  0
 24 53  1  0  0  0
 26 54  1  0  0  0
 27 55  1  0  0  0
 30 56  1  0  0  0
 31 57  1  0  0  0
 35 58  1  0  0  0
 36 59  1  0  0  0
 37 60  1  0  0  0
 39 61  1  0  0  0
M  END
$$$$
