3vje_ligand
  -I-interpret- 

 95 97  0  0  0  0  0  0  0  0999 V2000
   27.5770   -7.8390    8.8300 C   0  0  0  0  0
   16.6680  -15.5630   11.0370 C   0  0  0  0  0
   29.8080  -10.2480    6.1330 C   0  0  0  0  0
   15.6450  -12.0390    6.9840 C   0  0  0  0  0
   17.1450  -14.8620    8.5410 C   0  0  0  0  0
   27.3190  -10.7810   10.7770 C   0  0  0  0  0
   27.5750   -9.3910    6.0060 O   0  0  0  0  0
   18.4790   -7.9190    8.0930 O   0  0  0  0  0
   21.6910   -2.9470   11.0110 O   0  0  0  0  0
   19.2220   -5.4980   10.3800 O   0  0  0  0  0
   21.7580   -9.1910   12.1950 O   0  0  0  0  0
   23.7760   -3.6080   10.8370 O   0  0  0  0  0
   19.6550   -5.3670   12.5230 O   0  0  0  0  0
   19.7190   -8.4430   11.9140 O   0  0  0  0  0
   21.9070   -6.5970    7.2000 O   0  0  0  0  0
   22.1130   -5.8900   12.3430 O   0  0  0  0  0
   18.1600  -10.1700    8.7260 C   0  0  0  0  0
   16.9540  -10.2800    8.1680 C   0  0  0  0  0
   25.1300  -15.6750   11.5770 C   0  0  0  0  0
   26.5090  -15.5000   11.4570 C   0  0  0  0  0
   24.2690  -14.8340   10.8740 C   0  0  0  0  0
   27.0160  -14.4990   10.6320 C   0  0  0  0  0
   24.7800  -13.8350   10.0360 C   0  0  0  0  0
   15.8810  -14.3260   10.6670 C   0  0  0  0  0
   25.2950   -8.3780    9.5010 C   0  0  0  0  0
   24.4780   -7.5980    8.5030 C   0  0  0  0  0
   26.7360  -12.5750    9.0230 C   0  0  0  0  0
   16.8250  -12.5110    9.2310 C   0  0  0  0  0
   28.1290  -10.4330    7.9900 O   0  0  0  0  0
   20.3340   -8.9490    9.0490 O   0  0  0  0  0
   23.2750   -5.7020    9.4710 O   0  0  0  0  0
   22.8620   -7.7210   10.4030 O   0  0  0  0  0
   28.4370   -9.9690    6.6510 C   0  0  0  0  0
   18.9580   -8.9410    8.5710 C   0  0  0  0  0
   26.6140   -8.7610    8.8630 C   0  0  0  0  0
   22.5500   -3.7900   10.6690 C   0  0  0  0  0
   20.0080   -5.5910   11.3460 C   0  0  0  0  0
   20.9380   -8.4360   11.6380 C   0  0  0  0  0
   26.1580  -13.6520    9.9290 C   0  0  0  0  0
   16.0860  -11.5090    8.3470 C   0  0  0  0  0
   16.1990  -13.8970    9.2400 C   0  0  0  0  0
   26.5110  -11.1460    9.5250 C   0  0  0  0  0
   22.0640   -7.5270    8.2750 C   0  0  0  0  0
   26.7840  -10.1740    8.3770 C   0  0  0  0  0
   22.1130   -5.0910   10.0540 C   0  0  0  0  0
   20.8840   -7.6450    9.2240 C   0  0  0  0  0
   21.4340   -6.0070   11.0890 C   0  0  0  0  0
   23.2090   -7.0990    9.1760 C   0  0  0  0  0
   21.4820   -7.4640   10.6210 C   0  0  0  0  0
   27.3997   -6.8503    9.2533 H   0  0  0  0  0
   28.5414   -8.0741    8.3797 H   0  0  0  0  0
   16.4083  -16.3742   10.3569 H   0  0  0  0  0
   17.7343  -15.3502   10.9603 H   0  0  0  0  0
   16.4268  -15.8532   12.0596 H   0  0  0  0  0
   29.7381  -10.8680    5.2392 H   0  0  0  0  0
   30.3003   -9.3073    5.8866 H   0  0  0  0  0
   30.3837  -10.7718    6.8961 H   0  0  0  0  0
   15.0754  -11.2693    6.4632 H   0  0  0  0  0
   16.5243  -12.3023    6.3962 H   0  0  0  0  0
   15.0217  -12.9223    7.1234 H   0  0  0  0  0
   18.0828  -14.9142    9.0942 H   0  0  0  0  0
   16.6892  -15.8513    8.5019 H   0  0  0  0  0
   17.3384  -14.5094    7.5279 H   0  0  0  0  0
   27.0470  -11.4520   11.5918 H   0  0  0  0  0
   28.3831  -10.8801   10.5628 H   0  0  0  0  0
   27.0989   -9.7524   11.0628 H   0  0  0  0  0
   20.8160   -3.2781   10.7958 H   0  0  0  0  0
   20.4040   -5.4933   13.1101 H   0  0  0  0  0
   19.2664   -7.7898   11.3754 H   0  0  0  0  0
   22.7012   -6.5959    6.6607 H   0  0  0  0  0
   23.0319   -6.1453   12.2331 H   0  0  0  0  0
   18.5615  -11.0014    9.3053 H   0  0  0  0  0
   16.5789   -9.4559    7.5611 H   0  0  0  0  0
   24.7294  -16.4627   12.2151 H   0  0  0  0  0
   27.1901  -16.1473   12.0094 H   0  0  0  0  0
   23.1906  -14.9547   10.9772 H   0  0  0  0  0
   28.0946  -14.3758   10.5343 H   0  0  0  0  0
   24.1003  -13.2004    9.4673 H   0  0  0  0  0
   16.1506  -13.5184   11.3476 H   0  0  0  0  0
   14.8165  -14.5488   10.7405 H   0  0  0  0  0
   24.7544   -9.2769    9.7974 H   0  0  0  0  0
   25.4771   -7.7675   10.3855 H   0  0  0  0  0
   24.2174   -8.2405    7.6619 H   0  0  0  0  0
   25.0574   -6.7491    8.1399 H   0  0  0  0  0
   26.2329  -12.6607    8.0598 H   0  0  0  0  0
   27.8133  -12.7350    8.9797 H   0  0  0  0  0
   16.7910  -12.1315   10.2523 H   0  0  0  0  0
   17.8352  -12.6124    8.8343 H   0  0  0  0  0
   15.1575  -11.2768    8.8686 H   0  0  0  0  0
   15.2526  -13.8918    8.6992 H   0  0  0  0  0
   25.4717  -11.0734    9.8453 H   0  0  0  0  0
   22.2112   -8.4750    7.7575 H   0  0  0  0  0
   26.1004  -10.3014    7.5376 H   0  0  0  0  0
   21.3620   -4.9141    9.2840 H   0  0  0  0  0
   20.0909   -6.9163    9.0563 H   0  0  0  0  0
 35  1  2  0  0  0
 24  2  1  0  0  0
 33  3  1  0  0  0
 40  4  1  0  0  0
 41  5  1  0  0  0
 42  6  1  0  0  0
 33  7  2  0  0  0
 34  8  2  0  0  0
 36  9  1  0  0  0
 37 10  2  0  0  0
 38 11  2  0  0  0
 36 12  2  0  0  0
 37 13  1  0  0  0
 38 14  1  0  0  0
 43 15  1  0  0  0
 47 16  1  0  0  0
 17 18  2  0  0  0
 34 17  1  0  0  0
 18 40  1  0  0  0
 20 19  4  0  0  0
 21 19  4  0  0  0
 22 20  4  0  0  0
 23 21  4  0  0  0
 39 22  4  0  0  0
 39 23  4  0  0  0
 41 24  1  0  0  0
 26 25  1  0  0  0
 25 35  1  0  0  0
 48 26  1  0  0  0
 27 39  1  0  0  0
 42 27  1  0  0  0
 40 28  1  0  0  0
 28 41  1  0  0  0
 29 33  1  0  0  0
 44 29  1  0  0  0
 30 34  1  0  0  0
 46 30  1  0  0  0
 45 31  1  0  0  0
 31 48  1  0  0  0
 48 32  1  0  0  0
 32 49  1  0  0  0
 35 44  1  0  0  0
 45 36  1  0  0  0
 47 37  1  0  0  0
 49 38  1  0  0  0
 44 42  1  0  0  0
 43 46  1  0  0  0
 48 43  1  0  0  0
 45 47  1  0  0  0
 46 49  1  0  0  0
 47 49  1  0  0  0
  1 50  1  0  0  0
  1 51  1  0  0  0
  2 52  1  0  0  0
  2 53  1  0  0  0
  2 54  1  0  0  0
  3 55  1  0  0  0
  3 56  1  0  0  0
  3 57  1  0  0  0
  4 58  1  0  0  0
  4 59  1  0  0  0
  4 60  1  0  0  0
  5 61  1  0  0  0
  5 62  1  0  0  0
  5 63  1  0  0  0
  6 64  1  0  0  0
  6 65  1  0  0  0
  6 66  1  0  0  0
  9 67  1  0  0  0
 13 68  1  0  0  0
 14 69  1  0  0  0
 15 70  1  0  0  0
 16 71  1  0  0  0
 17 72  1  0  0  0
 18 73  1  0  0  0
 19 74  1  0  0  0
 20 75  1  0  0  0
 21 76  1  0  0  0
 22 77  1  0  0  0
 23 78  1  0  0  0
 24 79  1  0  0  0
 24 80  1  0  0  0
 25 81  1  0  0  0
 25 82  1  0  0  0
 26 83  1  0  0  0
 26 84  1  0  0  0
 27 85  1  0  0  0
 27 86  1  0  0  0
 28 87  1  0  0  0
 28 88  1  0  0  0
 40 89  1  0  0  0
 41 90  1  0  0  0
 42 91  1  0  0  0
 43 92  1  0  0  0
 44 93  1  0  0  0
 45 94  1  0  0  0
 46 95  1  0  0  0
M  END
$$$$
