2wo8_ligand
  -I-interpret- 

 38 39  0  0  0  0  0  0  0  0999 V2000
   20.8540   29.2500   -7.3270 C   0  0  0  0  0
   21.3130   26.9900   -5.8850 C   0  0  0  0  0
   20.2380   29.0830   -6.0590 C   0  0  0  0  0
   21.6950   28.3050   -7.8850 C   0  0  0  0  0
   21.9220   27.1490   -7.1350 C   0  0  0  0  0
   20.4660   27.9400   -5.3170 C   0  0  0  0  0
   19.8640   27.6550   -3.9670 C   0  0  0  0  0
   16.0330   25.7210    1.8460 O   0  0  0  0  0
   18.6710   28.2090   -3.5320 C   0  0  0  0  0
   19.9390   26.2760   -1.9720 C   0  0  0  0  0
   17.1720   27.2930    0.5070 C   0  0  0  0  0
   17.0100   26.8000    1.9620 C   0  0  0  0  0
   18.7350   26.8730   -1.5190 C   0  0  0  0  0
   20.4670   26.6610   -3.1780 C   0  0  0  0  0
   18.1110   27.8430   -2.3210 C   0  0  0  0  0
   18.2120   26.4260   -0.2140 C   0  0  0  0  0
   16.6270   27.8710    2.9930 C   0  0  0  0  0
   16.9080   29.2950    2.5520 C   0  0  0  0  0
   16.1250   29.8660    1.7990 O   0  0  0  0  0
   17.9110   29.8510    2.9770 O   0  0  0  0  0
   20.6550   30.1644   -7.8859 H   0  0  0  0  0
   21.5115   26.0753   -5.3264 H   0  0  0  0  0
   19.5816   29.8607   -5.6686 H   0  0  0  0  0
   22.1573   28.4547   -8.8607 H   0  0  0  0  0
   22.5754   26.3683   -7.5243 H   0  0  0  0  0
   15.8660   25.3473    2.7144 H   0  0  0  0  0
   18.1646   28.9463   -4.1549 H   0  0  0  0  0
   20.4396   25.5191   -1.3681 H   0  0  0  0  0
   17.5038   28.3313    0.5100 H   0  0  0  0  0
   16.2155   27.2187   -0.0104 H   0  0  0  0  0
   17.9655   26.4737    2.3727 H   0  0  0  0  0
   21.3794   26.1827   -3.5341 H   0  0  0  0  0
   17.1832   28.3085   -1.9883 H   0  0  0  0  0
   17.6984   25.4877   -0.4238 H   0  0  0  0  0
   19.0781   26.4179    0.4477 H   0  0  0  0  0
   17.2286   27.6874    3.8832 H   0  0  0  0  0
   15.5515   27.7918    3.1517 H   0  0  0  0  0
   15.4054   29.2709    1.5763 H   0  0  0  0  0
  3  1  4  0  0  0
  1  4  4  0  0  0
  2  5  4  0  0  0
  6  2  4  0  0  0
  6  3  4  0  0  0
  5  4  4  0  0  0
  7  6  1  0  0  0
  9  7  4  0  0  0
 14  7  4  0  0  0
 12  8  1  0  0  0
 15  9  4  0  0  0
 13 10  4  0  0  0
 10 14  4  0  0  0
 11 12  1  0  0  0
 16 11  1  0  0  0
 12 17  1  0  0  0
 13 15  4  0  0  0
 13 16  1  0  0  0
 17 18  1  0  0  0
 18 19  1  0  0  0
 18 20  2  0  0  0
  1 21  1  0  0  0
  2 22  1  0  0  0
  3 23  1  0  0  0
  4 24  1  0  0  0
  5 25  1  0  0  0
  8 26  1  0  0  0
  9 27  1  0  0  0
 10 28  1  0  0  0
 11 29  1  0  0  0
 11 30  1  0  0  0
 12 31  1  0  0  0
 14 32  1  0  0  0
 15 33  1  0  0  0
 16 34  1  0  0  0
 16 35  1  0  0  0
 17 36  1  0  0  0
 17 37  1  0  0  0
 19 38  1  0  0  0
M  END
$$$$
