5m0d_ligand
  -I-interpret- 

 99104  0  0  0  0  0  0  0  0999 V2000
  -17.1820  -21.9040    3.4010 C   0  0  0  0  0
  -16.5690  -22.2440    4.7650 C   0  0  0  0  0
  -16.4080  -20.9800    5.6450 C   0  0  0  0  0
  -17.4920  -19.8970    5.5100 C   0  0  0  0  0
  -17.1580  -18.5850    6.2190 C   0  0  0  0  0
  -15.8890  -17.9740    5.7680 N   0  3  0  0  0
  -15.6830  -16.6850    6.4390 C   0  0  0  0  0
  -14.1980  -16.3510    6.3410 C   0  0  0  0  0
  -13.6900  -16.5830    4.9820 N   0  0  0  0  0
  -12.3530  -16.6010    4.7490 C   0  0  0  0  0
  -11.5360  -16.7980    5.6510 O   0  0  0  0  0
  -11.8370  -16.3420    3.3900 O   0  0  0  0  0
  -10.4470  -16.3880    3.0200 C   0  0  0  0  0
  -10.2700  -16.5330    1.5140 C   0  0  0  0  0
  -10.7820  -17.6690    0.8900 C   0  0  0  0  0
  -10.6400  -17.8370   -0.4880 C   0  0  0  0  0
  -11.3000  -19.2850   -1.3050 Cl  0  0  0  0  0
   -9.9860  -16.8820   -1.2550 C   0  0  0  0  0
   -9.4690  -15.7480   -0.6480 C   0  0  0  0  0
   -8.6410  -14.5750   -1.7260 Cl  0  0  0  0  0
   -9.6060  -15.5670    0.7400 C   0  0  0  0  0
  -15.2090  -22.9880    4.6710 C   0  0  0  0  0
  -14.7380  -23.4340    6.0620 C   0  0  0  0  0
  -13.9550  -24.7350    5.8830 C   0  0  0  0  0
  -13.7740  -24.8840    4.3790 C   0  0  0  0  0
  -13.4310  -26.2680    3.8080 C   0  0  0  0  0
  -12.1920  -26.9250    4.4320 C   0  0  0  0  0
  -12.3720  -27.2190    5.8230 O   0  0  0  0  0
  -11.8430  -28.2580    3.7600 C   0  0  0  0  0
  -11.7510  -28.2010    2.2330 C   0  0  0  0  0
  -10.3970  -27.5990    1.8330 C   0  0  0  0  0
  -10.2300  -27.5380    0.3140 C   0  0  0  0  0
   -8.9880  -26.9150   -0.0160 O   0  0  0  0  0
  -11.3820  -26.7510   -0.3060 C   0  0  0  0  0
  -12.7100  -27.4030    0.0680 C   0  0  0  0  0
  -12.9640  -27.5070    1.5870 C   0  0  0  0  0
  -14.1670  -28.4590    1.7170 C   0  0  0  0  0
  -13.2130  -26.1420    2.2830 C   0  0  0  0  0
  -14.2930  -25.2790    1.5940 C   0  0  0  0  0
  -14.7370  -24.0140    2.3390 C   0  0  0  0  0
  -15.0430  -24.2540    3.8050 C   0  0  0  0  0
  -16.2830  -25.1560    3.9450 C   0  0  0  0  0
  -15.8040  -17.7430    4.3090 C   0  0  0  0  0
  -14.6910  -16.7570    3.9080 C   0  0  0  0  0
  -16.4979  -21.2616    2.8466 H   0  0  0  0  0
  -17.3528  -22.8237    2.8414 H   0  0  0  0  0
  -18.1295  -21.3859    3.5489 H   0  0  0  0  0
  -17.2783  -22.9275    5.2318 H   0  0  0  0  0
  -15.4763  -20.5116    5.3277 H   0  0  0  0  0
  -16.4582  -21.3261    6.6774 H   0  0  0  0  0
  -18.3984  -20.2899    5.9706 H   0  0  0  0  0
  -17.5919  -19.6724    4.4481 H   0  0  0  0  0
  -17.0550  -18.8050    7.2816 H   0  0  0  0  0
  -17.9580  -17.8796    5.9945 H   0  0  0  0  0
  -15.1678  -18.6525    6.0126 H   0  0  0  0  0
  -15.9930  -16.7439    7.4823 H   0  0  0  0  0
  -16.2813  -15.9075    5.9640 H   0  0  0  0  0
  -13.6507  -16.9928    7.0314 H   0  0  0  0  0
  -14.0610  -15.2984    6.5888 H   0  0  0  0  0
   -9.9909  -17.2514    3.5043 H   0  0  0  0  0
   -9.9770  -15.4557    3.3331 H   0  0  0  0  0
  -11.2949  -18.4285    1.4800 H   0  0  0  0  0
   -9.8795  -17.0235   -2.3305 H   0  0  0  0  0
   -9.1964  -14.6759    1.2157 H   0  0  0  0  0
  -14.6386  -22.2062    4.1695 H   0  0  0  0  0
  -15.5907  -23.5887    6.7231 H   0  0  0  0  0
  -14.1090  -22.6685    6.5164 H   0  0  0  0  0
  -14.4837  -25.5862    6.3120 H   0  0  0  0  0
  -12.9978  -24.7045    6.4034 H   0  0  0  0  0
  -12.8529  -24.3877    4.0734 H   0  0  0  0  0
  -14.2750  -26.9137    4.0506 H   0  0  0  0  0
  -11.3955  -26.1946    4.2899 H   0  0  0  0  0
  -11.5747  -27.6271    6.1685 H   0  0  0  0  0
  -12.6449  -28.9551    4.0034 H   0  0  0  0  0
  -10.8585  -28.5493    4.1261 H   0  0  0  0  0
  -11.7940  -29.2144    1.8339 H   0  0  0  0  0
   -9.6073  -28.2307    2.2397 H   0  0  0  0  0
  -10.3442  -26.5832    2.2248 H   0  0  0  0  0
  -10.2366  -28.5533   -0.0825 H   0  0  0  0  0
   -8.8919  -26.8812   -0.9706 H   0  0  0  0  0
  -11.2743  -26.7467   -1.3907 H   0  0  0  0  0
  -11.3636  -25.7277    0.0689 H   0  0  0  0  0
  -12.6882  -28.4202   -0.3230 H   0  0  0  0  0
  -13.5010  -26.7781   -0.3465 H   0  0  0  0  0
  -13.9454  -29.3947    1.2037 H   0  0  0  0  0
  -14.3589  -28.6581    2.7713 H   0  0  0  0  0
  -15.0455  -27.9958    1.2677 H   0  0  0  0  0
  -12.2812  -25.5908    2.1566 H   0  0  0  0  0
  -15.1786  -25.9096    1.5161 H   0  0  0  0  0
  -13.8540  -24.9384    0.6563 H   0  0  0  0  0
  -15.6527  -23.6588    1.8662 H   0  0  0  0  0
  -13.9170  -23.2977    2.2876 H   0  0  0  0  0
  -16.4022  -25.4482    4.9883 H   0  0  0  0  0
  -17.1670  -24.6098    3.6160 H   0  0  0  0  0
  -16.1545  -26.0463    3.3294 H   0  0  0  0  0
  -16.7534  -17.3137    3.9891 H   0  0  0  0  0
  -15.5797  -18.7000    3.8379 H   0  0  0  0  0
  -14.1826  -17.1562    3.0303 H   0  0  0  0  0
  -15.1496  -15.7882    3.7100 H   0  0  0  0  0
  1  2  1  0  0  0
  2  3  1  0  0  0
  2 22  1  0  0  0
  3  4  1  0  0  0
  4  5  1  0  0  0
  5  6  1  0  0  0
  6  7  1  0  0  0
  6 43  1  0  0  0
  7  8  1  0  0  0
  8  9  1  0  0  0
  9 10  1  0  0  0
  9 44  1  0  0  0
 10 11  2  0  0  0
 10 12  1  0  0  0
 12 13  1  0  0  0
 13 14  1  0  0  0
 14 15  4  0  0  0
 14 21  4  0  0  0
 15 16  4  0  0  0
 16 17  1  0  0  0
 16 18  4  0  0  0
 18 19  4  0  0  0
 19 20  1  0  0  0
 19 21  4  0  0  0
 22 23  1  0  0  0
 22 41  1  0  0  0
 23 24  1  0  0  0
 24 25  1  0  0  0
 25 26  1  0  0  0
 25 41  1  0  0  0
 26 27  1  0  0  0
 26 38  1  0  0  0
 27 28  1  0  0  0
 27 29  1  0  0  0
 29 30  1  0  0  0
 30 31  1  0  0  0
 30 36  1  0  0  0
 31 32  1  0  0  0
 32 33  1  0  0  0
 32 34  1  0  0  0
 34 35  1  0  0  0
 35 36  1  0  0  0
 36 37  1  0  0  0
 36 38  1  0  0  0
 38 39  1  0  0  0
 39 40  1  0  0  0
 40 41  1  0  0  0
 41 42  1  0  0  0
 43 44  1  0  0  0
  1 45  1  0  0  0
  1 46  1  0  0  0
  1 47  1  0  0  0
  2 48  1  0  0  0
  3 49  1  0  0  0
  3 50  1  0  0  0
  4 51  1  0  0  0
  4 52  1  0  0  0
  5 53  1  0  0  0
  5 54  1  0  0  0
  6 55  1  0  0  0
  7 56  1  0  0  0
  7 57  1  0  0  0
  8 58  1  0  0  0
  8 59  1  0  0  0
 13 60  1  0  0  0
 13 61  1  0  0  0
 15 62  1  0  0  0
 18 63  1  0  0  0
 21 64  1  0  0  0
 22 65  1  0  0  0
 23 66  1  0  0  0
 23 67  1  0  0  0
 24 68  1  0  0  0
 24 69  1  0  0  0
 25 70  1  0  0  0
 26 71  1  0  0  0
 27 72  1  0  0  0
 28 73  1  0  0  0
 29 74  1  0  0  0
 29 75  1  0  0  0
 30 76  1  0  0  0
 31 77  1  0  0  0
 31 78  1  0  0  0
 32 79  1  0  0  0
 33 80  1  0  0  0
 34 81  1  0  0  0
 34 82  1  0  0  0
 35 83  1  0  0  0
 35 84  1  0  0  0
 37 85  1  0  0  0
 37 86  1  0  0  0
 37 87  1  0  0  0
 38 88  1  0  0  0
 39 89  1  0  0  0
 39 90  1  0  0  0
 40 91  1  0  0  0
 40 92  1  0  0  0
 42 93  1  0  0  0
 42 94  1  0  0  0
 42 95  1  0  0  0
 43 96  1  0  0  0
 43 97  1  0  0  0
 44 98  1  0  0  0
 44 99  1  0  0  0
M  END
$$$$
