4rcd_ligand
  -I-interpret- 

 52 57  0  0  0  0  0  0  0  0999 V2000
   71.1960   50.4410    8.7760 C   0  0  0  0  0
   67.2240   50.7270   10.0950 C   0  0  0  0  0
   70.3040   49.5360    8.1720 C   0  0  0  0  0
   70.7790   48.6480    7.2040 C   0  0  0  0  0
   69.5340   51.4170   10.1420 C   0  0  0  0  0
   68.5310   50.5790    9.6250 C   0  0  0  0  0
   68.8220   49.4970    8.5670 C   0  0  0  0  0
   67.9940   52.5160   11.4990 C   0  0  0  0  0
   66.9590   51.7020   11.0440 C   0  0  0  0  0
   72.5290   50.4300    8.3880 C   0  0  0  0  0
   63.0320   53.6450   13.2870 C   0  0  0  0  0
   63.0410   52.9590   14.5640 O   0  0  0  0  0
   63.1540   51.6520   13.9420 C   0  0  0  0  0
   63.2180   52.3200   12.5780 C   0  0  0  0  0
   62.0410   51.9080   11.6620 C   0  0  0  0  0
   64.5480   52.1030   12.0160 C   0  0  0  0  0
   65.6480   51.9080   11.5610 C   0  0  0  0  0
   69.2260   52.3600   11.0470 N   0  0  0  0  0
   70.8340   51.3530    9.7420 O   0  0  0  0  0
   68.4250   48.1030    9.0610 C   0  0  0  0  0
   67.4520   47.5830    8.0890 O   0  0  0  0  0
   67.1570   48.5930    7.1970 C   0  0  0  0  0
   67.9060   49.6920    7.3940 N   0  0  0  0  0
   66.2130   48.4520    6.2380 N   0  0  0  0  0
   72.9920   49.5380    7.4260 C   0  0  0  0  0
   72.1220   48.6460    6.8200 C   0  0  0  0  0
   72.5830   47.7580    5.8410 C   0  0  0  0  0
   73.6040   46.8610    6.1340 C   0  0  0  0  0
   74.0140   45.9880    5.1310 C   0  0  0  0  0
   73.4130   46.0330    3.8710 C   0  0  0  0  0
   72.4510   46.9000    3.6010 N   0  0  0  0  0
   72.0230   47.7430    4.5540 C   0  0  0  0  0
   71.0640   48.6120    4.2300 F   0  0  0  0  0
   66.4253   50.0861    9.7215 H   0  0  0  0  0
   70.0889   47.9436    6.7397 H   0  0  0  0  0
   67.7851   53.2908   12.2366 H   0  0  0  0  0
   73.2253   51.1329    8.8453 H   0  0  0  0  0
   63.7257   54.4653   13.1026 H   0  0  0  0  0
   62.1977   54.2943   13.0215 H   0  0  0  0  0
   62.4088   50.8821   14.1422 H   0  0  0  0  0
   63.9381   50.9617   14.2529 H   0  0  0  0  0
   61.1316   51.8236   12.2569 H   0  0  0  0  0
   61.9021   52.6638   10.8889 H   0  0  0  0  0
   62.2631   50.9474   11.1971 H   0  0  0  0  0
   67.9940   48.1493   10.0611 H   0  0  0  0  0
   69.2947   47.4500    9.1331 H   0  0  0  0  0
   67.8585   50.5384    6.8267 H   0  0  0  0  0
   65.6937   47.5777    6.1582 H   0  0  0  0  0
   74.0458   49.5409    7.1473 H   0  0  0  0  0
   74.0692   46.8422    7.1196 H   0  0  0  0  0
   74.8068   45.2667    5.3293 H   0  0  0  0  0
   73.7427   45.3411    3.0960 H   0  0  0  0  0
  3  1  4  0  0  0
  1 10  4  0  0  0
 19  1  1  0  0  0
  2  6  4  0  0  0
  9  2  4  0  0  0
  3  4  4  0  0  0
  7  3  1  0  0  0
  4 26  4  0  0  0
  6  5  4  0  0  0
 18  5  4  0  0  0
  5 19  1  0  0  0
  6  7  1  0  0  0
  7 20  1  0  0  0
  7 23  1  0  0  0
  9  8  4  0  0  0
  8 18  4  0  0  0
 17  9  1  0  0  0
 10 25  4  0  0  0
 11 12  1  0  0  0
 14 11  1  0  0  0
 13 12  1  0  0  0
 14 13  1  0  0  0
 14 15  1  0  0  0
 16 14  1  0  0  0
 16 17  3  0  0  0
 20 21  1  0  0  0
 21 22  1  0  0  0
 22 23  1  0  0  0
 22 24  2  0  0  0
 25 26  4  0  0  0
 26 27  1  0  0  0
 27 28  4  0  0  0
 27 32  4  0  0  0
 28 29  4  0  0  0
 29 30  4  0  0  0
 30 31  4  0  0  0
 31 32  4  0  0  0
 32 33  1  0  0  0
  2 34  1  0  0  0
  4 35  1  0  0  0
  8 36  1  0  0  0
 10 37  1  0  0  0
 11 38  1  0  0  0
 11 39  1  0  0  0
 13 40  1  0  0  0
 13 41  1  0  0  0
 15 42  1  0  0  0
 15 43  1  0  0  0
 15 44  1  0  0  0
 20 45  1  0  0  0
 20 46  1  0  0  0
 23 47  1  0  0  0
 24 48  1  0  0  0
 25 49  1  0  0  0
 28 50  1  0  0  0
 29 51  1  0  0  0
 30 52  1  0  0  0
M  END
$$$$
