2zdm_ligand
  -I-interpret- 

 58 60  0  0  0  0  0  0  0  0999 V2000
  -26.6630    1.1520   17.1460 O   0  0  0  0  0
  -27.8210    1.2100   16.7650 C   0  0  0  0  0
  -28.7790    1.6750   17.8730 C   0  0  0  0  0
  -29.5470    0.7560   18.6000 O   0  0  0  0  0
  -29.3230   -0.6090   18.7210 C   0  0  0  0  0
  -30.5900   -1.4470   18.7640 C   0  0  0  0  0
  -30.4370   -2.9300   18.9920 C   0  0  0  0  0
  -29.7920   -2.9940   20.3180 C   0  0  0  0  0
  -28.4840   -2.2660   20.3640 C   0  0  0  0  0
  -28.6890   -0.8300   20.0270 C   0  0  0  0  0
  -28.2210    0.9450   15.5780 N   0  0  0  0  0
  -27.1950    0.5070   14.6360 C   0  0  0  0  0
  -27.8160    0.2810   13.2540 C   0  0  0  0  0
  -29.2250    0.8260   13.4310 C   0  0  0  0  0
  -29.5640    0.8420   14.9210 C   0  0  0  0  0
  -26.0800    1.5080   14.3320 C   0  0  0  0  0
  -26.2290    2.7270   14.4250 O   0  0  0  0  0
  -24.8470    1.0860   13.9490 N   0  0  0  0  0
  -23.6840    1.9440   13.6630 C   0  0  0  0  0
  -22.5750    1.7540   14.6850 C   0  0  0  0  0
  -21.3520    1.2480   14.2390 C   0  0  0  0  0
  -20.3190    1.0630   15.1510 C   0  0  0  0  0
  -20.4690    1.3680   16.4970 C   0  0  0  0  0
  -19.3280    1.1530   17.4440 C   0  0  0  0  0
  -18.5040    0.1500   17.2140 N   0  0  0  0  0
  -19.1320    1.9360   18.4910 N   0  0  0  0  0
  -21.6540    1.8630   16.9540 C   0  0  0  0  0
  -22.7000    2.0540   16.0500 C   0  0  0  0  0
  -29.5189    2.2770   17.3455 H   0  0  0  0  0
  -28.1211    2.1178   18.6208 H   0  0  0  0  0
  -28.7338   -0.9030   17.8524 H   0  0  0  0  0
  -31.0413   -1.3471   17.7769 H   0  0  0  0  0
  -31.1580   -1.0762   19.6172 H   0  0  0  0  0
  -29.8533   -3.4203   18.2129 H   0  0  0  0  0
  -31.3865   -3.4642   18.9566 H   0  0  0  0  0
  -29.5982   -4.0425   20.5443 H   0  0  0  0  0
  -30.4615   -2.5226   21.0375 H   0  0  0  0  0
  -27.8004   -2.7103   19.6406 H   0  0  0  0  0
  -28.0656   -2.3429   21.3676 H   0  0  0  0  0
  -29.3522   -0.4112   20.7839 H   0  0  0  0  0
  -27.7053   -0.3618   19.9928 H   0  0  0  0  0
  -26.7827   -0.3716   15.1322 H   0  0  0  0  0
  -27.7988   -0.7640   12.9446 H   0  0  0  0  0
  -27.2654    0.7747   12.4532 H   0  0  0  0  0
  -29.9350    0.1939   12.8977 H   0  0  0  0  0
  -29.2829    1.8373   13.0284 H   0  0  0  0  0
  -30.2281    1.6628   15.1918 H   0  0  0  0  0
  -30.1185   -0.0423   15.2351 H   0  0  0  0  0
  -24.7137    0.0796   13.8500 H   0  0  0  0  0
  -24.0088    2.9838   13.7002 H   0  0  0  0  0
  -23.2940    1.6752   12.6813 H   0  0  0  0  0
  -21.2089    1.0008   13.1871 H   0  0  0  0  0
  -19.3658    0.6679   14.7997 H   0  0  0  0  0
  -18.6517   -0.4567   16.4074 H   0  0  0  0  0
  -18.3456    1.7630   19.1172 H   0  0  0  0  0
  -19.7671    2.7132   18.6727 H   0  0  0  0  0
  -21.7826    2.1058   18.0088 H   0  0  0  0  0
  -23.6469    2.4500   16.4171 H   0  0  0  0  0
  1  2  2  0  0  0
  2  3  1  0  0  0
  2 11  1  0  0  0
  3  4  1  0  0  0
  4  5  1  0  0  0
  5  6  1  0  0  0
  5 10  1  0  0  0
  6  7  1  0  0  0
  7  8  1  0  0  0
  8  9  1  0  0  0
  9 10  1  0  0  0
 11 12  1  0  0  0
 11 15  1  0  0  0
 12 13  1  0  0  0
 12 16  1  0  0  0
 13 14  1  0  0  0
 14 15  1  0  0  0
 16 17  2  0  0  0
 16 18  1  0  0  0
 18 19  1  0  0  0
 19 20  1  0  0  0
 20 21  4  0  0  0
 20 28  4  0  0  0
 21 22  4  0  0  0
 22 23  4  0  0  0
 23 24  1  0  0  0
 23 27  4  0  0  0
 24 25  2  0  0  0
 24 26  1  0  0  0
 27 28  4  0  0  0
  3 29  1  0  0  0
  3 30  1  0  0  0
  5 31  1  0  0  0
  6 32  1  0  0  0
  6 33  1  0  0  0
  7 34  1  0  0  0
  7 35  1  0  0  0
  8 36  1  0  0  0
  8 37  1  0  0  0
  9 38  1  0  0  0
  9 39  1  0  0  0
 10 40  1  0  0  0
 10 41  1  0  0  0
 12 42  1  0  0  0
 13 43  1  0  0  0
 13 44  1  0  0  0
 14 45  1  0  0  0
 14 46  1  0  0  0
 15 47  1  0  0  0
 15 48  1  0  0  0
 18 49  1  0  0  0
 19 50  1  0  0  0
 19 51  1  0  0  0
 21 52  1  0  0  0
 22 53  1  0  0  0
 25 54  1  0  0  0
 26 55  1  0  0  0
 26 56  1  0  0  0
 27 57  1  0  0  0
 28 58  1  0  0  0
M  END
$$$$
