5ifu_ligand
  -I-interpret- 

 61 63  0  0  0  0  0  0  0  0999 V2000
  -35.8980   -0.3620   24.2630 O   0  0  0  0  0
  -34.1980   -0.2060   22.0130 O   0  0  0  0  0
  -32.9240    1.6440   21.9850 O   0  0  0  0  0
  -37.9120    4.5650   16.8780 O   0  0  0  0  0
  -41.5760    4.8930   12.0970 Cl  0  0  0  0  0
  -34.2230    1.1800   22.4780 S   0  0  0  0  0
  -38.7060    7.5310   16.6080 O   0  0  0  0  0
  -35.4240    0.4100   26.3360 N   0  0  0  0  0
  -34.3380    1.2840   24.1890 N   0  0  0  0  0
  -40.0060    4.0360   17.6200 N   0  0  0  0  0
  -36.3700   -0.5300   26.9230 C   0  0  0  0  0
  -37.7830    0.0350   26.8220 C   0  0  0  0  0
  -36.0190   -0.8310   28.3820 C   0  0  0  0  0
  -38.8010   -0.9380   27.4200 C   0  0  0  0  0
  -37.0120   -1.8110   29.0160 C   0  0  0  0  0
  -38.4650   -1.3630   28.8520 C   0  0  0  0  0
  -35.2550    0.3980   24.8920 C   0  0  0  0  0
  -35.5970    2.0740   21.6980 C   0  0  0  0  0
  -37.7150    3.3870   20.4970 C   0  0  0  0  0
  -38.8940    4.0940   19.8230 C   0  0  0  0  0
  -36.5340    1.3550   20.9750 C   0  0  0  0  0
  -35.7160    3.4500   21.8250 C   0  0  0  0  0
  -37.5910    2.0130   20.3750 C   0  0  0  0  0
  -36.7770    4.1080   21.2230 C   0  0  0  0  0
  -39.4920    3.2270   18.7120 C   0  0  0  0  0
  -39.0750    4.6890   16.7150 C   0  0  0  0  0
  -39.5860    5.5400   15.5560 C   0  0  0  0  0
  -39.3800    6.9110   15.5470 C   0  0  0  0  0
  -40.2490    4.9280   14.5050 C   0  0  0  0  0
  -39.8490    7.6710   14.4860 C   0  0  0  0  0
  -40.7170    5.6870   13.4460 C   0  0  0  0  0
  -40.5160    7.0600   13.4360 C   0  0  0  0  0
  -37.4020    7.9430   16.3080 C   0  0  0  0  0
  -34.8958    1.0575   26.9210 H   0  0  0  0  0
  -33.7717    1.9572   24.7053 H   0  0  0  0  0
  -41.0118    4.1447   17.4897 H   0  0  0  0  0
  -36.3152   -1.4671   26.3689 H   0  0  0  0  0
  -38.0238    0.1937   25.7709 H   0  0  0  0  0
  -37.8267    0.9733   27.3749 H   0  0  0  0  0
  -36.0545    0.1031   28.9425 H   0  0  0  0  0
  -35.0273   -1.2825   28.4096 H   0  0  0  0  0
  -38.8009   -1.8356   26.8017 H   0  0  0  0  0
  -39.7656   -0.4310   27.4449 H   0  0  0  0  0
  -36.7957   -1.8650   30.0830 H   0  0  0  0  0
  -36.8990   -2.7734   28.5169 H   0  0  0  0  0
  -39.1042   -2.2084   29.1065 H   0  0  0  0  0
  -38.6222   -0.5008   29.5001 H   0  0  0  0  0
  -38.5383    5.0267   19.3852 H   0  0  0  0  0
  -39.6633    4.2819   20.5720 H   0  0  0  0  0
  -36.4382    0.2734   20.8794 H   0  0  0  0  0
  -34.9774    4.0122   22.3965 H   0  0  0  0  0
  -38.3289    1.4491   19.8043 H   0  0  0  0  0
  -36.8746    5.1893   21.3195 H   0  0  0  0  0
  -38.7075    2.5792   18.3209 H   0  0  0  0  0
  -40.3167    2.6506   19.1313 H   0  0  0  0  0
  -40.4022    3.8488   14.5118 H   0  0  0  0  0
  -39.6929    8.7497   14.4779 H   0  0  0  0  0
  -40.8829    7.6582   12.6019 H   0  0  0  0  0
  -36.8068    7.0775   16.0170 H   0  0  0  0  0
  -37.4286    8.6599   15.4873 H   0  0  0  0  0
  -36.9590    8.4113   17.1870 H   0  0  0  0  0
 17  1  2  0  0  0
  6  2  2  0  0  0
  6  3  2  0  0  0
 26  4  2  0  0  0
 31  5  1  0  0  0
  6  9  1  0  0  0
 18  6  1  0  0  0
 28  7  1  0  0  0
  7 33  1  0  0  0
  8 11  1  0  0  0
 17  8  1  0  0  0
  9 17  1  0  0  0
 10 25  1  0  0  0
 26 10  1  0  0  0
 11 12  1  0  0  0
 11 13  1  0  0  0
 12 14  1  0  0  0
 13 15  1  0  0  0
 14 16  1  0  0  0
 15 16  1  0  0  0
 21 18  4  0  0  0
 22 18  4  0  0  0
 20 19  1  0  0  0
 19 23  4  0  0  0
 19 24  4  0  0  0
 25 20  1  0  0  0
 23 21  4  0  0  0
 24 22  4  0  0  0
 27 26  1  0  0  0
 27 28  4  0  0  0
 29 27  4  0  0  0
 28 30  4  0  0  0
 29 31  4  0  0  0
 30 32  4  0  0  0
 31 32  4  0  0  0
  8 34  1  0  0  0
  9 35  1  0  0  0
 10 36  1  0  0  0
 11 37  1  0  0  0
 12 38  1  0  0  0
 12 39  1  0  0  0
 13 40  1  0  0  0
 13 41  1  0  0  0
 14 42  1  0  0  0
 14 43  1  0  0  0
 15 44  1  0  0  0
 15 45  1  0  0  0
 16 46  1  0  0  0
 16 47  1  0  0  0
 20 48  1  0  0  0
 20 49  1  0  0  0
 21 50  1  0  0  0
 22 51  1  0  0  0
 23 52  1  0  0  0
 24 53  1  0  0  0
 25 54  1  0  0  0
 25 55  1  0  0  0
 29 56  1  0  0  0
 30 57  1  0  0  0
 32 58  1  0  0  0
 33 59  1  0  0  0
 33 60  1  0  0  0
 33 61  1  0  0  0
M  END
$$$$
