2isc_ligand
  -I-interpret- 

 36 38  0  0  0  0  0  0  0  0999 V2000
   -1.8890   -5.9930  -15.9810 N   0  0  0  0  0
   -2.6440   -6.9540  -16.7860 C   0  0  0  0  0
   -1.5620   -8.6990  -15.4340 C   0  0  0  0  0
   -0.8480   -7.7820  -14.6840 C   0  0  0  0  0
   -1.0410   -6.3410  -14.9830 C   0  0  0  0  0
   -0.3290   -9.8080  -13.9510 C   0  0  0  0  0
   -0.4060   -5.4800  -14.3170 N   0  0  0  0  0
   -2.4170   -8.3610  -16.4290 N   0  0  0  0  0
   -1.2400   -9.9700  -14.9930 C   0  0  0  0  0
   -0.0950   -8.4760  -13.7860 N   0  0  0  0  0
   -1.7780  -11.2760  -15.4840 C   0  0  0  0  0
   -1.3050  -11.7780  -16.7800 N   0  3  0  0  0
    0.1370  -11.6410  -17.0770 C   0  0  0  0  0
    0.1860  -11.4920  -18.6000 C   0  0  0  0  0
    0.6900  -10.1150  -18.9800 C   0  0  0  0  0
    1.7960   -9.8300  -18.1320 O   0  0  0  0  0
   -1.2310  -11.6540  -19.0960 C   0  0  0  0  0
   -1.4850  -13.0350  -19.3900 O   0  0  0  0  0
   -2.0640  -11.2060  -17.9040 C   0  0  0  0  0
   -3.3199   -6.6506  -17.5855 H   0  0  0  0  0
    0.1203  -10.6111  -13.3668 H   0  0  0  0  0
   -0.5229   -4.4879  -14.5231 H   0  0  0  0  0
    0.2249   -5.7752  -13.5719 H   0  0  0  0  0
   -2.8487  -11.1163  -15.6110 H   0  0  0  0  0
   -1.4506  -12.0150  -14.7527 H   0  0  0  0  0
   -1.4721  -12.7793  -16.6806 H   0  0  0  0  0
    0.7153  -12.4955  -16.7256 H   0  0  0  0  0
    0.5869  -10.7915  -16.5630 H   0  0  0  0  0
    0.8563  -12.2324  -19.0366 H   0  0  0  0  0
   -0.0945   -9.3686  -18.8556 H   0  0  0  0  0
    0.9897  -10.0889  -20.0277 H   0  0  0  0  0
    2.1445   -8.9609  -18.3437 H   0  0  0  0  0
   -1.4454  -11.0918  -20.0049 H   0  0  0  0  0
   -2.3865  -13.1334  -19.7049 H   0  0  0  0  0
   -2.1869  -10.1248  -17.8407 H   0  0  0  0  0
   -3.0998  -11.5427  -17.9458 H   0  0  0  0  0
  2  1  4  0  0  0
  1  5  4  0  0  0
  8  2  4  0  0  0
  3  4  4  0  0  0
  3  8  4  0  0  0
  3  9  4  0  0  0
  4  5  4  0  0  0
  4 10  4  0  0  0
  5  7  1  0  0  0
  9  6  4  0  0  0
  6 10  4  0  0  0
  9 11  1  0  0  0
 11 12  1  0  0  0
 12 13  1  0  0  0
 12 19  1  0  0  0
 13 14  1  0  0  0
 14 15  1  0  0  0
 14 17  1  0  0  0
 15 16  1  0  0  0
 17 18  1  0  0  0
 17 19  1  0  0  0
  2 20  1  0  0  0
  6 21  1  0  0  0
  7 22  1  0  0  0
  7 23  1  0  0  0
 11 24  1  0  0  0
 11 25  1  0  0  0
 12 26  1  0  0  0
 13 27  1  0  0  0
 13 28  1  0  0  0
 14 29  1  0  0  0
 15 30  1  0  0  0
 15 31  1  0  0  0
 16 32  1  0  0  0
 17 33  1  0  0  0
 18 34  1  0  0  0
 19 35  1  0  0  0
 19 36  1  0  0  0
M  END
$$$$
