1hk5_ligand
  -I-interpret- 

 36 37  0  0  0  0  0  0  0  0999 V2000
   20.1330   10.6090   28.6660 C   0  0  0  0  0
   21.3270   10.1840   28.0590 C   0  0  0  0  0
   21.5560   10.3250   26.6700 C   0  0  0  0  0
   20.5570   10.9130   25.8390 C   0  0  0  0  0
   19.3850   11.3270   26.4330 C   0  0  0  0  0
   19.1360   11.1940   27.8270 C   0  0  0  0  0
   19.9460   10.4410   30.1810 C   0  0  0  0  0
   20.1380    9.0470   30.7770 C   0  0  0  0  0
   19.8630    8.9210   32.3160 C   0  0  0  0  0
   21.4480   12.2100   23.9490 C   0  0  0  0  0
   21.6110   12.2340   22.5600 C   0  0  0  0  0
   22.2530   13.3490   21.9790 C   0  0  0  0  0
   22.7570   14.4910   22.7330 C   0  0  0  0  0
   22.5470   14.3770   24.1240 C   0  0  0  0  0
   21.9120   13.2880   24.7570 C   0  0  0  0  0
   19.2120    8.0910   30.0630 N   0  3  0  0  0
   20.7970   11.0580   24.4730 O   0  0  0  0  0
   23.3510   15.5100   22.1520 O   0  0  0  0  0
   18.8240    9.4440   32.7560 O   0  0  0  0  0
   20.7020    8.3070   32.9980 O   0  0  0  0  0
   23.3470    9.6790   25.8460 I   0  0  0  0  0
   22.5010   13.3930   19.9130 I   0  0  0  0  0
   17.9040   12.1940   25.2380 I   0  0  0  0  0
   23.2150   15.9280   25.3310 I   0  0  0  0  0
   22.1015    9.7312   28.6781 H   0  0  0  0  0
   18.1920   11.5357   28.2516 H   0  0  0  0  0
   18.9043   10.6972   30.3740 H   0  0  0  0  0
   20.7181   11.0599   30.6381 H   0  0  0  0  0
   21.1946    8.8171   30.6400 H   0  0  0  0  0
   21.2511   11.4119   21.9413 H   0  0  0  0  0
   21.7794   13.2716   25.8388 H   0  0  0  0  0
   19.3281    7.1544   30.4498 H   0  0  0  0  0
   18.2469    8.3955   30.1903 H   0  0  0  0  0
   19.4378    8.0798   29.0684 H   0  0  0  0  0
   23.6066   16.1523   22.8182 H   0  0  0  0  0
   18.3442    9.8565   32.0340 H   0  0  0  0  0
  2  1  4  0  0  0
  6  1  4  0  0  0
  1  7  1  0  0  0
  3  2  4  0  0  0
  4  3  4  0  0  0
  3 21  1  0  0  0
  4  5  4  0  0  0
 17  4  1  0  0  0
  5  6  4  0  0  0
  5 23  1  0  0  0
  7  8  1  0  0  0
  8  9  1  0  0  0
  8 16  1  0  0  0
  9 19  1  0  0  0
  9 20  2  0  0  0
 10 11  4  0  0  0
 10 15  4  0  0  0
 10 17  1  0  0  0
 11 12  4  0  0  0
 12 13  4  0  0  0
 12 22  1  0  0  0
 13 14  4  0  0  0
 13 18  1  0  0  0
 14 15  4  0  0  0
 14 24  1  0  0  0
  2 25  1  0  0  0
  6 26  1  0  0  0
  7 27  1  0  0  0
  7 28  1  0  0  0
  8 29  1  0  0  0
 11 30  1  0  0  0
 15 31  1  0  0  0
 16 32  1  0  0  0
 16 33  1  0  0  0
 16 34  1  0  0  0
 18 35  1  0  0  0
 19 36  1  0  0  0
M  END
$$$$
