### 
### Created by X-TOOL on Fri Nov  2 11:08:55 2018
### 

@<TRIPOS>MOLECULE
5szc_ligand
  238   237     1     0     0
SMALL
GAST_HUCK


@<TRIPOS>ATOM
      1 N          -5.2170   31.2960   80.3250 N.4       1 ALA         0.2377
      2 CA         -3.7480   31.0400   80.4630 C.3       1 ALA         0.0621
      3 C          -3.3430   29.7530   79.7830 C.2       1 ALA         0.2264
      4 O          -4.1440   28.8440   79.6050 O.2       1 ALA        -0.3907
      5 CB         -3.3530   30.9760   81.9220 C.3       1 ALA        -0.0040
      6 N          -2.0790   29.6800   79.4150 N.am      1 ALA        -0.2610
      7 CA         -1.5320   28.5190   78.7370 C.3       1 ALA         0.1312
      8 C          -0.6550   27.7320   79.7000 C.2       1 ALA         0.2040
      9 O           0.1330   28.3130   80.4480 O.2       1 ALA        -0.3944
     10 CB         -0.6820   28.9560   77.5490 C.3       1 ALA        -0.0092
     11 CG         -1.4410   29.6750   76.4550 C.3       1 ALA        -0.0156
     12 CD         -0.4810   30.1010   75.3860 C.3       1 ALA         0.0627
     13 NE          0.4780   31.0380   75.9450 N.pl3     1 ALA        -0.2723
     14 CZ          1.7660   31.0680   75.6280 C.cat     1 ALA         0.2882
     15 NH1         2.2820   30.2090   74.7550 N.pl3     1 ALA        -0.2849
     16 NH2         2.5590   31.9610   76.1870 N.pl3     1 ALA        -0.2849
     17 N          -0.7640   26.4080   79.6530 N.am      1 ALA        -0.2613
     18 CA          0.2670   25.5350   80.1920 C.3       1 ALA         0.1565
     19 C           0.8960   24.7730   79.0450 C.2       1 ALA         0.2065
     20 O           0.3970   24.8230   77.9170 O.2       1 ALA        -0.3943
     21 CB         -0.2880   24.5080   81.1640 C.3       1 ALA         0.0924
     22 OG1        -1.1670   23.6240   80.4570 O.3       1 ALA        -0.3874
     23 CG2        -1.0220   25.1910   82.3200 C.3       1 ALA        -0.0346
     24 N           1.9730   24.0430   79.3100 N.am      1 ALA        -0.2637
     25 CA          2.5640   23.2210   78.2870 C.3       1 ALA         0.1310
     26 CB          3.7210   22.4350   78.8930 C.3       1 ALA        -0.0122
     27 CG          4.3180   21.5890   77.7810 C.3       1 ALA        -0.0440
     28 CD          5.5410   20.7940   78.2190 C.3       1 ALA        -0.0124
     29 CE          6.7290   21.7020   78.5160 C.3       1 ALA        -0.0339
     30 NZ          8.0130   21.0500   78.2840 N.4       1 ALA         0.2248
     31 CM          8.0840   19.7570   78.9460 C.3       1 ALA        -0.0449
     32 C           1.4850   22.2930   77.7200 C.2       1 ALA         0.2039
     33 O           1.4080   22.0900   76.4890 O.2       1 ALA        -0.3944
     34 N           0.6880   21.7010   78.5930 N.am      1 ALA        -0.2636
     35 CA         -0.3260   20.7810   78.1370 C.3       1 ALA         0.1330
     36 C          -1.3500   21.4700   77.2370 C.2       1 ALA         0.2041
     37 O          -1.6620   20.9650   76.1600 O.2       1 ALA        -0.3944
     38 CB         -1.0000   20.1300   79.3360 C.3       1 ALA         0.0045
     39 CG         -2.0880   19.1260   78.9840 C.3       1 ALA         0.0412
     40 CD         -2.5900   18.3540   80.2040 C.2       1 ALA         0.1737
     41 OE1        -1.8290   17.6680   80.8710 O.2       1 ALA        -0.3973
     42 NE2        -3.8880   18.4420   80.4700 N.am      1 ALA        -0.3009
     43 N          -1.8960   22.6120   77.6550 N.am      1 ALA        -0.2613
     44 CA         -2.8900   23.2510   76.7990 C.3       1 ALA         0.1565
     45 C          -2.2510   23.7890   75.5300 C.2       1 ALA         0.2065
     46 O          -2.8750   23.7700   74.4670 O.2       1 ALA        -0.3943
     47 CB         -3.6750   24.3420   77.5460 C.3       1 ALA         0.0924
     48 OG1        -2.8240   25.4590   77.8270 O.3       1 ALA        -0.3874
     49 CG2        -4.2860   23.7940   78.8370 C.3       1 ALA        -0.0346
     50 N          -0.9980   24.2320   75.6080 N.am      1 ALA        -0.2639
     51 CA         -0.3210   24.7340   74.4230 C.3       1 ALA         0.1282
     52 C          -0.0820   23.6230   73.4120 C.2       1 ALA         0.2036
     53 O          -0.2170   23.8390   72.2020 O.2       1 ALA        -0.3944
     54 CB          0.9880   25.3800   74.8470 C.3       1 ALA        -0.0244
     55 N           0.2890   22.4370   73.8820 N.am      1 ALA        -0.2637
     56 CA          0.4380   21.2970   72.9850 C.3       1 ALA         0.1311
     57 C          -0.8580   21.0230   72.2520 C.2       1 ALA         0.2039
     58 O          -0.8590   20.7510   71.0470 O.2       1 ALA        -0.3944
     59 CB          0.7970   20.0620   73.7980 C.3       1 ALA        -0.0092
     60 CG          2.1410   19.4980   73.5220 C.3       1 ALA        -0.0156
     61 CD          2.3160   18.2410   74.2850 C.3       1 ALA         0.0627
     62 NE          3.6890   18.0670   74.7210 N.pl3     1 ALA        -0.2723
     63 CZ          4.0760   17.9050   75.9840 C.cat     1 ALA         0.2882
     64 NH1         3.1990   17.8890   76.9800 N.pl3     1 ALA        -0.2849
     65 NH2         5.3630   17.7440   76.2470 N.pl3     1 ALA        -0.2849
     66 N          -1.9730   21.0780   72.9730 N.am      1 ALA        -0.2637
     67 CA         -3.2550   20.6950   72.4050 C.3       1 ALA         0.1310
     68 C          -3.7710   21.7180   71.4120 C.2       1 ALA         0.2040
     69 O          -4.5420   21.3640   70.5170 O.2       1 ALA        -0.3944
     70 CB         -4.2840   20.5130   73.5150 C.3       1 ALA        -0.0122
     71 CG         -3.9940   19.3470   74.4130 C.3       1 ALA        -0.0440
     72 CD         -4.9880   19.3080   75.5330 C.3       1 ALA        -0.0124
     73 CE         -4.8120   18.0620   76.3450 C.3       1 ALA        -0.0354
     74 NZ         -5.6780   18.1130   77.5350 N.4       1 ALA         0.2185
     75 N          -3.3890   22.9810   71.5520 N.am      1 ALA        -0.2616
     76 CA         -3.9010   24.0080   70.6570 C.3       1 ALA         0.1539
     77 C          -2.9460   24.3200   69.5180 C.2       1 ALA         0.2063
     78 O          -3.3200   25.0510   68.5950 O.2       1 ALA        -0.3943
     79 CB         -4.2290   25.2850   71.4330 C.3       1 ALA         0.0843
     80 OG         -3.0760   25.8020   72.0620 O.3       1 ALA        -0.3903
     81 N          -1.7390   23.7730   69.5580 N.am      1 ALA        -0.2613
     82 CA         -0.7540   23.9190   68.4950 C.3       1 ALA         0.1565
     83 C          -0.4830   22.5290   67.9220 C.2       1 ALA         0.2063
     84 O           0.5960   21.9600   68.1090 O.2       1 ALA        -0.3943
     85 CB          0.5240   24.5630   69.0500 C.3       1 ALA         0.0924
     86 OG1         1.2210   23.6090   69.8630 O.3       1 ALA        -0.3874
     87 CG2         0.1890   25.8010   69.8900 C.3       1 ALA        -0.0346
     88 N          -1.4790   21.9750   67.2290 N.am      1 ALA        -0.2663
     89 CA         -1.3400   20.6440   66.6660 C.3       1 ALA         0.1201
     90 C          -0.4780   20.5760   65.4240 C.2       1 ALA         0.2005
     91 O           0.0120   19.4930   65.0810 O.2       1 ALA        -0.3947
     92 N          -0.2720   21.7050   64.7510 N.am      1 ALA        -0.2666
     93 CA          0.4470   21.7250   63.4890 C.3       1 ALA         0.1201
     94 C           1.9510   21.5850   63.6200 C.2       1 ALA         0.2007
     95 O           2.6550   21.5030   62.6140 O.2       1 ALA        -0.3947
     96 OH          8.1910   25.2680   68.5710 O.2       1 ALA        -0.3974
     97 CH          8.7210   24.6930   67.6100 C.2       1 ALA         0.1729
     98 CH3         9.6010   25.4790   66.6850 C.3       1 ALA         0.0256
     99 NZ          8.5440   23.3510   67.3340 N.am      1 ALA        -0.2872
    100 CE          7.7520   22.4420   68.1150 C.3       1 ALA         0.0309
    101 CD          6.2400   22.5730   67.9320 C.3       1 ALA        -0.0325
    102 CG          5.8260   21.7980   66.7000 C.3       1 ALA        -0.0470
    103 CB          4.3240   21.8250   66.5390 C.3       1 ALA        -0.0123
    104 CA          3.8650   21.4620   65.1120 C.3       1 ALA         0.1309
    105 N           2.4440   21.5480   64.8560 N.am      1 ALA        -0.2640
    106 C           4.3090   20.0400   64.8190 C.2       1 ALA         0.2033
    107 O           3.7660   19.0450   65.3090 O.2       1 ALA        -0.3944
    108 N           5.3290   19.9440   63.9680 N.am      1 ALA        -0.2698
    109 CA          5.8740   18.6550   63.5420 C.3       1 ALA         0.0916
    110 C           6.0860   17.7310   64.7340 C.2       1 ALA         0.0598
    111 O           6.8090   18.0690   65.6700 O.co2     1 ALA        -0.5666
    112 CB          7.1890   18.8570   62.7940 C.3       1 ALA        -0.0300
    113 OXT         5.5380   16.6310   64.7810 O.co2     1 ALA        -0.5666
    114 H1         -5.4525   32.1596   80.7884 H         1 ALA         0.2015
    115 H2         -5.7312   30.5379   80.7457 H         1 ALA         0.2015
    116 H3         -5.4561   31.3629   79.3481 H         1 ALA         0.2015
    117 H4         -3.2075   31.8716   79.9874 H         1 ALA         0.1095
    118 H5         -2.2722   30.7876   82.0013 H         1 ALA         0.0310
    119 H6         -3.9042   30.1622   82.4158 H         1 ALA         0.0310
    120 H7         -3.5953   31.9317   82.4098 H         1 ALA         0.0310
    121 H8         -1.4751   30.4528   79.6101 H         1 ALA         0.1884
    122 H9         -2.3564   27.8821   78.3839 H         1 ALA         0.0800
    123 H10        -0.2189   28.0593   77.1114 H         1 ALA         0.0313
    124 H11         0.1037   29.6304   77.9202 H         1 ALA         0.0313
    125 H12        -1.9404   30.5606   76.8748 H         1 ALA         0.0301
    126 H13        -2.1943   28.9988   76.0245 H         1 ALA         0.0301
    127 H14        -1.0339   30.5859   74.5680 H         1 ALA         0.0689
    128 H15         0.0505   29.2198   74.9975 H         1 ALA         0.0689
    129 H16         0.1356   31.7242   76.6326 H         1 ALA         0.2642
    130 H17         3.2848   30.2500   74.5233 H         1 ALA         0.2615
    131 H18         1.6791   29.5022   74.3101 H         1 ALA         0.2615
    132 H19         2.1776   32.6351   76.8659 H         1 ALA         0.2615
    133 H20         3.5598   31.9844   75.9447 H         1 ALA         0.2615
    134 H21        -1.5767   26.0012   79.2358 H         1 ALA         0.1884
    135 H22         1.0256   26.1465   80.7025 H         1 ALA         0.0826
    136 H23         0.5469   23.9235   81.5779 H         1 ALA         0.0639
    137 H24        -1.5176   22.9789   81.0599 H         1 ALA         0.2101
    138 H25        -1.4134   24.4272   83.0080 H         1 ALA         0.0257
    139 H26        -1.8558   25.7886   81.9229 H         1 ALA         0.0257
    140 H27        -0.3245   25.8481   82.8601 H         1 ALA         0.0257
    141 H28         2.3756   24.0645   80.2251 H         1 ALA         0.1883
    142 H29         2.9496   23.8590   77.4781 H         1 ALA         0.0800
    143 H30         3.3541   21.7881   79.7035 H         1 ALA         0.0312
    144 H31         4.4794   23.1258   79.2900 H         1 ALA         0.0312
    145 H32         4.6113   22.2541   76.9554 H         1 ALA         0.0269
    146 H33         3.5509   20.8836   77.4288 H         1 ALA         0.0269
    147 H34         5.8185   20.0958   77.4156 H         1 ALA         0.0317
    148 H35         5.2905   20.2267   79.1275 H         1 ALA         0.0317
    149 H36         6.6785   22.0128   79.5699 H         1 ALA         0.0814
    150 H37         6.6636   22.5889   77.8686 H         1 ALA         0.0814
    151 H38         8.7487   21.6403   78.6395 H         1 ALA         0.2011
    152 H39         8.1381   20.9172   77.2927 H         1 ALA         0.2011
    153 H40         9.0637   19.2974   78.7487 H         1 ALA         0.0777
    154 H41         7.2879   19.1033   78.5601 H         1 ALA         0.0777
    155 H42         7.9542   19.8923   80.0299 H         1 ALA         0.0777
    156 H43         0.7878   21.8908   79.5697 H         1 ALA         0.1883
    157 H44         0.1656   19.9931   77.5475 H         1 ALA         0.0801
    158 H45        -1.4515   20.9242   79.9488 H         1 ALA         0.0337
    159 H46        -0.2287   19.6086   79.9218 H         1 ALA         0.0337
    160 H47        -1.6834   18.4087   78.2548 H         1 ALA         0.0504
    161 H48        -2.9348   19.6663   78.5357 H         1 ALA         0.0504
    162 H49        -4.2712   17.9573   81.2563 H         1 ALA         0.1814
    163 H50        -4.4822   18.9929   79.8840 H         1 ALA         0.1814
    164 H51        -1.6321   23.0188   78.5296 H         1 ALA         0.1884
    165 H52        -3.6123   22.4768   76.5008 H         1 ALA         0.0826
    166 H53        -4.4939   24.6843   76.8962 H         1 ALA         0.0639
    167 H54        -2.4930   25.8165   77.0115 H         1 ALA         0.2101
    168 H55        -4.8402   24.5945   79.3490 H         1 ALA         0.0257
    169 H56        -3.4848   23.4247   79.4940 H         1 ALA         0.0257
    170 H57        -4.9725   22.9689   78.5964 H         1 ALA         0.0257
    171 H58        -0.5198   24.2195   76.4862 H         1 ALA         0.1883
    172 H59        -0.9557   25.4983   73.9509 H         1 ALA         0.0797
    173 H60         1.5114   25.7647   73.9593 H         1 ALA         0.0277
    174 H61         1.6196   24.6329   75.3499 H         1 ALA         0.0277
    175 H62         0.7803   26.2099   75.5385 H         1 ALA         0.0277
    176 H63         0.4676   22.3251   74.8595 H         1 ALA         0.1883
    177 H64         1.2349   21.5082   72.2567 H         1 ALA         0.0800
    178 H65         0.0499   19.2836   73.5839 H         1 ALA         0.0313
    179 H66         0.7520   20.3302   74.8638 H         1 ALA         0.0313
    180 H67         2.9117   20.2216   73.8261 H         1 ALA         0.0301
    181 H68         2.2374   19.2901   72.4461 H         1 ALA         0.0301
    182 H69         2.0349   17.3924   73.6441 H         1 ALA         0.0689
    183 H70         1.6614   18.2658   75.1687 H         1 ALA         0.0689
    184 H71         4.4212   18.0690   73.9965 H         1 ALA         0.2642
    185 H72         3.5230   17.7621   77.9495 H         1 ALA         0.2615
    186 H73         2.1944   18.0035   76.7835 H         1 ALA         0.2615
    187 H74         6.0506   17.7550   75.4802 H         1 ALA         0.2615
    188 H75         5.6770   17.6077   77.2185 H         1 ALA         0.2615
    189 H76        -1.9293   21.3882   73.9227 H         1 ALA         0.1883
    190 H77        -3.1259   19.7369   71.8803 H         1 ALA         0.0800
    191 H78        -5.2708   20.3604   73.0536 H         1 ALA         0.0312
    192 H79        -4.3025   21.4273   74.1263 H         1 ALA         0.0312
    193 H80        -2.9805   19.4492   74.8280 H         1 ALA         0.0269
    194 H81        -4.0606   18.4145   73.8334 H         1 ALA         0.0269
    195 H82        -6.0054   19.3275   75.1153 H         1 ALA         0.0317
    196 H83        -4.8401   20.1856   76.1795 H         1 ALA         0.0317
    197 H84        -3.7619   17.9781   76.6615 H         1 ALA         0.0813
    198 H85        -5.0820   17.1876   75.7346 H         1 ALA         0.0813
    199 H86        -5.5546   17.2719   78.0766 H         1 ALA         0.1994
    200 H87        -6.6409   18.1888   77.2468 H         1 ALA         0.1994
    201 H88        -5.4312   18.9132   78.0961 H         1 ALA         0.1994
    202 H89        -2.7457   23.2285   72.2765 H         1 ALA         0.1884
    203 H90        -4.8342   23.6282   70.2155 H         1 ALA         0.0823
    204 H91        -4.9853   25.0571   72.1985 H         1 ALA         0.0606
    205 H92        -4.6273   26.0375   70.7365 H         1 ALA         0.0606
    206 H93        -2.7304   25.1564   72.6672 H         1 ALA         0.2097
    207 H94        -1.4915   23.2310   70.3612 H         1 ALA         0.1884
    208 H95        -1.1600   24.5647   67.7024 H         1 ALA         0.0826
    209 H96         1.1676   24.8638   68.2102 H         1 ALA         0.0639
    210 H97         1.4487   22.8520   69.3362 H         1 ALA         0.2101
    211 H98         1.1186   26.2445   70.2762 H         1 ALA         0.0257
    212 H99        -0.4556   25.5092   70.7322 H         1 ALA         0.0257
    213 H100       -0.3363   26.5376   69.2643 H         1 ALA         0.0257
    214 H101       -2.3307   22.4819   67.0958 H         1 ALA         0.1881
    215 H102       -2.3431   20.2730   66.4089 H         1 ALA         0.0763
    216 H103       -0.8928   19.9921   67.4309 H         1 ALA         0.0763
    217 H104       -0.6220   22.5641   65.1245 H         1 ALA         0.1881
    218 H105        0.2333   22.6801   62.9869 H         1 ALA         0.0763
    219 H106        0.0773   20.8944   62.8697 H         1 ALA         0.0763
    220 H107        9.9851   24.8178   65.8943 H         1 ALA         0.0467
    221 H108       10.4441   25.9012   67.2515 H         1 ALA         0.0467
    222 H109        9.0195   26.2946   66.2305 H         1 ALA         0.0467
    223 H110        9.0040   22.9829   66.5259 H         1 ALA         0.1850
    224 H111        7.9825   22.6155   69.1765 H         1 ALA         0.0520
    225 H112        8.0404   21.4167   67.8400 H         1 ALA         0.0520
    226 H113        5.9736   23.6330   67.8081 H         1 ALA         0.0285
    227 H114        5.7247   22.1661   68.8145 H         1 ALA         0.0285
    228 H115        6.1609   20.7549   66.7988 H         1 ALA         0.0268
    229 H116        6.2934   22.2508   65.8132 H         1 ALA         0.0268
    230 H117        3.9640   22.8370   66.7763 H         1 ALA         0.0312
    231 H118        3.8828   21.1043   67.2432 H         1 ALA         0.0312
    232 H119        4.3698   22.1489   64.4168 H         1 ALA         0.0800
    233 H120        1.8128   21.5807   65.6310 H         1 ALA         0.1883
    234 H121        5.7368   20.7829   63.6074 H         1 ALA         0.1875
    235 H122        5.1525   18.1819   62.8597 H         1 ALA         0.0723
    236 H123        7.5862   17.8803   62.4804 H         1 ALA         0.0270
    237 H124        7.9148   19.3527   63.4555 H         1 ALA         0.0270
    238 H125        7.0138   19.4835   61.9070 H         1 ALA         0.0270
@<TRIPOS>BOND
     1    2    1 1  
     2    3    2 1  
     3    2    5 1  
     4    3    4 2  
     5    6    3 am 
     6    7    6 1  
     7    8    7 1  
     8    7   10 1  
     9    8    9 2  
    10   17    8 am 
    11   10   11 1  
    12   11   12 1  
    13   12   13 1  
    14   13   14 ar 
    15   14   15 ar 
    16   14   16 ar 
    17   18   17 1  
    18   19   18 1  
    19   18   21 1  
    20   19   20 2  
    21   24   19 am 
    22   21   22 1  
    23   21   23 1  
    24   25   24 1  
    25   25   26 1  
    26   32   25 1  
    27   26   27 1  
    28   27   28 1  
    29   28   29 1  
    30   29   30 1  
    31   30   31 1  
    32   32   33 2  
    33   34   32 am 
    34   35   34 1  
    35   36   35 1  
    36   35   38 1  
    37   36   37 2  
    38   43   36 am 
    39   38   39 1  
    40   39   40 1  
    41   40   41 2  
    42   40   42 am 
    43   44   43 1  
    44   45   44 1  
    45   44   47 1  
    46   45   46 2  
    47   50   45 am 
    48   47   48 1  
    49   47   49 1  
    50   51   50 1  
    51   52   51 1  
    52   51   54 1  
    53   52   53 2  
    54   55   52 am 
    55   56   55 1  
    56   57   56 1  
    57   56   59 1  
    58   57   58 2  
    59   66   57 am 
    60   59   60 1  
    61   60   61 1  
    62   61   62 1  
    63   62   63 ar 
    64   63   64 ar 
    65   63   65 ar 
    66   67   66 1  
    67   68   67 1  
    68   67   70 1  
    69   68   69 2  
    70   75   68 am 
    71   70   71 1  
    72   71   72 1  
    73   72   73 1  
    74   73   74 1  
    75   76   75 1  
    76   77   76 1  
    77   76   79 1  
    78   77   78 2  
    79   81   77 am 
    80   79   80 1  
    81   82   81 1  
    82   83   82 1  
    83   82   85 1  
    84   83   84 2  
    85   88   83 am 
    86   85   86 1  
    87   85   87 1  
    88   89   88 1  
    89   90   89 1  
    90   90   91 2  
    91   92   90 am 
    92   93   92 1  
    93   94   93 1  
    94   94   95 2  
    95  105   94 am 
    96   97   96 2  
    97   97   98 1  
    98   99   97 am 
    99  100   99 1  
   100  101  100 1  
   101  102  101 1  
   102  103  102 1  
   103  104  103 1  
   104  104  105 1  
   105  104  106 1  
   106  106  107 2  
   107  106  108 am 
   108  108  109 1  
   109  109  110 1  
   110  109  112 1  
   111  110  111 ar 
   112  110  113 ar 
   113    1  114 1  
   114    1  115 1  
   115    1  116 1  
   116    2  117 1  
   117    5  118 1  
   118    5  119 1  
   119    5  120 1  
   120    6  121 1  
   121    7  122 1  
   122   10  123 1  
   123   10  124 1  
   124   11  125 1  
   125   11  126 1  
   126   12  127 1  
   127   12  128 1  
   128   13  129 1  
   129   15  130 1  
   130   15  131 1  
   131   16  132 1  
   132   16  133 1  
   133   17  134 1  
   134   18  135 1  
   135   21  136 1  
   136   22  137 1  
   137   23  138 1  
   138   23  139 1  
   139   23  140 1  
   140   24  141 1  
   141   25  142 1  
   142   26  143 1  
   143   26  144 1  
   144   27  145 1  
   145   27  146 1  
   146   28  147 1  
   147   28  148 1  
   148   29  149 1  
   149   29  150 1  
   150   30  151 1  
   151   30  152 1  
   152   31  153 1  
   153   31  154 1  
   154   31  155 1  
   155   34  156 1  
   156   35  157 1  
   157   38  158 1  
   158   38  159 1  
   159   39  160 1  
   160   39  161 1  
   161   42  162 1  
   162   42  163 1  
   163   43  164 1  
   164   44  165 1  
   165   47  166 1  
   166   48  167 1  
   167   49  168 1  
   168   49  169 1  
   169   49  170 1  
   170   50  171 1  
   171   51  172 1  
   172   54  173 1  
   173   54  174 1  
   174   54  175 1  
   175   55  176 1  
   176   56  177 1  
   177   59  178 1  
   178   59  179 1  
   179   60  180 1  
   180   60  181 1  
   181   61  182 1  
   182   61  183 1  
   183   62  184 1  
   184   64  185 1  
   185   64  186 1  
   186   65  187 1  
   187   65  188 1  
   188   66  189 1  
   189   67  190 1  
   190   70  191 1  
   191   70  192 1  
   192   71  193 1  
   193   71  194 1  
   194   72  195 1  
   195   72  196 1  
   196   73  197 1  
   197   73  198 1  
   198   74  199 1  
   199   74  200 1  
   200   74  201 1  
   201   75  202 1  
   202   76  203 1  
   203   79  204 1  
   204   79  205 1  
   205   80  206 1  
   206   81  207 1  
   207   82  208 1  
   208   85  209 1  
   209   86  210 1  
   210   87  211 1  
   211   87  212 1  
   212   87  213 1  
   213   88  214 1  
   214   89  215 1  
   215   89  216 1  
   216   92  217 1  
   217   93  218 1  
   218   93  219 1  
   219   98  220 1  
   220   98  221 1  
   221   98  222 1  
   222   99  223 1  
   223  100  224 1  
   224  100  225 1  
   225  101  226 1  
   226  101  227 1  
   227  102  228 1  
   228  102  229 1  
   229  103  230 1  
   230  103  231 1  
   231  104  232 1  
   232  105  233 1  
   233  108  234 1  
   234  109  235 1  
   235  112  236 1  
   236  112  237 1  
   237  112  238 1  
@<TRIPOS>SUBSTRUCTURE
     1 ALA         1

