5szc_ligand
  -I-interpret- 

237236  0  0  0  0  0  0  0  0999 V2000
   -5.2170   31.2960   80.3250 N   0  3  0  0  0
   -3.7480   31.0400   80.4630 C   0  0  0  0  0
   -3.3430   29.7530   79.7830 C   0  0  0  0  0
   -4.1440   28.8440   79.6050 O   0  0  0  0  0
   -3.3530   30.9760   81.9220 C   0  0  0  0  0
   -2.0790   29.6800   79.4150 N   0  0  0  0  0
   -1.5320   28.5190   78.7370 C   0  0  0  0  0
   -0.6550   27.7320   79.7000 C   0  0  0  0  0
    0.1330   28.3130   80.4480 O   0  0  0  0  0
   -0.6820   28.9560   77.5490 C   0  0  0  0  0
   -1.4410   29.6750   76.4550 C   0  0  0  0  0
   -0.4810   30.1010   75.3860 C   0  0  0  0  0
    0.4780   31.0380   75.9450 N   0  0  0  0  0
    1.7660   31.0680   75.6280 C   0  0  0  0  0
    2.2820   30.2090   74.7550 N   0  0  0  0  0
    2.5590   31.9610   76.1870 N   0  0  0  0  0
   -0.7640   26.4080   79.6530 N   0  0  0  0  0
    0.2670   25.5350   80.1920 C   0  0  0  0  0
    0.8960   24.7730   79.0450 C   0  0  0  0  0
    0.3970   24.8230   77.9170 O   0  0  0  0  0
   -0.2880   24.5080   81.1640 C   0  0  0  0  0
   -1.1670   23.6240   80.4570 O   0  0  0  0  0
   -1.0220   25.1910   82.3200 C   0  0  0  0  0
    1.9730   24.0430   79.3100 N   0  0  0  0  0
    2.5640   23.2210   78.2870 C   0  0  0  0  0
    3.7210   22.4350   78.8930 C   0  0  0  0  0
    4.3180   21.5890   77.7810 C   0  0  0  0  0
    5.5410   20.7940   78.2190 C   0  0  0  0  0
    6.7290   21.7020   78.5160 C   0  0  0  0  0
    8.0130   21.0500   78.2840 N   0  3  0  0  0
    8.0840   19.7570   78.9460 C   0  0  0  0  0
    1.4850   22.2930   77.7200 C   0  0  0  0  0
    1.4080   22.0900   76.4890 O   0  0  0  0  0
    0.6880   21.7010   78.5930 N   0  0  0  0  0
   -0.3260   20.7810   78.1370 C   0  0  0  0  0
   -1.3500   21.4700   77.2370 C   0  0  0  0  0
   -1.6620   20.9650   76.1600 O   0  0  0  0  0
   -1.0000   20.1300   79.3360 C   0  0  0  0  0
   -2.0880   19.1260   78.9840 C   0  0  0  0  0
   -2.5900   18.3540   80.2040 C   0  0  0  0  0
   -1.8290   17.6680   80.8710 O   0  0  0  0  0
   -3.8880   18.4420   80.4700 N   0  0  0  0  0
   -1.8960   22.6120   77.6550 N   0  0  0  0  0
   -2.8900   23.2510   76.7990 C   0  0  0  0  0
   -2.2510   23.7890   75.5300 C   0  0  0  0  0
   -2.8750   23.7700   74.4670 O   0  0  0  0  0
   -3.6750   24.3420   77.5460 C   0  0  0  0  0
   -2.8240   25.4590   77.8270 O   0  0  0  0  0
   -4.2860   23.7940   78.8370 C   0  0  0  0  0
   -0.9980   24.2320   75.6080 N   0  0  0  0  0
   -0.3210   24.7340   74.4230 C   0  0  0  0  0
   -0.0820   23.6230   73.4120 C   0  0  0  0  0
   -0.2170   23.8390   72.2020 O   0  0  0  0  0
    0.9880   25.3800   74.8470 C   0  0  0  0  0
    0.2890   22.4370   73.8820 N   0  0  0  0  0
    0.4380   21.2970   72.9850 C   0  0  0  0  0
   -0.8580   21.0230   72.2520 C   0  0  0  0  0
   -0.8590   20.7510   71.0470 O   0  0  0  0  0
    0.7970   20.0620   73.7980 C   0  0  0  0  0
    2.1410   19.4980   73.5220 C   0  0  0  0  0
    2.3160   18.2410   74.2850 C   0  0  0  0  0
    3.6890   18.0670   74.7210 N   0  0  0  0  0
    4.0760   17.9050   75.9840 C   0  0  0  0  0
    3.1990   17.8890   76.9800 N   0  0  0  0  0
    5.3630   17.7440   76.2470 N   0  0  0  0  0
   -1.9730   21.0780   72.9730 N   0  0  0  0  0
   -3.2550   20.6950   72.4050 C   0  0  0  0  0
   -3.7710   21.7180   71.4120 C   0  0  0  0  0
   -4.5420   21.3640   70.5170 O   0  0  0  0  0
   -4.2840   20.5130   73.5150 C   0  0  0  0  0
   -3.9940   19.3470   74.4130 C   0  0  0  0  0
   -4.9880   19.3080   75.5330 C   0  0  0  0  0
   -4.8120   18.0620   76.3450 C   0  0  0  0  0
   -5.6780   18.1130   77.5350 N   0  3  0  0  0
   -3.3890   22.9810   71.5520 N   0  0  0  0  0
   -3.9010   24.0080   70.6570 C   0  0  0  0  0
   -2.9460   24.3200   69.5180 C   0  0  0  0  0
   -3.3200   25.0510   68.5950 O   0  0  0  0  0
   -4.2290   25.2850   71.4330 C   0  0  0  0  0
   -3.0760   25.8020   72.0620 O   0  0  0  0  0
   -1.7390   23.7730   69.5580 N   0  0  0  0  0
   -0.7540   23.9190   68.4950 C   0  0  0  0  0
   -0.4830   22.5290   67.9220 C   0  0  0  0  0
    0.5960   21.9600   68.1090 O   0  0  0  0  0
    0.5240   24.5630   69.0500 C   0  0  0  0  0
    1.2210   23.6090   69.8630 O   0  0  0  0  0
    0.1890   25.8010   69.8900 C   0  0  0  0  0
   -1.4790   21.9750   67.2290 N   0  0  0  0  0
   -1.3400   20.6440   66.6660 C   0  0  0  0  0
   -0.4780   20.5760   65.4240 C   0  0  0  0  0
    0.0120   19.4930   65.0810 O   0  0  0  0  0
   -0.2720   21.7050   64.7510 N   0  0  0  0  0
    0.4470   21.7250   63.4890 C   0  0  0  0  0
    1.9510   21.5850   63.6200 C   0  0  0  0  0
    2.6550   21.5030   62.6140 O   0  0  0  0  0
    8.1910   25.2680   68.5710 O   0  0  0  0  0
    8.7210   24.6930   67.6100 C   0  0  0  0  0
    9.6010   25.4790   66.6850 C   0  0  0  0  0
    8.5440   23.3510   67.3340 N   0  0  0  0  0
    7.7520   22.4420   68.1150 C   0  0  0  0  0
    6.2400   22.5730   67.9320 C   0  0  0  0  0
    5.8260   21.7980   66.7000 C   0  0  0  0  0
    4.3240   21.8250   66.5390 C   0  0  0  0  0
    3.8650   21.4620   65.1120 C   0  0  0  0  0
    2.4440   21.5480   64.8560 N   0  0  0  0  0
    4.3090   20.0400   64.8190 C   0  0  0  0  0
    3.7660   19.0450   65.3090 O   0  0  0  0  0
    5.3290   19.9440   63.9680 N   0  0  0  0  0
    5.8740   18.6550   63.5420 C   0  0  0  0  0
    6.0860   17.7310   64.7340 C   0  0  0  0  0
    6.8090   18.0690   65.6700 O   0  0  0  0  0
    7.1890   18.8570   62.7940 C   0  0  0  0  0
    5.5380   16.6310   64.7810 O   0  0  0  0  0
   -5.4626   31.3355   79.3358 H   0  0  0  0  0
   -5.7360   30.5424   80.7756 H   0  0  0  0  0
   -5.4495   32.1839   80.7700 H   0  0  0  0  0
   -3.2304   31.8684   79.9794 H   0  0  0  0  0
   -3.8582   30.1352   82.3973 H   0  0  0  0  0
   -2.2738   30.8440   81.9995 H   0  0  0  0  0
   -3.6434   31.9028   82.4167 H   0  0  0  0  0
   -1.4630   30.4682   79.6140 H   0  0  0  0  0
   -2.3571   27.8984   78.3874 H   0  0  0  0  0
   -0.2698   28.0500   77.1049 H   0  0  0  0  0
    0.0601   29.6565   77.9319 H   0  0  0  0  0
   -1.9379   30.5517   76.8704 H   0  0  0  0  0
   -2.1891   29.0064   76.0291 H   0  0  0  0  0
   -1.0286   30.5808   74.5749 H   0  0  0  0  0
    0.0453   29.2279   75.0002 H   0  0  0  0  0
    0.1389   31.7175   76.6259 H   0  0  0  0  0
    3.2756   30.2477   74.5278 H   0  0  0  0  0
    1.6844   29.5110   74.3122 H   0  0  0  0  0
    2.1819   32.6267   76.8615 H   0  0  0  0  0
   -1.5930   25.9931   79.2275 H   0  0  0  0  0
    0.9822   26.1639   80.7222 H   0  0  0  0  0
    0.5354   23.9359   81.5915 H   0  0  0  0  0
   -1.5213   22.9721   81.0662 H   0  0  0  0  0
   -0.3298   25.8418   82.8543 H   0  0  0  0  0
   -1.8478   25.7828   81.9252 H   0  0  0  0  0
   -1.4094   24.4332   83.0010 H   0  0  0  0  0
    2.3836   24.0649   80.2434 H   0  0  0  0  0
    2.9570   23.8286   77.4719 H   0  0  0  0  0
    3.3712   21.8044   79.7104 H   0  0  0  0  0
    4.4699   23.1104   79.3067 H   0  0  0  0  0
    4.6320   22.2647   76.9855 H   0  0  0  0  0
    3.5570   20.8753   77.4654 H   0  0  0  0  0
    5.8192   20.1191   77.4095 H   0  0  0  0  0
    5.2887   20.2507   79.1296 H   0  0  0  0  0
    6.6815   21.9790   79.5692 H   0  0  0  0  0
    6.6664   22.5615   77.8486 H   0  0  0  0  0
    8.7499   21.6460   78.6610 H   0  0  0  0  0
    8.1242   20.9049   77.2805 H   0  0  0  0  0
    7.9552   19.8925   80.0198 H   0  0  0  0  0
    7.2947   19.1102   78.5628 H   0  0  0  0  0
    9.0551   19.3026   78.7497 H   0  0  0  0  0
    0.7898   21.8946   79.5893 H   0  0  0  0  0
    0.1538   20.0089   77.5356 H   0  0  0  0  0
   -1.4762   20.9283   79.9052 H   0  0  0  0  0
   -0.2273   19.5845   79.8777 H   0  0  0  0  0
   -1.6671   18.4070   78.2812 H   0  0  0  0  0
   -2.9302   19.6764   78.5647 H   0  0  0  0  0
   -4.2837   17.9257   81.2556 H   0  0  0  0  0
   -4.4893   19.0259   79.8887 H   0  0  0  0  0
   -1.6268   23.0270   78.5471 H   0  0  0  0  0
   -3.6118   22.4872   76.5095 H   0  0  0  0  0
   -4.4911   24.6749   76.9047 H   0  0  0  0  0
   -3.3251   26.1324   78.2929 H   0  0  0  0  0
   -4.9659   22.9765   78.5972 H   0  0  0  0  0
   -3.4911   23.4284   79.4870 H   0  0  0  0  0
   -4.8348   24.5881   79.3433 H   0  0  0  0  0
   -0.5103   24.2192   76.5037 H   0  0  0  0  0
   -0.9515   25.4762   73.9334 H   0  0  0  0  0
    0.7808   26.2020   75.5321 H   0  0  0  0  0
    1.6129   24.6388   75.3452 H   0  0  0  0  0
    1.5057   25.7608   73.9666 H   0  0  0  0  0
    0.4712   22.3229   74.8791 H   0  0  0  0  0
    1.2219   21.5259   72.2630 H   0  0  0  0  0
    0.0725   19.2911   73.5355 H   0  0  0  0  0
    0.7912   20.3626   74.8457 H   0  0  0  0  0
    2.9045   20.2150   73.8236 H   0  0  0  0  0
    2.2362   19.2918   72.4559 H   0  0  0  0  0
    2.0522   17.4053   73.6368 H   0  0  0  0  0
    1.6773   18.2821   75.1673 H   0  0  0  0  0
    4.4141   18.0690   74.0036 H   0  0  0  0  0
    3.5188   17.7534   77.9390 H   0  0  0  0  0
    2.2052   18.0123   76.7865 H   0  0  0  0  0
    6.0430   17.7452   75.4867 H   0  0  0  0  0
   -1.9284   21.3944   73.9417 H   0  0  0  0  0
   -3.1021   19.7560   71.8730 H   0  0  0  0  0
   -5.2485   20.3302   73.0413 H   0  0  0  0  0
   -4.2659   21.4129   74.1298 H   0  0  0  0  0
   -2.9906   19.4514   74.8257 H   0  0  0  0  0
   -4.0634   18.4237   73.8378 H   0  0  0  0  0
   -5.9945   19.3196   75.1147 H   0  0  0  0  0
   -4.8329   20.1749   76.1753 H   0  0  0  0  0
   -3.7717   17.9823   76.6605 H   0  0  0  0  0
   -5.0832   17.1970   75.7397 H   0  0  0  0  0
   -5.5523   17.2615   78.0822 H   0  0  0  0  0
   -5.4274   18.9230   78.1020 H   0  0  0  0  0
   -6.6520   18.1897   77.2421 H   0  0  0  0  0
   -2.7329   23.2335   72.2910 H   0  0  0  0  0
   -4.8136   23.6097   70.2136 H   0  0  0  0  0
   -4.9699   25.0503   72.1972 H   0  0  0  0  0
   -4.6121   26.0302   70.7359 H   0  0  0  0  0
   -3.3057   26.6012   72.5417 H   0  0  0  0  0
   -1.4866   23.2202   70.3772 H   0  0  0  0  0
   -1.1227   24.5715   67.7035 H   0  0  0  0  0
    1.1515   24.8709   68.2136 H   0  0  0  0  0
    2.0207   24.0104   70.2109 H   0  0  0  0  0
   -0.3314   26.5300   69.2689 H   0  0  0  0  0
   -0.4497   25.5106   70.7241 H   0  0  0  0  0
    1.1108   26.2395   70.2721 H   0  0  0  0  0
   -2.3477   22.4920   67.0931 H   0  0  0  0  0
   -2.3382   20.3121   66.3805 H   0  0  0  0  0
   -0.8583   20.0256   67.4234 H   0  0  0  0  0
   -0.6290   22.5813   65.1319 H   0  0  0  0  0
    0.2558   22.6941   63.0282 H   0  0  0  0  0
    0.0965   20.8715   62.9086 H   0  0  0  0  0
    9.0237   26.2868   66.2353 H   0  0  0  0  0
   10.4359   25.8969   67.2475 H   0  0  0  0  0
    9.9810   24.8228   65.9020 H   0  0  0  0  0
    9.0132   22.9756   66.5098 H   0  0  0  0  0
    7.9609   22.6647   69.1614 H   0  0  0  0  0
    8.0202   21.4362   67.7917 H   0  0  0  0  0
    5.9729   23.6231   67.8136 H   0  0  0  0  0
    5.7271   22.1745   68.8074 H   0  0  0  0  0
    6.1526   20.7635   66.8056 H   0  0  0  0  0
    6.2848   22.2548   65.8231 H   0  0  0  0  0
    3.9855   22.8396   66.7490 H   0  0  0  0  0
    3.9033   21.0864   67.2214 H   0  0  0  0  0
    4.3224   22.2102   64.4647 H   0  0  0  0  0
    1.8002   21.5813   65.6464 H   0  0  0  0  0
    5.7449   20.7996   63.6002 H   0  0  0  0  0
    5.1526   18.1879   62.8716 H   0  0  0  0  0
    7.1658   18.9434   65.4977 H   0  0  0  0  0
    7.0141   19.4779   61.9154 H   0  0  0  0  0
    7.9072   19.3482   63.4505 H   0  0  0  0  0
    7.5815   17.8886   62.4838 H   0  0  0  0  0
  2  1  1  0  0  0
  3  2  1  0  0  0
  2  5  1  0  0  0
  3  4  2  0  0  0
  6  3  1  0  0  0
  7  6  1  0  0  0
  8  7  1  0  0  0
  7 10  1  0  0  0
  8  9  2  0  0  0
 17  8  1  0  0  0
 10 11  1  0  0  0
 11 12  1  0  0  0
 12 13  1  0  0  0
 13 14  1  0  0  0
 14 15  1  0  0  0
 14 16  2  0  0  0
 18 17  1  0  0  0
 19 18  1  0  0  0
 18 21  1  0  0  0
 19 20  2  0  0  0
 24 19  1  0  0  0
 21 22  1  0  0  0
 21 23  1  0  0  0
 25 24  1  0  0  0
 25 26  1  0  0  0
 32 25  1  0  0  0
 26 27  1  0  0  0
 27 28  1  0  0  0
 28 29  1  0  0  0
 29 30  1  0  0  0
 30 31  1  0  0  0
 32 33  2  0  0  0
 34 32  1  0  0  0
 35 34  1  0  0  0
 36 35  1  0  0  0
 35 38  1  0  0  0
 36 37  2  0  0  0
 43 36  1  0  0  0
 38 39  1  0  0  0
 39 40  1  0  0  0
 40 41  2  0  0  0
 40 42  1  0  0  0
 44 43  1  0  0  0
 45 44  1  0  0  0
 44 47  1  0  0  0
 45 46  2  0  0  0
 50 45  1  0  0  0
 47 48  1  0  0  0
 47 49  1  0  0  0
 51 50  1  0  0  0
 52 51  1  0  0  0
 51 54  1  0  0  0
 52 53  2  0  0  0
 55 52  1  0  0  0
 56 55  1  0  0  0
 57 56  1  0  0  0
 56 59  1  0  0  0
 57 58  2  0  0  0
 66 57  1  0  0  0
 59 60  1  0  0  0
 60 61  1  0  0  0
 61 62  1  0  0  0
 62 63  1  0  0  0
 63 64  1  0  0  0
 63 65  2  0  0  0
 67 66  1  0  0  0
 68 67  1  0  0  0
 67 70  1  0  0  0
 68 69  2  0  0  0
 75 68  1  0  0  0
 70 71  1  0  0  0
 71 72  1  0  0  0
 72 73  1  0  0  0
 73 74  1  0  0  0
 76 75  1  0  0  0
 77 76  1  0  0  0
 76 79  1  0  0  0
 77 78  2  0  0  0
 81 77  1  0  0  0
 79 80  1  0  0  0
 82 81  1  0  0  0
 83 82  1  0  0  0
 82 85  1  0  0  0
 83 84  2  0  0  0
 88 83  1  0  0  0
 85 86  1  0  0  0
 85 87  1  0  0  0
 89 88  1  0  0  0
 90 89  1  0  0  0
 90 91  2  0  0  0
 92 90  1  0  0  0
 93 92  1  0  0  0
 94 93  1  0  0  0
 94 95  2  0  0  0
105 94  1  0  0  0
 97 96  2  0  0  0
 97 98  1  0  0  0
 99 97  1  0  0  0
100 99  1  0  0  0
101100  1  0  0  0
102101  1  0  0  0
103102  1  0  0  0
104103  1  0  0  0
104105  1  0  0  0
104106  1  0  0  0
106107  2  0  0  0
106108  1  0  0  0
108109  1  0  0  0
109110  1  0  0  0
109112  1  0  0  0
110111  1  0  0  0
110113  2  0  0  0
  1114  1  0  0  0
  1115  1  0  0  0
  1116  1  0  0  0
  2117  1  0  0  0
  5118  1  0  0  0
  5119  1  0  0  0
  5120  1  0  0  0
  6121  1  0  0  0
  7122  1  0  0  0
 10123  1  0  0  0
 10124  1  0  0  0
 11125  1  0  0  0
 11126  1  0  0  0
 12127  1  0  0  0
 12128  1  0  0  0
 13129  1  0  0  0
 15130  1  0  0  0
 15131  1  0  0  0
 16132  1  0  0  0
 17133  1  0  0  0
 18134  1  0  0  0
 21135  1  0  0  0
 22136  1  0  0  0
 23137  1  0  0  0
 23138  1  0  0  0
 23139  1  0  0  0
 24140  1  0  0  0
 25141  1  0  0  0
 26142  1  0  0  0
 26143  1  0  0  0
 27144  1  0  0  0
 27145  1  0  0  0
 28146  1  0  0  0
 28147  1  0  0  0
 29148  1  0  0  0
 29149  1  0  0  0
 30150  1  0  0  0
 30151  1  0  0  0
 31152  1  0  0  0
 31153  1  0  0  0
 31154  1  0  0  0
 34155  1  0  0  0
 35156  1  0  0  0
 38157  1  0  0  0
 38158  1  0  0  0
 39159  1  0  0  0
 39160  1  0  0  0
 42161  1  0  0  0
 42162  1  0  0  0
 43163  1  0  0  0
 44164  1  0  0  0
 47165  1  0  0  0
 48166  1  0  0  0
 49167  1  0  0  0
 49168  1  0  0  0
 49169  1  0  0  0
 50170  1  0  0  0
 51171  1  0  0  0
 54172  1  0  0  0
 54173  1  0  0  0
 54174  1  0  0  0
 55175  1  0  0  0
 56176  1  0  0  0
 59177  1  0  0  0
 59178  1  0  0  0
 60179  1  0  0  0
 60180  1  0  0  0
 61181  1  0  0  0
 61182  1  0  0  0
 62183  1  0  0  0
 64184  1  0  0  0
 64185  1  0  0  0
 65186  1  0  0  0
 66187  1  0  0  0
 67188  1  0  0  0
 70189  1  0  0  0
 70190  1  0  0  0
 71191  1  0  0  0
 71192  1  0  0  0
 72193  1  0  0  0
 72194  1  0  0  0
 73195  1  0  0  0
 73196  1  0  0  0
 74197  1  0  0  0
 74198  1  0  0  0
 74199  1  0  0  0
 75200  1  0  0  0
 76201  1  0  0  0
 79202  1  0  0  0
 79203  1  0  0  0
 80204  1  0  0  0
 81205  1  0  0  0
 82206  1  0  0  0
 85207  1  0  0  0
 86208  1  0  0  0
 87209  1  0  0  0
 87210  1  0  0  0
 87211  1  0  0  0
 88212  1  0  0  0
 89213  1  0  0  0
 89214  1  0  0  0
 92215  1  0  0  0
 93216  1  0  0  0
 93217  1  0  0  0
 98218  1  0  0  0
 98219  1  0  0  0
 98220  1  0  0  0
 99221  1  0  0  0
100222  1  0  0  0
100223  1  0  0  0
101224  1  0  0  0
101225  1  0  0  0
102226  1  0  0  0
102227  1  0  0  0
103228  1  0  0  0
103229  1  0  0  0
104230  1  0  0  0
105231  1  0  0  0
108232  1  0  0  0
109233  1  0  0  0
111234  1  0  0  0
112235  1  0  0  0
112236  1  0  0  0
112237  1  0  0  0
M  END
$$$$
