5zah_ligand
  -I-interpret- 

 50 52  0  0  0  0  0  0  0  0999 V2000
    0.3150   27.6730   -0.9790 C   0  0  0  0  0
   -2.7080   32.4290    4.2900 O   0  0  0  0  0
   -1.1210   35.0650   -4.8810 O   0  0  0  0  0
   -1.0700   35.0040   -3.6600 C   0  0  0  0  0
   -1.2220   36.0460   -2.8250 N   0  0  0  0  0
   -1.4590   37.3340   -3.1120 C   0  0  0  0  0
   -1.5730   37.7880   -4.3580 N   0  0  0  0  0
   -1.5660   38.1330   -2.1450 N   0  0  0  0  0
   -0.7370   33.6990   -2.9980 C   0  0  0  0  0
   -1.0330   33.5420   -1.6880 N   0  0  0  0  0
   -0.7420   32.4160   -0.9970 C   0  0  0  0  0
   -1.2070   32.4190    0.4300 C   0  0  0  0  0
   -0.6830   33.2650    1.3920 C   0  0  0  0  0
   -2.2820   31.6020    0.8210 C   0  0  0  0  0
   -2.7560   31.6070    2.0770 N   0  0  0  0  0
   -2.2150   32.4290    3.0040 C   0  0  0  0  0
   -1.1880   33.2470    2.6480 N   0  0  0  0  0
   -1.9090   32.0740    5.4240 C   0  0  0  0  0
   -0.1380   31.3640   -1.6900 C   0  0  0  0  0
    0.1710   31.5220   -2.9900 N   0  0  0  0  0
   -0.1120   32.6560   -3.6640 C   0  0  0  0  0
    0.2300   32.7300   -4.9750 N   0  0  0  0  0
    0.2930   30.1630   -1.1220 N   0  0  0  0  0
    0.1400   28.9120   -1.8750 C   0  0  0  0  0
    1.7780   27.2980   -0.7340 C   0  0  0  0  0
    2.4080   28.1300    0.3780 C   0  0  0  0  0
    2.4230   29.6050   -0.0070 C   0  0  0  0  0
    1.0440   30.2510    0.1540 C   0  0  0  0  0
   -0.1579   26.8323   -1.4868 H   0  0  0  0  0
   -0.1304   27.9033   -0.0112 H   0  0  0  0  0
   -1.4796   37.1461   -5.1452 H   0  0  0  0  0
   -1.7537   38.7778   -4.5256 H   0  0  0  0  0
   -1.4724   37.7914   -1.1885 H   0  0  0  0  0
    0.1325   33.9427    1.1395 H   0  0  0  0  0
   -2.7439   30.9457    0.0834 H   0  0  0  0  0
   -1.5493   31.0516    5.3077 H   0  0  0  0  0
   -1.0597   32.7534    5.4954 H   0  0  0  0  0
   -2.5119   32.1477    6.3291 H   0  0  0  0  0
    0.0282   33.5761   -5.5077 H   0  0  0  0  0
    0.6889   31.9395   -5.4278 H   0  0  0  0  0
   -0.8654   28.8887   -2.2955 H   0  0  0  0  0
    0.9078   28.8841   -2.6482 H   0  0  0  0  0
    2.3340   27.4839   -1.6529 H   0  0  0  0  0
    1.8139   26.2503   -0.4353 H   0  0  0  0  0
    3.4326   27.7936    0.5367 H   0  0  0  0  0
    1.8230   28.0064    1.2894 H   0  0  0  0  0
    2.7165   29.6821   -1.0539 H   0  0  0  0  0
    3.1218   30.1227    0.6500 H   0  0  0  0  0
    0.4906   29.7274    0.9336 H   0  0  0  0  0
    1.1677   31.2991    0.4267 H   0  0  0  0  0
 24  1  1  0  0  0
  1 25  1  0  0  0
 16  2  1  0  0  0
  2 18  1  0  0  0
  4  3  2  0  0  0
  4  5  1  0  0  0
  9  4  1  0  0  0
  5  6  4  0  0  0
  6  7  1  0  0  0
  6  8  2  0  0  0
 10  9  4  0  0  0
 21  9  4  0  0  0
 11 10  4  0  0  0
 11 12  1  0  0  0
 19 11  4  0  0  0
 12 13  4  0  0  0
 12 14  4  0  0  0
 13 17  4  0  0  0
 14 15  4  0  0  0
 15 16  4  0  0  0
 17 16  4  0  0  0
 19 20  4  0  0  0
 23 19  1  0  0  0
 20 21  4  0  0  0
 21 22  1  0  0  0
 23 24  1  0  0  0
 23 28  1  0  0  0
 25 26  1  0  0  0
 26 27  1  0  0  0
 27 28  1  0  0  0
  1 29  1  0  0  0
  1 30  1  0  0  0
  7 31  1  0  0  0
  7 32  1  0  0  0
  8 33  1  0  0  0
 13 34  1  0  0  0
 14 35  1  0  0  0
 18 36  1  0  0  0
 18 37  1  0  0  0
 18 38  1  0  0  0
 22 39  1  0  0  0
 22 40  1  0  0  0
 24 41  1  0  0  0
 24 42  1  0  0  0
 25 43  1  0  0  0
 25 44  1  0  0  0
 26 45  1  0  0  0
 26 46  1  0  0  0
 27 47  1  0  0  0
 27 48  1  0  0  0
 28 49  1  0  0  0
 28 50  1  0  0  0
M  END
$$$$
