### 
### Created by X-TOOL on Wed Jan  1 15:39:35 2020
### 

@<TRIPOS>MOLECULE
5zah_ligand
   52    54     1     0     0
SMALL
GAST_HUCK


@<TRIPOS>ATOM
      1 C10         0.3150   27.6730   -0.9790 C.3       1 30I        -0.0321
      2 O2         -2.7080   32.4290    4.2900 O.3       1 30I        -0.2808
      3 O1         -1.1210   35.0650   -4.8810 O.2       1 30I        -0.3893
      4 C2         -1.0700   35.0040   -3.6600 C.2       1 30I         0.2152
      5 N3         -1.2220   36.0460   -2.8250 N.am      1 30I        -0.2246
      6 C1         -1.4590   37.3340   -3.1120 C.cat     1 30I         0.3257
      7 N2         -1.5730   37.7880   -4.3580 N.pl3     1 30I        -0.2544
      8 N1         -1.5660   38.1330   -2.1450 N.pl3     1 30I        -0.2544
      9 C3         -0.7370   33.6990   -2.9980 C.ar      1 30I         0.1526
     10 N7         -1.0330   33.5420   -1.6880 N.ar      1 30I        -0.2733
     11 C12        -0.7420   32.4160   -0.9970 C.ar      1 30I         0.0991
     12 C13        -1.2070   32.4190    0.4300 C.ar      1 30I         0.0362
     13 C14        -0.6830   33.2650    1.3920 C.ar      1 30I         0.0252
     14 C16        -2.2820   31.6020    0.8210 C.ar      1 30I         0.0252
     15 N9         -2.7560   31.6070    2.0770 N.ar      1 30I        -0.2410
     16 C15        -2.2150   32.4290    3.0040 C.ar      1 30I         0.2498
     17 N8         -1.1880   33.2470    2.6480 N.ar      1 30I        -0.2410
     18 C17        -1.9090   32.0740    5.4240 C.3       1 30I         0.0679
     19 C5         -0.1380   31.3640   -1.6900 C.ar      1 30I         0.1433
     20 N5          0.1710   31.5220   -2.9900 N.ar      1 30I        -0.2410
     21 C4         -0.1120   32.6560   -3.6640 C.ar      1 30I         0.1437
     22 N4          0.2300   32.7300   -4.9750 N.pl3     1 30I        -0.3144
     23 N6          0.2930   30.1630   -1.1220 N.pl3     1 30I        -0.2860
     24 C11         0.1400   28.9120   -1.8750 C.3       1 30I         0.0329
     25 C9          1.7780   27.2980   -0.7340 C.3       1 30I        -0.0511
     26 C8          2.4080   28.1300    0.3780 C.3       1 30I        -0.0511
     27 C7          2.4230   29.6050   -0.0070 C.3       1 30I        -0.0321
     28 C6          1.0440   30.2510    0.1540 C.3       1 30I         0.0329
     29 H1         -0.1866   26.8210   -1.4612 H         1 30I         0.0285
     30 H2         -0.1596   27.8760   -0.0076 H         1 30I         0.0285
     31 H3         -1.1478   35.8300   -1.8514 H         1 30I         0.1846
     32 H4         -1.7555   38.7875   -4.5273 H         1 30I         0.3199
     33 H5         -1.4787   37.1398   -5.1529 H         1 30I         0.3199
     34 H6         -1.4786   37.7869   -1.1788 H         1 30I         0.3199
     35 H7         -1.7409   39.1328   -2.3200 H         1 30I         0.3199
     36 H8          0.1281   33.9389    1.1409 H         1 30I         0.0903
     37 H9         -2.7413   30.9493    0.0874 H         1 30I         0.0903
     38 H10        -2.5164   32.1480    6.3381 H         1 30I         0.0591
     39 H11        -1.0514   32.7590    5.4973 H         1 30I         0.0591
     40 H12        -1.5454   31.0424    5.3079 H         1 30I         0.0591
     41 H13         0.6934   31.9318   -5.4322 H         1 30I         0.1817
     42 H14         0.0262   33.5844   -5.5130 H         1 30I         0.1817
     43 H15        -0.8647   28.8876   -2.3221 H         1 30I         0.0528
     44 H16         0.8971   28.8830   -2.6725 H         1 30I         0.0528
     45 H17         2.3454   27.4600   -1.6623 H         1 30I         0.0266
     46 H18         1.8291   26.2356   -0.4537 H         1 30I         0.0266
     47 H19         3.4401   27.7886    0.5461 H         1 30I         0.0266
     48 H20         1.8244   28.0022    1.3016 H         1 30I         0.0266
     49 H21         2.7376   29.6953   -1.0572 H         1 30I         0.0285
     50 H22         3.1407   30.1336    0.6376 H         1 30I         0.0285
     51 H23         0.4853   29.7262    0.9429 H         1 30I         0.0528
     52 H24         1.1668   31.3080    0.4328 H         1 30I         0.0528
@<TRIPOS>BOND
     1   24    1 1  
     2    1   25 1  
     3   16    2 1  
     4    2   18 1  
     5    4    3 2  
     6    4    5 am 
     7    9    4 1  
     8    5    6 ar 
     9    6    7 ar 
    10    6    8 ar 
    11   10    9 ar 
    12   21    9 ar 
    13   11   10 ar 
    14   11   12 1  
    15   19   11 ar 
    16   12   13 ar 
    17   12   14 ar 
    18   13   17 ar 
    19   14   15 ar 
    20   15   16 ar 
    21   17   16 ar 
    22   19   20 ar 
    23   23   19 1  
    24   20   21 ar 
    25   21   22 1  
    26   23   24 1  
    27   23   28 1  
    28   25   26 1  
    29   26   27 1  
    30   27   28 1  
    31    1   29 1  
    32    1   30 1  
    33    5   31 1  
    34    7   32 1  
    35    7   33 1  
    36    8   34 1  
    37    8   35 1  
    38   13   36 1  
    39   14   37 1  
    40   18   38 1  
    41   18   39 1  
    42   18   40 1  
    43   22   41 1  
    44   22   42 1  
    45   24   43 1  
    46   24   44 1  
    47   25   45 1  
    48   25   46 1  
    49   26   47 1  
    50   26   48 1  
    51   27   49 1  
    52   27   50 1  
    53   28   51 1  
    54   28   52 1  
@<TRIPOS>SUBSTRUCTURE
     1 30I         1

