1if8_ligand
  -I-interpret- 

 47 49  0  0  0  0  0  0  0  0999 V2000
   -0.6930    8.1310   12.6340 C   0  0  0  0  0
   -1.3240    6.9590   13.4850 C   0  0  0  0  0
   -2.6530    6.4880   12.8880 C   0  0  0  0  0
   -2.9960    5.1670   13.5830 N   0  0  0  0  0
   -4.3520    5.1130   14.1120 C   0  0  0  0  0
   -5.0820    6.0970   13.9510 O   0  0  0  0  0
   -4.7640    3.9310   14.7890 C   0  0  0  0  0
   -3.8710    2.8290   14.9440 C   0  0  0  0  0
   -4.2720    1.6380   15.6340 C   0  0  0  0  0
   -5.6040    1.5140   16.2020 C   0  0  0  0  0
   -6.4850    2.6340   16.0310 C   0  0  0  0  0
   -6.0760    3.8090   15.3410 C   0  0  0  0  0
   -6.1150    0.2340   17.0070 S   0  0  0  0  0
   -5.5220    0.2440   18.3340 O   0  0  0  0  0
   -7.5440    0.3170   17.1290 O   0  0  0  0  0
   -5.8280   -1.1030   16.2890 N   0  0  0  0  0
    0.6010    8.4970   13.2440 N   0  0  0  0  0
    1.8200    7.8620   12.9560 C   0  0  0  0  0
    2.8840    8.5310   13.7870 C   0  0  0  0  0
    0.8390    9.4810   14.1640 C   0  0  0  0  0
   -0.0670   10.4270   14.7940 C   0  0  0  0  0
    0.4230   11.3670   15.7480 C   0  0  0  0  0
    1.8280   11.3810   16.0910 C   0  0  0  0  0
    2.7420   10.4390   15.4590 C   0  0  0  0  0
    2.2370    9.4860   14.4890 C   0  0  0  0  0
   -1.6060    7.4340   14.9370 C   0  0  0  0  0
   -0.5443    7.8086   11.6035 H   0  0  0  0  0
   -1.3615    8.9919   12.6271 H   0  0  0  0  0
   -0.6046    6.1401   13.4783 H   0  0  0  0  0
   -2.5709    6.3525   11.8096 H   0  0  0  0  0
   -3.4371    7.2283   13.0468 H   0  0  0  0  0
   -2.3348    4.3950   13.6677 H   0  0  0  0  0
   -2.8648    2.8939   14.5299 H   0  0  0  0  0
   -3.5670    0.8127   15.7342 H   0  0  0  0  0
   -7.4939    2.5830   16.4405 H   0  0  0  0  0
   -6.7793    4.6345   15.2311 H   0  0  0  0  0
   -6.6001   -1.7096   16.0128 H   0  0  0  0  0
   -4.8663   -1.3794   16.0911 H   0  0  0  0  0
    1.9690    7.0369   12.2594 H   0  0  0  0  0
    3.9477    8.2948   13.8154 H   0  0  0  0  0
   -1.1260   10.4179   14.5361 H   0  0  0  0  0
   -0.2605   12.0741   16.2181 H   0  0  0  0  0
    2.2031   12.0966   16.8226 H   0  0  0  0  0
    3.8017   10.4502   15.7141 H   0  0  0  0  0
   -2.3262    8.2520   14.9169 H   0  0  0  0  0
   -2.0119    6.6050   15.5167 H   0  0  0  0  0
   -0.6771    7.7771   15.3925 H   0  0  0  0  0
  1 17  1  0  0  0
  1  2  1  0  0  0
  2 26  1  0  0  0
  2  3  1  0  0  0
  3  4  1  0  0  0
  4  5  1  0  0  0
  5  7  1  0  0  0
  5  6  2  0  0  0
  7 12  4  0  0  0
  7  8  4  0  0  0
  8  9  4  0  0  0
  9 10  4  0  0  0
 10 13  1  0  0  0
 10 11  4  0  0  0
 11 12  4  0  0  0
 13 16  1  0  0  0
 13 15  2  0  0  0
 13 14  2  0  0  0
 17 20  4  0  0  0
 17 18  4  0  0  0
 18 19  4  0  0  0
 19 25  4  0  0  0
 25 24  4  0  0  0
 25 20  4  0  0  0
 20 21  4  0  0  0
 21 22  4  0  0  0
 22 23  4  0  0  0
 23 24  4  0  0  0
  1 27  1  0  0  0
  1 28  1  0  0  0
  2 29  1  0  0  0
  3 30  1  0  0  0
  3 31  1  0  0  0
  4 32  1  0  0  0
  8 33  1  0  0  0
  9 34  1  0  0  0
 11 35  1  0  0  0
 12 36  1  0  0  0
 16 37  1  0  0  0
 16 38  1  0  0  0
 18 39  1  0  0  0
 19 40  1  0  0  0
 21 41  1  0  0  0
 22 42  1  0  0  0
 23 43  1  0  0  0
 24 44  1  0  0  0
 26 45  1  0  0  0
 26 46  1  0  0  0
 26 47  1  0  0  0
M  END
$$$$
