3thd_ligand
  -I-interpret- 

 25 25  0  0  0  0  0  0  0  0999 V2000
   -4.4190   -7.8350    5.2890 C   0  0  0  0  0
   -3.4140   -6.6730    5.2510 C   0  0  0  0  0
   -2.6140   -6.7400    4.0530 O   0  0  0  0  0
   -2.5080   -6.5970    6.5100 C   0  0  0  0  0
   -1.9380   -5.2870    6.6210 O   0  0  0  0  0
   -3.4580   -6.7500    7.6340 C   0  0  0  0  0
   -4.3300   -5.7240    8.0280 O   0  0  0  0  0
   -4.0770   -8.1660    7.7290 C   0  0  0  0  0
   -5.0400   -8.0160    6.6280 N   0  3  0  0  0
   -4.8920   -8.5100    8.9820 C   0  0  0  0  0
   -4.0360   -8.5870   10.1780 O   0  0  0  0  0
   -3.8803   -8.7504    5.0443 H   0  0  0  0  0
   -5.2153   -7.6111    4.5792 H   0  0  0  0  0
   -4.0032   -5.7560    5.2453 H   0  0  0  0  0
   -3.1905   -6.7863    3.2868 H   0  0  0  0  0
   -1.7062   -7.3350    6.4844 H   0  0  0  0  0
   -1.3131   -5.1495    5.9054 H   0  0  0  0  0
   -2.7323   -6.5972    8.4328 H   0  0  0  0  0
   -3.8847   -4.8776    7.9448 H   0  0  0  0  0
   -3.3091   -8.9396    7.7224 H   0  0  0  0  0
   -5.5877   -8.8757    6.5902 H   0  0  0  0  0
   -5.5863   -7.1764    6.8205 H   0  0  0  0  0
   -5.3634   -9.4812    8.8315 H   0  0  0  0  0
   -5.6333   -7.7263    9.1377 H   0  0  0  0  0
   -4.5749   -8.8033   10.9425 H   0  0  0  0  0
  1  2  1  0  0  0
  1  9  1  0  0  0
  2  3  1  0  0  0
  2  4  1  0  0  0
  4  5  1  0  0  0
  4  6  1  0  0  0
  6  7  1  0  0  0
  6  8  1  0  0  0
  8  9  1  0  0  0
  8 10  1  0  0  0
 10 11  1  0  0  0
  1 12  1  0  0  0
  1 13  1  0  0  0
  2 14  1  0  0  0
  3 15  1  0  0  0
  4 16  1  0  0  0
  5 17  1  0  0  0
  6 18  1  0  0  0
  7 19  1  0  0  0
  8 20  1  0  0  0
  9 21  1  0  0  0
  9 22  1  0  0  0
 10 23  1  0  0  0
 10 24  1  0  0  0
 11 25  1  0  0  0
M  END
$$$$
