3p9j_ligand
  -I-interpret- 

 38 41  0  0  0  0  0  0  0  0999 V2000
   -4.1450   32.5710   -2.7070 C   0  0  0  0  0
   -4.7360   31.7560   -3.6920 N   0  0  0  0  0
   -3.3330   33.6120   -3.1020 C   0  0  0  0  0
   -2.7800   34.4710   -2.1670 C   0  0  0  0  0
   -1.9660   35.5130   -2.5950 C   0  0  0  0  0
   -1.7060   35.6810   -3.9500 C   0  0  0  0  0
   -2.2670   34.8080   -4.8800 C   0  0  0  0  0
   -3.0850   33.7690   -4.4510 C   0  0  0  0  0
   -3.6560   32.8600   -5.3420 C   0  0  0  0  0
   -4.4180   31.8590   -4.8780 N   0  0  0  0  0
   -5.4650   30.6480   -3.2870 C   0  0  0  0  0
   -5.9310   30.5560   -1.9870 C   0  0  0  0  0
   -6.6880   29.4630   -1.5970 C   0  0  0  0  0
   -7.0120   28.4720   -2.5080 C   0  0  0  0  0
   -6.5740   28.5790   -3.8200 C   0  0  0  0  0
   -5.8410   29.6900   -4.2170 C   0  0  0  0  0
   -3.4610   33.0220   -6.6490 N   0  0  0  0  0
   -3.9380   32.2420   -7.6230 C   0  0  0  0  0
   -4.7010   31.1590   -7.5050 C   0  0  0  0  0
   -4.9170   30.8030   -8.7680 C   0  0  0  0  0
   -4.3380   31.6670   -9.5930 N   0  0  0  0  0
   -3.7710   32.5290   -8.9150 N   0  0  0  0  0
   -5.7110   29.5880   -9.2360 C   0  0  0  0  0
   -4.3720   32.4190   -1.5080 O   0  0  0  0  0
   -2.9814   34.3311   -1.1049 H   0  0  0  0  0
   -1.5313   36.1988   -1.8678 H   0  0  0  0  0
   -1.0635   36.4953   -4.2850 H   0  0  0  0  0
   -2.0646   34.9396   -5.9429 H   0  0  0  0  0
   -4.7487   31.1524   -5.5351 H   0  0  0  0  0
   -5.7023   31.3440   -1.2695 H   0  0  0  0  0
   -7.0309   29.3827   -0.5655 H   0  0  0  0  0
   -7.6072   27.6136   -2.1965 H   0  0  0  0  0
   -6.8048   27.7923   -4.5383 H   0  0  0  0  0
   -5.5602   29.8095   -5.2634 H   0  0  0  0  0
   -5.0615   30.6799   -6.5947 H   0  0  0  0  0
   -5.2480   28.6811   -8.8469 H   0  0  0  0  0
   -6.7347   29.6611   -8.8689 H   0  0  0  0  0
   -5.7158   29.5563  -10.3255 H   0  0  0  0  0
  1  2  1  0  0  0
  1  3  1  0  0  0
  1 24  2  0  0  0
  2 10  1  0  0  0
  2 11  1  0  0  0
  3  4  4  0  0  0
  3  8  4  0  0  0
  4  5  4  0  0  0
  5  6  4  0  0  0
  6  7  4  0  0  0
  7  8  4  0  0  0
  8  9  1  0  0  0
  9 10  1  0  0  0
  9 17  2  0  0  0
 11 12  4  0  0  0
 11 16  4  0  0  0
 12 13  4  0  0  0
 13 14  4  0  0  0
 14 15  4  0  0  0
 15 16  4  0  0  0
 17 18  1  0  0  0
 18 19  4  0  0  0
 18 22  4  0  0  0
 19 20  4  0  0  0
 20 21  4  0  0  0
 20 23  1  0  0  0
 21 22  4  0  0  0
  4 25  1  0  0  0
  5 26  1  0  0  0
  6 27  1  0  0  0
  7 28  1  0  0  0
 10 29  1  0  0  0
 12 30  1  0  0  0
 13 31  1  0  0  0
 14 32  1  0  0  0
 15 33  1  0  0  0
 16 34  1  0  0  0
 19 35  1  0  0  0
 23 36  1  0  0  0
 23 37  1  0  0  0
 23 38  1  0  0  0
M  END
$$$$
