### 
### Created by X-TOOL on Mon Sep 10 21:12:55 2018
### 

@<TRIPOS>MOLECULE
2e9a_ligand
   45    47     1     0     0
SMALL
GAST_HUCK


@<TRIPOS>ATOM
      1 CAM        44.2630   33.4480   58.5960 C.ar      1 B28        -0.0540
      2 CAI        45.3090   32.6450   59.0410 C.ar      1 B28        -0.0612
      3 CAH        46.3600   33.2130   59.7520 C.ar      1 B28        -0.0617
      4 CAJ        46.3660   34.5780   60.0170 C.ar      1 B28        -0.0612
      5 CAN        45.3170   35.3760   59.5730 C.ar      1 B28        -0.0540
      6 CAW        44.2610   34.8150   58.8620 C.ar      1 B28        -0.0179
      7 CAX        43.2170   35.6100   58.3990 C.ar      1 B28        -0.0178
      8 CAQ        42.9500   36.8530   58.9680 C.ar      1 B28        -0.0534
      9 CAS        41.9190   37.6490   58.4780 C.ar      1 B28        -0.0536
     10 CAP        42.4350   35.1660   57.3380 C.ar      1 B28        -0.0534
     11 CAR        41.4060   35.9610   56.8480 C.ar      1 B28        -0.0536
     12 CAY        41.1460   37.2050   57.4110 C.ar      1 B28        -0.0195
     13 CAZ        40.1510   38.0040   56.8560 C.ar      1 B28        -0.0248
     14 CAT        40.3030   39.3850   56.7740 C.ar      1 B28        -0.0527
     15 CAO        39.0430   37.3940   56.2780 C.ar      1 B28        -0.0609
     16 CAK        38.0940   38.1670   55.6180 C.ar      1 B28        -0.0677
     17 CAL        38.2520   39.5470   55.5330 C.ar      1 B28        -0.0600
     18 CAV        39.3610   40.1590   56.1080 C.ar      1 B28        -0.0370
     19 CAU        39.6080   41.6530   55.8810 C.3       1 B28         0.0415
     20 CBA        38.9940   42.5280   56.9750 C.3       1 B28         0.2140
     21 PBB        39.7360   44.2330   56.8780 P.3       1 B28         0.1121
     22 OAD        39.2680   45.0010   58.2140 O.co2     1 B28        -0.5593
     23 OAE        41.3280   44.0040   56.9690 O.co2     1 B28        -0.5593
     24 OAA        39.3110   44.9280   55.6410 O.co2     1 B28        -0.5593
     25 PBC        37.1480   42.7140   56.7590 P.3       1 B28         0.1121
     26 OAF        36.4970   41.2590   56.9970 O.co2     1 B28        -0.5593
     27 OAG        36.6450   43.6400   57.9780 O.co2     1 B28        -0.5593
     28 OAB        36.7850   43.3160   55.4550 O.co2     1 B28        -0.5593
     29 OAC        39.3530   41.9700   58.2420 O.3       1 B28        -0.3579
     30 H1         43.4446   33.0066   58.0388 H         1 B28         0.0624
     31 H2         45.3042   31.5809   58.8340 H         1 B28         0.0618
     32 H3         47.1763   32.5906   60.1004 H         1 B28         0.0618
     33 H4         47.1876   35.0198   60.5692 H         1 B28         0.0618
     34 H5         45.3223   36.4397   59.7819 H         1 B28         0.0624
     35 H6         43.5505   37.2034   59.7997 H         1 B28         0.0624
     36 H7         41.7187   38.6147   58.9280 H         1 B28         0.0624
     37 H8         42.6287   34.1971   56.8921 H         1 B28         0.0624
     38 H9         40.8014   35.6083   56.0203 H         1 B28         0.0624
     39 H10        41.1625   39.8600   57.2330 H         1 B28         0.0560
     40 H11        38.9194   36.3190   56.3418 H         1 B28         0.0567
     41 H12        37.2288   37.6933   55.1685 H         1 B28         0.0600
     42 H13        37.5097   40.1460   55.0179 H         1 B28         0.0559
     43 H14        39.1683   41.9390   54.9141 H         1 B28         0.0483
     44 H15        40.6934   41.8302   55.8571 H         1 B28         0.0483
     45 H16        40.2994   41.9236   58.3096 H         1 B28         0.2134
@<TRIPOS>BOND
     1    1    2 ar 
     2    1    6 ar 
     3    2    3 ar 
     4    3    4 ar 
     5    4    5 ar 
     6    5    6 ar 
     7    6    7 1  
     8    7    8 ar 
     9    7   10 ar 
    10    8    9 ar 
    11    9   12 ar 
    12   10   11 ar 
    13   11   12 ar 
    14   12   13 1  
    15   13   14 ar 
    16   13   15 ar 
    17   14   18 ar 
    18   15   16 ar 
    19   16   17 ar 
    20   17   18 ar 
    21   18   19 1  
    22   19   20 1  
    23   20   21 1  
    24   20   25 1  
    25   20   29 1  
    26   21   22 ar 
    27   21   23 ar 
    28   21   24 ar 
    29   25   26 ar 
    30   25   27 ar 
    31   25   28 ar 
    32    1   30 1  
    33    2   31 1  
    34    3   32 1  
    35    4   33 1  
    36    5   34 1  
    37    8   35 1  
    38    9   36 1  
    39   10   37 1  
    40   11   38 1  
    41   14   39 1  
    42   15   40 1  
    43   16   41 1  
    44   17   42 1  
    45   19   43 1  
    46   19   44 1  
    47   29   45 1  
@<TRIPOS>SUBSTRUCTURE
     1 B28         1

