2e9a_ligand
  -I-interpret- 

 49 51  0  0  0  0  0  0  0  0999 V2000
   44.2630   33.4480   58.5960 C   0  0  0  0  0
   45.3090   32.6450   59.0410 C   0  0  0  0  0
   46.3600   33.2130   59.7520 C   0  0  0  0  0
   46.3660   34.5780   60.0170 C   0  0  0  0  0
   45.3170   35.3760   59.5730 C   0  0  0  0  0
   44.2610   34.8150   58.8620 C   0  0  0  0  0
   43.2170   35.6100   58.3990 C   0  0  0  0  0
   42.9500   36.8530   58.9680 C   0  0  0  0  0
   41.9190   37.6490   58.4780 C   0  0  0  0  0
   42.4350   35.1660   57.3380 C   0  0  0  0  0
   41.4060   35.9610   56.8480 C   0  0  0  0  0
   41.1460   37.2050   57.4110 C   0  0  0  0  0
   40.1510   38.0040   56.8560 C   0  0  0  0  0
   40.3030   39.3850   56.7740 C   0  0  0  0  0
   39.0430   37.3940   56.2780 C   0  0  0  0  0
   38.0940   38.1670   55.6180 C   0  0  0  0  0
   38.2520   39.5470   55.5330 C   0  0  0  0  0
   39.3610   40.1590   56.1080 C   0  0  0  0  0
   39.6080   41.6530   55.8810 C   0  0  0  0  0
   38.9940   42.5280   56.9750 C   0  0  0  0  0
   39.7360   44.2330   56.8780 P   0  0  0  0  0
   39.2680   45.0010   58.2140 O   0  0  0  0  0
   41.3280   44.0040   56.9690 O   0  0  0  0  0
   39.3110   44.9280   55.6410 O   0  0  0  0  0
   37.1480   42.7140   56.7590 P   0  0  0  0  0
   36.4970   41.2590   56.9970 O   0  0  0  0  0
   36.6450   43.6400   57.9780 O   0  0  0  0  0
   36.7850   43.3160   55.4550 O   0  0  0  0  0
   39.3530   41.9700   58.2420 O   0  0  0  0  0
   43.4401   33.0041   58.0357 H   0  0  0  0  0
   45.3042   31.5751   58.8329 H   0  0  0  0  0
   47.1808   32.5872   60.1024 H   0  0  0  0  0
   47.1921   35.0222   60.5722 H   0  0  0  0  0
   45.3223   36.4456   59.7830 H   0  0  0  0  0
   43.5538   37.2053   59.8043 H   0  0  0  0  0
   41.7176   38.6200   58.9304 H   0  0  0  0  0
   42.6298   34.1918   56.8896 H   0  0  0  0  0
   40.7980   35.6063   56.0157 H   0  0  0  0  0
   41.1672   39.8627   57.2356 H   0  0  0  0  0
   38.9187   36.3130   56.3421 H   0  0  0  0  0
   37.2240   37.6907   55.1660 H   0  0  0  0  0
   37.5056   40.1493   55.0151 H   0  0  0  0  0
   39.1440   41.9280   54.9338 H   0  0  0  0  0
   40.6854   41.8180   55.8870 H   0  0  0  0  0
   39.5669   44.5121   58.9842 H   0  0  0  0  0
   41.5387   43.5514   57.7890 H   0  0  0  0  0
   36.7687   40.9246   57.8549 H   0  0  0  0  0
   36.8905   43.2313   58.8113 H   0  0  0  0  0
   38.9767   42.5054   58.9444 H   0  0  0  0  0
  1  2  4  0  0  0
  1  6  4  0  0  0
  2  3  4  0  0  0
  3  4  4  0  0  0
  4  5  4  0  0  0
  5  6  4  0  0  0
  6  7  1  0  0  0
  7  8  4  0  0  0
  7 10  4  0  0  0
  8  9  4  0  0  0
  9 12  4  0  0  0
 10 11  4  0  0  0
 11 12  4  0  0  0
 12 13  1  0  0  0
 13 14  4  0  0  0
 13 15  4  0  0  0
 14 18  4  0  0  0
 15 16  4  0  0  0
 16 17  4  0  0  0
 17 18  4  0  0  0
 18 19  1  0  0  0
 19 20  1  0  0  0
 20 21  1  0  0  0
 20 25  1  0  0  0
 20 29  1  0  0  0
 21 22  1  0  0  0
 21 23  1  0  0  0
 21 24  2  0  0  0
 25 26  1  0  0  0
 25 27  1  0  0  0
 25 28  2  0  0  0
  1 30  1  0  0  0
  2 31  1  0  0  0
  3 32  1  0  0  0
  4 33  1  0  0  0
  5 34  1  0  0  0
  8 35  1  0  0  0
  9 36  1  0  0  0
 10 37  1  0  0  0
 11 38  1  0  0  0
 14 39  1  0  0  0
 15 40  1  0  0  0
 16 41  1  0  0  0
 17 42  1  0  0  0
 19 43  1  0  0  0
 19 44  1  0  0  0
 22 45  1  0  0  0
 23 46  1  0  0  0
 26 47  1  0  0  0
 27 48  1  0  0  0
 29 49  1  0  0  0
M  END
$$$$
