5q1d_ligand
  -I-interpret- 

 58 62  0  0  0  0  0  0  0  0999 V2000
   12.9460   24.4140    3.7270 N   0  0  0  0  0
   13.1570   26.0170    2.1670 N   0  0  0  0  0
   11.6940   25.0220    3.6200 C   0  0  0  0  0
   11.8470   26.0170    2.6540 C   0  0  0  0  0
   12.6090   22.0090    4.2060 C   0  0  0  0  0
   13.3610   23.2900    4.6110 C   0  0  0  0  0
   10.5080   24.7890    4.2800 C   0  0  0  0  0
    9.5650   26.5770    2.9830 C   0  0  0  0  0
   13.3030   23.6440    6.1110 C   0  0  0  0  0
   16.2360   25.3040    3.3130 C   0  0  0  0  0
   12.0710   20.7200    2.1650 C   0  0  0  0  0
   17.7960   23.8370    2.2570 C   0  0  0  0  0
   17.5450   24.8910    3.1150 C   0  0  0  0  0
   13.9280   25.0240    6.3810 C   0  0  0  0  0
   10.7360   20.7590    1.7790 C   0  0  0  0  0
    8.4820   27.3240    2.6980 F   0  0  0  0  0
   10.7540   26.8210    2.3140 C   0  0  0  0  0
   13.7730   25.0540    2.8370 C   0  0  0  0  0
   15.1840   24.6710    2.6510 C   0  0  0  0  0
   15.4730   23.6060    1.7990 C   0  0  0  0  0
   16.7760   23.1910    1.5990 C   0  0  0  0  0
   19.4320   23.3130    2.0040 Cl  0  0  0  0  0
   14.0190   22.5930    6.9700 C   0  0  0  0  0
   13.9530   22.9330    8.4620 C   0  0  0  0  0
   14.5450   24.3190    8.7450 C   0  0  0  0  0
   13.8690   25.4010    7.8720 C   0  0  0  0  0
   12.0460   21.2930    5.0280 O   0  0  0  0  0
   12.6390   21.7760    2.8820 N   0  0  0  0  0
   12.8570   19.6170    1.8300 C   0  0  0  0  0
   12.3030   18.5680    1.1140 C   0  0  0  0  0
   10.9740   18.6070    0.7330 C   0  0  0  0  0
   10.1920   19.6990    1.0630 C   0  0  0  0  0
    9.4510   25.5860    3.9350 C   0  0  0  0  0
    8.2660   25.3930    4.5510 F   0  0  0  0  0
   14.4214   23.0892    4.4584 H   0  0  0  0  0
   10.4163   24.0105    5.0374 H   0  0  0  0  0
   12.2485   23.6644    6.3860 H   0  0  0  0  0
   16.0274   26.1307    3.9921 H   0  0  0  0  0
   18.3654   25.3913    3.6295 H   0  0  0  0  0
   13.3657   25.7691    5.8182 H   0  0  0  0  0
   14.9748   24.9894    6.0791 H   0  0  0  0  0
   10.1175   21.6186    2.0372 H   0  0  0  0  0
   10.8337   27.6026    1.5585 H   0  0  0  0  0
   14.6604   23.0938    1.2837 H   0  0  0  0  0
   16.9927   22.3606    0.9270 H   0  0  0  0  0
   15.0671   22.5647    6.6721 H   0  0  0  0  0
   13.5264   21.6329    6.8163 H   0  0  0  0  0
   14.5303   22.1903    9.0127 H   0  0  0  0  0
   12.9080   22.9324    8.7719 H   0  0  0  0  0
   15.6097   24.2979    8.5125 H   0  0  0  0  0
   14.3777   24.5624    9.7942 H   0  0  0  0  0
   12.8239   25.4873    8.1695 H   0  0  0  0  0
   14.3956   26.3446    8.0149 H   0  0  0  0  0
   13.1456   22.4642    2.3251 H   0  0  0  0  0
   13.9041   19.5806    2.1307 H   0  0  0  0  0
   12.9178   17.7076    0.8497 H   0  0  0  0  0
   10.5430   17.7773    0.1728 H   0  0  0  0  0
    9.1452   19.7285    0.7605 H   0  0  0  0  0
  1  3  4  0  0  0
  1  6  1  0  0  0
 18  1  4  0  0  0
  2  4  4  0  0  0
 18  2  4  0  0  0
  4  3  4  0  0  0
  3  7  4  0  0  0
  4 17  4  0  0  0
  6  5  1  0  0  0
  5 27  2  0  0  0
  5 28  1  0  0  0
  6  9  1  0  0  0
  7 33  4  0  0  0
  8 16  1  0  0  0
 17  8  4  0  0  0
  8 33  4  0  0  0
  9 14  1  0  0  0
  9 23  1  0  0  0
 10 13  4  0  0  0
 19 10  4  0  0  0
 11 15  4  0  0  0
 28 11  1  0  0  0
 11 29  4  0  0  0
 13 12  4  0  0  0
 12 21  4  0  0  0
 12 22  1  0  0  0
 14 26  1  0  0  0
 15 32  4  0  0  0
 18 19  1  0  0  0
 19 20  4  0  0  0
 20 21  4  0  0  0
 23 24  1  0  0  0
 24 25  1  0  0  0
 25 26  1  0  0  0
 29 30  4  0  0  0
 30 31  4  0  0  0
 31 32  4  0  0  0
 33 34  1  0  0  0
  6 35  1  0  0  0
  7 36  1  0  0  0
  9 37  1  0  0  0
 10 38  1  0  0  0
 13 39  1  0  0  0
 14 40  1  0  0  0
 14 41  1  0  0  0
 15 42  1  0  0  0
 17 43  1  0  0  0
 20 44  1  0  0  0
 21 45  1  0  0  0
 23 46  1  0  0  0
 23 47  1  0  0  0
 24 48  1  0  0  0
 24 49  1  0  0  0
 25 50  1  0  0  0
 25 51  1  0  0  0
 26 52  1  0  0  0
 26 53  1  0  0  0
 28 54  1  0  0  0
 29 55  1  0  0  0
 30 56  1  0  0  0
 31 57  1  0  0  0
 32 58  1  0  0  0
M  END
$$$$
