1z34_ligand
  -I-interpret- 

 31 33  0  0  0  0  0  0  0  0999 V2000
  -19.1010  -42.6760   -5.7350 O   0  0  0  0  0
  -18.2610  -41.5530   -5.9760 C   0  0  0  0  0
  -16.8700  -41.7650   -5.3390 C   0  0  0  0  0
  -16.1410  -42.9610   -5.8020 O   0  0  0  0  0
  -15.2860  -42.6540   -6.9280 C   0  0  0  0  0
  -16.0250  -43.1800   -8.1550 N   0  0  0  0  0
  -16.7730  -42.5690   -9.1660 C   0  0  0  0  0
  -17.0560  -41.2300   -9.3320 N   0  0  0  0  0
  -17.8170  -40.9500  -10.4200 C   0  0  0  0  0
  -18.1340  -39.7110  -10.6520 F   0  0  0  0  0
  -18.2890  -41.8500  -11.3040 N   0  0  0  0  0
  -17.9980  -43.1690  -11.1210 C   0  0  0  0  0
  -18.4690  -44.0280  -11.9940 N   0  0  0  0  0
  -17.2010  -43.5740  -10.0040 C   0  0  0  0  0
  -16.7550  -44.7890   -9.5670 N   0  0  0  0  0
  -16.0910  -44.4690   -8.5030 C   0  0  0  0  0
  -15.1080  -41.1090   -6.8090 C   0  0  0  0  0
  -15.9100  -40.5960   -5.5770 C   0  0  0  0  0
  -15.1230  -40.4790   -4.4170 O   0  0  0  0  0
  -19.9590  -42.5248   -6.1382 H   0  0  0  0  0
  -18.7198  -40.6685   -5.5341 H   0  0  0  0  0
  -18.1404  -41.4277   -7.0520 H   0  0  0  0  0
  -17.1332  -41.8723   -4.2867 H   0  0  0  0  0
  -14.2936  -43.1017   -6.9801 H   0  0  0  0  0
  -19.0331  -43.7007  -12.7783 H   0  0  0  0  0
  -18.2710  -45.0230  -11.8883 H   0  0  0  0  0
  -15.5966  -45.2337   -7.9040 H   0  0  0  0  0
  -15.4783  -40.6269   -7.7137 H   0  0  0  0  0
  -14.0518  -40.8706   -6.6836 H   0  0  0  0  0
  -16.3455  -39.6138   -5.7607 H   0  0  0  0  0
  -15.6672  -40.1603   -3.6932 H   0  0  0  0  0
  1  2  1  0  0  0
  2  3  1  0  0  0
  3  4  1  0  0  0
  3 18  1  0  0  0
  4  5  1  0  0  0
  5  6  1  0  0  0
  5 17  1  0  0  0
  6  7  4  0  0  0
  6 16  4  0  0  0
  7  8  4  0  0  0
  7 14  4  0  0  0
  8  9  4  0  0  0
  9 10  1  0  0  0
  9 11  4  0  0  0
 11 12  4  0  0  0
 12 13  1  0  0  0
 12 14  4  0  0  0
 14 15  4  0  0  0
 15 16  4  0  0  0
 17 18  1  0  0  0
 18 19  1  0  0  0
  1 20  1  0  0  0
  2 21  1  0  0  0
  2 22  1  0  0  0
  3 23  1  0  0  0
  5 24  1  0  0  0
 13 25  1  0  0  0
 13 26  1  0  0  0
 16 27  1  0  0  0
 17 28  1  0  0  0
 17 29  1  0  0  0
 18 30  1  0  0  0
 19 31  1  0  0  0
M  END
$$$$
