1m5b_ligand
  -I-interpret- 

 29 30  0  0  0  0  0  0  0  0999 V2000
   63.4490   69.4440   55.5010 O   0  0  0  0  0
   63.2100   68.4620   54.7240 C   0  0  0  0  0
   62.8690   67.3160   55.0770 O   0  0  0  0  0
   63.3550   68.7190   53.1850 C   0  0  0  0  0
   63.9980   70.1050   53.0420 N   0  3  0  0  0
   64.1790   67.6320   52.4770 C   0  0  0  0  0
   63.7360   67.4030   51.0900 C   0  0  0  0  0
   64.1080   67.8720   49.8640 C   0  0  0  0  0
   63.3650   67.3360   48.8410 O   0  0  0  0  0
   62.3850   66.4030   49.4990 N   0  0  0  0  0
   62.6340   66.4660   50.8370 C   0  0  0  0  0
   61.9960   65.8090   51.6970 O   0  0  0  0  0
   65.1240   68.8070   49.4860 C   0  0  0  0  0
   66.0140   69.4970   50.2750 N   0  0  0  0  0
   66.7740   70.2570   49.4830 N   0  0  0  0  0
   66.4100   70.0760   48.2770 N   0  0  0  0  0
   65.4120   69.2060   48.2150 N   0  0  0  0  0
   67.8120   71.1050   50.0570 C   0  0  0  0  0
   63.6916   70.2121   54.9788 H   0  0  0  0  0
   62.3792   68.6829   52.7006 H   0  0  0  0  0
   63.4232   70.7965   53.5236 H   0  0  0  0  0
   64.9308   70.0899   53.4543 H   0  0  0  0  0
   64.0658   70.3467   52.0534 H   0  0  0  0  0
   64.0525   66.7006   53.0289 H   0  0  0  0  0
   65.2175   67.9618   52.4486 H   0  0  0  0  0
   61.6751   65.8359   49.0354 H   0  0  0  0  0
   67.3579   71.8167   50.7464 H   0  0  0  0  0
   68.5303   70.4851   50.5936 H   0  0  0  0  0
   68.3211   71.6448   49.2586 H   0  0  0  0  0
  2  1  1  0  0  0
  2  4  1  0  0  0
  2  3  2  0  0  0
  4  6  1  0  0  0
  4  5  1  0  0  0
  6  7  1  0  0  0
  7 11  1  0  0  0
  7  8  2  0  0  0
  8 13  1  0  0  0
  8  9  1  0  0  0
  9 10  1  0  0  0
 10 11  1  0  0  0
 11 12  2  0  0  0
 13 17  4  0  0  0
 13 14  4  0  0  0
 14 15  4  0  0  0
 15 18  1  0  0  0
 15 16  4  0  0  0
 16 17  4  0  0  0
  1 19  1  0  0  0
  4 20  1  0  0  0
  5 21  1  0  0  0
  5 22  1  0  0  0
  5 23  1  0  0  0
  6 24  1  0  0  0
  6 25  1  0  0  0
 10 26  1  0  0  0
 18 27  1  0  0  0
 18 28  1  0  0  0
 18 29  1  0  0  0
M  END
$$$$
