3lxs_ligand
  -I-interpret- 

 85 87  0  0  0  0  0  0  0  0999 V2000
   50.1440   -1.4760   22.5040 O   0  0  0  0  0
   51.2330   -1.5990   23.4510 S   0  0  0  0  0
   52.1470   -0.4390   23.4160 O   0  0  0  0  0
   50.5700   -1.8690   25.0250 C   0  0  0  0  0
   51.1530   -2.7610   25.8800 C   0  0  0  0  0
   50.5990   -2.9800   27.1350 C   0  0  0  0  0
   49.5000   -2.2670   27.5380 C   0  0  0  0  0
   48.8920   -1.3860   26.6600 C   0  0  0  0  0
   49.4460   -1.1590   25.3870 C   0  0  0  0  0
   52.1860   -3.0340   23.0180 C   0  0  0  0  0
   52.5040   -3.1280   21.5050 C   0  0  0  0  0
   51.9070   -4.4310   20.8350 C   0  0  0  0  0
   50.3550   -4.3930   20.9620 C   0  0  0  0  0
   49.7650   -5.3680   19.9000 C   0  0  0  0  0
   48.2530   -5.4430   19.9440 C   0  0  0  0  0
   47.6810   -6.6550   20.2910 C   0  0  0  0  0
   46.2850   -6.7810   20.3380 C   0  0  0  0  0
   45.5090   -5.7060   20.0030 C   0  0  0  0  0
   46.0680   -4.4930   19.6740 C   0  0  0  0  0
   47.4580   -4.3500   19.6020 C   0  0  0  0  0
   52.3840   -5.6130   21.5460 N   0  0  0  0  0
   53.2880   -6.4580   21.0250 C   0  0  0  0  0
   53.5190   -6.2040   19.6070 O   0  0  0  0  0
   53.8140   -7.7530   21.3220 C   0  0  0  0  0
   55.2600   -7.3690   21.6990 C   0  0  0  0  0
   55.8610   -8.4990   22.5690 C   0  0  0  0  0
   56.6920   -9.4560   21.7120 C   0  0  0  0  0
   57.0690  -10.6920   22.3960 N   0  0  0  0  0
   56.2820  -11.7480   22.5190 C   0  0  0  0  0
   56.8120  -12.8790   22.9530 N   0  0  0  0  0
   54.9700  -11.6740   22.2350 N   0  0  0  0  0
   53.6750   -8.7790   20.4480 N   0  0  0  0  0
   52.4490   -9.1120   20.0860 C   0  0  0  0  0
   51.4750   -8.5040   20.5200 O   0  0  0  0  0
   52.2640  -10.1450   19.2820 N   0  0  0  0  0
   50.9120  -10.4890   18.8190 C   0  0  0  0  0
   50.7450  -11.9900   18.9290 C   0  0  0  0  0
   53.3930  -10.9850   18.9220 C   0  0  0  0  0
   53.0740  -12.4470   18.9720 C   0  0  0  0  0
   51.8370  -12.6740   18.2120 N   0  3  0  0  0
   51.5630  -14.1270   18.3070 C   0  0  0  0  0
   52.0511   -3.2998   25.5780 H   0  0  0  0  0
   51.0398   -3.7214   27.8015 H   0  0  0  0  0
   49.1060   -2.3932   28.5464 H   0  0  0  0  0
   47.9808   -0.8664   26.9562 H   0  0  0  0  0
   48.9968   -0.4386   24.7033 H   0  0  0  0  0
   51.5977   -3.9119   23.2852 H   0  0  0  0  0
   53.1353   -2.9706   23.5499 H   0  0  0  0  0
   53.5877   -3.1604   21.3923 H   0  0  0  0  0
   52.0554   -2.2641   21.0146 H   0  0  0  0  0
   52.2147   -4.4711   19.7901 H   0  0  0  0  0
   49.9866   -3.3813   20.7922 H   0  0  0  0  0
   50.0502   -4.6959   21.9637 H   0  0  0  0  0
   50.1539   -6.3643   20.1104 H   0  0  0  0  0
   50.0514   -5.0000   18.9148 H   0  0  0  0  0
   48.3146   -7.5099   20.5273 H   0  0  0  0  0
   45.8249   -7.7227   20.6374 H   0  0  0  0  0
   44.4242   -5.8126   19.9965 H   0  0  0  0  0
   45.4241   -3.6379   19.4681 H   0  0  0  0  0
   47.9076   -3.4084   19.2867 H   0  0  0  0  0
   52.0153   -5.8051   22.4774 H   0  0  0  0  0
   53.2254   -8.2551   22.0898 H   0  0  0  0  0
   55.2617   -6.4318   22.2555 H   0  0  0  0  0
   55.8566   -7.2390   20.7961 H   0  0  0  0  0
   55.0479   -9.0570   23.0334 H   0  0  0  0  0
   56.5053   -8.0551   23.3279 H   0  0  0  0  0
   57.6142   -8.9374   21.4498 H   0  0  0  0  0
   56.0808   -9.7350   20.8537 H   0  0  0  0  0
   58.0016  -10.7434   22.8059 H   0  0  0  0  0
   57.8047  -12.9216   23.1835 H   0  0  0  0  0
   54.3754  -12.4942   22.3538 H   0  0  0  0  0
   54.5692  -10.7977   21.9007 H   0  0  0  0  0
   54.4874   -9.2761   20.0829 H   0  0  0  0  0
   50.7764  -10.1706   17.7854 H   0  0  0  0  0
   50.1652   -9.9821   19.4301 H   0  0  0  0  0
   49.7910  -12.2776   18.4870 H   0  0  0  0  0
   50.7716  -12.2773   19.9801 H   0  0  0  0  0
   54.1908  -10.7945   19.6399 H   0  0  0  0  0
   53.6747  -10.7415   17.8976 H   0  0  0  0  0
   52.9423  -12.7664   20.0058 H   0  0  0  0  0
   53.8911  -13.0236   18.5383 H   0  0  0  0  0
   51.9125  -12.3471   17.2488 H   0  0  0  0  0
   51.5410  -14.4235   19.3557 H   0  0  0  0  0
   50.5994  -14.3446   17.8463 H   0  0  0  0  0
   52.3477  -14.6781   17.7887 H   0  0  0  0  0
  1  2  2  0  0  0
  2  3  2  0  0  0
  2  4  1  0  0  0
  2 10  1  0  0  0
  4  5  4  0  0  0
  4  9  4  0  0  0
  5  6  4  0  0  0
  6  7  4  0  0  0
  7  8  4  0  0  0
  8  9  4  0  0  0
 10 11  1  0  0  0
 11 12  1  0  0  0
 12 13  1  0  0  0
 12 21  1  0  0  0
 13 14  1  0  0  0
 14 15  1  0  0  0
 15 16  4  0  0  0
 15 20  4  0  0  0
 16 17  4  0  0  0
 17 18  4  0  0  0
 18 19  4  0  0  0
 19 20  4  0  0  0
 21 22  1  0  0  0
 22 23  2  0  0  0
 22 24  1  0  0  0
 24 25  1  0  0  0
 24 32  1  0  0  0
 25 26  1  0  0  0
 26 27  1  0  0  0
 27 28  1  0  0  0
 28 29  1  0  0  0
 29 30  2  0  0  0
 29 31  1  0  0  0
 32 33  1  0  0  0
 33 34  2  0  0  0
 33 35  1  0  0  0
 35 36  1  0  0  0
 35 38  1  0  0  0
 36 37  1  0  0  0
 37 40  1  0  0  0
 38 39  1  0  0  0
 39 40  1  0  0  0
 40 41  1  0  0  0
  5 42  1  0  0  0
  6 43  1  0  0  0
  7 44  1  0  0  0
  8 45  1  0  0  0
  9 46  1  0  0  0
 10 47  1  0  0  0
 10 48  1  0  0  0
 11 49  1  0  0  0
 11 50  1  0  0  0
 12 51  1  0  0  0
 13 52  1  0  0  0
 13 53  1  0  0  0
 14 54  1  0  0  0
 14 55  1  0  0  0
 16 56  1  0  0  0
 17 57  1  0  0  0
 18 58  1  0  0  0
 19 59  1  0  0  0
 20 60  1  0  0  0
 21 61  1  0  0  0
 24 62  1  0  0  0
 25 63  1  0  0  0
 25 64  1  0  0  0
 26 65  1  0  0  0
 26 66  1  0  0  0
 27 67  1  0  0  0
 27 68  1  0  0  0
 28 69  1  0  0  0
 30 70  1  0  0  0
 31 71  1  0  0  0
 31 72  1  0  0  0
 32 73  1  0  0  0
 36 74  1  0  0  0
 36 75  1  0  0  0
 37 76  1  0  0  0
 37 77  1  0  0  0
 38 78  1  0  0  0
 38 79  1  0  0  0
 39 80  1  0  0  0
 39 81  1  0  0  0
 40 82  1  0  0  0
 41 83  1  0  0  0
 41 84  1  0  0  0
 41 85  1  0  0  0
M  END
$$$$
