### 
### Created by X-TOOL on Mon Sep 10 21:13:02 2018
### 

@<TRIPOS>MOLECULE
3lxs_ligand
   85    87     1     0     0
SMALL
GAST_HUCK


@<TRIPOS>ATOM
      1 O5         50.1440   -1.4760   22.5040 O.2       1 4MC        -0.1694
      2 S1         51.2330   -1.5990   23.4510 S.o2      1 4MC        -0.0030
      3 O4         52.1470   -0.4390   23.4160 O.2       1 4MC        -0.1694
      4 CAB        50.5700   -1.8690   25.0250 C.ar      1 4MC         0.0882
      5 CAD        51.1530   -2.7610   25.8800 C.ar      1 4MC        -0.0369
      6 CAF        50.5990   -2.9800   27.1350 C.ar      1 4MC        -0.0600
      7 CAE        49.5000   -2.2670   27.5380 C.ar      1 4MC        -0.0616
      8 CAC        48.8920   -1.3860   26.6600 C.ar      1 4MC        -0.0600
      9 CAA        49.4460   -1.1590   25.3870 C.ar      1 4MC        -0.0369
     10 C28        52.1860   -3.0340   23.0180 C.3       1 4MC         0.0730
     11 C27        52.5040   -3.1280   21.5050 C.3       1 4MC        -0.0099
     12 C18        51.9070   -4.4310   20.8350 C.3       1 4MC         0.0453
     13 C19        50.3550   -4.3930   20.9620 C.3       1 4MC        -0.0201
     14 C20        49.7650   -5.3680   19.9000 C.3       1 4MC        -0.0171
     15 C21        48.2530   -5.4430   19.9440 C.ar      1 4MC        -0.0429
     16 C26        47.6810   -6.6550   20.2910 C.ar      1 4MC        -0.0603
     17 C25        46.2850   -6.7810   20.3380 C.ar      1 4MC        -0.0686
     18 C24        45.5090   -5.7060   20.0030 C.ar      1 4MC        -0.0687
     19 C23        46.0680   -4.4930   19.6740 C.ar      1 4MC        -0.0686
     20 C22        47.4580   -4.3500   19.6020 C.ar      1 4MC        -0.0603
     21 N2         52.3840   -5.6130   21.5460 N.am      1 4MC        -0.2818
     22 C17        53.2880   -6.4580   21.0250 C.2       1 4MC         0.2016
     23 O3         53.5190   -6.2040   19.6070 O.2       1 4MC        -0.3946
     24 C9         53.8140   -7.7530   21.3220 C.3       1 4MC         0.1313
     25 C10        55.2600   -7.3690   21.6990 C.3       1 4MC        -0.0095
     26 C11        55.8610   -8.4990   22.5690 C.3       1 4MC        -0.0156
     27 C01        56.6920   -9.4560   21.7120 C.3       1 4MC         0.0627
     28 N01        57.0690  -10.6920   22.3960 N.pl3     1 4MC        -0.2723
     29 C02        56.2820  -11.7480   22.5190 C.cat     1 4MC         0.2882
     30 N03        56.8120  -12.8790   22.9530 N.pl3     1 4MC        -0.2849
     31 N02        54.9700  -11.6740   22.2350 N.pl3     1 4MC        -0.2849
     32 N1         53.6750   -8.7790   20.4480 N.am      1 4MC        -0.2517
     33 C8         52.4490   -9.1120   20.0860 C.2       1 4MC         0.2620
     34 O2         51.4750   -8.5040   20.5200 O.2       1 4MC        -0.4005
     35 N3         52.2640  -10.1450   19.2820 N.am      1 4MC        -0.2633
     36 C39        50.9120  -10.4890   18.8190 C.3       1 4MC         0.0157
     37 C40        50.7450  -11.9900   18.9290 C.3       1 4MC        -0.0927
     38 C48        53.3930  -10.9850   18.9220 C.3       1 4MC         0.0157
     39 C49        53.0740  -12.4470   18.9720 C.3       1 4MC        -0.0927
     40 N4         51.8370  -12.6740   18.2120 N.4       1 4MC         0.4034
     41 C33        51.5630  -14.1270   18.3070 C.3       1 4MC        -0.1255
     42 H          52.0511   -3.2998   25.5780 H         1 4MC         0.0636
     43 H          51.0398   -3.7214   27.8015 H         1 4MC         0.0618
     44 H          49.1060   -2.3932   28.5464 H         1 4MC         0.0618
     45 H          47.9808   -0.8664   26.9562 H         1 4MC         0.0618
     46 H          48.9968   -0.4386   24.7033 H         1 4MC         0.0636
     47 H          51.5977   -3.9119   23.2852 H         1 4MC         0.0505
     48 H          53.1353   -2.9706   23.5499 H         1 4MC         0.0505
     49 H          53.5877   -3.1604   21.3923 H         1 4MC         0.0303
     50 H          52.0554   -2.2641   21.0146 H         1 4MC         0.0303
     51 H          52.2147   -4.4711   19.7901 H         1 4MC         0.0558
     52 H          49.9866   -3.3813   20.7922 H         1 4MC         0.0309
     53 H          50.0502   -4.6959   21.9637 H         1 4MC         0.0309
     54 H          50.1539   -6.3643   20.1104 H         1 4MC         0.0427
     55 H          50.0514   -5.0000   18.9148 H         1 4MC         0.0427
     56 H          48.3146   -7.5099   20.5273 H         1 4MC         0.0557
     57 H          45.8249   -7.7227   20.6374 H         1 4MC         0.0599
     58 H          44.4242   -5.8126   19.9965 H         1 4MC         0.0559
     59 H          45.4241   -3.6379   19.4681 H         1 4MC         0.0599
     60 H          47.9076   -3.4084   19.2867 H         1 4MC         0.0557
     61 H          52.0153   -5.8051   22.4774 H         1 4MC         0.1855
     62 H          53.2254   -8.2551   22.0898 H         1 4MC         0.0797
     63 H          55.2617   -6.4318   22.2555 H         1 4MC         0.0313
     64 H          55.8566   -7.2390   20.7961 H         1 4MC         0.0313
     65 H          55.0479   -9.0570   23.0334 H         1 4MC         0.0301
     66 H          56.5053   -8.0551   23.3279 H         1 4MC         0.0301
     67 H          57.6142   -8.9374   21.4498 H         1 4MC         0.0689
     68 H          56.0808   -9.7350   20.8537 H         1 4MC         0.0689
     69 H          58.0016  -10.7434   22.8059 H         1 4MC         0.2642
     70 H          57.8047  -12.9216   23.1835 H         1 4MC         0.2615
     71 H          56.2281  -13.7088   23.0573 H         1 4MC         0.2615
     72 H          54.5656  -10.7927   21.9186 H         1 4MC         0.2615
     73 H          54.3790  -12.4992   22.3359 H         1 4MC         0.2615
     74 H          54.4874   -9.2761   20.0829 H         1 4MC         0.1877
     75 H          50.7764  -10.1706   17.7854 H         1 4MC         0.0499
     76 H          50.1652   -9.9821   19.4301 H         1 4MC         0.0499
     77 H          49.7910  -12.2776   18.4870 H         1 4MC         0.0036
     78 H          50.7716  -12.2773   19.9801 H         1 4MC         0.0036
     79 H          54.1908  -10.7945   19.6399 H         1 4MC         0.0499
     80 H          53.6747  -10.7415   17.8976 H         1 4MC         0.0499
     81 H          52.9423  -12.7664   20.0058 H         1 4MC         0.0036
     82 H          53.8911  -13.0236   18.5383 H         1 4MC         0.0036
     83 H          51.5410  -14.4235   19.3557 H         1 4MC        -0.0019
     84 H          50.5994  -14.3446   17.8463 H         1 4MC        -0.0019
     85 H          52.3477  -14.6781   17.7887 H         1 4MC        -0.0019
@<TRIPOS>BOND
     1    1    2 2  
     2    2    3 2  
     3    2    4 1  
     4    2   10 1  
     5    4    5 ar 
     6    4    9 ar 
     7    5    6 ar 
     8    6    7 ar 
     9    7    8 ar 
    10    8    9 ar 
    11   10   11 1  
    12   11   12 1  
    13   12   13 1  
    14   12   21 1  
    15   13   14 1  
    16   14   15 1  
    17   15   16 ar 
    18   15   20 ar 
    19   16   17 ar 
    20   17   18 ar 
    21   18   19 ar 
    22   19   20 ar 
    23   21   22 am 
    24   22   23 2  
    25   22   24 1  
    26   24   25 1  
    27   24   32 1  
    28   25   26 1  
    29   26   27 1  
    30   27   28 1  
    31   28   29 ar 
    32   29   30 ar 
    33   29   31 ar 
    34   32   33 am 
    35   33   34 2  
    36   33   35 am 
    37   35   36 1  
    38   35   38 1  
    39   36   37 1  
    40   37   40 1  
    41   38   39 1  
    42   39   40 1  
    43   40   41 1  
    44    5   42 1  
    45    6   43 1  
    46    7   44 1  
    47    8   45 1  
    48    9   46 1  
    49   10   47 1  
    50   10   48 1  
    51   11   49 1  
    52   11   50 1  
    53   12   51 1  
    54   13   52 1  
    55   13   53 1  
    56   14   54 1  
    57   14   55 1  
    58   16   56 1  
    59   17   57 1  
    60   18   58 1  
    61   19   59 1  
    62   20   60 1  
    63   21   61 1  
    64   24   62 1  
    65   25   63 1  
    66   25   64 1  
    67   26   65 1  
    68   26   66 1  
    69   27   67 1  
    70   27   68 1  
    71   28   69 1  
    72   30   70 1  
    73   30   71 1  
    74   31   72 1  
    75   31   73 1  
    76   32   74 1  
    77   36   75 1  
    78   36   76 1  
    79   37   77 1  
    80   37   78 1  
    81   38   79 1  
    82   38   80 1  
    83   39   81 1  
    84   39   82 1  
    85   41   83 1  
    86   41   84 1  
    87   41   85 1  
@<TRIPOS>SUBSTRUCTURE
     1 4MC         1

