4i2w_ligand
  -I-interpret- 

136136  0  0  0  0  0  0  0  0999 V2000
   72.5260  -23.8810  -16.1900 N   0  3  0  0  0
   72.6930  -22.7100  -15.2930 C   0  0  0  0  0
   72.2300  -21.4240  -15.9720 C   0  0  0  0  0
   72.9090  -20.8990  -16.8600 O   0  0  0  0  0
   74.1460  -22.5770  -14.8580 C   0  0  0  0  0
   71.0610  -20.9410  -15.5470 N   0  0  0  0  0
   70.4800  -19.7120  -16.0700 C   0  0  0  0  0
   69.5130  -19.8950  -17.2240 C   0  0  0  0  0
   68.4030  -20.4070  -17.0670 O   0  0  0  0  0
   69.9570  -19.4520  -18.3940 N   0  0  0  0  0
   69.1570  -19.5450  -19.5960 C   0  0  0  0  0
   69.6160  -18.6570  -20.7500 C   0  0  0  0  0
   69.0800  -18.7940  -21.8560 O   0  0  0  0  0
   70.5910  -17.7430  -20.5520 N   0  0  0  0  0
   71.0210  -16.8940  -21.6690 C   0  0  0  0  0
   71.4580  -17.6970  -22.8820 C   0  0  0  0  0
   71.7780  -17.1300  -23.9260 O   0  0  0  0  0
   72.1530  -16.0730  -21.0580 C   0  0  0  0  0
   71.6860  -15.8990  -19.6550 C   0  0  0  0  0
   71.2560  -17.3160  -19.3100 C   0  0  0  0  0
   71.4680  -19.0190  -22.7250 N   0  0  0  0  0
   71.8290  -19.9380  -23.7940 C   0  0  0  0  0
   70.7690  -19.8200  -24.8980 C   0  0  0  0  0
   70.3090  -20.8250  -25.4490 O   0  0  0  0  0
   71.8930  -21.3990  -23.2620 C   0  0  0  0  0
   70.6210  -21.7760  -22.7210 O   0  0  0  0  0
   72.9490  -21.5220  -22.1720 C   0  0  0  0  0
   70.4040  -18.5730  -25.2060 N   0  0  0  0  0
   69.3970  -18.2280  -26.2110 C   0  0  0  0  0
   68.3840  -19.3640  -26.4370 C   0  0  0  0  0
   68.2350  -19.9330  -27.5190 O   0  0  0  0  0
   70.0980  -17.6700  -27.5280 C   0  0  0  0  0
   69.4910  -18.2610  -28.7990 C   0  0  0  0  0
   71.6010  -17.8920  -27.4430 C   0  0  0  0  0
   70.1670  -17.7900  -30.0630 C   0  0  0  0  0
   67.7160  -19.6870  -25.3320 N   0  0  0  0  0
   66.6600  -20.6930  -25.2260 C   0  0  0  0  0
   65.7550  -19.9160  -24.2770 C   0  0  0  0  0
   64.9480  -20.4620  -23.5230 O   0  0  0  0  0
   67.1850  -21.9750  -24.5610 C   0  0  0  0  0
   66.1410  -23.0700  -24.2900 C   0  0  0  0  0
   65.7500  -23.8830  -25.5170 C   0  0  0  0  0
   66.6280  -24.5180  -26.1400 O   0  0  0  0  0
   64.5490  -23.8920  -25.8500 O   0  0  0  0  0
   65.9430  -18.6030  -24.3380 N   0  0  0  0  0
   65.2210  -17.6480  -23.5290 C   0  0  0  0  0
   64.9450  -16.4230  -24.3940 C   0  0  0  0  0
   65.7580  -16.0560  -25.2450 O   0  0  0  0  0
   66.0810  -17.2880  -22.3170 C   0  0  0  0  0
   65.6820  -16.0320  -21.5710 C   0  0  0  0  0
   66.8960  -15.1940  -21.2010 C   0  0  0  0  0
   66.7210  -14.1240  -20.5800 O   0  0  0  0  0
   68.0290  -15.6070  -21.5380 O   0  0  0  0  0
   63.7870  -15.8090  -24.1760 N   0  0  0  0  0
   63.3690  -14.6170  -24.9090 C   0  0  0  0  0
   63.7980  -13.3680  -24.1260 C   0  0  0  0  0
   64.4710  -13.4850  -23.1030 O   0  0  0  0  0
   61.8420  -14.6080  -25.0780 C   0  0  0  0  0
   61.4110  -15.7880  -25.9380 C   0  0  0  0  0
   61.1620  -14.6770  -23.7190 C   0  0  0  0  0
   63.4220  -12.1810  -24.5950 N   0  0  0  0  0
   63.7900  -10.9580  -23.8910 C   0  0  0  0  0
   62.9850   -9.7200  -24.2990 C   0  0  0  0  0
   62.0010   -9.8790  -25.0470 O   0  0  0  0  0
   65.2980  -10.6880  -24.0390 C   0  0  0  0  0
   65.8200  -10.9600  -25.4420 C   0  0  0  0  0
   65.7600  -12.1250  -25.9020 O   0  0  0  0  0
   66.3000  -10.0010  -26.0850 O   0  0  0  0  0
   63.3190   -8.6000  -23.8400 O   0  0  0  0  0
   71.5485  -23.9554  -16.4716 H   0  0  0  0  0
   73.1110  -23.7606  -17.0168 H   0  0  0  0  0
   72.8042  -24.7288  -15.6957 H   0  0  0  0  0
   72.0718  -22.8729  -14.4123 H   0  0  0  0  0
   74.7697  -22.3881  -15.7318 H   0  0  0  0  0
   74.2396  -21.7475  -14.1570 H   0  0  0  0  0
   74.4653  -23.5004  -14.3749 H   0  0  0  0  0
   70.5532  -21.4536  -14.8260 H   0  0  0  0  0
   71.3071  -19.1105  -16.4471 H   0  0  0  0  0
   69.9131  -19.2622  -15.2549 H   0  0  0  0  0
   70.8864  -19.0352  -18.4470 H   0  0  0  0  0
   68.1516  -19.2188  -19.3298 H   0  0  0  0  0
   69.2320  -20.5753  -19.9439 H   0  0  0  0  0
   70.2175  -16.2730  -22.0650 H   0  0  0  0  0
   72.3298  -15.1296  -21.5745 H   0  0  0  0  0
   73.1266  -16.5574  -21.1322 H   0  0  0  0  0
   70.8927  -15.1597  -19.5444 H   0  0  0  0  0
   72.4457  -15.4950  -18.9858 H   0  0  0  0  0
   72.0854  -17.9610  -19.0198 H   0  0  0  0  0
   70.6107  -17.3707  -18.4332 H   0  0  0  0  0
   71.2115  -19.4044  -21.8161 H   0  0  0  0  0
   72.8141  -19.6851  -24.1861 H   0  0  0  0  0
   72.1529  -22.0560  -24.0920 H   0  0  0  0  0
   70.6678  -22.6777  -22.3949 H   0  0  0  0  0
   73.9227  -21.2490  -22.5788 H   0  0  0  0  0
   72.6980  -20.8544  -21.3477 H   0  0  0  0  0
   72.9796  -22.5504  -21.8119 H   0  0  0  0  0
   70.8581  -17.8082  -24.7067 H   0  0  0  0  0
   68.7816  -17.4108  -25.8347 H   0  0  0  0  0
   69.9155  -16.5971  -27.5894 H   0  0  0  0  0
   68.4501  -17.9408  -28.8449 H   0  0  0  0  0
   69.6104  -19.3432  -28.7469 H   0  0  0  0  0
   71.9959  -17.3673  -26.5730 H   0  0  0  0  0
   71.8047  -18.9587  -27.3490 H   0  0  0  0  0
   72.0753  -17.5085  -28.3464 H   0  0  0  0  0
   70.0852  -16.7055  -30.1348 H   0  0  0  0  0
   71.2187  -18.0755  -30.0391 H   0  0  0  0  0
   69.6838  -18.2500  -30.9250 H   0  0  0  0  0
   67.9640  -19.1857  -24.4790 H   0  0  0  0  0
   66.2139  -21.0379  -26.1588 H   0  0  0  0  0
   67.5756  -21.6771  -23.5880 H   0  0  0  0  0
   67.9072  -22.4057  -25.2545 H   0  0  0  0  0
   65.2388  -22.5714  -23.9355 H   0  0  0  0  0
   66.5826  -23.7632  -23.5741 H   0  0  0  0  0
   67.4806  -24.3770  -25.7219 H   0  0  0  0  0
   66.6380  -18.2476  -24.9946 H   0  0  0  0  0
   64.2752  -18.0536  -23.1699 H   0  0  0  0  0
   67.0875  -17.1124  -22.6966 H   0  0  0  0  0
   65.9747  -18.1111  -21.6104 H   0  0  0  0  0
   65.1708  -16.3232  -20.6534 H   0  0  0  0  0
   65.0359  -15.4374  -22.2168 H   0  0  0  0  0
   67.9388  -16.4425  -22.0022 H   0  0  0  0  0
   63.1617  -16.1873  -23.4645 H   0  0  0  0  0
   63.8366  -14.6205  -25.8936 H   0  0  0  0  0
   61.5462  -13.6813  -25.5698 H   0  0  0  0  0
   61.8830  -15.7135  -26.9177 H   0  0  0  0  0
   61.7153  -16.7173  -25.4564 H   0  0  0  0  0
   60.3272  -15.7751  -26.0535 H   0  0  0  0  0
   61.4598  -15.5944  -23.2113 H   0  0  0  0  0
   61.4602  -13.8160  -23.1208 H   0  0  0  0  0
   60.0805  -14.6698  -23.8545 H   0  0  0  0  0
   62.8727  -12.1261  -25.4527 H   0  0  0  0  0
   63.5401  -11.1372  -22.8453 H   0  0  0  0  0
   65.8221  -11.3565  -23.3559 H   0  0  0  0  0
   65.4679   -9.6335  -23.8218 H   0  0  0  0  0
   65.3590  -12.7049  -25.2504 H   0  0  0  0  0
   64.0996   -8.7006  -23.2903 H   0  0  0  0  0
  1  2  1  0  0  0
  2  3  1  0  0  0
  2  5  1  0  0  0
  3  4  2  0  0  0
  3  6  1  0  0  0
  6  7  1  0  0  0
  7  8  1  0  0  0
  8  9  2  0  0  0
  8 10  1  0  0  0
 10 11  1  0  0  0
 11 12  1  0  0  0
 12 13  2  0  0  0
 12 14  1  0  0  0
 14 15  1  0  0  0
 14 20  1  0  0  0
 15 16  1  0  0  0
 15 18  1  0  0  0
 16 17  2  0  0  0
 16 21  1  0  0  0
 18 19  1  0  0  0
 19 20  1  0  0  0
 21 22  1  0  0  0
 22 23  1  0  0  0
 22 25  1  0  0  0
 23 24  2  0  0  0
 23 28  1  0  0  0
 25 26  1  0  0  0
 25 27  1  0  0  0
 28 29  1  0  0  0
 29 30  1  0  0  0
 29 32  1  0  0  0
 30 31  2  0  0  0
 30 36  1  0  0  0
 32 33  1  0  0  0
 32 34  1  0  0  0
 33 35  1  0  0  0
 36 37  1  0  0  0
 37 38  1  0  0  0
 37 40  1  0  0  0
 38 39  2  0  0  0
 38 45  1  0  0  0
 40 41  1  0  0  0
 41 42  1  0  0  0
 42 43  1  0  0  0
 42 44  2  0  0  0
 45 46  1  0  0  0
 46 47  1  0  0  0
 46 49  1  0  0  0
 47 48  2  0  0  0
 47 54  1  0  0  0
 49 50  1  0  0  0
 50 51  1  0  0  0
 51 52  2  0  0  0
 51 53  1  0  0  0
 54 55  1  0  0  0
 55 56  1  0  0  0
 55 58  1  0  0  0
 56 57  2  0  0  0
 56 61  1  0  0  0
 58 59  1  0  0  0
 58 60  1  0  0  0
 61 62  1  0  0  0
 62 63  1  0  0  0
 62 65  1  0  0  0
 63 64  2  0  0  0
 63 69  1  0  0  0
 65 66  1  0  0  0
 66 67  1  0  0  0
 66 68  2  0  0  0
  1 70  1  0  0  0
  1 71  1  0  0  0
  1 72  1  0  0  0
  2 73  1  0  0  0
  5 74  1  0  0  0
  5 75  1  0  0  0
  5 76  1  0  0  0
  6 77  1  0  0  0
  7 78  1  0  0  0
  7 79  1  0  0  0
 10 80  1  0  0  0
 11 81  1  0  0  0
 11 82  1  0  0  0
 15 83  1  0  0  0
 18 84  1  0  0  0
 18 85  1  0  0  0
 19 86  1  0  0  0
 19 87  1  0  0  0
 20 88  1  0  0  0
 20 89  1  0  0  0
 21 90  1  0  0  0
 22 91  1  0  0  0
 25 92  1  0  0  0
 26 93  1  0  0  0
 27 94  1  0  0  0
 27 95  1  0  0  0
 27 96  1  0  0  0
 28 97  1  0  0  0
 29 98  1  0  0  0
 32 99  1  0  0  0
 33100  1  0  0  0
 33101  1  0  0  0
 34102  1  0  0  0
 34103  1  0  0  0
 34104  1  0  0  0
 35105  1  0  0  0
 35106  1  0  0  0
 35107  1  0  0  0
 36108  1  0  0  0
 37109  1  0  0  0
 40110  1  0  0  0
 40111  1  0  0  0
 41112  1  0  0  0
 41113  1  0  0  0
 43114  1  0  0  0
 45115  1  0  0  0
 46116  1  0  0  0
 49117  1  0  0  0
 49118  1  0  0  0
 50119  1  0  0  0
 50120  1  0  0  0
 53121  1  0  0  0
 54122  1  0  0  0
 55123  1  0  0  0
 58124  1  0  0  0
 59125  1  0  0  0
 59126  1  0  0  0
 59127  1  0  0  0
 60128  1  0  0  0
 60129  1  0  0  0
 60130  1  0  0  0
 61131  1  0  0  0
 62132  1  0  0  0
 65133  1  0  0  0
 65134  1  0  0  0
 67135  1  0  0  0
 69136  1  0  0  0
M  END
$$$$
