### 
### Created by X-TOOL on Mon Sep 10 21:13:15 2018
### 

@<TRIPOS>MOLECULE
4i2w_ligand
  132   132     1     0     0
SMALL
GAST_HUCK


@<TRIPOS>ATOM
      1 N          72.5260  -23.8810  -16.1900 N.4       1 ALA         0.2377
      2 CA         72.6930  -22.7100  -15.2930 C.3       1 ALA         0.0621
      3 C          72.2300  -21.4240  -15.9720 C.2       1 ALA         0.2262
      4 O          72.9090  -20.8990  -16.8600 O.2       1 ALA        -0.3907
      5 CB         74.1460  -22.5770  -14.8580 C.3       1 ALA        -0.0040
      6 N          71.0610  -20.9410  -15.5470 N.am      1 GLY        -0.2637
      7 CA         70.4800  -19.7120  -16.0700 C.3       1 GLY         0.1202
      8 C          69.5130  -19.8950  -17.2240 C.2       1 GLY         0.2005
      9 O          68.4030  -20.4070  -17.0670 O.2       1 GLY        -0.3947
     10 N          69.9570  -19.4520  -18.3940 N.am      1 GLY        -0.2666
     11 CA         69.1570  -19.5450  -19.5960 C.3       1 GLY         0.1203
     12 C          69.6160  -18.6570  -20.7500 C.2       1 GLY         0.2032
     13 O          69.0800  -18.7940  -21.8560 O.2       1 GLY        -0.3945
     14 N          70.5910  -17.7430  -20.5520 N.am      1 PRO        -0.2501
     15 CA         71.0210  -16.8940  -21.6690 C.3       1 PRO         0.1338
     16 C          71.4580  -17.6970  -22.8820 C.2       1 PRO         0.2042
     17 O          71.7780  -17.1300  -23.9260 O.2       1 PRO        -0.3944
     18 CB         72.1530  -16.0730  -21.0580 C.3       1 PRO        -0.0104
     19 CG         71.6860  -15.8990  -19.6550 C.3       1 PRO        -0.0281
     20 CD         71.2560  -17.3160  -19.3100 C.3       1 PRO         0.0369
     21 N          71.4680  -19.0190  -22.7250 N.am      1 THR        -0.2613
     22 CA         71.8290  -19.9380  -23.7940 C.3       1 THR         0.1565
     23 C          70.7690  -19.8200  -24.8980 C.2       1 THR         0.2065
     24 O          70.3090  -20.8250  -25.4490 O.2       1 THR        -0.3943
     25 CB         71.8930  -21.3990  -23.2620 C.3       1 THR         0.0924
     26 OG1        70.6210  -21.7760  -22.7210 O.3       1 THR        -0.3874
     27 CG2        72.9490  -21.5220  -22.1720 C.3       1 THR        -0.0346
     28 N          70.4040  -18.5730  -25.2060 N.am      1 ILE        -0.2634
     29 CA         69.3970  -18.2280  -26.2110 C.3       1 ILE         0.1335
     30 C          68.3840  -19.3640  -26.4370 C.2       1 ILE         0.2042
     31 O          68.2350  -19.9330  -27.5190 O.2       1 ILE        -0.3944
     32 CB         70.0980  -17.6700  -27.5280 C.3       1 ILE        -0.0037
     33 CG1        69.4910  -18.2610  -28.7990 C.3       1 ILE        -0.0491
     34 CG2        71.6010  -17.8920  -27.4430 C.3       1 ILE        -0.0582
     35 CD1        70.1670  -17.7900  -30.0630 C.3       1 ILE        -0.0648
     36 N          67.7160  -19.6870  -25.3320 N.am      1 GLU        -0.2636
     37 CA         66.6600  -20.6930  -25.2260 C.3       1 GLU         0.1325
     38 C          65.7550  -19.9160  -24.2770 C.2       1 GLU         0.2040
     39 O          64.9480  -20.4620  -23.5230 O.2       1 GLU        -0.3944
     40 CB         67.1850  -21.9750  -24.5610 C.3       1 GLU        -0.0008
     41 CG         66.1410  -23.0700  -24.2900 C.3       1 GLU         0.0044
     42 CD         65.7500  -23.8830  -25.5170 C.2       1 GLU         0.0350
     43 OE1        66.6280  -24.5180  -26.1400 O.co2     1 GLU        -0.5690
     44 OE2        64.5490  -23.8920  -25.8500 O.co2     1 GLU        -0.5690
     45 N          65.9430  -18.6030  -24.3380 N.am      1 GLU        -0.2636
     46 CA         65.2210  -17.6480  -23.5290 C.3       1 GLU         0.1325
     47 C          64.9450  -16.4230  -24.3940 C.2       1 GLU         0.2040
     48 O          65.7580  -16.0560  -25.2450 O.2       1 GLU        -0.3944
     49 CB         66.0810  -17.2880  -22.3170 C.3       1 GLU        -0.0008
     50 CG         65.6820  -16.0320  -21.5710 C.3       1 GLU         0.0044
     51 CD         66.8960  -15.1940  -21.2010 C.2       1 GLU         0.0350
     52 OE1        66.7210  -14.1240  -20.5800 O.co2     1 GLU        -0.5690
     53 OE2        68.0290  -15.6070  -21.5380 O.co2     1 GLU        -0.5690
     54 N          63.7870  -15.8090  -24.1760 N.am      1 VAL        -0.2635
     55 CA         63.3690  -14.6170  -24.9090 C.3       1 VAL         0.1332
     56 C          63.7980  -13.3680  -24.1260 C.2       1 VAL         0.2037
     57 O          64.4710  -13.4850  -23.1030 O.2       1 VAL        -0.3944
     58 CB         61.8420  -14.6080  -25.0780 C.3       1 VAL        -0.0063
     59 CG1        61.4110  -15.7880  -25.9380 C.3       1 VAL        -0.0584
     60 CG2        61.1620  -14.6770  -23.7190 C.3       1 VAL        -0.0584
     61 N          63.4220  -12.1810  -24.5950 N.am      1 ASP        -0.2679
     62 CA         63.7900  -10.9580  -23.8910 C.3       1 ASP         0.1057
     63 C          62.9850   -9.7200  -24.2990 C.2       1 ASP         0.0618
     64 O          62.0010   -9.8790  -25.0470 O.co2     1 ASP        -0.5665
     65 CB         65.2980  -10.6880  -24.0390 C.3       1 ASP         0.0351
     66 CG         65.8200  -10.9600  -25.4420 C.2       1 ASP         0.0387
     67 OD1        65.7600  -12.1250  -25.9020 O.co2     1 ASP        -0.5688
     68 OD2        66.3000  -10.0010  -26.0850 O.co2     1 ASP        -0.5688
     69 OXT        63.3190   -8.6000  -23.8400 O.co2     1 ASP        -0.5665
     70 H1         72.8389  -24.7141  -15.7167 H         1 ALA         0.2015
     71 H2         73.0722  -23.7444  -17.0261 H         1 ALA         0.2015
     72 H3         71.5535  -23.9797  -16.4362 H         1 ALA         0.2015
     73 H4         72.0743  -22.8706  -14.3978 H         1 ALA         0.1095
     74 H5         74.2519  -21.7058  -14.1949 H         1 ALA         0.0310
     75 H6         74.7833  -22.4427  -15.7444 H         1 ALA         0.0310
     76 H7         74.4525  -23.4864  -14.3203 H         1 ALA         0.0310
     77 H8         70.5632  -21.4436  -14.8402 H         1 GLY         0.1882
     78 H9         71.3017  -19.0665  -16.4137 H         1 GLY         0.0763
     79 H10        69.9412  -19.2145  -15.2502 H         1 GLY         0.0763
     80 H11        70.8682  -19.0433  -18.4460 H         1 GLY         0.1881
     81 H12        68.1244  -19.2650  -19.3406 H         1 GLY         0.0763
     82 H13        69.1793  -20.5895  -19.9402 H         1 GLY         0.0763
     83 H14        70.1992  -16.2307  -21.9766 H         1 PRO         0.0802
     84 H15        72.2629  -15.1035  -21.5659 H         1 PRO         0.0313
     85 H16        73.1079  -16.6176  -21.0968 H         1 PRO         0.0313
     86 H17        70.8423  -15.1957  -19.5951 H         1 PRO         0.0287
     87 H18        72.4988  -15.5534  -18.9994 H         1 PRO         0.0287
     88 H19        72.1234  -17.9527  -19.0814 H         1 PRO         0.0524
     89 H20        70.5590  -17.3265  -18.4591 H         1 PRO         0.0524
     90 H21        71.2166  -19.3968  -21.8339 H         1 THR         0.1884
     91 H22        72.8136  -19.6608  -24.1986 H         1 THR         0.0826
     92 H23        72.1498  -22.0726  -24.0928 H         1 THR         0.0639
     93 H24        69.9594  -21.7176  -23.4002 H         1 THR         0.2101
     94 H25        72.9808  -22.5595  -21.8078 H         1 THR         0.0257
     95 H26        72.6968  -20.8487  -21.3395 H         1 THR         0.0257
     96 H27        73.9322  -21.2468  -22.5813 H         1 THR         0.0257
     97 H28        70.8492  -17.8232  -24.7165 H         1 ILE         0.1883
     98 H29        68.8156  -17.3902  -25.7986 H         1 ILE         0.0803
     99 H30        69.9248  -16.5843  -27.5624 H         1 ILE         0.0345
    100 H31        68.4299  -17.9747  -28.8440 H         1 ILE         0.0267
    101 H32        69.5733  -19.3567  -28.7475 H         1 ILE         0.0267
    102 H33        71.9851  -17.4485  -26.5125 H         1 ILE         0.0235
    103 H34        72.0912  -17.4166  -28.3053 H         1 ILE         0.0235
    104 H35        71.8132  -18.9713  -27.4496 H         1 ILE         0.0235
    105 H36        69.6802  -18.2536  -30.9337 H         1 ILE         0.0230
    106 H37        71.2285  -18.0776  -30.0402 H         1 ILE         0.0230
    107 H38        70.0851  -16.6955  -30.1367 H         1 ILE         0.0230
    108 H39        67.9591  -19.1956  -24.4957 H         1 GLU         0.1883
    109 H40        66.1826  -20.9256  -26.1893 H         1 GLU         0.0801
    110 H41        67.6357  -21.6941  -23.5977 H         1 GLU         0.0330
    111 H42        67.9579  -22.4020  -25.2169 H         1 GLU         0.0330
    112 H43        65.2347  -22.5905  -23.8918 H         1 GLU         0.0433
    113 H44        66.5522  -23.7589  -23.5375 H         1 GLU         0.0433
    114 H45        66.6244  -18.2546  -24.9817 H         1 GLU         0.1883
    115 H46        64.2695  -18.0819  -23.1877 H         1 GLU         0.0801
    116 H47        67.1163  -17.1583  -22.6652 H         1 GLU         0.0330
    117 H48        66.0347  -18.1290  -21.6094 H         1 GLU         0.0330
    118 H49        65.1502  -16.3164  -20.6510 H         1 GLU         0.0433
    119 H50        65.0157  -15.4334  -22.2096 H         1 GLU         0.0433
    120 H51        63.1739  -16.1799  -23.4784 H         1 VAL         0.1883
    121 H52        63.8457  -14.6122  -25.9003 H         1 VAL         0.0802
    122 H53        61.5441  -13.6744  -25.5776 H         1 VAL         0.0343
    123 H54        60.3173  -15.7761  -26.0553 H         1 VAL         0.0234
    124 H55        61.7175  -16.7265  -25.4530 H         1 VAL         0.0234
    125 H56        61.8866  -15.7140  -26.9271 H         1 VAL         0.0234
    126 H57        61.4799  -13.8207  -23.1061 H         1 VAL         0.0234
    127 H58        61.4438  -15.6133  -23.2151 H         1 VAL         0.0234
    128 H59        60.0706  -14.6468  -23.8531 H         1 VAL         0.0234
    129 H60        62.8834  -12.1271  -25.4359 H         1 ASP         0.1876
    130 H61        63.5860  -11.1321  -22.8242 H         1 ASP         0.0745
    131 H62        65.8400  -11.3342  -23.3329 H         1 ASP         0.0471
    132 H63        65.4903   -9.6333  -23.7927 H         1 ASP         0.0471
@<TRIPOS>BOND
     1    1    2 1  
     2    2    3 1  
     3    2    5 1  
     4    3    4 2  
     5    3    6 am 
     6    6    7 1  
     7    7    8 1  
     8    8    9 2  
     9    8   10 am 
    10   10   11 1  
    11   11   12 1  
    12   12   13 2  
    13   12   14 am 
    14   14   15 1  
    15   14   20 1  
    16   15   16 1  
    17   15   18 1  
    18   16   17 2  
    19   16   21 am 
    20   18   19 1  
    21   19   20 1  
    22   21   22 1  
    23   22   23 1  
    24   22   25 1  
    25   23   24 2  
    26   23   28 am 
    27   25   26 1  
    28   25   27 1  
    29   28   29 1  
    30   29   30 1  
    31   29   32 1  
    32   30   31 2  
    33   30   36 am 
    34   32   33 1  
    35   32   34 1  
    36   33   35 1  
    37   36   37 1  
    38   37   38 1  
    39   37   40 1  
    40   38   39 2  
    41   38   45 am 
    42   40   41 1  
    43   41   42 1  
    44   42   43 ar 
    45   42   44 ar 
    46   45   46 1  
    47   46   47 1  
    48   46   49 1  
    49   47   48 2  
    50   47   54 am 
    51   49   50 1  
    52   50   51 1  
    53   51   52 ar 
    54   51   53 ar 
    55   54   55 1  
    56   55   56 1  
    57   55   58 1  
    58   56   57 2  
    59   56   61 am 
    60   58   59 1  
    61   58   60 1  
    62   61   62 1  
    63   62   63 1  
    64   62   65 1  
    65   63   64 ar 
    66   63   69 ar 
    67   65   66 1  
    68   66   67 ar 
    69   66   68 ar 
    70    1   70 1  
    71    1   71 1  
    72    1   72 1  
    73    2   73 1  
    74    5   74 1  
    75    5   75 1  
    76    5   76 1  
    77    6   77 1  
    78    7   78 1  
    79    7   79 1  
    80   10   80 1  
    81   11   81 1  
    82   11   82 1  
    83   15   83 1  
    84   18   84 1  
    85   18   85 1  
    86   19   86 1  
    87   19   87 1  
    88   20   88 1  
    89   20   89 1  
    90   21   90 1  
    91   22   91 1  
    92   25   92 1  
    93   26   93 1  
    94   27   94 1  
    95   27   95 1  
    96   27   96 1  
    97   28   97 1  
    98   29   98 1  
    99   32   99 1  
   100   33  100 1  
   101   33  101 1  
   102   34  102 1  
   103   34  103 1  
   104   34  104 1  
   105   35  105 1  
   106   35  106 1  
   107   35  107 1  
   108   36  108 1  
   109   37  109 1  
   110   40  110 1  
   111   40  111 1  
   112   41  112 1  
   113   41  113 1  
   114   45  114 1  
   115   46  115 1  
   116   49  116 1  
   117   49  117 1  
   118   50  118 1  
   119   50  119 1  
   120   54  120 1  
   121   55  121 1  
   122   58  122 1  
   123   59  123 1  
   124   59  124 1  
   125   59  125 1  
   126   60  126 1  
   127   60  127 1  
   128   60  128 1  
   129   61  129 1  
   130   62  130 1  
   131   65  131 1  
   132   65  132 1  
@<TRIPOS>SUBSTRUCTURE
     1 ALA         1

