1hmt_ligand
  -I-interpret- 

 56 55  0  0  0  0  0  0  0  0999 V2000
   19.0590   33.2400   52.2470 C   0  0  0  0  0
   18.3830   32.2470   52.0740 O   0  0  0  0  0
   18.9990   34.2520   51.5700 O   0  0  0  0  0
   20.0590   33.1550   53.3190 C   0  0  0  0  0
   20.9320   34.2630   53.6670 C   0  0  0  0  0
   21.9560   34.0810   54.7900 C   0  0  0  0  0
   22.3340   35.3820   55.4400 C   0  0  0  0  0
   23.5340   35.3320   56.3390 C   0  0  0  0  0
   23.4170   34.4510   57.5450 C   0  0  0  0  0
   22.3120   34.8870   58.5100 C   0  0  0  0  0
   22.1180   33.9400   59.6400 C   0  0  0  0  0
   21.2370   34.5290   60.7410 C   0  0  0  0  0
   19.9250   35.0230   60.1590 C   0  0  0  0  0
   19.1840   34.0080   59.3690 C   0  0  0  0  0
   17.7050   34.0940   59.3940 C   0  0  0  0  0
   17.0020   34.8930   58.3830 C   0  0  0  0  0
   17.0780   34.3350   56.9710 C   0  0  0  0  0
   16.7800   35.4660   55.9700 C   0  0  0  0  0
   16.0990   36.5930   56.7190 C   0  0  0  0  0
   16.7040   37.9390   56.3390 C   0  0  0  0  0
   19.6297   34.8954   51.9016 H   0  0  0  0  0
   20.7510   32.3947   52.9567 H   0  0  0  0  0
   19.4543   33.0209   54.2159 H   0  0  0  0  0
   20.2621   35.0454   54.0236 H   0  0  0  0  0
   21.5276   34.4415   52.7718 H   0  0  0  0  0
   22.8571   33.6472   54.3566 H   0  0  0  0  0
   21.5099   33.4415   55.5517 H   0  0  0  0  0
   21.4900   35.6724   56.0657 H   0  0  0  0  0
   22.5803   36.0716   54.6326 H   0  0  0  0  0
   23.6773   36.3455   56.7138 H   0  0  0  0  0
   24.3477   34.9232   55.7399 H   0  0  0  0  0
   24.3633   34.5030   58.0834 H   0  0  0  0  0
   23.1725   33.4475   57.1968 H   0  0  0  0  0
   21.3788   34.9284   57.9483 H   0  0  0  0  0
   22.6004   35.8503   58.9307 H   0  0  0  0  0
   23.0953   33.7189   60.0692 H   0  0  0  0  0
   21.6269   33.0468   59.2538 H   0  0  0  0  0
   21.7586   35.3668   61.2038 H   0  0  0  0  0
   21.0291   33.7566   61.4815 H   0  0  0  0  0
   20.1640   35.8432   59.4821 H   0  0  0  0  0
   19.2880   35.3028   60.9981 H   0  0  0  0  0
   19.4358   33.0431   59.8089 H   0  0  0  0  0
   19.4760   34.1644   58.3306 H   0  0  0  0  0
   17.4755   34.5856   60.3394 H   0  0  0  0  0
   17.3685   33.0723   59.2178 H   0  0  0  0  0
   17.4786   35.8731   58.3640 H   0  0  0  0  0
   15.9489   34.9063   58.6637 H   0  0  0  0  0
   16.3469   33.5354   56.8513 H   0  0  0  0  0
   18.0746   33.9337   56.7870 H   0  0  0  0  0
   16.1324   35.1004   55.1731 H   0  0  0  0  0
   17.7066   35.8215   55.5192 H   0  0  0  0  0
   16.2349   36.4362   57.7891 H   0  0  0  0  0
   15.0403   36.5979   56.4597 H   0  0  0  0  0
   17.7653   37.9421   56.5876 H   0  0  0  0  0
   16.5798   38.1025   55.2685 H   0  0  0  0  0
   16.1981   38.7318   56.8900 H   0  0  0  0  0
  1  4  1  0  0  0
  1  3  1  0  0  0
  1  2  2  0  0  0
  4  5  1  0  0  0
  5  6  1  0  0  0
  6  7  1  0  0  0
  7  8  1  0  0  0
  8  9  1  0  0  0
  9 10  1  0  0  0
 10 11  1  0  0  0
 11 12  1  0  0  0
 12 13  1  0  0  0
 13 14  1  0  0  0
 14 15  1  0  0  0
 15 16  1  0  0  0
 16 17  1  0  0  0
 17 18  1  0  0  0
 18 19  1  0  0  0
 19 20  1  0  0  0
  3 21  1  0  0  0
  4 22  1  0  0  0
  4 23  1  0  0  0
  5 24  1  0  0  0
  5 25  1  0  0  0
  6 26  1  0  0  0
  6 27  1  0  0  0
  7 28  1  0  0  0
  7 29  1  0  0  0
  8 30  1  0  0  0
  8 31  1  0  0  0
  9 32  1  0  0  0
  9 33  1  0  0  0
 10 34  1  0  0  0
 10 35  1  0  0  0
 11 36  1  0  0  0
 11 37  1  0  0  0
 12 38  1  0  0  0
 12 39  1  0  0  0
 13 40  1  0  0  0
 13 41  1  0  0  0
 14 42  1  0  0  0
 14 43  1  0  0  0
 15 44  1  0  0  0
 15 45  1  0  0  0
 16 46  1  0  0  0
 16 47  1  0  0  0
 17 48  1  0  0  0
 17 49  1  0  0  0
 18 50  1  0  0  0
 18 51  1  0  0  0
 19 52  1  0  0  0
 19 53  1  0  0  0
 20 54  1  0  0  0
 20 55  1  0  0  0
 20 56  1  0  0  0
M  END
$$$$
