5mkr_ligand
  -I-interpret- 

 59 62  0  0  0  0  0  0  0  0999 V2000
  -13.0130   34.8590  -12.7240 C   0  0  0  0  0
  -12.1260   33.7610  -12.7670 C   0  0  0  0  0
  -10.8750   33.9890  -13.3190 C   0  0  0  0  0
   -8.8100   32.5600  -13.5490 C   0  0  0  0  0
   -7.8730   32.3810  -12.3650 C   0  0  0  0  0
   -6.6870   31.7570  -13.0890 C   0  0  0  0  0
   -7.3820   30.8020  -14.0680 C   0  0  0  0  0
   -7.4530   29.3550  -13.6230 C   0  0  0  0  0
   -8.5050   28.5280  -14.3440 C   0  0  0  0  0
   -8.5300   27.0910  -13.8840 C   0  0  0  0  0
   -9.4780   25.9490  -11.9980 C   0  0  0  0  0
  -14.2460   34.7980  -12.2250 N   0  0  0  0  0
   -7.5580   33.6290  -11.7660 O   0  0  0  0  0
   -8.8630   27.0510  -12.4700 O   0  0  0  0  0
   -9.6260   27.1230   -9.8840 C   0  0  0  0  0
  -11.3450   36.1160  -13.7350 C   0  0  0  0  0
   -9.8580   26.0760  -10.5760 C   0  0  0  0  0
  -10.2050   32.7860  -13.2310 N   0  0  0  0  0
  -12.8710   29.5710   -9.5040 C   0  0  0  0  0
  -10.8520   30.6120  -12.4290 N   0  0  0  0  0
   -9.6970   24.9820  -12.6790 O   0  0  0  0  0
  -11.8460   29.7530  -11.8000 C   0  0  0  0  0
  -11.7480   29.7650  -10.2950 C   0  0  0  0  0
  -11.0960   31.9030  -12.6550 C   0  0  0  0  0
   -5.9670   32.7740  -13.7690 O   0  0  0  0  0
  -10.5300   29.9680   -9.6670 C   0  0  0  0  0
  -12.2560   32.4440  -12.3550 N   0  0  0  0  0
   -8.6950   31.3640  -14.2950 O   0  0  0  0  0
  -12.7850   29.5850   -8.1250 C   0  0  0  0  0
  -11.5600   29.7900   -7.5330 C   0  0  0  0  0
  -10.4280   29.9810   -8.2890 C   0  0  0  0  0
  -10.4220   35.1490  -13.8200 N   0  0  0  0  0
  -11.4400   29.8020   -5.7920 Cl  0  0  0  0  0
  -12.5850   36.0440  -13.2300 N   0  0  0  0  0
   -8.5122   33.4658  -14.0771 H   0  0  0  0  0
   -8.2578   31.7930  -11.5317 H   0  0  0  0  0
   -5.9633   31.2539  -12.4478 H   0  0  0  0  0
   -6.7906   30.7356  -14.9812 H   0  0  0  0  0
   -7.7174   29.3579  -12.5656 H   0  0  0  0  0
   -6.4852   28.9045  -13.8434 H   0  0  0  0  0
   -8.2662   28.5354  -15.4075 H   0  0  0  0  0
   -9.4801   28.9655  -14.1298 H   0  0  0  0  0
   -7.5518   26.6375  -14.0436 H   0  0  0  0  0
   -9.2765   26.5366  -14.4527 H   0  0  0  0  0
  -14.5991   33.9202  -11.8440 H   0  0  0  0  0
  -14.8374   35.6291  -12.2237 H   0  0  0  0  0
   -8.3367   33.9768  -11.3253 H   0  0  0  0  0
   -9.1255   27.9775  -10.3395 H   0  0  0  0  0
   -9.9284   27.1627   -8.8375 H   0  0  0  0  0
  -11.0493   37.0888  -14.1278 H   0  0  0  0  0
  -10.3600   25.2363  -10.0954 H   0  0  0  0  0
  -13.8381   29.4046   -9.9786 H   0  0  0  0  0
   -9.9516   30.2181  -12.7019 H   0  0  0  0  0
  -11.6731   28.7322  -12.1407 H   0  0  0  0  0
  -12.8336   30.1223  -12.0762 H   0  0  0  0  0
   -5.5467   33.3508  -13.1270 H   0  0  0  0  0
   -9.6355   30.1203  -10.2710 H   0  0  0  0  0
  -13.6755   29.4357   -7.5144 H   0  0  0  0  0
   -9.4630   30.1406   -7.8080 H   0  0  0  0  0
  2  1  4  0  0  0
  1 12  1  0  0  0
  1 34  4  0  0  0
  3  2  4  0  0  0
  2 27  4  0  0  0
 18  3  4  0  0  0
  3 32  4  0  0  0
  4  5  1  0  0  0
 18  4  1  0  0  0
  4 28  1  0  0  0
  5  6  1  0  0  0
  5 13  1  0  0  0
  7  6  1  0  0  0
  6 25  1  0  0  0
  7  8  1  0  0  0
 28  7  1  0  0  0
  8  9  1  0  0  0
  9 10  1  0  0  0
 10 14  1  0  0  0
 14 11  1  0  0  0
 11 17  1  0  0  0
 11 21  2  0  0  0
 17 15  2  0  0  0
 32 16  4  0  0  0
 16 34  4  0  0  0
 24 18  4  0  0  0
 23 19  4  0  0  0
 19 29  4  0  0  0
 22 20  1  0  0  0
 20 24  1  0  0  0
 22 23  1  0  0  0
 23 26  4  0  0  0
 24 27  4  0  0  0
 26 31  4  0  0  0
 29 30  4  0  0  0
 30 31  4  0  0  0
 30 33  1  0  0  0
  4 35  1  0  0  0
  5 36  1  0  0  0
  6 37  1  0  0  0
  7 38  1  0  0  0
  8 39  1  0  0  0
  8 40  1  0  0  0
  9 41  1  0  0  0
  9 42  1  0  0  0
 10 43  1  0  0  0
 10 44  1  0  0  0
 12 45  1  0  0  0
 12 46  1  0  0  0
 13 47  1  0  0  0
 15 48  1  0  0  0
 15 49  1  0  0  0
 16 50  1  0  0  0
 17 51  1  0  0  0
 19 52  1  0  0  0
 20 53  1  0  0  0
 22 54  1  0  0  0
 22 55  1  0  0  0
 25 56  1  0  0  0
 26 57  1  0  0  0
 29 58  1  0  0  0
 31 59  1  0  0  0
M  END
$$$$
