3pm1_ligand
  -I-interpret- 

 45 48  0  0  0  0  0  0  0  0999 V2000
   35.0340   -7.5820   11.2230 C   0  0  0  0  0
   35.6410   -6.5500   11.9350 C   0  0  0  0  0
   37.0230   -6.4120   11.9240 C   0  0  0  0  0
   37.7980   -7.3050   11.1940 C   0  0  0  0  0
   38.0050   -9.2330    9.7390 N   0  0  0  0  0
   37.3990  -10.2680    9.0190 C   0  0  0  0  0
   35.4180  -11.4640    8.3100 C   0  0  0  0  0
   34.0430  -11.6250    8.3020 C   0  0  0  0  0
   33.2440  -10.7430    9.0230 C   0  0  0  0  0
   33.8270   -9.7060    9.7460 C   0  0  0  0  0
   36.0120  -10.4230    9.0300 C   0  0  0  0  0
   35.2150   -9.5340    9.7590 C   0  0  0  0  0
   35.8090   -8.4870   10.4860 C   0  0  0  0  0
   37.2010   -8.3390   10.4740 C   0  0  0  0  0
   38.1760  -11.1690    8.3100 C   0  0  0  0  0
   38.3680  -11.0330    6.9380 C   0  0  0  0  0
   39.1420  -11.9760    6.2640 C   0  0  0  0  0
   39.7110  -13.0430    6.9550 C   0  0  0  0  0
   39.5080  -13.1750    8.3260 C   0  0  0  0  0
   38.7350  -12.2390    9.0020 C   0  0  0  0  0
   39.4860   -9.0880    9.7310 C   0  0  0  0  0
   39.9510   -8.0350    8.7170 C   0  0  0  0  0
   37.6090   -5.4290   12.6010 N   0  0  0  0  0
   33.5040  -12.6260    7.6090 N   0  0  0  0  0
   33.9491   -7.6861   11.2394 H   0  0  0  0  0
   35.0295   -5.8486   12.5026 H   0  0  0  0  0
   38.8825   -7.1961   11.1842 H   0  0  0  0  0
   37.3794   -9.2897    8.5387 H   0  0  0  0  0
   36.0448  -12.1568    7.7485 H   0  0  0  0  0
   32.1608  -10.8641    9.0217 H   0  0  0  0  0
   33.1941   -9.0198   10.3088 H   0  0  0  0  0
   37.9188  -10.1997    6.3977 H   0  0  0  0  0
   39.3028  -11.8779    5.1904 H   0  0  0  0  0
   40.3162  -13.7759    6.4215 H   0  0  0  0  0
   39.9538  -14.0096    8.8671 H   0  0  0  0  0
   38.5666  -12.3428   10.0739 H   0  0  0  0  0
   39.9223  -10.0473    9.4526 H   0  0  0  0  0
   39.8041   -8.7707   10.7241 H   0  0  0  0  0
   39.6303   -8.3285    7.7174 H   0  0  0  0  0
   39.5138   -7.0695    8.9714 H   0  0  0  0  0
   41.0382   -7.9615    8.7442 H   0  0  0  0  0
   37.0429   -4.7688   13.1340 H   0  0  0  0  0
   38.6246   -5.3352   12.5873 H   0  0  0  0  0
   34.1033  -13.2672    7.0892 H   0  0  0  0  0
   32.4918  -12.7516    7.5979 H   0  0  0  0  0
  2  1  4  0  0  0
  1 13  4  0  0  0
  3  2  4  0  0  0
  4  3  4  0  0  0
  3 23  1  0  0  0
 14  4  4  0  0  0
  6  5  1  0  0  0
  5 14  1  0  0  0
  5 21  1  0  0  0
 11  6  1  0  0  0
  6 15  1  0  0  0
  7  8  4  0  0  0
  7 11  4  0  0  0
  8  9  4  0  0  0
  8 24  1  0  0  0
  9 10  4  0  0  0
 10 12  4  0  0  0
 11 12  4  0  0  0
 12 13  1  0  0  0
 13 14  4  0  0  0
 15 16  4  0  0  0
 15 20  4  0  0  0
 16 17  4  0  0  0
 17 18  4  0  0  0
 18 19  4  0  0  0
 19 20  4  0  0  0
 21 22  1  0  0  0
  1 25  1  0  0  0
  2 26  1  0  0  0
  4 27  1  0  0  0
  6 28  1  0  0  0
  7 29  1  0  0  0
  9 30  1  0  0  0
 10 31  1  0  0  0
 16 32  1  0  0  0
 17 33  1  0  0  0
 18 34  1  0  0  0
 19 35  1  0  0  0
 20 36  1  0  0  0
 21 37  1  0  0  0
 21 38  1  0  0  0
 22 39  1  0  0  0
 22 40  1  0  0  0
 22 41  1  0  0  0
 23 42  1  0  0  0
 23 43  1  0  0  0
 24 44  1  0  0  0
 24 45  1  0  0  0
M  END
$$$$
