4kin_ligand
  -I-interpret- 

 47 50  0  0  0  0  0  0  0  0999 V2000
    1.9350   -2.2880   -4.5670 C   0  0  0  0  0
    2.5630   -1.3860   -5.4230 C   0  0  0  0  0
    1.8940   -0.9770   -6.5740 C   0  0  0  0  0
    0.6300   -1.4650   -6.8620 C   0  0  0  0  0
   -0.0110   -2.3840   -6.0280 C   0  0  0  0  0
    0.6750   -2.7970   -4.8740 C   0  0  0  0  0
   -1.3640   -2.9500   -6.3920 C   0  0  0  0  0
    0.0780   -3.7400   -4.0070 N   0  0  0  0  0
    3.9480   -0.9800   -5.0120 C   0  0  0  0  0
    4.4850    0.1040   -5.6110 N   0  0  0  0  0
    4.5560   -1.6220   -4.1520 O   0  0  0  0  0
    5.8350    0.5860   -5.3070 C   0  0  0  0  0
    6.9820   -0.3270   -5.5760 C   0  0  0  0  0
    6.7600    0.8710   -6.4400 C   0  0  0  0  0
   -0.5340   -3.4010   -2.8640 C   0  0  0  0  0
   -1.0450   -4.5230   -2.0600 C   0  0  0  0  0
   -0.8780   -5.8990   -2.0650 C   0  0  0  0  0
   -1.5210   -6.5380   -0.9900 C   0  0  0  0  0
   -2.1670   -5.6570   -0.1390 C   0  0  0  0  0
   -1.9610   -4.0240   -0.6830 S   0  0  0  0  0
   -0.5920   -2.2440   -2.4240 O   0  0  0  0  0
   -2.9390   -5.9150    1.0910 C   0  0  0  0  0
   -4.2410   -5.4220    1.1950 C   0  0  0  0  0
   -4.9890   -5.6430    2.3440 C   0  0  0  0  0
   -4.4560   -6.3580    3.3970 C   0  0  0  0  0
   -3.1600   -6.8410    3.3250 C   0  0  0  0  0
   -2.4120   -6.6080    2.1790 C   0  0  0  0  0
   -0.7760   -7.1620    2.1470 Cl  0  0  0  0  0
    2.4339   -2.5983   -3.6489 H   0  0  0  0  0
    2.3682   -0.2681   -7.2528 H   0  0  0  0  0
    0.1220   -1.1227   -7.7636 H   0  0  0  0  0
   -2.0852   -2.1373   -6.4781 H   0  0  0  0  0
   -1.2922   -3.4761   -7.3439 H   0  0  0  0  0
   -1.6871   -3.6435   -5.6156 H   0  0  0  0  0
    0.1147   -4.7265   -4.2637 H   0  0  0  0  0
    3.9292    0.6074   -6.3024 H   0  0  0  0  0
    5.4823    1.1501   -4.4436 H   0  0  0  0  0
    7.1685   -1.3949   -5.6901 H   0  0  0  0  0
    7.7964   -0.8011   -5.0281 H   0  0  0  0  0
    7.3314    1.7093   -6.8385 H   0  0  0  0  0
    6.7033    1.1154   -7.5007 H   0  0  0  0  0
   -0.3063   -6.4316   -2.8250 H   0  0  0  0  0
   -1.5119   -7.6178   -0.8415 H   0  0  0  0  0
   -4.6738   -4.8592    0.3679 H   0  0  0  0  0
   -6.0030   -5.2494    2.4145 H   0  0  0  0  0
   -5.0565   -6.5431    4.2877 H   0  0  0  0  0
   -2.7322   -7.3978    4.1587 H   0  0  0  0  0
  1  2  4  0  0  0
  1  6  4  0  0  0
  2  3  4  0  0  0
  2  9  1  0  0  0
  3  4  4  0  0  0
  4  5  4  0  0  0
  5  6  4  0  0  0
  5  7  1  0  0  0
  6  8  1  0  0  0
  8 15  1  0  0  0
  9 10  1  0  0  0
  9 11  2  0  0  0
 10 12  1  0  0  0
 12 13  1  0  0  0
 12 14  1  0  0  0
 13 14  1  0  0  0
 15 16  1  0  0  0
 15 21  2  0  0  0
 16 17  4  0  0  0
 16 20  4  0  0  0
 17 18  4  0  0  0
 18 19  4  0  0  0
 19 20  4  0  0  0
 19 22  1  0  0  0
 22 23  4  0  0  0
 22 27  4  0  0  0
 23 24  4  0  0  0
 24 25  4  0  0  0
 25 26  4  0  0  0
 26 27  4  0  0  0
 27 28  1  0  0  0
  1 29  1  0  0  0
  3 30  1  0  0  0
  4 31  1  0  0  0
  7 32  1  0  0  0
  7 33  1  0  0  0
  7 34  1  0  0  0
  8 35  1  0  0  0
 10 36  1  0  0  0
 12 37  1  0  0  0
 13 38  1  0  0  0
 13 39  1  0  0  0
 14 40  1  0  0  0
 14 41  1  0  0  0
 17 42  1  0  0  0
 18 43  1  0  0  0
 23 44  1  0  0  0
 24 45  1  0  0  0
 25 46  1  0  0  0
 26 47  1  0  0  0
M  END
$$$$
