5fwr_ligand
  -I-interpret- 

 44 46  0  0  0  0  0  0  0  0999 V2000
    8.3900   17.0950  -12.8030 C   0  0  0  0  0
    7.3480   17.6250  -13.7680 C   0  0  0  0  0
    7.9850   17.5270  -15.1320 C   0  0  0  0  0
    7.8870   17.1840  -11.3970 C   0  0  0  0  0
    2.4410   23.5430  -14.5150 C   0  0  0  0  0
    1.6300   24.5020  -15.1340 C   0  0  0  0  0
    0.5180   24.1030  -15.8910 C   0  0  0  0  0
    0.2210   22.7290  -16.0360 C   0  0  0  0  0
    1.0300   21.7590  -15.4050 C   0  0  0  0  0
    2.1430   22.1580  -14.6410 C   0  0  0  0  0
    2.9840   21.1120  -13.9560 C   0  0  0  0  0
    3.5320   21.4030  -12.7010 C   0  0  0  0  0
    4.3090   20.4450  -12.0380 C   0  0  0  0  0
    3.1830   19.8300  -14.4990 C   0  0  0  0  0
    3.9600   18.8900  -13.8290 C   0  0  0  0  0
    4.5180   19.1770  -12.5890 C   0  0  0  0  0
    5.2910   18.2650  -11.8910 O   0  0  0  0  0
    5.6000   16.9330  -12.3130 C   0  0  0  0  0
    6.1060   16.9230  -13.6540 O   0  0  0  0  0
    8.2440   16.1720  -15.4820 O   0  0  0  0  0
    9.4920   17.9470  -12.8620 O   0  0  0  0  0
    8.9100   16.7220  -10.5700 O   0  0  0  0  0
    6.5560   16.4370  -11.2590 C   0  0  0  0  0
    6.6850   15.0290  -11.4240 O   0  0  0  0  0
    8.6257   16.0640  -13.0667 H   0  0  0  0  0
    7.0721   18.6575  -13.5536 H   0  0  0  0  0
    8.9305   18.0690  -15.1145 H   0  0  0  0  0
    7.3014   17.9519  -15.8670 H   0  0  0  0  0
    7.6526   18.2058  -11.0984 H   0  0  0  0  0
    3.3063   23.8599  -13.9328 H   0  0  0  0  0
    1.8632   25.5614  -15.0275 H   0  0  0  0  0
   -0.1157   24.8516  -16.3665 H   0  0  0  0  0
   -0.6341   22.4175  -16.6360 H   0  0  0  0  0
    0.7925   20.7003  -15.5095 H   0  0  0  0  0
    3.3540   22.3746  -12.2402 H   0  0  0  0  0
    4.7585   20.6920  -11.0762 H   0  0  0  0  0
    2.7245   19.5704  -15.4532 H   0  0  0  0  0
    4.1335   17.9145  -14.2833 H   0  0  0  0  0
    4.7383   16.2688  -12.3786 H   0  0  0  0  0
    8.6482   16.1391  -16.3521 H   0  0  0  0  0
    9.8601   17.9313  -13.7485 H   0  0  0  0  0
    9.7020   17.2431  -10.7210 H   0  0  0  0  0
    6.1938   16.6295  -10.2491 H   0  0  0  0  0
    7.2905   14.6847  -10.7634 H   0  0  0  0  0
  2  1  1  0  0  0
  1  4  1  0  0  0
  1 21  1  0  0  0
  2  3  1  0  0  0
 19  2  1  0  0  0
  3 20  1  0  0  0
  4 22  1  0  0  0
  4 23  1  0  0  0
  5  6  4  0  0  0
 10  5  4  0  0  0
  6  7  4  0  0  0
  8  7  4  0  0  0
  9  8  4  0  0  0
 10  9  4  0  0  0
 11 10  1  0  0  0
 12 11  4  0  0  0
 14 11  4  0  0  0
 13 12  4  0  0  0
 16 13  4  0  0  0
 15 14  4  0  0  0
 16 15  4  0  0  0
 17 16  1  0  0  0
 18 17  1  0  0  0
 18 19  1  0  0  0
 18 23  1  0  0  0
 23 24  1  0  0  0
  1 25  1  0  0  0
  2 26  1  0  0  0
  3 27  1  0  0  0
  3 28  1  0  0  0
  4 29  1  0  0  0
  5 30  1  0  0  0
  6 31  1  0  0  0
  7 32  1  0  0  0
  8 33  1  0  0  0
  9 34  1  0  0  0
 12 35  1  0  0  0
 13 36  1  0  0  0
 14 37  1  0  0  0
 15 38  1  0  0  0
 18 39  1  0  0  0
 20 40  1  0  0  0
 21 41  1  0  0  0
 22 42  1  0  0  0
 23 43  1  0  0  0
 24 44  1  0  0  0
M  END
$$$$
