3sw2_ligand
  -I-interpret- 

 68 73  0  0  0  0  0  0  0  0999 V2000
   10.0510   45.2140   62.5900 C   0  0  0  0  0
   10.1080   43.4220   65.8670 C   0  0  0  0  0
    8.6980   45.3160   62.3670 C   0  0  0  0  0
   11.4520   43.3150   66.1130 C   0  0  0  0  0
    8.2350   44.1610   64.4360 C   0  0  0  0  0
   11.9360   44.4680   64.0310 C   0  0  0  0  0
    9.6270   44.0540   64.6940 C   0  0  0  0  0
   10.5520   44.5910   63.7670 C   0  0  0  0  0
    7.7510   44.7820   63.2990 C   0  0  0  0  0
   12.3850   43.8410   65.1790 C   0  0  0  0  0
    5.7650   40.8930   54.7310 C   0  0  0  0  0
    4.8200   40.1370   55.3440 C   0  0  0  0  0
    7.1250   40.4640   54.7400 C   0  0  0  0  0
    7.4710   39.2820   55.3620 C   0  0  0  0  0
    5.1670   38.8840   56.0210 C   0  0  0  0  0
    7.0540   42.3240   60.4260 C   0  0  0  0  0
    7.9560   39.7730   58.6200 C   0  0  0  0  0
    4.2810   41.9170   59.8760 C   0  0  0  0  0
    4.7190   41.8210   61.3210 C   0  0  0  0  0
    9.0780   37.3610   55.5110 C   0  0  0  0  0
    5.3290   41.3740   58.9090 C   0  0  0  0  0
    9.4570   39.5580   56.6500 C   0  0  0  0  0
    6.8970   37.2450   56.6800 C   0  0  0  0  0
    9.0120   37.6090   58.0200 C   0  0  0  0  0
    8.9130   38.8710   55.3900 C   0  0  0  0  0
    6.0060   42.6550   61.5170 C   0  0  0  0  0
    8.3940   36.9100   56.7920 C   0  0  0  0  0
    7.7130   41.2630   58.3440 C   0  0  0  0  0
    6.5380   38.4930   56.0080 N   0  0  0  0  0
    6.6930   41.6910   59.2590 N   0  0  0  0  0
    8.8020   39.0060   57.8180 N   0  0  0  0  0
    5.7970   44.0740   61.6460 N   0  0  0  0  0
    4.3400   38.1460   56.6040 O   0  0  0  0  0
    8.2440   42.6140   60.5830 O   0  0  0  0  0
    7.4020   39.2410   59.6020 O   0  0  0  0  0
    5.4370   44.2590   64.1310 O   0  0  0  0  0
    5.7180   46.2160   62.7930 O   0  0  0  0  0
    6.0710   44.8800   63.0350 S   0  0  0  0  0
   14.0540   43.6650   65.5290 Cl  0  0  0  0  0
   10.7489   45.6157   61.8554 H   0  0  0  0  0
    9.3974   43.0140   66.5858 H   0  0  0  0  0
    8.3400   45.8121   61.4649 H   0  0  0  0  0
   11.8042   42.8279   67.0223 H   0  0  0  0  0
    7.5289   43.7425   65.1532 H   0  0  0  0  0
   12.6575   44.8723   63.3210 H   0  0  0  0  0
    5.4865   41.8226   54.2346 H   0  0  0  0  0
    3.7815   40.4680   55.3329 H   0  0  0  0  0
    7.8909   41.0697   54.2556 H   0  0  0  0  0
    4.1221   42.9698   59.6425 H   0  0  0  0  0
    3.3757   41.3213   59.7592 H   0  0  0  0  0
    4.9150   40.7795   61.5760 H   0  0  0  0  0
    3.9312   42.2053   61.9689 H   0  0  0  0  0
   10.1360   37.1005   55.5392 H   0  0  0  0  0
    8.6283   36.8646   54.6511 H   0  0  0  0  0
    5.1349   41.8331   57.9397 H   0  0  0  0  0
    5.2417   40.2876   58.9233 H   0  0  0  0  0
    9.2616   40.6289   56.5945 H   0  0  0  0  0
   10.5317   39.3904   56.7214 H   0  0  0  0  0
    6.5401   37.3482   57.7047 H   0  0  0  0  0
    6.4606   36.4488   56.0768 H   0  0  0  0  0
   10.0727   37.3771   58.1165 H   0  0  0  0  0
    8.5485   37.2679   58.9457 H   0  0  0  0  0
    9.4317   39.1510   54.4731 H   0  0  0  0  0
    6.3994   42.3513   62.4871 H   0  0  0  0  0
    8.5301   35.8366   56.9240 H   0  0  0  0  0
    7.4000   41.4208   57.3119 H   0  0  0  0  0
    8.6279   41.8384   58.4853 H   0  0  0  0  0
    5.4640   44.5954   60.8350 H   0  0  0  0  0
  3  1  4  0  0  0
  1  8  4  0  0  0
  2  4  4  0  0  0
  7  2  4  0  0  0
  9  3  4  0  0  0
  4 10  4  0  0  0
  5  7  4  0  0  0
  9  5  4  0  0  0
  8  6  4  0  0  0
  6 10  4  0  0  0
  7  8  4  0  0  0
 38  9  1  0  0  0
 10 39  1  0  0  0
 11 12  2  0  0  0
 13 11  1  0  0  0
 15 12  1  0  0  0
 14 13  2  0  0  0
 25 14  1  0  0  0
 14 29  1  0  0  0
 29 15  1  0  0  0
 15 33  2  0  0  0
 26 16  1  0  0  0
 16 30  1  0  0  0
 16 34  2  0  0  0
 28 17  1  0  0  0
 17 31  1  0  0  0
 17 35  2  0  0  0
 19 18  1  0  0  0
 18 21  1  0  0  0
 26 19  1  0  0  0
 25 20  1  0  0  0
 27 20  1  0  0  0
 30 21  1  0  0  0
 22 25  1  0  0  0
 31 22  1  0  0  0
 27 23  1  0  0  0
 23 29  1  0  0  0
 24 27  1  0  0  0
 31 24  1  0  0  0
 32 26  1  0  0  0
 30 28  1  0  0  0
 32 38  1  0  0  0
 38 36  2  0  0  0
 38 37  2  0  0  0
  1 40  1  0  0  0
  2 41  1  0  0  0
  3 42  1  0  0  0
  4 43  1  0  0  0
  5 44  1  0  0  0
  6 45  1  0  0  0
 11 46  1  0  0  0
 12 47  1  0  0  0
 13 48  1  0  0  0
 18 49  1  0  0  0
 18 50  1  0  0  0
 19 51  1  0  0  0
 19 52  1  0  0  0
 20 53  1  0  0  0
 20 54  1  0  0  0
 21 55  1  0  0  0
 21 56  1  0  0  0
 22 57  1  0  0  0
 22 58  1  0  0  0
 23 59  1  0  0  0
 23 60  1  0  0  0
 24 61  1  0  0  0
 24 62  1  0  0  0
 25 63  1  0  0  0
 26 64  1  0  0  0
 27 65  1  0  0  0
 28 66  1  0  0  0
 28 67  1  0  0  0
 32 68  1  0  0  0
M  END
$$$$
