4ce2_ligand
  -I-interpret- 

 49 50  0  0  0  0  0  0  0  0999 V2000
   19.9770   -2.0660   -6.4070 O   0  0  0  0  0
   19.0240   -2.7650   -6.1270 C   0  0  0  0  0
   17.9210   -2.8350   -6.8980 N   0  0  0  0  0
   16.8340   -3.7860   -6.6380 C   0  0  0  0  0
   19.1380   -3.6220   -4.8830 C   0  0  0  0  0
   20.1060   -4.6690   -4.9100 C   0  0  0  0  0
   20.9270   -4.8390   -5.9880 O   0  0  0  0  0
   20.2250   -5.5520   -3.8470 C   0  0  0  0  0
   19.4020   -5.4290   -2.7440 C   0  0  0  0  0
   19.4430   -6.3140   -1.7030 O   0  0  0  0  0
   18.4890   -4.4110   -2.7000 C   0  0  0  0  0
   17.4910   -4.3360   -1.3010 Cl  0  0  0  0  0
   18.3230   -3.4890   -3.7320 C   0  0  0  0  0
   17.2850   -2.4070   -3.5170 C   0  0  0  0  0
   15.8830   -2.9460   -3.3270 C   0  0  0  0  0
   15.5750   -4.0310   -3.7700 O   0  0  0  0  0
   14.9070   -2.1090   -2.5410 C   0  0  0  0  0
   13.5870   -1.8270   -3.2270 C   0  0  0  0  0
   13.7250   -0.8540   -4.3710 C   0  0  0  0  0
   13.0070   -1.2800   -5.6550 C   0  0  0  0  0
   13.2570   -0.3480   -6.8420 C   0  0  0  0  0
   14.7280   -0.1810   -7.0150 C   0  0  0  0  0
   15.5120   -0.9380   -7.7080 C   0  0  0  0  0
   16.9750   -0.7610   -7.8150 C   0  0  0  0  0
   17.7960   -2.0160   -8.1060 C   0  0  0  0  0
   15.8946   -3.2428   -6.5352 H   0  0  0  0  0
   16.7604   -4.4877   -7.4688 H   0  0  0  0  0
   17.0425   -4.3313   -5.7175 H   0  0  0  0  0
   21.5089   -5.5862   -5.8310 H   0  0  0  0  0
   20.9708   -6.3462   -3.8819 H   0  0  0  0  0
   18.7983   -6.0565   -1.0399 H   0  0  0  0  0
   17.2769   -1.7785   -4.4075 H   0  0  0  0  0
   17.5555   -1.8688   -2.6085 H   0  0  0  0  0
   15.3858   -1.1428   -2.3816 H   0  0  0  0  0
   14.6725   -2.6728   -1.6381 H   0  0  0  0  0
   12.9137   -1.3869   -2.4914 H   0  0  0  0  0
   13.2103   -2.7673   -3.6296 H   0  0  0  0  0
   14.7871   -0.7859   -4.6063 H   0  0  0  0  0
   13.2736    0.0843   -4.0487 H   0  0  0  0  0
   11.9367   -1.2635   -5.4492 H   0  0  0  0  0
   13.3881   -2.2638   -5.9289 H   0  0  0  0  0
   12.7930    0.6208   -6.6569 H   0  0  0  0  0
   12.8234   -0.7748   -7.7464 H   0  0  0  0  0
   15.1884    0.6653   -6.5053 H   0  0  0  0  0
   15.0619   -1.7675   -8.2534 H   0  0  0  0  0
   17.3071   -0.4032   -6.8404 H   0  0  0  0  0
   17.1364   -0.0928   -8.6609 H   0  0  0  0  0
   17.2940   -2.5976   -8.8792 H   0  0  0  0  0
   18.7908   -1.7204   -8.4393 H   0  0  0  0  0
  1  2  2  0  0  0
  2  3  1  0  0  0
  2  5  1  0  0  0
  3  4  1  0  0  0
  3 25  1  0  0  0
  5  6  4  0  0  0
  5 13  4  0  0  0
  6  7  1  0  0  0
  6  8  4  0  0  0
  8  9  4  0  0  0
  9 10  1  0  0  0
  9 11  4  0  0  0
 11 12  1  0  0  0
 11 13  4  0  0  0
 13 14  1  0  0  0
 14 15  1  0  0  0
 15 16  2  0  0  0
 15 17  1  0  0  0
 17 18  1  0  0  0
 18 19  1  0  0  0
 19 20  1  0  0  0
 20 21  1  0  0  0
 21 22  1  0  0  0
 22 23  2  0  0  0
 23 24  1  0  0  0
 24 25  1  0  0  0
  4 26  1  0  0  0
  4 27  1  0  0  0
  4 28  1  0  0  0
  7 29  1  0  0  0
  8 30  1  0  0  0
 10 31  1  0  0  0
 14 32  1  0  0  0
 14 33  1  0  0  0
 17 34  1  0  0  0
 17 35  1  0  0  0
 18 36  1  0  0  0
 18 37  1  0  0  0
 19 38  1  0  0  0
 19 39  1  0  0  0
 20 40  1  0  0  0
 20 41  1  0  0  0
 21 42  1  0  0  0
 21 43  1  0  0  0
 22 44  1  0  0  0
 23 45  1  0  0  0
 24 46  1  0  0  0
 24 47  1  0  0  0
 25 48  1  0  0  0
 25 49  1  0  0  0
M  END
$$$$
