3fqh_ligand
  -I-interpret- 

 48 51  0  0  0  0  0  0  0  0999 V2000
   -7.4760   -5.9830   10.0950 O   0  0  0  0  0
   -6.3320   -5.5830   10.3080 C   0  0  0  0  0
   -5.2660   -6.1510    9.7190 N   0  0  0  0  0
   -5.3000   -7.2850    8.7720 C   0  0  0  0  0
   -6.1700   -8.4520    9.2410 C   0  0  0  0  0
   -5.8510   -6.8400    7.4120 C   0  0  0  0  0
   -3.8720   -7.8080    8.5770 C   0  0  0  0  0
   -3.7830   -8.9780    7.7340 O   0  0  0  0  0
   -6.1710   -4.4170   11.2640 C   0  0  0  0  0
   -7.3220   -3.9040   11.8780 C   0  0  0  0  0
   -7.2430   -2.8290   12.7660 C   0  0  0  0  0
   -6.0090   -2.2430   13.0620 C   0  0  0  0  0
   -5.6610   -1.2140   13.8750 N   0  0  0  0  0
   -6.5910   -0.3970   14.6990 C   0  0  0  0  0
   -4.3280   -1.0210   13.8240 C   0  0  0  0  0
   -4.9210   -3.8370   11.5570 C   0  0  0  0  0
   -4.8600   -2.7570   12.4470 C   0  0  0  0  0
   -3.8340   -1.9740   12.9510 C   0  0  0  0  0
   -2.4630   -2.0520   12.6570 C   0  0  0  0  0
   -1.6660   -0.9760   12.8130 N   0  0  0  0  0
   -1.8280   -3.1940   12.2020 C   0  0  0  0  0
   -0.4980   -2.6690   12.1010 C   0  0  0  0  0
    0.6540   -3.3310   11.6690 C   0  0  0  0  0
    1.8610   -2.6270   11.6320 C   0  0  0  0  0
   -0.4200   -1.3350   12.4750 C   0  0  0  0  0
    0.7610   -0.6660   12.4210 N   0  0  0  0  0
    1.8890   -1.2890   12.0190 C   0  0  0  0  0
   -4.3500   -5.7642    9.9463 H   0  0  0  0  0
   -6.1563   -9.2395    8.4875 H   0  0  0  0  0
   -5.7787   -8.8402   10.1814 H   0  0  0  0  0
   -7.1929   -8.1051    9.3872 H   0  0  0  0  0
   -5.2191   -6.0500    7.0063 H   0  0  0  0  0
   -5.8573   -7.6891    6.7285 H   0  0  0  0  0
   -6.8670   -6.4657    7.5379 H   0  0  0  0  0
   -3.4942   -8.0890    9.5600 H   0  0  0  0  0
   -3.3018   -7.0161    8.0913 H   0  0  0  0  0
   -2.8646   -9.2470    7.6578 H   0  0  0  0  0
   -8.2921   -4.3503   11.6593 H   0  0  0  0  0
   -8.1503   -2.4441   13.2317 H   0  0  0  0  0
   -7.3146    0.0944   14.0485 H   0  0  0  0  0
   -7.1141   -1.0438   15.4033 H   0  0  0  0  0
   -6.0236    0.3552   15.2470 H   0  0  0  0  0
   -3.7547   -0.2662   14.3621 H   0  0  0  0  0
   -4.0120   -4.2241   11.0966 H   0  0  0  0  0
   -2.2192   -4.1883   11.9864 H   0  0  0  0  0
    0.6123   -4.3773   11.3664 H   0  0  0  0  0
    2.7746   -3.1218   11.3024 H   0  0  0  0  0
    2.8305   -0.7401   11.9970 H   0  0  0  0  0
  1  2  2  0  0  0
  2  3  1  0  0  0
  2  9  1  0  0  0
  3  4  1  0  0  0
  4  5  1  0  0  0
  4  6  1  0  0  0
  4  7  1  0  0  0
  7  8  1  0  0  0
  9 10  4  0  0  0
  9 16  4  0  0  0
 10 11  4  0  0  0
 11 12  4  0  0  0
 12 13  4  0  0  0
 12 17  4  0  0  0
 13 14  1  0  0  0
 13 15  4  0  0  0
 15 18  4  0  0  0
 16 17  4  0  0  0
 17 18  4  0  0  0
 18 19  1  0  0  0
 19 20  4  0  0  0
 19 21  4  0  0  0
 20 25  4  0  0  0
 21 22  4  0  0  0
 22 23  4  0  0  0
 22 25  4  0  0  0
 23 24  4  0  0  0
 24 27  4  0  0  0
 25 26  4  0  0  0
 26 27  4  0  0  0
  3 28  1  0  0  0
  5 29  1  0  0  0
  5 30  1  0  0  0
  5 31  1  0  0  0
  6 32  1  0  0  0
  6 33  1  0  0  0
  6 34  1  0  0  0
  7 35  1  0  0  0
  7 36  1  0  0  0
  8 37  1  0  0  0
 10 38  1  0  0  0
 11 39  1  0  0  0
 14 40  1  0  0  0
 14 41  1  0  0  0
 14 42  1  0  0  0
 15 43  1  0  0  0
 16 44  1  0  0  0
 21 45  1  0  0  0
 23 46  1  0  0  0
 24 47  1  0  0  0
 27 48  1  0  0  0
M  END
$$$$
