5iw0_ligand
  -I-interpret- 

 38 40  0  0  0  0  0  0  0  0999 V2000
  -23.9120   21.6140    1.3670 C   0  0  0  0  0
  -24.8820   23.2300    3.5460 C   0  0  0  0  0
  -26.0170   22.9920    5.7620 C   0  0  0  0  0
  -27.0980   24.8380    6.8070 C   0  0  0  0  0
  -26.0210   25.1480    4.6710 C   0  0  0  0  0
  -25.6640   26.0650    3.5350 C   0  0  0  0  0
  -23.3280   17.3440    6.0760 C   0  0  0  0  0
  -24.1230   20.1560    8.1020 O   0  0  0  0  0
  -23.4130   19.1720    7.7640 C   0  0  0  0  0
  -22.6700   18.5310    8.5460 O   0  0  0  0  0
  -23.4320   18.7070    6.3460 C   0  0  0  0  0
  -23.5220   19.5840    5.2450 C   0  0  0  0  0
  -23.5340   19.0420    3.9390 C   0  0  0  0  0
  -23.6110   19.9260    2.7780 N   0  0  0  0  0
  -23.1250   19.4700    1.5910 N   0  0  0  0  0
  -23.3190   20.5090    0.7220 C   0  0  0  0  0
  -24.0870   21.2330    2.6510 C   0  0  0  0  0
  -24.5990   21.8580    3.7230 O   0  0  0  0  0
  -25.6580   23.8120    4.6760 C   0  0  0  0  0
  -26.7400   23.5050    6.8310 C   0  0  0  0  0
  -28.0000   25.5270    8.1320 Cl  0  0  0  0  0
  -26.7480   25.6440    5.7560 C   0  0  0  0  0
  -23.4350   17.7170    3.6690 N   0  0  0  0  0
  -23.3390   16.9100    4.7460 C   0  0  0  0  0
  -24.1741   22.5742    0.9226 H   0  0  0  0  0
  -25.4826   23.3322    2.6421 H   0  0  0  0  0
  -23.9319   23.7609    3.4862 H   0  0  0  0  0
  -25.7242   21.9421    5.7641 H   0  0  0  0  0
  -24.5799   26.1057    3.4296 H   0  0  0  0  0
  -26.1061   25.6880    2.6128 H   0  0  0  0  0
  -26.0480   27.0639    3.7417 H   0  0  0  0  0
  -23.2392   16.6251    6.8905 H   0  0  0  0  0
  -24.6028   20.4809    7.3366 H   0  0  0  0  0
  -23.5813   20.6615    5.3983 H   0  0  0  0  0
  -23.0496   20.4856   -0.3339 H   0  0  0  0  0
  -27.0188   22.8687    7.6710 H   0  0  0  0  0
  -27.0427   26.6934    5.7665 H   0  0  0  0  0
  -23.2643   15.8376    4.5661 H   0  0  0  0  0
  1 16  4  0  0  0
 17  1  4  0  0  0
 18  2  1  0  0  0
  2 19  1  0  0  0
 19  3  4  0  0  0
  3 20  4  0  0  0
 20  4  4  0  0  0
  4 21  1  0  0  0
 22  4  4  0  0  0
  5  6  1  0  0  0
 19  5  4  0  0  0
  5 22  4  0  0  0
 11  7  4  0  0  0
  7 24  4  0  0  0
  9  8  1  0  0  0
  9 10  2  0  0  0
 11  9  1  0  0  0
 12 11  4  0  0  0
 13 12  4  0  0  0
 14 13  1  0  0  0
 13 23  4  0  0  0
 14 15  4  0  0  0
 17 14  4  0  0  0
 15 16  4  0  0  0
 17 18  1  0  0  0
 23 24  4  0  0  0
  1 25  1  0  0  0
  2 26  1  0  0  0
  2 27  1  0  0  0
  3 28  1  0  0  0
  6 29  1  0  0  0
  6 30  1  0  0  0
  6 31  1  0  0  0
  7 32  1  0  0  0
  8 33  1  0  0  0
 12 34  1  0  0  0
 16 35  1  0  0  0
 20 36  1  0  0  0
 22 37  1  0  0  0
 24 38  1  0  0  0
M  END
$$$$
