4hfp_ligand
  -I-interpret- 

 71 73  0  0  0  0  0  0  0  0999 V2000
    2.6270   13.7560    0.1060 S   0  0  0  0  0
    1.7960   12.5870    0.1880 O   0  0  0  0  0
    2.5190   14.4990    1.3360 O   0  0  0  0  0
    2.8590   12.5350   -4.2320 C   0  0  0  0  0
    3.2060   13.6560   -5.2110 C   0  0  0  0  0
    2.1800   14.7790   -5.0950 C   0  0  0  0  0
    2.0180   15.1820   -3.6410 C   0  0  0  0  0
    1.5040   16.4350   -3.3080 C   0  0  0  0  0
    1.3570   16.8100   -1.9700 C   0  0  0  0  0
    1.7090   15.9640   -0.9140 C   0  0  0  0  0
    2.2270   14.6900   -1.1370 C   0  0  0  0  0
    2.4100   14.2440   -2.5480 C   0  0  0  0  0
    3.3040   13.1300   -6.6400 C   0  0  0  0  0
    2.9100   13.0240   -2.8610 N   0  0  0  0  0
    4.1460   13.2890   -0.0920 N   0  0  0  0  0
    5.2210   14.2650   -0.0310 C   0  0  0  0  0
    5.7820   14.5690   -1.4020 C   0  0  0  0  0
    5.7190   13.7090   -2.2640 O   0  0  0  0  0
    6.2860   13.7810    0.9590 C   0  0  0  0  0
    7.1590   12.6580    0.4110 C   0  0  0  0  0
    8.4110   12.4950    1.2560 C   0  0  0  0  0
    8.7070   11.0930    1.4730 N   0  0  0  0  0
    9.5120   10.3780    0.6840 C   0  0  0  0  0
    9.6370    9.0720    0.9240 N   0  0  0  0  0
   10.1490   10.9120   -0.2740 N   0  0  0  0  0
    6.3330   15.7650   -1.6510 N   0  0  0  0  0
    6.4210   16.7960   -0.5970 C   0  0  0  0  0
    5.8550   18.1290   -1.1100 C   0  0  0  0  0
    6.3960   18.5200   -2.4840 C   0  0  0  0  0
    6.1450   17.3690   -3.4520 C   0  0  0  0  0
    6.9180   16.1530   -2.9460 C   0  0  0  0  0
    7.8280   16.9050   -0.0600 C   0  0  0  0  0
    8.6020   15.9360   -0.2160 O   0  0  0  0  0
    8.1780   17.9510    0.5300 O   0  0  0  0  0
    5.8050   19.8330   -2.9860 C   0  0  0  0  0
    3.5811   11.7267   -4.3476 H   0  0  0  0  0
    1.8513   12.1778   -4.4442 H   0  0  0  0  0
    4.1860   14.0574   -4.9531 H   0  0  0  0  0
    1.2216   14.4317   -5.4809 H   0  0  0  0  0
    2.5217   15.6392   -5.6707 H   0  0  0  0  0
    1.2145   17.1277   -4.0982 H   0  0  0  0  0
    0.9538   17.7966   -1.7416 H   0  0  0  0  0
    1.5746   16.3103    0.1108 H   0  0  0  0  0
    2.3334   12.7435   -6.9509 H   0  0  0  0  0
    3.6036   13.9405   -7.3044 H   0  0  0  0  0
    4.0448   12.3315   -6.6819 H   0  0  0  0  0
    3.3249   12.4442   -2.1315 H   0  0  0  0  0
    4.3591   12.3059   -0.2610 H   0  0  0  0  0
    4.8275   15.2137    0.3340 H   0  0  0  0  0
    5.7668   13.3945    1.8360 H   0  0  0  0  0
    6.9384   14.6263    1.1780 H   0  0  0  0  0
    7.4510   12.9032   -0.6101 H   0  0  0  0  0
    6.5930   11.7267    0.4340 H   0  0  0  0  0
    8.2477   12.9732    2.2218 H   0  0  0  0  0
    9.2499   12.9544    0.7332 H   0  0  0  0  0
    8.2768   10.6273    2.2721 H   0  0  0  0  0
   10.2454    8.5015    0.3368 H   0  0  0  0  0
    9.1242    8.6437    1.6947 H   0  0  0  0  0
   10.0526   11.9109   -0.4565 H   0  0  0  0  0
    5.8035   16.4997    0.2509 H   0  0  0  0  0
    6.1481   18.9068   -0.4048 H   0  0  0  0  0
    4.7743   18.0179   -1.1987 H   0  0  0  0  0
    7.4688   18.6973   -2.4075 H   0  0  0  0  0
    6.4792   17.6386   -4.4538 H   0  0  0  0  0
    5.0796   17.1445   -3.5033 H   0  0  0  0  0
    6.8458   15.3314   -3.6587 H   0  0  0  0  0
    7.9748   16.3938   -2.8304 H   0  0  0  0  0
    7.4442   18.5698    0.5444 H   0  0  0  0  0
    4.7221   19.7363   -3.0637 H   0  0  0  0  0
    6.0504   20.6316   -2.2859 H   0  0  0  0  0
    6.2215   20.0663   -3.9659 H   0  0  0  0  0
  1  2  2  0  0  0
  1  3  2  0  0  0
 11  1  1  0  0  0
  1 15  1  0  0  0
  5  4  1  0  0  0
  4 14  1  0  0  0
  6  5  1  0  0  0
  5 13  1  0  0  0
  7  6  1  0  0  0
  8  7  4  0  0  0
  7 12  4  0  0  0
  9  8  4  0  0  0
 10  9  4  0  0  0
 10 11  4  0  0  0
 11 12  4  0  0  0
 12 14  1  0  0  0
 15 16  1  0  0  0
 16 17  1  0  0  0
 16 19  1  0  0  0
 17 18  2  0  0  0
 17 26  1  0  0  0
 19 20  1  0  0  0
 20 21  1  0  0  0
 21 22  1  0  0  0
 22 23  1  0  0  0
 23 24  1  0  0  0
 23 25  2  0  0  0
 26 27  1  0  0  0
 26 31  1  0  0  0
 27 28  1  0  0  0
 27 32  1  0  0  0
 28 29  1  0  0  0
 29 30  1  0  0  0
 29 35  1  0  0  0
 30 31  1  0  0  0
 32 33  2  0  0  0
 32 34  1  0  0  0
  4 36  1  0  0  0
  4 37  1  0  0  0
  5 38  1  0  0  0
  6 39  1  0  0  0
  6 40  1  0  0  0
  8 41  1  0  0  0
  9 42  1  0  0  0
 10 43  1  0  0  0
 13 44  1  0  0  0
 13 45  1  0  0  0
 13 46  1  0  0  0
 14 47  1  0  0  0
 15 48  1  0  0  0
 16 49  1  0  0  0
 19 50  1  0  0  0
 19 51  1  0  0  0
 20 52  1  0  0  0
 20 53  1  0  0  0
 21 54  1  0  0  0
 21 55  1  0  0  0
 22 56  1  0  0  0
 24 57  1  0  0  0
 24 58  1  0  0  0
 25 59  1  0  0  0
 27 60  1  0  0  0
 28 61  1  0  0  0
 28 62  1  0  0  0
 29 63  1  0  0  0
 30 64  1  0  0  0
 30 65  1  0  0  0
 31 66  1  0  0  0
 31 67  1  0  0  0
 34 68  1  0  0  0
 35 69  1  0  0  0
 35 70  1  0  0  0
 35 71  1  0  0  0
M  END
$$$$
