4qiy_ligand
  -I-interpret- 

 56 58  0  0  0  0  0  0  0  0999 V2000
    4.0670    3.0700    6.9020 O   0  0  0  0  0
    3.0490    3.9840    7.6530 S   0  0  0  0  0
    3.5570    5.4380    7.5670 O   0  0  0  0  0
    1.5770    3.6850    9.9530 C   0  0  0  0  0
    1.3220    5.0360    9.9960 O   0  0  0  0  0
    2.9500    3.3520    9.3450 C   0  0  0  0  0
    1.4550    3.8710    6.8300 C   0  0  0  0  0
    0.9810    2.5410    6.7590 C   0  0  0  0  0
    1.6930    1.5300    7.4110 F   0  0  0  0  0
   -0.1860    2.2530    6.1380 C   0  0  0  0  0
   -0.5740    0.9370    6.2350 F   0  0  0  0  0
    0.6860    4.8610    6.2170 C   0  0  0  0  0
   -0.4160    4.5000    5.4380 C   0  0  0  0  0
   -1.0660    5.4940    4.7880 F   0  0  0  0  0
   -0.9530    3.2100    5.3990 C   0  0  0  0  0
   -2.2910    2.7750    4.1690 S   0  0  0  0  0
   -3.6050    3.2500    4.6050 O   0  0  0  0  0
   -2.2490    1.1940    4.3250 N   0  0  0  0  0
   -1.8310    3.1260    2.8930 O   0  0  0  0  0
    1.1960    6.2210    6.2710 N   0  0  0  0  0
    0.3000    7.3670    6.4350 C   0  0  0  0  0
    0.4350    8.3330    5.3310 C   0  0  0  0  0
    1.6780    8.6050    4.7290 C   0  0  0  0  0
    1.7470    9.5720    3.6940 C   0  0  0  0  0
    0.5770   10.3540    3.3050 C   0  0  0  0  0
   -0.6170   10.0880    3.9630 C   0  0  0  0  0
   -0.7400    9.0650    4.9740 C   0  0  0  0  0
    0.6180    8.0340    7.8120 C   0  0  0  0  0
    2.0070    8.3670    7.8490 O   0  0  0  0  0
   -0.2400    9.2230    8.1530 C   0  0  0  0  0
    0.1930   10.5430    7.9570 C   0  0  0  0  0
   -0.6890   11.6170    8.3090 C   0  0  0  0  0
   -1.9390   11.3380    8.8140 C   0  0  0  0  0
   -2.3480   10.0280    9.0080 C   0  0  0  0  0
   -1.4960    8.9960    8.6400 C   0  0  0  0  0
    0.8149    3.2229    9.3255 H   0  0  0  0  0
    1.5681    3.3125   10.9773 H   0  0  0  0  0
    0.4561    5.1849   10.3828 H   0  0  0  0  0
    3.7306    3.8170    9.9472 H   0  0  0  0  0
    3.0828    2.2702    9.3315 H   0  0  0  0  0
   -3.0640    0.6949    4.6816 H   0  0  0  0  0
   -1.4071    0.6784    4.0686 H   0  0  0  0  0
    2.2004    6.3804    6.1929 H   0  0  0  0  0
   -0.7348    7.0251    6.4125 H   0  0  0  0  0
    2.5758    8.0792    5.0541 H   0  0  0  0  0
    2.6933    9.7349    3.1781 H   0  0  0  0  0
    0.6381   11.1167    2.5287 H   0  0  0  0  0
   -1.4977   10.6762    3.7052 H   0  0  0  0  0
   -1.6983    8.8572    5.4501 H   0  0  0  0  0
    0.3744    7.3030    8.5830 H   0  0  0  0  0
    2.2141    8.7780    8.6915 H   0  0  0  0  0
    1.1811   10.7480    7.5450 H   0  0  0  0  0
   -0.3709   12.6512    8.1772 H   0  0  0  0  0
   -2.6144   12.1562    9.0640 H   0  0  0  0  0
   -3.3238    9.8116    9.4429 H   0  0  0  0  0
   -1.8415    7.9674    8.7433 H   0  0  0  0  0
  2  1  2  0  0  0
  2  3  2  0  0  0
  6  2  1  0  0  0
  2  7  1  0  0  0
  4  5  1  0  0  0
  4  6  1  0  0  0
  7  8  4  0  0  0
  7 12  4  0  0  0
  8  9  1  0  0  0
  8 10  4  0  0  0
 10 11  1  0  0  0
 10 15  4  0  0  0
 12 13  4  0  0  0
 12 20  1  0  0  0
 13 14  1  0  0  0
 13 15  4  0  0  0
 15 16  1  0  0  0
 16 17  2  0  0  0
 16 18  1  0  0  0
 16 19  2  0  0  0
 20 21  1  0  0  0
 21 22  1  0  0  0
 21 28  1  0  0  0
 22 23  4  0  0  0
 22 27  4  0  0  0
 23 24  4  0  0  0
 24 25  4  0  0  0
 25 26  4  0  0  0
 26 27  4  0  0  0
 28 29  1  0  0  0
 28 30  1  0  0  0
 30 31  4  0  0  0
 30 35  4  0  0  0
 31 32  4  0  0  0
 32 33  4  0  0  0
 33 34  4  0  0  0
 34 35  4  0  0  0
  4 36  1  0  0  0
  4 37  1  0  0  0
  5 38  1  0  0  0
  6 39  1  0  0  0
  6 40  1  0  0  0
 18 41  1  0  0  0
 18 42  1  0  0  0
 20 43  1  0  0  0
 21 44  1  0  0  0
 23 45  1  0  0  0
 24 46  1  0  0  0
 25 47  1  0  0  0
 26 48  1  0  0  0
 27 49  1  0  0  0
 28 50  1  0  0  0
 29 51  1  0  0  0
 31 52  1  0  0  0
 32 53  1  0  0  0
 33 54  1  0  0  0
 34 55  1  0  0  0
 35 56  1  0  0  0
M  END
$$$$
