5k32_ligand
  -I-interpret- 

 45 48  0  0  0  0  0  0  0  0999 V2000
   12.9150   45.8290   13.9240 C   0  0  0  0  0
   15.7270   46.1260   10.6010 C   0  0  0  0  0
   17.1700   46.3790   10.7430 C   0  0  0  0  0
   17.8650   45.7840   11.8050 C   0  0  0  0  0
   17.8830   47.1170    9.7900 C   0  0  0  0  0
   13.1040   45.5470   10.2380 C   0  0  0  0  0
   11.6950   45.1840    9.9330 C   0  0  0  0  0
   12.3960   45.4920   16.2920 C   0  0  0  0  0
   11.9590   46.3190    7.7610 C   0  0  0  0  0
   19.2710   47.2780    9.9560 C   0  0  0  0  0
   19.9370   46.7010   11.0260 C   0  0  0  0  0
   19.2530   45.9430   11.9590 C   0  0  0  0  0
   11.1470   44.3850   10.7150 O   0  0  0  0  0
   13.9160   45.7540    9.1600 C   0  0  0  0  0
   13.3320   45.6920    7.7610 C   0  0  0  0  0
   11.1480   45.6460    8.8020 N   0  0  0  0  0
   15.2080   46.0450    9.3360 N   0  0  0  0  0
   14.9370   45.8870   11.7290 C   0  0  0  0  0
   13.5910   45.5910   11.5560 C   0  0  0  0  0
   12.7590   45.3670   12.6180 N   0  0  0  0  0
   12.3100   45.0830   14.9470 C   0  0  0  0  0
   11.8070   44.7560   17.3040 O   0  0  0  0  0
   10.7720   43.7910   17.0960 C   0  0  0  0  0
   13.1200   46.6570   16.5920 C   0  0  0  0  0
   13.7120   47.4340   15.5920 C   0  0  0  0  0
   13.6070   47.0180   14.2530 C   0  0  0  0  0
   17.3153   45.1830   12.5294 H   0  0  0  0  0
   17.3718   47.5589    8.9347 H   0  0  0  0  0
   11.4909   46.2002    6.7838 H   0  0  0  0  0
   12.0323   47.3858    7.9722 H   0  0  0  0  0
   19.8323   47.8668    9.2305 H   0  0  0  0  0
   21.0119   46.8463   11.1333 H   0  0  0  0  0
   19.7781   45.4797   12.7943 H   0  0  0  0  0
   13.9795   46.2350    7.0725 H   0  0  0  0  0
   13.2565   44.6517    7.4445 H   0  0  0  0  0
   10.1455   45.5315    8.6529 H   0  0  0  0  0
   15.3702   45.9322   12.7282 H   0  0  0  0  0
   11.9323   44.7986   12.4340 H   0  0  0  0  0
   11.7650   44.1728   14.6968 H   0  0  0  0  0
    9.9083   44.2782   16.6435 H   0  0  0  0  0
   11.1366   43.0062   16.4333 H   0  0  0  0  0
   10.4851   43.3558   18.0533 H   0  0  0  0  0
   13.2233   46.9639   17.6328 H   0  0  0  0  0
   14.2471   48.3489   15.8465 H   0  0  0  0  0
   14.0619   47.6158   13.4632 H   0  0  0  0  0
 20  1  1  0  0  0
  1 21  4  0  0  0
  1 26  4  0  0  0
  2  3  1  0  0  0
  2 17  4  0  0  0
 18  2  4  0  0  0
  3  4  4  0  0  0
  3  5  4  0  0  0
  4 12  4  0  0  0
  5 10  4  0  0  0
  6  7  1  0  0  0
  6 14  4  0  0  0
 19  6  4  0  0  0
  7 13  2  0  0  0
  7 16  1  0  0  0
 21  8  4  0  0  0
  8 22  1  0  0  0
  8 24  4  0  0  0
 15  9  1  0  0  0
 16  9  1  0  0  0
 10 11  4  0  0  0
 12 11  4  0  0  0
 14 15  1  0  0  0
 14 17  4  0  0  0
 19 18  4  0  0  0
 19 20  1  0  0  0
 22 23  1  0  0  0
 24 25  4  0  0  0
 25 26  4  0  0  0
  4 27  1  0  0  0
  5 28  1  0  0  0
  9 29  1  0  0  0
  9 30  1  0  0  0
 10 31  1  0  0  0
 11 32  1  0  0  0
 12 33  1  0  0  0
 15 34  1  0  0  0
 15 35  1  0  0  0
 16 36  1  0  0  0
 18 37  1  0  0  0
 20 38  1  0  0  0
 21 39  1  0  0  0
 23 40  1  0  0  0
 23 41  1  0  0  0
 23 42  1  0  0  0
 24 43  1  0  0  0
 25 44  1  0  0  0
 26 45  1  0  0  0
M  END
$$$$
