5v8o_ligand
  -I-interpret- 

 23 25  0  0  0  0  0  0  0  0999 V2000
   44.3480    5.2900  -20.3430 C   0  0  0  0  0
   44.2630    3.8280  -20.1370 C   0  0  0  0  0
   44.1460    7.2350  -21.7690 C   0  0  0  0  0
   43.8170    1.5410  -20.9350 C   0  0  0  0  0
   43.8270    2.9180  -21.1660 C   0  0  0  0  0
   44.5270    8.0540  -20.7230 C   0  0  0  0  0
   44.8200    7.5020  -19.4910 C   0  0  0  0  0
   44.7360    6.1330  -19.2980 C   0  0  0  0  0
   44.0590    5.8630  -21.5890 C   0  0  0  0  0
   44.2270    1.1090  -19.6200 N   0  0  0  0  0
   44.6130    2.0400  -18.6810 C   0  0  0  0  0
   44.6350    3.3680  -18.9440 N   0  0  0  0  0
   44.9270    1.3960  -17.5670 N   0  0  0  0  0
   44.7300    0.0750  -17.8350 N   0  0  0  0  0
   44.3160   -0.1270  -19.0500 N   0  0  0  0  0
   43.4810    0.5710  -21.8010 O   0  0  0  0  0
   43.9126    7.6701  -22.7408 H   0  0  0  0  0
   43.5029    3.3073  -22.1311 H   0  0  0  0  0
   44.5961    9.1319  -20.8696 H   0  0  0  0  0
   45.1192    8.1479  -18.6655 H   0  0  0  0  0
   44.9746    5.7094  -18.3224 H   0  0  0  0  0
   43.7638    5.2255  -22.4224 H   0  0  0  0  0
   45.2496    1.8047  -16.6899 H   0  0  0  0  0
  1  2  1  0  0  0
  1  8  4  0  0  0
  9  1  4  0  0  0
  2  5  2  0  0  0
  2 12  1  0  0  0
  3  6  4  0  0  0
  3  9  4  0  0  0
  5  4  1  0  0  0
  4 10  1  0  0  0
  4 16  2  0  0  0
  6  7  4  0  0  0
  7  8  4  0  0  0
 10 11  1  0  0  0
 10 15  1  0  0  0
 11 12  2  0  0  0
 11 13  1  0  0  0
 13 14  1  0  0  0
 14 15  2  0  0  0
  3 17  1  0  0  0
  5 18  1  0  0  0
  6 19  1  0  0  0
  7 20  1  0  0  0
  8 21  1  0  0  0
  9 22  1  0  0  0
 13 23  1  0  0  0
M  END
$$$$
