5gvl_ligand
  -I-interpret- 

 54 57  0  0  0  0  0  0  0  0999 V2000
   19.9930  -33.8240  -17.3350 N   0  0  0  0  0
   20.2610  -34.0060  -18.4540 C   0  0  0  0  0
   20.5560  -34.2040  -19.6840 C   0  0  0  0  0
   20.6230  -35.4860  -20.1380 C   0  0  0  0  0
   20.3890  -36.5300  -19.3460 N   0  0  0  0  0
   20.9380  -35.8100  -21.5160 O   0  0  0  0  0
   21.0530  -34.8110  -22.4410 C   0  0  0  0  0
   21.2110  -34.9790  -23.7550 N   0  0  0  0  0
   21.2960  -33.6730  -24.2790 N   0  0  0  0  0
   21.1880  -32.7200  -23.3270 C   0  0  0  0  0
   21.2230  -31.2340  -23.5960 C   0  0  0  0  0
   21.0160  -33.4160  -22.0180 C   0  0  0  0  0
   20.8220  -32.9720  -20.5850 C   0  0  0  0  0
   22.0810  -32.2240  -20.0620 C   0  0  0  0  0
   22.2760  -30.7840  -20.5500 C   0  0  0  0  0
   23.3870  -32.9930  -20.2540 C   0  0  0  0  0
   19.5440  -32.1440  -20.4930 C   0  0  0  0  0
   19.2730  -31.3710  -19.3590 C   0  0  0  0  0
   18.1140  -30.6200  -19.2250 C   0  0  0  0  0
   17.9260  -29.9260  -18.1690 C   0  0  0  0  0
   17.7600  -29.3030  -17.2180 N   0  0  0  0  0
   18.5680  -32.1490  -21.4890 C   0  0  0  0  0
   17.3990  -31.3890  -21.3790 C   0  0  0  0  0
   17.1510  -30.6260  -20.2410 C   0  0  0  0  0
   16.4620  -31.4610  -22.5200 C   0  0  0  0  0
   14.7850  -31.5770  -22.1800 S   0  0  0  0  0
   14.3190  -31.6440  -23.8310 C   0  0  0  0  0
   15.4640  -31.5750  -24.6250 C   0  0  0  0  0
   16.6520  -31.4660  -23.8930 C   0  0  0  0  0
   12.8360  -31.7720  -24.1070 C   0  0  0  0  0
   12.2680  -30.6080  -24.7110 O   0  0  0  0  0
   12.6080  -30.3790  -26.0890 C   0  0  0  0  0
   20.1506  -36.3828  -18.3652 H   0  0  0  0  0
   20.4481  -37.4772  -19.7199 H   0  0  0  0  0
   22.1739  -30.9724  -24.0602 H   0  0  0  0  0
   20.4050  -30.9679  -24.2654 H   0  0  0  0  0
   21.1153  -30.6932  -22.6558 H   0  0  0  0  0
   21.8462  -32.1627  -18.9994 H   0  0  0  0  0
   22.3564  -30.7779  -21.6370 H   0  0  0  0  0
   21.4222  -30.1793  -20.2441 H   0  0  0  0  0
   23.1875  -30.3745  -20.1146 H   0  0  0  0  0
   23.3308  -33.9412  -19.7193 H   0  0  0  0  0
   23.5431  -33.1820  -21.3161 H   0  0  0  0  0
   24.2157  -32.4025  -19.8631 H   0  0  0  0  0
   20.0014  -31.3581  -18.5483 H   0  0  0  0  0
   18.7203  -32.7619  -22.3774 H   0  0  0  0  0
   16.2315  -30.0487  -20.1438 H   0  0  0  0  0
   15.4360  -31.6033  -25.7143 H   0  0  0  0  0
   17.6346  -31.3920  -24.3590 H   0  0  0  0  0
   12.3358  -31.9228  -23.1504 H   0  0  0  0  0
   12.7017  -32.6011  -24.8017 H   0  0  0  0  0
   13.6886  -30.2705  -26.1821 H   0  0  0  0  0
   12.2733  -31.2246  -26.6898 H   0  0  0  0  0
   12.1190  -29.4688  -26.4361 H   0  0  0  0  0
  1  2  3  0  0  0
  2  3  1  0  0  0
  3  4  2  0  0  0
  3 13  1  0  0  0
  4  5  1  0  0  0
  4  6  1  0  0  0
  6  7  1  0  0  0
  7  8  4  0  0  0
  7 12  4  0  0  0
  8  9  4  0  0  0
  9 10  4  0  0  0
 10 11  1  0  0  0
 10 12  4  0  0  0
 12 13  1  0  0  0
 13 14  1  0  0  0
 13 17  1  0  0  0
 14 15  1  0  0  0
 14 16  1  0  0  0
 17 18  4  0  0  0
 17 22  4  0  0  0
 18 19  4  0  0  0
 19 20  1  0  0  0
 19 24  4  0  0  0
 20 21  3  0  0  0
 22 23  4  0  0  0
 23 24  4  0  0  0
 23 25  1  0  0  0
 25 26  4  0  0  0
 25 29  4  0  0  0
 26 27  4  0  0  0
 27 28  4  0  0  0
 27 30  1  0  0  0
 28 29  4  0  0  0
 30 31  1  0  0  0
 31 32  1  0  0  0
  5 33  1  0  0  0
  5 34  1  0  0  0
 11 35  1  0  0  0
 11 36  1  0  0  0
 11 37  1  0  0  0
 14 38  1  0  0  0
 15 39  1  0  0  0
 15 40  1  0  0  0
 15 41  1  0  0  0
 16 42  1  0  0  0
 16 43  1  0  0  0
 16 44  1  0  0  0
 18 45  1  0  0  0
 22 46  1  0  0  0
 24 47  1  0  0  0
 28 48  1  0  0  0
 29 49  1  0  0  0
 30 50  1  0  0  0
 30 51  1  0  0  0
 32 52  1  0  0  0
 32 53  1  0  0  0
 32 54  1  0  0  0
M  END
$$$$
