### 
### Created by X-TOOL on Mon Sep 10 21:12:54 2018
### 

@<TRIPOS>MOLECULE
2c02_ligand
   39    41     1     0     0
SMALL
GAST_HUCK


@<TRIPOS>ATOM
      1 PB         13.2450   14.5830    7.0130 P.3       1 ADP         0.2069
      2 O1B        14.8210   14.7350    6.5590 O.co2     1 ADP        -0.5891
      3 O2B        12.6990   15.7960    7.4900 O.co2     1 ADP        -0.5891
      4 O3B        12.3660   13.9890    6.0000 O.co2     1 ADP        -0.5891
      5 PA         12.8750   13.6970    9.5600 P.3       1 ADP         0.3276
      6 O1A        13.4860   14.8140   10.2580 O.co2     1 ADP        -0.5556
      7 O2A        11.3940   13.8220    9.6560 O.co2     1 ADP        -0.5556
      8 O3A        13.3020   13.5830    8.1350 O.3       1 ADP        -0.1548
      9 O5         13.2040   12.2420   10.3010 O.3       1 ADP        -0.2436
     10 C5         12.8480   12.0590   11.7630 C.3       1 ADP         0.1132
     11 C4         13.2280   10.6840   12.3010 C.3       1 ADP         0.1189
     12 O4         12.0780    9.9380   12.7490 O.3       1 ADP        -0.3364
     13 C3         13.9120    9.6970   11.3560 C.3       1 ADP         0.1149
     14 O3         15.2420   10.0890   11.0820 O.3       1 ADP        -0.3864
     15 C2         13.6490    8.3420   12.1190 C.3       1 ADP         0.1385
     16 O2         14.6630    8.0620   13.1230 O.3       1 ADP        -0.3836
     17 C1         12.2250    8.4970   12.6970 C.3       1 ADP         0.2010
     18 N9         11.1080    7.8310   11.8270 N.pl3     1 ADP        -0.1919
     19 C8         11.0350    7.5720   10.4690 C.2       1 ADP         0.1123
     20 N7          9.8730    6.9750   10.1600 N.2       1 ADP        -0.2958
     21 C5          9.1910    6.8430   11.2990 C.ar      1 ADP         0.1045
     22 C6          7.8430    6.2510   11.5480 C.ar      1 ADP         0.1298
     23 N6          7.0110    5.7120   10.6370 N.pl3     1 ADP        -0.3152
     24 N1          7.3780    6.2580   12.9220 N.ar      1 ADP        -0.2698
     25 C2          8.1220    6.7850   14.0060 C.ar      1 ADP         0.0533
     26 N3          9.3920    7.3380   13.7380 N.ar      1 ADP        -0.2714
     27 C4          9.9540    7.3850   12.4130 C.ar      1 ADP         0.1613
     28 H1         11.7624   12.1929   11.8789 H         1 ADP         0.0648
     29 H2         13.3766   12.8238   12.3509 H         1 ADP         0.0648
     30 H3         13.9010   10.8626   13.1525 H         1 ADP         0.0651
     31 H4         13.3871    9.6648   10.3899 H         1 ADP         0.0648
     32 H5         15.2405   10.9474   10.6750 H         1 ADP         0.2100
     33 H6         13.6568    7.5103   11.3991 H         1 ADP         0.0676
     34 H7         14.4621    7.2394   13.5535 H         1 ADP         0.2101
     35 H8         12.1773    8.0658   13.7078 H         1 ADP         0.0996
     36 H9         11.8142    7.8189    9.7494 H         1 ADP         0.1349
     37 H10         6.1001    5.3327   10.9323 H         1 ADP         0.1820
     38 H11         7.2854    5.6790    9.6448 H         1 ADP         0.1820
     39 H12         7.7261    6.7640   15.0149 H         1 ADP         0.0996
@<TRIPOS>BOND
     1    1    2 ar 
     2    1    3 ar 
     3    1    4 ar 
     4    8    1 1  
     5    5    6 ar 
     6    5    7 ar 
     7    5    8 1  
     8    5    9 1  
     9    9   10 1  
    10   10   11 1  
    11   11   12 1  
    12   11   13 1  
    13   12   17 1  
    14   13   14 1  
    15   13   15 1  
    16   15   16 1  
    17   15   17 1  
    18   17   18 1  
    19   18   19 1  
    20   18   27 1  
    21   19   20 2  
    22   20   21 1  
    23   21   22 ar 
    24   21   27 ar 
    25   22   23 1  
    26   22   24 ar 
    27   24   25 ar 
    28   25   26 ar 
    29   26   27 ar 
    30   10   28 1  
    31   10   29 1  
    32   11   30 1  
    33   13   31 1  
    34   14   32 1  
    35   15   33 1  
    36   16   34 1  
    37   17   35 1  
    38   19   36 1  
    39   23   37 1  
    40   23   38 1  
    41   25   39 1  
@<TRIPOS>SUBSTRUCTURE
     1 ADP         1

