3cjo_ligand
  -I-interpret- 

 62 65  0  0  0  0  0  0  0  0999 V2000
   12.6510   21.8440  109.7570 C   0  0  0  0  0
   17.9100   18.4110  110.2190 C   0  0  0  0  0
   18.1600   13.0720  113.8660 C   0  0  0  0  0
   18.7830   14.1930  113.3090 C   0  0  0  0  0
   17.3260   12.3420  113.0510 C   0  0  0  0  0
   18.5390   14.4640  111.9160 C   0  0  0  0  0
   17.0570   12.6660  111.6550 C   0  0  0  0  0
   22.5730   15.3840  105.3700 C   0  0  0  0  0
   22.5850   14.2540  106.1840 C   0  0  0  0  0
   20.5240   16.1590  106.4350 C   0  0  0  0  0
   15.2570   19.3220  111.2690 C   0  0  0  0  0
   13.9770   20.1730  111.1400 C   0  0  0  0  0
   18.9250   13.8490  108.9320 C   0  0  0  0  0
   13.9780   20.0640  108.6330 C   0  0  0  0  0
   18.4480   15.9770  108.1590 C   0  0  0  0  0
   16.1590   13.8360  108.8560 C   0  0  0  0  0
   17.6920   13.7260  111.0500 C   0  0  0  0  0
   21.5310   16.3250  105.5060 C   0  0  0  0  0
   21.5310   14.0200  107.0960 C   0  0  0  0  0
   20.4900   14.9560  107.2490 C   0  0  0  0  0
   15.4460   18.5370  109.9370 C   0  0  0  0  0
   19.3600   14.8260  108.1140 C   0  0  0  0  0
   15.3770   19.4550  108.7070 C   0  0  0  0  0
   16.6340   16.4090  110.0230 C   0  0  0  0  0
   17.5120   14.1540  109.4980 C   0  0  0  0  0
   13.9120   20.9790  109.8360 N   0  3  0  0  0
   17.5520   15.6400  109.2820 N   0  0  0  0  0
   16.6500   17.7640  109.9710 N   0  0  0  0  0
   15.9930   12.4730  108.6590 O   0  0  0  0  0
   15.6870   15.8390  110.6690 O   0  0  0  0  0
   21.5750   17.4130  104.7590 F   0  0  0  0  0
   21.6310   12.8900  107.7890 F   0  0  0  0  0
   16.2400   20.4850  108.9080 F   0  0  0  0  0
   11.7696   21.2046  109.8063 H   0  0  0  0  0
   12.6400   22.5451  110.5915 H   0  0  0  0  0
   12.6489   22.3959  108.8171 H   0  0  0  0  0
   18.0939   19.1547  109.4436 H   0  0  0  0  0
   17.8807   18.8994  111.1930 H   0  0  0  0  0
   18.7071   17.6676  110.2077 H   0  0  0  0  0
   18.3284   12.7878  114.9047 H   0  0  0  0  0
   19.4285   14.8370  113.9063 H   0  0  0  0  0
   16.8354   11.4662  113.4756 H   0  0  0  0  0
   19.0563   15.3209  111.4844 H   0  0  0  0  0
   16.3478   12.0641  111.0867 H   0  0  0  0  0
   23.3619   15.5399  104.6342 H   0  0  0  0  0
   23.4115   13.5465  106.1174 H   0  0  0  0  0
   19.7589   16.9257  106.5573 H   0  0  0  0  0
   15.1672   18.6295  112.1059 H   0  0  0  0  0
   16.1190   19.9625  111.4554 H   0  0  0  0  0
   13.9693   20.8833  111.9667 H   0  0  0  0  0
   13.1264   19.4915  111.1485 H   0  0  0  0  0
   19.4965   12.9515  109.1685 H   0  0  0  0  0
   13.1960   19.3049  108.6484 H   0  0  0  0  0
   13.8093   20.5984  107.6981 H   0  0  0  0  0
   17.9138   16.1321  107.2216 H   0  0  0  0  0
   18.9675   16.9248  108.3002 H   0  0  0  0  0
   16.1139   14.3314  107.8861 H   0  0  0  0  0
   15.3713   14.1852  109.5236 H   0  0  0  0  0
   14.6113   17.8428  109.8402 H   0  0  0  0  0
   15.6137   18.8935  107.8032 H   0  0  0  0  0
   14.7216   21.5994  109.8326 H   0  0  0  0  0
   15.1368   12.3110  108.2562 H   0  0  0  0  0
 26  1  1  0  0  0
 28  2  1  0  0  0
  4  3  4  0  0  0
  5  3  4  0  0  0
  6  4  4  0  0  0
  7  5  4  0  0  0
 17  6  4  0  0  0
 17  7  4  0  0  0
  9  8  4  0  0  0
 18  8  4  0  0  0
 19  9  4  0  0  0
 10 18  4  0  0  0
 20 10  4  0  0  0
 11 12  1  0  0  0
 21 11  1  0  0  0
 12 26  1  0  0  0
 22 13  2  0  0  0
 13 25  1  0  0  0
 23 14  1  0  0  0
 14 26  1  0  0  0
 15 22  1  0  0  0
 27 15  1  0  0  0
 25 16  1  0  0  0
 16 29  1  0  0  0
 25 17  1  0  0  0
 18 31  1  0  0  0
 20 19  4  0  0  0
 19 32  1  0  0  0
 22 20  1  0  0  0
 21 23  1  0  0  0
 28 21  1  0  0  0
 23 33  1  0  0  0
 24 27  1  0  0  0
 24 28  1  0  0  0
 24 30  2  0  0  0
 25 27  1  0  0  0
  1 34  1  0  0  0
  1 35  1  0  0  0
  1 36  1  0  0  0
  2 37  1  0  0  0
  2 38  1  0  0  0
  2 39  1  0  0  0
  3 40  1  0  0  0
  4 41  1  0  0  0
  5 42  1  0  0  0
  6 43  1  0  0  0
  7 44  1  0  0  0
  8 45  1  0  0  0
  9 46  1  0  0  0
 10 47  1  0  0  0
 11 48  1  0  0  0
 11 49  1  0  0  0
 12 50  1  0  0  0
 12 51  1  0  0  0
 13 52  1  0  0  0
 14 53  1  0  0  0
 14 54  1  0  0  0
 15 55  1  0  0  0
 15 56  1  0  0  0
 16 57  1  0  0  0
 16 58  1  0  0  0
 21 59  1  0  0  0
 23 60  1  0  0  0
 26 61  1  0  0  0
 29 62  1  0  0  0
M  END
$$$$
