1bnq_ligand
  -I-interpret- 

 42 43  0  0  0  0  0  0  0  0999 V2000
   -5.4110    2.1300   15.9940 C   0  0  0  0  0
   -3.4750    5.2100   12.8070 C   0  0  0  0  0
   -3.0900    3.9100   13.5610 C   0  0  0  0  0
   -3.3570    7.4280   13.8130 C   0  0  0  0  0
   -2.1140    7.2940   14.6710 C   0  0  0  0  0
   -1.8980    9.6140   15.1440 C   0  0  0  0  0
   -1.4990    2.9730   11.8820 C   0  0  0  0  0
   -5.3690    0.9060   18.2470 O   0  0  0  0  0
   -7.3410    1.0020   17.0140 O   0  0  0  0  0
   -5.5150   -0.4740   16.3480 N   0  0  0  0  0
   -5.9400    0.8170   16.9460 S   0  0  0  0  0
   -4.2770    2.2090   15.2360 C   0  0  0  0  0
   -4.1380    3.3910   14.5620 C   0  0  0  0  0
   -5.2030    4.2360   14.8560 C   0  0  0  0  0
   -6.3670    3.5540   15.9020 S   0  0  0  0  0
   -5.3460    5.8670   14.3380 S   0  0  0  0  0
   -6.3440    5.9330   13.3320 O   0  0  0  0  0
   -5.7570    6.7250   15.3850 O   0  0  0  0  0
   -3.9590    6.1200   13.8370 N   0  0  0  0  0
   -2.8090    2.9050   12.5390 N   0  3  0  0  0
   -1.3150    8.4560   14.5440 O   0  0  0  0  0
   -1.2660    1.8440   10.8680 C   0  0  0  0  0
   -4.2331    5.0241   12.0462 H   0  0  0  0  0
   -2.6254    5.6286   12.2676 H   0  0  0  0  0
   -2.2264    4.1295   14.1888 H   0  0  0  0  0
   -4.0329    8.1943   14.1924 H   0  0  0  0  0
   -3.1189    7.7481   12.7986 H   0  0  0  0  0
   -1.5420    6.4261   14.3431 H   0  0  0  0  0
   -2.4076    7.1711   15.7135 H   0  0  0  0  0
   -2.8576    9.8226   14.6710 H   0  0  0  0  0
   -2.0477    9.4337   16.2085 H   0  0  0  0  0
   -1.2319   10.4661   15.0086 H   0  0  0  0  0
   -0.7378    2.8811   12.6567 H   0  0  0  0  0
   -1.4524    3.9170   11.3391 H   0  0  0  0  0
   -4.9149   -1.1076   16.8760 H   0  0  0  0  0
   -5.8231   -0.7272   15.4092 H   0  0  0  0  0
   -3.5476    1.4014   15.1739 H   0  0  0  0  0
   -3.4985    3.0558   11.8026 H   0  0  0  0  0
   -2.8341    2.0051   13.0185 H   0  0  0  0  0
   -1.3283    0.8820   11.3766 H   0  0  0  0  0
   -2.0266    1.8944   10.0889 H   0  0  0  0  0
   -0.2783    1.9569   10.4211 H   0  0  0  0  0
  1 15  4  0  0  0
  1 12  4  0  0  0
  1 11  1  0  0  0
 11  8  2  0  0  0
 11  9  2  0  0  0
 11 10  1  0  0  0
 12 13  4  0  0  0
 13 14  4  0  0  0
 13  3  1  0  0  0
  3 20  1  0  0  0
  3  2  1  0  0  0
  2 19  1  0  0  0
 19  4  1  0  0  0
 19 16  1  0  0  0
 16 18  2  0  0  0
 16 17  2  0  0  0
 16 14  1  0  0  0
 14 15  4  0  0  0
  4  5  1  0  0  0
  5 21  1  0  0  0
 21  6  1  0  0  0
 20  7  1  0  0  0
  7 22  1  0  0  0
  2 23  1  0  0  0
  2 24  1  0  0  0
  3 25  1  0  0  0
  4 26  1  0  0  0
  4 27  1  0  0  0
  5 28  1  0  0  0
  5 29  1  0  0  0
  6 30  1  0  0  0
  6 31  1  0  0  0
  6 32  1  0  0  0
  7 33  1  0  0  0
  7 34  1  0  0  0
 10 35  1  0  0  0
 10 36  1  0  0  0
 12 37  1  0  0  0
 20 38  1  0  0  0
 20 39  1  0  0  0
 22 40  1  0  0  0
 22 41  1  0  0  0
 22 42  1  0  0  0
M  END
$$$$
