### 
### Created by X-TOOL on Mon Sep 10 21:13:31 2018
### 

@<TRIPOS>MOLECULE
5km5_ligand
   43    46     1     0     0
SMALL
GAST_HUCK


@<TRIPOS>ATOM
      1 O2        -12.2630    0.8220   -1.2550 O.co2     1 TR5        -0.5537
      2 PB        -12.0210    0.6020    0.2210 P.3       1 TR5         0.2008
      3 O3        -13.2360    0.4720    1.1000 O.co2     1 TR5        -0.5537
      4 O1        -10.8950    1.4060    0.8190 O.co2     1 TR5        -0.5537
      5 O5'       -11.4460   -0.8740    0.2500 O.3       1 TR5        -0.2734
      6 C5'       -10.8150   -1.3950    1.4140 C.3       1 TR5         0.1072
      7 C4'       -10.8610   -2.8960    1.3810 C.3       1 TR5         0.1182
      8 O4'        -9.8930   -3.4610    2.2980 O.3       1 TR5        -0.3368
      9 C3'       -12.2250   -3.4990    1.7620 C.3       1 TR5         0.1149
     10 O3'       -12.6870   -4.3450    0.7000 O.3       1 TR5        -0.3864
     11 C2'       -11.9140   -4.3320    3.0150 C.3       1 TR5         0.1381
     12 O2'       -12.6860   -5.5040    3.1380 O.3       1 TR5        -0.3836
     13 C1'       -10.4360   -4.6450    2.8130 C.3       1 TR5         0.1959
     14 N9         -9.7060   -5.0420    4.0220 N.pl3     1 TR5        -0.2236
     15 C8         -9.8570   -4.5220    5.2870 C.2       1 TR5         0.0355
     16 C7         -8.9310   -5.2490    6.1280 C.2       1 TR5         0.0348
     17 C5         -8.3090   -6.1300    5.3180 C.ar      1 TR5         0.0530
     18 C4         -8.7730   -6.0220    4.0580 C.ar      1 TR5         0.1401
     19 N3         -8.2180   -6.8760    3.1630 N.ar      1 TR5        -0.2771
     20 C2         -7.2650   -7.7680    3.5190 C.ar      1 TR5         0.0501
     21 N1         -6.7910   -7.8950    4.7720 N.ar      1 TR5        -0.2697
     22 C6         -7.2960   -7.0880    5.7320 C.ar      1 TR5         0.1649
     23 N61        -6.9410   -7.0700    7.0870 N.pl3     1 TR5        -0.1291
     24 C62        -5.9240   -7.9880    7.6100 C.3       1 TR5         0.0668
     25 N71        -7.5740   -6.1580    7.9560 N.pl3     1 TR5        -0.1400
     26 C72        -8.5140   -5.2720    7.5590 C.cat     1 TR5         0.2453
     27 N73        -9.1220   -4.3530    8.5540 N.pl3     1 TR5        -0.2743
     28 H1        -11.3408   -1.0320    2.3094 H         1 TR5         0.0639
     29 H2         -9.7673   -1.0612    1.4434 H         1 TR5         0.0639
     30 H3        -10.6152   -3.2130    0.3568 H         1 TR5         0.0650
     31 H4        -12.9681   -2.7164    1.9751 H         1 TR5         0.0648
     32 H5        -13.5288   -4.7166    0.9361 H         1 TR5         0.2100
     33 H6        -12.0630   -3.7258    3.9207 H         1 TR5         0.0676
     34 H7        -12.5319   -6.0637    2.3861 H         1 TR5         0.2101
     35 H8        -10.3399   -5.4568    2.0770 H         1 TR5         0.0991
     36 H9        -10.5347   -3.7262    5.5926 H         1 TR5         0.0924
     37 H10        -6.8603   -8.4173    2.7511 H         1 TR5         0.0975
     38 H11        -5.7931   -7.8143    8.6883 H         1 TR5         0.0537
     39 H12        -4.9698   -7.8119    7.0918 H         1 TR5         0.0537
     40 H13        -6.2462   -9.0263    7.4423 H         1 TR5         0.0537
     41 H14        -7.3047   -6.1675    8.9501 H         1 TR5         0.3587
     42 H15        -9.8390   -3.6752    8.2583 H         1 TR5         0.3177
     43 H16        -8.8268   -4.3932    9.5400 H         1 TR5         0.3177
@<TRIPOS>BOND
     1    1    2 ar 
     2    2    3 ar 
     3    2    4 ar 
     4    2    5 1  
     5    5    6 1  
     6    6    7 1  
     7    7    8 1  
     8    7    9 1  
     9    8   13 1  
    10    9   10 1  
    11    9   11 1  
    12   11   12 1  
    13   11   13 1  
    14   13   14 1  
    15   14   15 1  
    16   14   18 1  
    17   15   16 2  
    18   16   17 1  
    19   16   26 1  
    20   17   18 ar 
    21   17   22 ar 
    22   18   19 ar 
    23   19   20 ar 
    24   20   21 ar 
    25   21   22 ar 
    26   22   23 1  
    27   23   24 1  
    28   23   25 1  
    29   25   26 ar 
    30   26   27 ar 
    31    6   28 1  
    32    6   29 1  
    33    7   30 1  
    34    9   31 1  
    35   10   32 1  
    36   11   33 1  
    37   12   34 1  
    38   13   35 1  
    39   15   36 1  
    40   20   37 1  
    41   24   38 1  
    42   24   39 1  
    43   24   40 1  
    44   25   41 1  
    45   27   42 1  
    46   27   43 1  
@<TRIPOS>SUBSTRUCTURE
     1 TR5         1

