5km5_ligand
  -I-interpret- 

 44 47  0  0  0  0  0  0  0  0999 V2000
  -12.2630    0.8220   -1.2550 O   0  0  0  0  0
  -12.0210    0.6020    0.2210 P   0  0  0  0  0
  -13.2360    0.4720    1.1000 O   0  0  0  0  0
  -10.8950    1.4060    0.8190 O   0  0  0  0  0
  -11.4460   -0.8740    0.2500 O   0  0  0  0  0
  -10.8150   -1.3950    1.4140 C   0  0  0  0  0
  -10.8610   -2.8960    1.3810 C   0  0  0  0  0
   -9.8930   -3.4610    2.2980 O   0  0  0  0  0
  -12.2250   -3.4990    1.7620 C   0  0  0  0  0
  -12.6870   -4.3450    0.7000 O   0  0  0  0  0
  -11.9140   -4.3320    3.0150 C   0  0  0  0  0
  -12.6860   -5.5040    3.1380 O   0  0  0  0  0
  -10.4360   -4.6450    2.8130 C   0  0  0  0  0
   -9.7060   -5.0420    4.0220 N   0  0  0  0  0
   -9.8570   -4.5220    5.2870 C   0  0  0  0  0
   -8.9310   -5.2490    6.1280 C   0  0  0  0  0
   -8.3090   -6.1300    5.3180 C   0  0  0  0  0
   -8.7730   -6.0220    4.0580 C   0  0  0  0  0
   -8.2180   -6.8760    3.1630 N   0  0  0  0  0
   -7.2650   -7.7680    3.5190 C   0  0  0  0  0
   -6.7910   -7.8950    4.7720 N   0  0  0  0  0
   -7.2960   -7.0880    5.7320 C   0  0  0  0  0
   -6.9410   -7.0700    7.0870 N   0  0  0  0  0
   -5.9240   -7.9880    7.6100 C   0  0  0  0  0
   -7.5740   -6.1580    7.9560 N   0  0  0  0  0
   -8.5140   -5.2720    7.5590 C   0  0  0  0  0
   -9.1220   -4.3530    8.5540 N   0  0  0  0  0
  -11.4202    0.8891   -1.7098 H   0  0  0  0  0
  -10.1632    1.4403    0.1986 H   0  0  0  0  0
  -11.3365   -1.0355    2.3011 H   0  0  0  0  0
   -9.7767   -1.0644    1.4426 H   0  0  0  0  0
  -10.6457   -3.1462    0.3422 H   0  0  0  0  0
  -12.9989   -2.7515    1.9362 H   0  0  0  0  0
  -13.5377   -4.7205    0.9386 H   0  0  0  0  0
  -12.1490   -3.8013    3.9376 H   0  0  0  0  0
  -12.4357   -5.9679    3.9403 H   0  0  0  0  0
  -10.3422   -5.5117    2.1586 H   0  0  0  0  0
  -10.5353   -3.7255    5.5928 H   0  0  0  0  0
   -6.8580   -8.4209    2.7469 H   0  0  0  0  0
   -6.2444   -9.0164    7.4432 H   0  0  0  0  0
   -4.9791   -7.8126    7.0957 H   0  0  0  0  0
   -5.7952   -7.8150    8.6784 H   0  0  0  0  0
   -7.3073   -6.1675    8.9405 H   0  0  0  0  0
   -9.8398   -3.6892    8.2633 H   0  0  0  0  0
  1  2  1  0  0  0
  2  3  2  0  0  0
  2  4  1  0  0  0
  2  5  1  0  0  0
  5  6  1  0  0  0
  6  7  1  0  0  0
  7  8  1  0  0  0
  7  9  1  0  0  0
  8 13  1  0  0  0
  9 10  1  0  0  0
  9 11  1  0  0  0
 11 12  1  0  0  0
 11 13  1  0  0  0
 13 14  1  0  0  0
 14 15  4  0  0  0
 14 18  4  0  0  0
 15 16  4  0  0  0
 16 17  4  0  0  0
 16 26  1  0  0  0
 17 18  4  0  0  0
 17 22  4  0  0  0
 18 19  4  0  0  0
 19 20  4  0  0  0
 20 21  4  0  0  0
 21 22  4  0  0  0
 22 23  1  0  0  0
 23 24  1  0  0  0
 23 25  1  0  0  0
 25 26  1  0  0  0
 26 27  2  0  0  0
  1 28  1  0  0  0
  4 29  1  0  0  0
  6 30  1  0  0  0
  6 31  1  0  0  0
  7 32  1  0  0  0
  9 33  1  0  0  0
 10 34  1  0  0  0
 11 35  1  0  0  0
 12 36  1  0  0  0
 13 37  1  0  0  0
 15 38  1  0  0  0
 20 39  1  0  0  0
 24 40  1  0  0  0
 24 41  1  0  0  0
 24 42  1  0  0  0
 25 43  1  0  0  0
 27 44  1  0  0  0
M  END
$$$$
