6qtr_ligand
  -I-interpret- 

186188  0  0  0  0  0  0  0  0999 V2000
   -1.8760   -5.8190   27.6750 N   0  3  0  0  0
   -1.7440   -4.4240   28.0790 C   0  0  0  0  0
   -1.6300   -3.5490   26.8370 C   0  0  0  0  0
   -2.0520   -2.3880   26.8240 O   0  0  0  0  0
   -0.5100   -4.2370   28.9600 C   0  0  0  0  0
   -0.3370   -2.8250   29.5020 C   0  0  0  0  0
   -1.3520   -2.4770   30.5760 C   0  0  0  0  0
   -2.0520   -3.3930   31.0570 O   0  0  0  0  0
   -1.4490   -1.2860   30.9400 O   0  0  0  0  0
   -1.0590   -4.1260   25.7810 N   0  0  0  0  0
   -0.8120   -3.3620   24.5660 C   0  0  0  0  0
   -2.1190   -2.9790   23.8810 C   0  0  0  0  0
   -2.1760   -1.9610   23.1740 O   0  0  0  0  0
    0.1350   -4.1530   23.6450 C   0  0  0  0  0
    0.7130   -3.2390   22.5660 C   0  0  0  0  0
   -0.5910   -5.3470   23.0290 C   0  0  0  0  0
    1.6640   -2.1870   23.1070 C   0  0  0  0  0
   -3.1900   -3.7590   24.0720 N   0  0  0  0  0
   -4.4970   -3.4050   23.5410 C   0  0  0  0  0
   -5.4330   -2.9250   24.6380 C   0  0  0  0  0
   -6.6430   -3.1180   24.5540 O   0  0  0  0  0
   -5.1000   -4.5590   22.7450 C   0  0  0  0  0
   -4.3180   -4.8680   21.4860 C   0  0  0  0  0
   -4.3590   -3.7100   20.5380 C   0  0  0  0  0
   -5.6110   -3.6460   19.7920 N   0  0  0  0  0
   -6.0010   -2.6010   19.0770 C   0  0  0  0  0
   -5.2800   -1.4970   19.0590 N   0  0  0  0  0
   -7.1110   -2.6610   18.3840 N   0  0  0  0  0
   -4.9070   -2.2930   25.6710 N   0  0  0  0  0
   -5.7570   -1.6640   26.6680 C   0  0  0  0  0
   -6.2430   -0.3180   26.1480 C   0  0  0  0  0
   -5.4560    0.4900   25.6440 O   0  0  0  0  0
   -4.9850   -1.4430   27.9700 C   0  0  0  0  0
   -5.8230   -0.7680   29.0560 C   0  0  0  0  0
   -5.1170   -0.6760   30.4100 C   0  0  0  0  0
   -6.0350   -0.1840   31.4350 N   0  0  0  0  0
   -6.7160   -0.9580   32.2790 C   0  0  0  0  0
   -6.5800   -2.2780   32.2490 N   0  0  0  0  0
   -7.5310   -0.4030   33.1660 N   0  0  0  0  0
   -7.5370   -0.0830   26.2670 N   0  0  0  0  0
   -8.1270    1.1880   25.8420 C   0  0  0  0  0
   -7.7150    2.2780   26.8240 C   0  0  0  0  0
   -7.7600    2.0550   28.0520 O   0  0  0  0  0
   -9.6550    1.0540   25.7720 C   0  0  0  0  0
  -10.2860    2.3600   25.3530 C   0  0  0  0  0
  -10.0720   -0.0730   24.8170 C   0  0  0  0  0
   -7.3290    3.4560   26.3510 N   0  0  0  0  0
   -6.9570    4.5260   27.2810 C   0  0  0  0  0
   -8.1390    4.9620   28.1280 C   0  0  0  0  0
   -9.2950    4.8880   27.7100 O   0  0  0  0  0
   -6.4700    5.6560   26.3620 C   0  0  0  0  0
   -6.8930    5.3120   25.0030 C   0  0  0  0  0
   -7.0860    3.8270   24.9480 C   0  0  0  0  0
   -7.8300    5.3960   29.3430 N   0  0  0  0  0
   -8.7810    6.0440   30.2320 C   0  0  0  0  0
   -8.3780    7.5090   30.3500 C   0  0  0  0  0
   -7.1860    7.8250   30.4130 O   0  0  0  0  0
   -8.7500    5.3930   31.6190 C   0  0  0  0  0
   -9.1040    3.9050   31.6350 C   0  0  0  0  0
   -8.9540    3.2660   33.0140 C   0  0  0  0  0
   -8.4190    3.9240   33.9310 O   0  0  0  0  0
   -9.3740    2.0990   33.1820 O   0  0  0  0  0
   -9.3610    8.4020   30.3540 N   0  0  0  0  0
   -9.0960    9.8320   30.4550 C   0  0  0  0  0
   -9.9390   10.4150   31.5780 C   0  0  0  0  0
  -11.1410   10.1450   31.6540 O   0  0  0  0  0
   -9.4150   10.5560   29.1430 C   0  0  0  0  0
   -9.3330   12.0530   29.2420 C   0  0  0  0  0
   -8.1310   12.7140   29.0360 C   0  0  0  0  0
  -10.4610   12.8000   29.5420 C   0  0  0  0  0
   -8.0560   14.0950   29.1300 C   0  0  0  0  0
  -10.3950   14.1780   29.6380 C   0  0  0  0  0
   -9.1920   14.8270   29.4330 C   0  0  0  0  0
   -9.3100   11.2250   32.4320 N   0  0  0  0  0
  -10.0100   11.8390   33.5450 C   0  0  0  0  0
   -9.5730   13.2530   33.8770 C   0  0  0  0  0
   -9.6770   13.6810   35.0310 O   0  0  0  0  0
   -9.0940   13.9940   32.8820 N   0  0  0  0  0
   -8.6320   15.3510   33.0770 C   0  0  0  0  0
   -9.6390   16.3910   32.6270 C   0  0  0  0  0
  -10.8390   16.1270   32.4990 O   0  0  0  0  0
   -9.1370   17.6000   32.3890 N   0  0  0  0  0
   -9.9640   18.7020   31.9110 C   0  0  0  0  0
   -9.8750   18.8000   30.3920 C   0  0  0  0  0
   -8.9700   18.2330   29.7790 O   0  0  0  0  0
   -9.5130   20.0200   32.5410 C   0  0  0  0  0
   -9.5860   20.0330   34.0520 C   0  0  0  0  0
  -10.6530   20.6340   34.7130 C   0  0  0  0  0
   -8.5900   19.4430   34.8190 C   0  0  0  0  0
  -10.7240   20.6490   36.0960 C   0  0  0  0  0
   -8.6490   19.4530   36.2020 C   0  0  0  0  0
   -9.7180   20.0540   36.8350 C   0  0  0  0  0
   -9.7700   20.0550   38.2080 O   0  0  0  0  0
  -10.7070   19.4480   29.7560 O   0  0  0  0  0
   -2.7037   -5.9250   27.0884 H   0  0  0  0  0
   -1.0476   -6.0995   27.1501 H   0  0  0  0  0
   -1.9686   -6.4048   28.5049 H   0  0  0  0  0
   -2.6248   -4.1350   28.6523 H   0  0  0  0  0
    0.3616   -4.4529   28.3420 H   0  0  0  0  0
   -0.6250   -4.8987   29.8185 H   0  0  0  0  0
   -0.4770   -2.1306   28.6736 H   0  0  0  0  0
    0.6556   -2.7583   29.9474 H   0  0  0  0  0
   -1.8184   -4.2254   30.6397 H   0  0  0  0  0
   -0.7929   -5.1098   25.8236 H   0  0  0  0  0
   -0.3206   -2.4229   24.8204 H   0  0  0  0  0
    0.9635   -4.5371   24.2401 H   0  0  0  0  0
   -0.1216   -2.7161   22.0989 H   0  0  0  0  0
    1.2770   -3.8652   21.8747 H   0  0  0  0  0
   -0.9446   -6.0047   23.8230 H   0  0  0  0  0
   -1.4398   -4.9923   22.4443 H   0  0  0  0  0
    0.0950   -5.8932   22.3815 H   0  0  0  0  0
    1.1365   -1.5552   23.8216 H   0  0  0  0  0
    2.5019   -2.6771   23.6028 H   0  0  0  0  0
    2.0341   -1.5759   22.2838 H   0  0  0  0  0
   -3.0869   -4.6235   24.6034 H   0  0  0  0  0
   -4.3600   -2.5716   22.8520 H   0  0  0  0  0
   -6.1098   -4.2726   22.4512 H   0  0  0  0  0
   -5.0839   -5.4471   23.3767 H   0  0  0  0  0
   -4.7626   -5.7364   21.0000 H   0  0  0  0  0
   -3.2805   -5.0652   21.7558 H   0  0  0  0  0
   -3.5458   -3.8311   19.8223 H   0  0  0  0  0
   -4.2665   -2.7936   21.1209 H   0  0  0  0  0
   -6.2264   -4.4589   19.8229 H   0  0  0  0  0
   -5.5876   -0.6959   18.5076 H   0  0  0  0  0
   -4.4147   -1.4441   19.5965 H   0  0  0  0  0
   -7.6739   -3.5115   18.3953 H   0  0  0  0  0
   -3.8930   -2.2457   25.7704 H   0  0  0  0  0
   -6.6055   -2.3201   26.8623 H   0  0  0  0  0
   -4.1413   -0.7895   27.7483 H   0  0  0  0  0
   -4.6812   -2.4203   28.3452 H   0  0  0  0  0
   -6.7203   -1.3707   29.1968 H   0  0  0  0  0
   -6.0262    0.2504   28.7248 H   0  0  0  0  0
   -4.2783    0.0151   30.3253 H   0  0  0  0  0
   -4.7679   -1.6685   30.6949 H   0  0  0  0  0
   -6.1638    0.8251   31.5097 H   0  0  0  0  0
   -7.1007   -2.8594   32.9057 H   0  0  0  0  0
   -5.9548   -2.7110   31.5693 H   0  0  0  0  0
   -7.6338    0.6113   33.1995 H   0  0  0  0  0
   -8.1396   -0.8037   26.6643 H   0  0  0  0  0
   -7.7674    1.4561   24.8486 H   0  0  0  0  0
  -10.0119    0.7992   26.7699 H   0  0  0  0  0
  -10.0322    3.1337   26.0777 H   0  0  0  0  0
   -9.9110    2.6443   24.3698 H   0  0  0  0  0
  -11.3687    2.2417   25.3101 H   0  0  0  0  0
   -9.6957    0.1421   23.8169 H   0  0  0  0  0
   -9.6559   -1.0174   25.1678 H   0  0  0  0  0
  -11.1595   -0.1412   24.7905 H   0  0  0  0  0
   -6.1972    4.2148   27.9979 H   0  0  0  0  0
   -5.3860    5.7574   26.4153 H   0  0  0  0  0
   -6.8934    6.6126   26.6680 H   0  0  0  0  0
   -6.1385    5.6234   24.2807 H   0  0  0  0  0
   -7.8220    5.8247   24.7537 H   0  0  0  0  0
   -7.9076    3.5380   24.2927 H   0  0  0  0  0
   -6.2247    3.3107   24.5240 H   0  0  0  0  0
   -6.8729    5.2681   29.6716 H   0  0  0  0  0
   -9.7906    5.9463   29.8328 H   0  0  0  0  0
   -9.4979    5.9035   32.2258 H   0  0  0  0  0
   -7.7278    5.4798   31.9874 H   0  0  0  0  0
   -8.4185    3.3950   30.9582 H   0  0  0  0  0
  -10.1488    3.8107   31.3390 H   0  0  0  0  0
   -9.7474    1.7731   32.3599 H   0  0  0  0  0
  -10.3260    8.0791   30.2846 H   0  0  0  0  0
   -8.0356    9.9722   30.6650 H   0  0  0  0  0
  -10.4404   10.3035   28.8730 H   0  0  0  0  0
   -8.6760   10.2376   28.4077 H   0  0  0  0  0
   -7.2351   12.1409   28.7974 H   0  0  0  0  0
  -11.4130   12.2947   29.7045 H   0  0  0  0  0
   -7.1058   14.6033   28.9659 H   0  0  0  0  0
  -11.2909   14.7518   29.8751 H   0  0  0  0  0
   -9.1375   15.9129   29.5097 H   0  0  0  0  0
   -8.3169   11.4164   32.2997 H   0  0  0  0  0
   -9.7982   11.2301   34.4239 H   0  0  0  0  0
  -11.0617   11.8930   33.2635 H   0  0  0  0  0
   -9.0507   13.5904   31.9462 H   0  0  0  0  0
   -7.7295   15.4831   32.4802 H   0  0  0  0  0
   -8.4624   15.4935   34.1442 H   0  0  0  0  0
   -8.1421   17.7612   32.5459 H   0  0  0  0  0
  -10.9977   18.5103   32.1989 H   0  0  0  0  0
  -10.1826   20.7994   32.1771 H   0  0  0  0  0
   -8.4693   20.1709   32.2653 H   0  0  0  0  0
  -11.4475   21.1016   34.1315 H   0  0  0  0  0
   -7.7463   18.9632   34.3230 H   0  0  0  0  0
  -11.5659   21.1259   36.5979 H   0  0  0  0  0
   -7.8556   18.9888   36.7878 H   0  0  0  0  0
   -8.9981   19.6031   38.5567 H   0  0  0  0  0
  -11.3456   19.8297   30.3628 H   0  0  0  0  0
  1  2  1  0  0  0
  2  3  1  0  0  0
  2  5  1  0  0  0
  3  4  2  0  0  0
  3 10  1  0  0  0
  5  6  1  0  0  0
  6  7  1  0  0  0
  7  8  1  0  0  0
  7  9  2  0  0  0
 10 11  1  0  0  0
 11 12  1  0  0  0
 11 14  1  0  0  0
 12 13  2  0  0  0
 12 18  1  0  0  0
 14 15  1  0  0  0
 14 16  1  0  0  0
 15 17  1  0  0  0
 18 19  1  0  0  0
 19 20  1  0  0  0
 19 22  1  0  0  0
 20 21  2  0  0  0
 20 29  1  0  0  0
 22 23  1  0  0  0
 23 24  1  0  0  0
 24 25  1  0  0  0
 25 26  1  0  0  0
 26 27  1  0  0  0
 26 28  2  0  0  0
 29 30  1  0  0  0
 30 31  1  0  0  0
 30 33  1  0  0  0
 31 32  2  0  0  0
 31 40  1  0  0  0
 33 34  1  0  0  0
 34 35  1  0  0  0
 35 36  1  0  0  0
 36 37  1  0  0  0
 37 38  1  0  0  0
 37 39  2  0  0  0
 40 41  1  0  0  0
 41 42  1  0  0  0
 41 44  1  0  0  0
 42 43  2  0  0  0
 42 47  1  0  0  0
 44 45  1  0  0  0
 44 46  1  0  0  0
 47 48  1  0  0  0
 47 53  1  0  0  0
 48 49  1  0  0  0
 48 51  1  0  0  0
 49 50  2  0  0  0
 49 54  1  0  0  0
 51 52  1  0  0  0
 52 53  1  0  0  0
 54 55  1  0  0  0
 55 56  1  0  0  0
 55 58  1  0  0  0
 56 57  2  0  0  0
 56 63  1  0  0  0
 58 59  1  0  0  0
 59 60  1  0  0  0
 60 61  2  0  0  0
 60 62  1  0  0  0
 63 64  1  0  0  0
 64 65  1  0  0  0
 64 67  1  0  0  0
 65 66  2  0  0  0
 65 74  1  0  0  0
 67 68  1  0  0  0
 68 69  4  0  0  0
 68 70  4  0  0  0
 69 71  4  0  0  0
 70 72  4  0  0  0
 71 73  4  0  0  0
 72 73  4  0  0  0
 74 75  1  0  0  0
 75 76  1  0  0  0
 76 77  2  0  0  0
 76 78  1  0  0  0
 78 79  1  0  0  0
 79 80  1  0  0  0
 80 81  2  0  0  0
 80 82  1  0  0  0
 82 83  1  0  0  0
 83 84  1  0  0  0
 83 86  1  0  0  0
 84 85  2  0  0  0
 84 94  1  0  0  0
 86 87  1  0  0  0
 87 88  4  0  0  0
 87 89  4  0  0  0
 88 90  4  0  0  0
 89 91  4  0  0  0
 90 92  4  0  0  0
 91 92  4  0  0  0
 92 93  1  0  0  0
  1 95  1  0  0  0
  1 96  1  0  0  0
  1 97  1  0  0  0
  2 98  1  0  0  0
  5 99  1  0  0  0
  5100  1  0  0  0
  6101  1  0  0  0
  6102  1  0  0  0
  8103  1  0  0  0
 10104  1  0  0  0
 11105  1  0  0  0
 14106  1  0  0  0
 15107  1  0  0  0
 15108  1  0  0  0
 16109  1  0  0  0
 16110  1  0  0  0
 16111  1  0  0  0
 17112  1  0  0  0
 17113  1  0  0  0
 17114  1  0  0  0
 18115  1  0  0  0
 19116  1  0  0  0
 22117  1  0  0  0
 22118  1  0  0  0
 23119  1  0  0  0
 23120  1  0  0  0
 24121  1  0  0  0
 24122  1  0  0  0
 25123  1  0  0  0
 27124  1  0  0  0
 27125  1  0  0  0
 28126  1  0  0  0
 29127  1  0  0  0
 30128  1  0  0  0
 33129  1  0  0  0
 33130  1  0  0  0
 34131  1  0  0  0
 34132  1  0  0  0
 35133  1  0  0  0
 35134  1  0  0  0
 36135  1  0  0  0
 38136  1  0  0  0
 38137  1  0  0  0
 39138  1  0  0  0
 40139  1  0  0  0
 41140  1  0  0  0
 44141  1  0  0  0
 45142  1  0  0  0
 45143  1  0  0  0
 45144  1  0  0  0
 46145  1  0  0  0
 46146  1  0  0  0
 46147  1  0  0  0
 48148  1  0  0  0
 51149  1  0  0  0
 51150  1  0  0  0
 52151  1  0  0  0
 52152  1  0  0  0
 53153  1  0  0  0
 53154  1  0  0  0
 54155  1  0  0  0
 55156  1  0  0  0
 58157  1  0  0  0
 58158  1  0  0  0
 59159  1  0  0  0
 59160  1  0  0  0
 62161  1  0  0  0
 63162  1  0  0  0
 64163  1  0  0  0
 67164  1  0  0  0
 67165  1  0  0  0
 69166  1  0  0  0
 70167  1  0  0  0
 71168  1  0  0  0
 72169  1  0  0  0
 73170  1  0  0  0
 74171  1  0  0  0
 75172  1  0  0  0
 75173  1  0  0  0
 78174  1  0  0  0
 79175  1  0  0  0
 79176  1  0  0  0
 82177  1  0  0  0
 83178  1  0  0  0
 86179  1  0  0  0
 86180  1  0  0  0
 88181  1  0  0  0
 89182  1  0  0  0
 90183  1  0  0  0
 91184  1  0  0  0
 93185  1  0  0  0
 94186  1  0  0  0
M  END
$$$$
