### 
### Created by X-TOOL on Mon Aug  2 16:17:07 2021
### 

@<TRIPOS>MOLECULE
6qtr_ligand
  185   187     1     0     0
SMALL
GAST_HUCK


@<TRIPOS>ATOM
      1 N          -1.8760   -5.8190   27.6750 N.4       1 GLU         0.2380
      2 CA         -1.7440   -4.4240   28.0790 C.3       1 GLU         0.0665
      3 C          -1.6300   -3.5490   26.8370 C.2       1 GLU         0.2268
      4 O          -2.0520   -2.3880   26.8240 O.2       1 GLU        -0.3907
      5 CB         -0.5100   -4.2370   28.9600 C.3       1 GLU         0.0194
      6 CG         -0.3370   -2.8250   29.5020 C.3       1 GLU         0.0075
      7 CD         -1.3520   -2.4770   30.5760 C.2       1 GLU         0.0351
      8 OE1        -2.0520   -3.3930   31.0570 O.co2     1 GLU        -0.5690
      9 OE2        -1.4490   -1.2860   30.9400 O.co2     1 GLU        -0.5690
     10 N          -1.0590   -4.1260   25.7810 N.am      1 GLU        -0.2607
     11 CA         -0.8120   -3.3620   24.5660 C.3       1 GLU         0.1336
     12 C          -2.1190   -2.9790   23.8810 C.2       1 GLU         0.2042
     13 O          -2.1760   -1.9610   23.1740 O.2       1 GLU        -0.3944
     14 CB          0.1350   -4.1530   23.6450 C.3       1 GLU        -0.0037
     15 CG1         0.7130   -3.2390   22.5660 C.3       1 GLU        -0.0491
     16 CG2        -0.5910   -5.3470   23.0290 C.3       1 GLU        -0.0582
     17 CD1         1.6640   -2.1870   23.1070 C.3       1 GLU        -0.0648
     18 N          -3.1900   -3.7590   24.0720 N.am      1 GLU        -0.2637
     19 CA         -4.4970   -3.4050   23.5410 C.3       1 GLU         0.1311
     20 C          -5.4330   -2.9250   24.6380 C.2       1 GLU         0.2039
     21 O          -6.6430   -3.1180   24.5540 O.2       1 GLU        -0.3944
     22 CB         -5.1000   -4.5590   22.7450 C.3       1 GLU        -0.0092
     23 CG         -4.3180   -4.8680   21.4860 C.3       1 GLU        -0.0156
     24 CD         -4.3590   -3.7100   20.5380 C.3       1 GLU         0.0627
     25 NE         -5.6110   -3.6460   19.7920 N.pl3     1 GLU        -0.2723
     26 CZ         -6.0010   -2.6010   19.0770 C.cat     1 GLU         0.2882
     27 NH1        -5.2800   -1.4970   19.0590 N.pl3     1 GLU        -0.2849
     28 NH2        -7.1110   -2.6610   18.3840 N.pl3     1 GLU        -0.2849
     29 N          -4.9070   -2.2930   25.6710 N.am      1 GLU        -0.2637
     30 CA         -5.7570   -1.6640   26.6680 C.3       1 GLU         0.1311
     31 C          -6.2430   -0.3180   26.1480 C.2       1 GLU         0.2039
     32 O          -5.4560    0.4900   25.6440 O.2       1 GLU        -0.3944
     33 CB         -4.9850   -1.4430   27.9700 C.3       1 GLU        -0.0092
     34 CG         -5.8230   -0.7680   29.0560 C.3       1 GLU        -0.0156
     35 CD         -5.1170   -0.6760   30.4100 C.3       1 GLU         0.0627
     36 NE         -6.0350   -0.1840   31.4350 N.pl3     1 GLU        -0.2723
     37 CZ         -6.7160   -0.9580   32.2790 C.cat     1 GLU         0.2882
     38 NH1        -6.5800   -2.2780   32.2490 N.pl3     1 GLU        -0.2849
     39 NH2        -7.5310   -0.4030   33.1660 N.pl3     1 GLU        -0.2849
     40 N          -7.5370   -0.0830   26.2670 N.am      1 GLU        -0.2635
     41 CA         -8.1270    1.1880   25.8420 C.3       1 GLU         0.1334
     42 C          -7.7150    2.2780   26.8240 C.2       1 GLU         0.2066
     43 O          -7.7600    2.0550   28.0520 O.2       1 GLU        -0.3942
     44 CB         -9.6550    1.0540   25.7720 C.3       1 GLU        -0.0062
     45 CG1       -10.2860    2.3600   25.3530 C.3       1 GLU        -0.0584
     46 CG2       -10.0720   -0.0730   24.8170 C.3       1 GLU        -0.0584
     47 N          -7.3290    3.4560   26.3510 N.am      1 GLU        -0.2498
     48 CA         -6.9570    4.5260   27.2810 C.3       1 GLU         0.1338
     49 C          -8.1390    4.9620   28.1280 C.2       1 GLU         0.2041
     50 O          -9.2950    4.8880   27.7100 O.2       1 GLU        -0.3944
     51 CB         -6.4700    5.6560   26.3620 C.3       1 GLU        -0.0104
     52 CG         -6.8930    5.3120   25.0030 C.3       1 GLU        -0.0281
     53 CD         -7.0860    3.8270   24.9480 C.3       1 GLU         0.0369
     54 N          -7.8300    5.3960   29.3430 N.am      1 GLU        -0.2636
     55 CA         -8.7810    6.0440   30.2320 C.3       1 GLU         0.1325
     56 C          -8.3780    7.5090   30.3500 C.2       1 GLU         0.2041
     57 O          -7.1860    7.8250   30.4130 O.2       1 GLU        -0.3944
     58 CB         -8.7500    5.3930   31.6190 C.3       1 GLU        -0.0008
     59 CG         -9.1040    3.9050   31.6350 C.3       1 GLU         0.0044
     60 CD         -8.9540    3.2660   33.0140 C.2       1 GLU         0.0350
     61 OE1        -8.4190    3.9240   33.9310 O.co2     1 GLU        -0.5690
     62 OE2        -9.3740    2.0990   33.1820 O.co2     1 GLU        -0.5690
     63 N          -9.3610    8.4020   30.3540 N.am      1 GLU        -0.2619
     64 CA         -9.0960    9.8320   30.4550 C.3       1 GLU         0.1404
     65 C          -9.9390   10.4150   31.5780 C.2       1 GLU         0.2058
     66 O         -11.1410   10.1450   31.6540 O.2       1 GLU        -0.3942
     67 CB         -9.4150   10.5560   29.1430 C.3       1 GLU         0.0214
     68 CG         -9.3330   12.0530   29.2420 C.ar      1 GLU        -0.0386
     69 CD1        -8.1310   12.7140   29.0360 C.ar      1 GLU        -0.0601
     70 CD2       -10.4610   12.8000   29.5420 C.ar      1 GLU        -0.0601
     71 CE1        -8.0560   14.0950   29.1300 C.ar      1 GLU        -0.0686
     72 CE2       -10.3950   14.1780   29.6380 C.ar      1 GLU        -0.0686
     73 CZ         -9.1920   14.8270   29.4330 C.ar      1 GLU        -0.0687
     74 N          -9.3100   11.2250   32.4320 N.am      1 GLU        -0.2663
     75 CA        -10.0100   11.8390   33.5450 C.3       1 GLU         0.1201
     76 C          -9.5730   13.2530   33.8770 C.2       1 GLU         0.2005
     77 O          -9.6770   13.6810   35.0310 O.2       1 GLU        -0.3947
     78 N          -9.0940   13.9940   32.8820 N.am      1 GLU        -0.2666
     79 CA         -8.6320   15.3510   33.0770 C.3       1 GLU         0.1201
     80 C          -9.6390   16.3910   32.6270 C.2       1 GLU         0.2003
     81 O         -10.8390   16.1270   32.4990 O.2       1 GLU        -0.3947
     82 N          -9.1370   17.6000   32.3890 N.am      1 GLU        -0.2681
     83 CA         -9.9640   18.7020   31.9110 C.3       1 GLU         0.1025
     84 C          -9.8750   18.8000   30.3920 C.2       1 GLU         0.0619
     85 O          -8.9700   18.2330   29.7790 O.co2     1 GLU        -0.5665
     86 CB         -9.5130   20.0200   32.5410 C.3       1 GLU         0.0108
     87 CG         -9.5860   20.0330   34.0520 C.ar      1 GLU        -0.0499
     88 CD1       -10.6530   20.6340   34.7130 C.ar      1 GLU        -0.0686
     89 CD2        -8.5900   19.4430   34.8190 C.ar      1 GLU        -0.0686
     90 CE1       -10.7240   20.6490   36.0960 C.ar      1 GLU        -0.0398
     91 CE2        -8.6490   19.4530   36.2020 C.ar      1 GLU        -0.0398
     92 CZ         -9.7180   20.0540   36.8350 C.ar      1 GLU         0.0805
     93 OH         -9.7700   20.0550   38.2080 O.3       1 GLU        -0.3376
     94 OXT       -10.7070   19.4480   29.7560 O.co2     1 GLU        -0.5665
     95 H1         -1.9516   -6.4005   28.4949 H         1 GLU         0.2015
     96 H2         -1.0651   -6.0928   27.1426 H         1 GLU         0.2015
     97 H3         -2.7025   -5.9280   27.1084 H         1 GLU         0.2015
     98 H4         -2.6376   -4.1288   28.6485 H         1 GLU         0.1099
     99 H5          0.3800   -4.4892   28.3648 H         1 GLU         0.0363
    100 H6         -0.5879   -4.9267   29.8134 H         1 GLU         0.0363
    101 H7         -0.4479   -2.1136   28.6704 H         1 GLU         0.0434
    102 H8          0.6722   -2.7343   29.9301 H         1 GLU         0.0434
    103 H9         -0.7981   -5.0905   25.8228 H         1 GLU         0.1885
    104 H10        -0.3026   -2.4287   24.8479 H         1 GLU         0.0803
    105 H11         0.9683   -4.5356   24.2527 H         1 GLU         0.0345
    106 H12        -0.1196   -2.7281   22.0603 H         1 GLU         0.0267
    107 H13         1.2579   -3.8598   21.8395 H         1 GLU         0.0267
    108 H14        -0.9945   -5.9839   23.8300 H         1 GLU         0.0235
    109 H15         0.1141   -5.9293   22.4177 H         1 GLU         0.0235
    110 H16        -1.4156   -4.9879   22.3957 H         1 GLU         0.0235
    111 H17         2.0383   -1.5696   22.2771 H         1 GLU         0.0230
    112 H18         2.5102   -2.6803   23.6076 H         1 GLU         0.0230
    113 H19         1.1328   -1.5486   23.8283 H         1 GLU         0.0230
    114 H20        -3.0889   -4.6066   24.5930 H         1 GLU         0.1883
    115 H21        -4.3529   -2.5661   22.8442 H         1 GLU         0.0800
    116 H22        -6.1297   -4.2932   22.4639 H         1 GLU         0.0313
    117 H23        -5.1135   -5.4566   23.3807 H         1 GLU         0.0313
    118 H24        -4.7560   -5.7505   20.9967 H         1 GLU         0.0301
    119 H25        -3.2720   -5.0784   21.7535 H         1 GLU         0.0301
    120 H26        -3.5274   -3.8078   19.8246 H         1 GLU         0.0689
    121 H27        -4.2420   -2.7791   21.1122 H         1 GLU         0.0689
    122 H28        -6.2324   -4.4669   19.8232 H         1 GLU         0.2642
    123 H29        -5.5897   -0.6887   18.5007 H         1 GLU         0.2615
    124 H30        -4.4072   -1.4430   19.6032 H         1 GLU         0.2615
    125 H31        -7.6785   -3.5205   18.3940 H         1 GLU         0.2615
    126 H32        -7.4163   -1.8487   17.8291 H         1 GLU         0.2615
    127 H33        -3.9128   -2.2466   25.7685 H         1 GLU         0.1883
    128 H34        -6.6221   -2.3141   26.8655 H         1 GLU         0.0800
    129 H35        -4.1121   -0.8086   27.7563 H         1 GLU         0.0313
    130 H36        -4.6455   -2.4194   28.3459 H         1 GLU         0.0313
    131 H37        -6.7509   -1.3440   29.1868 H         1 GLU         0.0301
    132 H38        -6.0680    0.2511   28.7223 H         1 GLU         0.0301
    133 H39        -4.2641    0.0137   30.3271 H         1 GLU         0.0689
    134 H40        -4.7549   -1.6740   30.6977 H         1 GLU         0.0689
    135 H41        -6.1650    0.8350   31.5105 H         1 GLU         0.2642
    136 H42        -7.1120   -2.8656   32.9067 H         1 GLU         0.2615
    137 H43        -5.9425   -2.7147   31.5680 H         1 GLU         0.2615
    138 H44        -7.6410    0.6207   33.1945 H         1 GLU         0.2615
    139 H45        -8.0540   -0.9957   33.8264 H         1 GLU         0.2615
    140 H46        -8.1278   -0.7896   26.6565 H         1 GLU         0.1883
    141 H47        -7.7482    1.4465   24.8422 H         1 GLU         0.0803
    142 H48       -10.0215    0.8023   26.7781 H         1 GLU         0.0343
    143 H49       -11.3788    2.2419   25.3093 H         1 GLU         0.0234
    144 H50        -9.9084    2.6480   24.3608 H         1 GLU         0.0234
    145 H51       -10.0307    3.1417   26.0836 H         1 GLU         0.0234
    146 H52        -9.6042   -1.0160   25.1363 H         1 GLU         0.0234
    147 H53        -9.7442    0.1716   23.7959 H         1 GLU         0.0234
    148 H54       -11.1664   -0.1823   24.8345 H         1 GLU         0.0234
    149 H55        -6.1453    4.1941   27.9450 H         1 GLU         0.0802
    150 H56        -5.3738    5.7351   26.4082 H         1 GLU         0.0313
    151 H57        -6.9199    6.6122   26.6674 H         1 GLU         0.0313
    152 H58        -6.1202    5.6163   24.2818 H         1 GLU         0.0287
    153 H59        -7.8382    5.8217   24.7645 H         1 GLU         0.0287
    154 H60        -7.9492    3.5665   24.3180 H         1 GLU         0.0524
    155 H61        -6.1854    3.3283   24.5605 H         1 GLU         0.0524
    156 H62        -6.8916    5.2706   29.6651 H         1 GLU         0.1883
    157 H63        -9.7952    5.9652   29.8136 H         1 GLU         0.0801
    158 H64        -9.4679    5.9228   32.2623 H         1 GLU         0.0330
    159 H65        -7.7358    5.5082   32.0290 H         1 GLU         0.0330
    160 H66        -8.4402    3.3801   30.9323 H         1 GLU         0.0433
    161 H67       -10.1481    3.7904   31.3083 H         1 GLU         0.0433
    162 H68       -10.3071    8.0854   30.2860 H         1 GLU         0.1885
    163 H69        -8.0313    9.9794   30.6888 H         1 GLU         0.0823
    164 H70       -10.4356   10.2840   28.8359 H         1 GLU         0.0474
    165 H71        -8.6998   10.2192   28.3781 H         1 GLU         0.0474
    166 H72        -7.2400   12.1440   28.7988 H         1 GLU         0.0557
    167 H73       -11.4078   12.2974   29.7036 H         1 GLU         0.0557
    168 H74        -7.1110   14.6005   28.9668 H         1 GLU         0.0599
    169 H75       -11.2860   14.7487   29.8738 H         1 GLU         0.0599
    170 H76        -9.1378   15.9070   29.5092 H         1 GLU         0.0559
    171 H77        -8.3364   11.4127   32.3023 H         1 GLU         0.1881
    172 H78        -9.8486   11.2142   34.4358 H         1 GLU         0.0763
    173 H79       -11.0827   11.8617   33.3025 H         1 GLU         0.0763
    174 H80        -9.0516   13.5983   31.9646 H         1 GLU         0.1881
    175 H81        -7.7038   15.4909   32.5035 H         1 GLU         0.0763
    176 H82        -8.4278   15.5012   34.1474 H         1 GLU         0.0763
    177 H83        -8.1616   17.7580   32.5428 H         1 GLU         0.1877
    178 H84       -11.0091   18.5109   32.1960 H         1 GLU         0.0747
    179 H85       -10.1554   20.8257   32.1562 H         1 GLU         0.0446
    180 H86        -8.4710   20.2079   32.2429 H         1 GLU         0.0446
    181 H87       -11.4432   21.0990   34.1347 H         1 GLU         0.0530
    182 H88        -7.7509   18.9659   34.3257 H         1 GLU         0.0530
    183 H89       -11.5613   21.1233   36.5951 H         1 GLU         0.0525
    184 H90        -7.8600   18.9913   36.7845 H         1 GLU         0.0525
    185 H91       -10.5582   20.5019   38.4936 H         1 GLU         0.2458
@<TRIPOS>BOND
     1    1    2 1  
     2    2    3 1  
     3    2    5 1  
     4    3    4 2  
     5    3   10 am 
     6    5    6 1  
     7    6    7 1  
     8    7    8 ar 
     9    7    9 ar 
    10   10   11 1  
    11   11   12 1  
    12   11   14 1  
    13   12   13 2  
    14   12   18 am 
    15   14   15 1  
    16   14   16 1  
    17   15   17 1  
    18   18   19 1  
    19   19   20 1  
    20   19   22 1  
    21   20   21 2  
    22   20   29 am 
    23   22   23 1  
    24   23   24 1  
    25   24   25 1  
    26   25   26 ar 
    27   26   27 ar 
    28   26   28 ar 
    29   29   30 1  
    30   30   31 1  
    31   30   33 1  
    32   31   32 2  
    33   31   40 am 
    34   33   34 1  
    35   34   35 1  
    36   35   36 1  
    37   36   37 ar 
    38   37   38 ar 
    39   37   39 ar 
    40   40   41 1  
    41   41   42 1  
    42   41   44 1  
    43   42   43 2  
    44   42   47 am 
    45   44   45 1  
    46   44   46 1  
    47   47   48 1  
    48   47   53 1  
    49   48   49 1  
    50   48   51 1  
    51   49   50 2  
    52   49   54 am 
    53   51   52 1  
    54   52   53 1  
    55   54   55 1  
    56   55   56 1  
    57   55   58 1  
    58   56   57 2  
    59   56   63 am 
    60   58   59 1  
    61   59   60 1  
    62   60   61 ar 
    63   60   62 ar 
    64   63   64 1  
    65   64   65 1  
    66   64   67 1  
    67   65   66 2  
    68   65   74 am 
    69   67   68 1  
    70   68   69 ar 
    71   68   70 ar 
    72   69   71 ar 
    73   70   72 ar 
    74   71   73 ar 
    75   72   73 ar 
    76   74   75 1  
    77   75   76 1  
    78   76   77 2  
    79   76   78 am 
    80   78   79 1  
    81   79   80 1  
    82   80   81 2  
    83   80   82 am 
    84   82   83 1  
    85   83   84 1  
    86   83   86 1  
    87   84   85 ar 
    88   84   94 ar 
    89   86   87 1  
    90   87   88 ar 
    91   87   89 ar 
    92   88   90 ar 
    93   89   91 ar 
    94   90   92 ar 
    95   91   92 ar 
    96   92   93 1  
    97    1   95 1  
    98    1   96 1  
    99    1   97 1  
   100    2   98 1  
   101    5   99 1  
   102    5  100 1  
   103    6  101 1  
   104    6  102 1  
   105   10  103 1  
   106   11  104 1  
   107   14  105 1  
   108   15  106 1  
   109   15  107 1  
   110   16  108 1  
   111   16  109 1  
   112   16  110 1  
   113   17  111 1  
   114   17  112 1  
   115   17  113 1  
   116   18  114 1  
   117   19  115 1  
   118   22  116 1  
   119   22  117 1  
   120   23  118 1  
   121   23  119 1  
   122   24  120 1  
   123   24  121 1  
   124   25  122 1  
   125   27  123 1  
   126   27  124 1  
   127   28  125 1  
   128   28  126 1  
   129   29  127 1  
   130   30  128 1  
   131   33  129 1  
   132   33  130 1  
   133   34  131 1  
   134   34  132 1  
   135   35  133 1  
   136   35  134 1  
   137   36  135 1  
   138   38  136 1  
   139   38  137 1  
   140   39  138 1  
   141   39  139 1  
   142   40  140 1  
   143   41  141 1  
   144   44  142 1  
   145   45  143 1  
   146   45  144 1  
   147   45  145 1  
   148   46  146 1  
   149   46  147 1  
   150   46  148 1  
   151   48  149 1  
   152   51  150 1  
   153   51  151 1  
   154   52  152 1  
   155   52  153 1  
   156   53  154 1  
   157   53  155 1  
   158   54  156 1  
   159   55  157 1  
   160   58  158 1  
   161   58  159 1  
   162   59  160 1  
   163   59  161 1  
   164   63  162 1  
   165   64  163 1  
   166   67  164 1  
   167   67  165 1  
   168   69  166 1  
   169   70  167 1  
   170   71  168 1  
   171   72  169 1  
   172   73  170 1  
   173   74  171 1  
   174   75  172 1  
   175   75  173 1  
   176   78  174 1  
   177   79  175 1  
   178   79  176 1  
   179   82  177 1  
   180   83  178 1  
   181   86  179 1  
   182   86  180 1  
   183   88  181 1  
   184   89  182 1  
   185   90  183 1  
   186   91  184 1  
   187   93  185 1  
@<TRIPOS>SUBSTRUCTURE
     1 GLU         1

