5mme_ligand
  -I-interpret- 

 48 49  0  0  0  0  0  0  0  0999 V2000
   10.4150  -18.5350    6.8510 C   0  0  0  0  0
   11.1350  -11.5250   13.3960 C   0  0  0  0  0
    5.5740  -14.6460   10.3450 C   0  0  0  0  0
   11.0250  -10.7950    2.6840 C   0  0  0  0  0
   10.4040  -14.5550    2.8180 C   0  0  0  0  0
   10.4000  -15.5950    3.7410 C   0  0  0  0  0
   11.5000  -13.2030    8.9670 C   0  0  0  0  0
    9.6060  -14.2620    7.9060 C   0  0  0  0  0
    9.4750  -13.5350   10.2090 C   0  0  0  0  0
   11.2330  -13.0480    4.4920 C   0  0  0  0  0
   10.2990  -17.6210    5.6270 C   0  0  0  0  0
   10.7930  -12.2370    2.2100 C   0  0  0  0  0
   11.3750  -12.4720   11.2970 C   0  0  0  0  0
    7.5660  -14.5920    9.1710 C   0  0  0  0  0
   10.9130  -13.7860    7.8290 C   0  0  0  0  0
   10.8180  -13.2710    3.1710 C   0  0  0  0  0
   10.7880  -13.0680   10.1630 C   0  0  0  0  0
    8.8850  -14.1410    9.0960 C   0  0  0  0  0
   11.2180  -14.0790    5.4390 C   0  0  0  0  0
   10.8170  -15.3620    5.0440 C   0  0  0  0  0
   11.6710  -13.8650    6.7130 N   0  0  0  0  0
   10.5690  -12.4670    1.0180 O   0  0  0  0  0
   12.5930  -12.2940   11.3890 O   0  0  0  0  0
    7.0460  -15.2930    8.2890 O   0  0  0  0  0
   10.4830  -12.1280   12.2660 O   0  0  0  0  0
    6.9070  -14.1560   10.2820 O   0  0  0  0  0
   10.8370  -16.3350    5.9940 O   0  0  0  0  0
   11.4630  -18.6272    7.1360 H   0  0  0  0  0
    9.8486  -18.1064    7.6779 H   0  0  0  0  0
   10.0156  -19.5194    6.6070 H   0  0  0  0  0
   11.8498  -12.2301   13.8203 H   0  0  0  0  0
   11.6583  -10.6246   13.0741 H   0  0  0  0  0
   10.3897  -11.2646   14.1475 H   0  0  0  0  0
    5.0216  -14.3064    9.4688 H   0  0  0  0  0
    5.5895  -15.7357   10.3665 H   0  0  0  0  0
    5.0924  -14.2703   11.2478 H   0  0  0  0  0
   11.8903  -10.3790    2.1679 H   0  0  0  0  0
   10.1435  -10.1941    2.4605 H   0  0  0  0  0
   11.2054  -10.7918    3.7590 H   0  0  0  0  0
   10.0764  -14.7476    1.7964 H   0  0  0  0  0
   10.0704  -16.5900    3.4421 H   0  0  0  0  0
   12.5298  -12.8497    8.9154 H   0  0  0  0  0
    9.1452  -14.7297    7.0359 H   0  0  0  0  0
    8.8991  -13.4257   11.1280 H   0  0  0  0  0
   11.5730  -12.0551    4.7864 H   0  0  0  0  0
    9.2575  -17.5250    5.3203 H   0  0  0  0  0
   10.8512  -18.0391    4.7854 H   0  0  0  0  0
   12.6781  -13.7545    6.8314 H   0  0  0  0  0
 11  1  1  0  0  0
 25  2  1  0  0  0
 26  3  1  0  0  0
 12  4  1  0  0  0
  6  5  4  0  0  0
  5 16  4  0  0  0
 20  6  4  0  0  0
 15  7  4  0  0  0
  7 17  4  0  0  0
 15  8  4  0  0  0
  8 18  4  0  0  0
 17  9  4  0  0  0
 18  9  4  0  0  0
 10 16  4  0  0  0
 19 10  4  0  0  0
 27 11  1  0  0  0
 16 12  1  0  0  0
 12 22  2  0  0  0
 17 13  1  0  0  0
 13 23  2  0  0  0
 13 25  1  0  0  0
 18 14  1  0  0  0
 14 24  2  0  0  0
 14 26  1  0  0  0
 21 15  1  0  0  0
 20 19  4  0  0  0
 19 21  1  0  0  0
 20 27  1  0  0  0
  1 28  1  0  0  0
  1 29  1  0  0  0
  1 30  1  0  0  0
  2 31  1  0  0  0
  2 32  1  0  0  0
  2 33  1  0  0  0
  3 34  1  0  0  0
  3 35  1  0  0  0
  3 36  1  0  0  0
  4 37  1  0  0  0
  4 38  1  0  0  0
  4 39  1  0  0  0
  5 40  1  0  0  0
  6 41  1  0  0  0
  7 42  1  0  0  0
  8 43  1  0  0  0
  9 44  1  0  0  0
 10 45  1  0  0  0
 11 46  1  0  0  0
 11 47  1  0  0  0
 21 48  1  0  0  0
M  END
$$$$
