### 
### Created by X-TOOL on Mon Aug  2 16:11:00 2021
### 

@<TRIPOS>MOLECULE
6n96_ligand
   42    44     1     0     0
SMALL
GAST_HUCK


@<TRIPOS>ATOM
      1 C2         30.1560  -21.1030   38.8560 C.ar      1 LCV         0.0533
      2 C4         32.3180  -21.9400   39.0960 C.ar      1 LCV         0.1613
      3 C5         32.7800  -21.1140   37.9540 C.ar      1 LCV         0.1045
      4 C6         31.7610  -20.2610   37.3160 C.ar      1 LCV         0.1298
      5 N1         30.5130  -20.3160   37.8040 N.ar      1 LCV        -0.2698
      6 O6         36.1130  -21.4810   45.4430 O.3       1 LCV        -0.1548
      7 O7         35.4370  -19.8750   47.3370 O.co2     1 LCV        -0.5891
      8 P2         35.8950  -19.9160   45.7920 P.3       1 LCV         0.2069
      9 O21        34.7920  -19.3160   44.9910 O.co2     1 LCV        -0.5891
     10 O22        37.1910  -19.1020   45.8310 O.co2     1 LCV        -0.5891
     11 P1         36.7370  -22.1650   44.1230 P.3       1 LCV         0.3276
     12 O11        37.6360  -21.1700   43.4900 O.co2     1 LCV        -0.5556
     13 O12        37.3480  -23.5160   44.5080 O.co2     1 LCV        -0.5556
     14 O5'        35.4960  -22.5180   43.1530 O.3       1 LCV        -0.2436
     15 C5'        34.2090  -22.6260   43.7600 C.3       1 LCV         0.1135
     16 C4'        33.4680  -23.6440   42.9420 C.3       1 LCV         0.1236
     17 O4'        32.8580  -22.9280   41.8570 O.3       1 LCV        -0.3360
     18 C1'        33.2470  -23.5530   40.6390 C.3       1 LCV         0.2013
     19 C2'        34.5180  -24.3100   40.8650 C.3       1 LCV         0.1432
     20 O2'        34.4260  -25.4810   40.0500 O.3       1 LCV        -0.3832
     21 C3'        34.3920  -24.6900   42.3200 C.3       1 LCV         0.1487
     22 O3'        33.7610  -25.9420   42.1730 O.3       1 LCV        -0.2674
     23 P3         33.8660  -27.1890   43.1830 P.3       1 LCV         0.2013
     24 O31        32.8350  -26.8220   44.2170 O.co2     1 LCV        -0.5537
     25 O32        33.4830  -28.4560   42.4400 O.co2     1 LCV        -0.5537
     26 O33        35.2550  -27.3990   43.7760 O.co2     1 LCV        -0.5537
     27 N9         33.3710  -22.6070   39.5130 N.pl3     1 LCV        -0.1919
     28 C8         34.4520  -22.2760   38.7480 C.2       1 LCV         0.1123
     29 N7         34.0920  -21.3730   37.7810 N.2       1 LCV        -0.2958
     30 N6         32.0530  -19.4660   36.2740 N.pl3     1 LCV        -0.3152
     31 N3         31.0320  -21.9310   39.4960 N.ar      1 LCV        -0.2714
     32 H1         29.1289  -21.0705   39.2011 H         1 LCV         0.0996
     33 H2         33.6881  -21.6575   43.7333 H         1 LCV         0.0648
     34 H3         34.3021  -22.9637   44.8027 H         1 LCV         0.0648
     35 H4         32.7088  -24.1413   43.5635 H         1 LCV         0.0654
     36 H5         32.4636  -24.2767   40.3700 H         1 LCV         0.0996
     37 H6         35.4258  -23.7268   40.6510 H         1 LCV         0.0680
     38 H7         33.6694  -25.9910   40.3146 H         1 LCV         0.2101
     39 H8         35.3504  -24.7544   42.8561 H         1 LCV         0.0704
     40 H9         35.4568  -22.6725   38.8860 H         1 LCV         0.1349
     41 H10        31.3182  -18.8817   35.8502 H         1 LCV         0.1820
     42 H11        33.0118  -19.4405   35.8985 H         1 LCV         0.1820
@<TRIPOS>BOND
     1    1    5 ar 
     2   31    1 ar 
     3    2    3 ar 
     4   27    2 1  
     5    2   31 ar 
     6    3    4 ar 
     7    3   29 1  
     8    4    5 ar 
     9    4   30 1  
    10    6    8 1  
    11   11    6 1  
    12    8    7 ar 
    13    8    9 ar 
    14    8   10 ar 
    15   11   12 ar 
    16   11   13 ar 
    17   14   11 1  
    18   15   14 1  
    19   16   15 1  
    20   17   16 1  
    21   16   21 1  
    22   18   17 1  
    23   18   19 1  
    24   18   27 1  
    25   19   20 1  
    26   19   21 1  
    27   21   22 1  
    28   22   23 1  
    29   23   24 ar 
    30   23   25 ar 
    31   23   26 ar 
    32   27   28 1  
    33   28   29 2  
    34    1   32 1  
    35   15   33 1  
    36   15   34 1  
    37   16   35 1  
    38   18   36 1  
    39   19   37 1  
    40   20   38 1  
    41   21   39 1  
    42   28   40 1  
    43   30   41 1  
    44   30   42 1  
@<TRIPOS>SUBSTRUCTURE
     1 LCV         1

