6n96_ligand
  -I-interpret- 

 47 49  0  0  0  0  0  0  0  0999 V2000
   30.1560  -21.1030   38.8560 C   0  0  0  0  0
   32.3180  -21.9400   39.0960 C   0  0  0  0  0
   32.7800  -21.1140   37.9540 C   0  0  0  0  0
   31.7610  -20.2610   37.3160 C   0  0  0  0  0
   30.5130  -20.3160   37.8040 N   0  0  0  0  0
   36.1130  -21.4810   45.4430 O   0  0  0  0  0
   35.4370  -19.8750   47.3370 O   0  0  0  0  0
   35.8950  -19.9160   45.7920 P   0  0  0  0  0
   34.7920  -19.3160   44.9910 O   0  0  0  0  0
   37.1910  -19.1020   45.8310 O   0  0  0  0  0
   36.7370  -22.1650   44.1230 P   0  0  0  0  0
   37.6360  -21.1700   43.4900 O   0  0  0  0  0
   37.3480  -23.5160   44.5080 O   0  0  0  0  0
   35.4960  -22.5180   43.1530 O   0  0  0  0  0
   34.2090  -22.6260   43.7600 C   0  0  0  0  0
   33.4680  -23.6440   42.9420 C   0  0  0  0  0
   32.8580  -22.9280   41.8570 O   0  0  0  0  0
   33.2470  -23.5530   40.6390 C   0  0  0  0  0
   34.5180  -24.3100   40.8650 C   0  0  0  0  0
   34.4260  -25.4810   40.0500 O   0  0  0  0  0
   34.3920  -24.6900   42.3200 C   0  0  0  0  0
   33.7610  -25.9420   42.1730 O   0  0  0  0  0
   33.8660  -27.1890   43.1830 P   0  0  0  0  0
   32.8350  -26.8220   44.2170 O   0  0  0  0  0
   33.4830  -28.4560   42.4400 O   0  0  0  0  0
   35.2550  -27.3990   43.7760 O   0  0  0  0  0
   33.3710  -22.6070   39.5130 N   0  0  0  0  0
   34.4520  -22.2760   38.7480 C   0  0  0  0  0
   34.0920  -21.3730   37.7810 N   0  0  0  0  0
   32.0530  -19.4660   36.2740 N   0  0  0  0  0
   31.0320  -21.9310   39.4960 N   0  0  0  0  0
   29.1232  -21.0703   39.2030 H   0  0  0  0  0
   36.1276  -20.2557   47.8845 H   0  0  0  0  0
   37.8409  -19.5627   46.3666 H   0  0  0  0  0
   36.6722  -24.0698   44.9058 H   0  0  0  0  0
   33.6902  -21.6675   43.7727 H   0  0  0  0  0
   34.2827  -22.9280   44.8047 H   0  0  0  0  0
   32.7608  -24.1607   43.5909 H   0  0  0  0  0
   32.4549  -24.2422   40.3463 H   0  0  0  0  0
   35.4457  -23.7843   40.6388 H   0  0  0  0  0
   35.2216  -26.0074   40.1572 H   0  0  0  0  0
   35.2915  -24.7348   42.9340 H   0  0  0  0  0
   34.1592  -28.6614   41.7902 H   0  0  0  0  0
   35.8693  -27.6298   43.0753 H   0  0  0  0  0
   35.4577  -22.6729   38.8861 H   0  0  0  0  0
   33.0025  -19.4407   35.9021 H   0  0  0  0  0
   31.3253  -18.8874   35.8543 H   0  0  0  0  0
  1  5  4  0  0  0
 31  1  4  0  0  0
  2  3  4  0  0  0
 27  2  4  0  0  0
  2 31  4  0  0  0
  3  4  4  0  0  0
  3 29  4  0  0  0
  4  5  4  0  0  0
  4 30  1  0  0  0
  6  8  1  0  0  0
 11  6  1  0  0  0
  8  7  1  0  0  0
  8  9  2  0  0  0
  8 10  1  0  0  0
 11 12  2  0  0  0
 11 13  1  0  0  0
 14 11  1  0  0  0
 15 14  1  0  0  0
 16 15  1  0  0  0
 17 16  1  0  0  0
 16 21  1  0  0  0
 18 17  1  0  0  0
 18 19  1  0  0  0
 18 27  1  0  0  0
 19 20  1  0  0  0
 19 21  1  0  0  0
 21 22  1  0  0  0
 22 23  1  0  0  0
 23 24  2  0  0  0
 23 25  1  0  0  0
 23 26  1  0  0  0
 27 28  4  0  0  0
 28 29  4  0  0  0
  1 32  1  0  0  0
  7 33  1  0  0  0
 10 34  1  0  0  0
 13 35  1  0  0  0
 15 36  1  0  0  0
 15 37  1  0  0  0
 16 38  1  0  0  0
 18 39  1  0  0  0
 19 40  1  0  0  0
 20 41  1  0  0  0
 21 42  1  0  0  0
 25 43  1  0  0  0
 26 44  1  0  0  0
 28 45  1  0  0  0
 30 46  1  0  0  0
 30 47  1  0  0  0
M  END
$$$$
