5em6_ligand
  -I-interpret- 

 56 59  0  0  0  0  0  0  0  0999 V2000
  -51.3240   -0.6650  -14.6890 C   0  0  0  0  0
  -49.0200    0.0670  -15.4110 C   0  0  0  0  0
  -52.1820    0.7450  -19.3360 C   0  0  0  0  0
  -48.5470   -0.1230  -13.9550 C   0  0  0  0  0
  -51.0250    0.4280  -16.7900 C   0  0  0  0  0
  -52.1670    1.2230  -16.9600 C   0  0  0  0  0
  -52.7360    1.3720  -18.2150 C   0  0  0  0  0
  -51.0420   -0.0540  -19.1790 C   0  0  0  0  0
  -50.4850   -0.2270  -17.9130 C   0  0  0  0  0
  -49.3990   -1.1170  -13.2580 N   0  3  0  0  0
  -50.8310   -0.7490  -13.2360 C   0  0  0  0  0
  -48.9220   -1.4040  -11.8970 C   0  0  0  0  0
  -50.4950    0.2780  -15.4880 N   0  0  0  0  0
  -52.8520    0.9630  -20.5610 N   0  0  0  0  0
  -52.8490    0.2430  -21.7180 C   0  0  0  0  0
  -52.1750   -0.7740  -21.8020 O   0  0  0  0  0
  -53.7430    0.6480  -22.8410 C   0  0  0  0  0
  -53.6610    0.0560  -24.1550 C   0  0  0  0  0
  -54.5880    0.4810  -25.1440 C   0  0  0  0  0
  -55.5420    1.4020  -24.8820 C   0  0  0  0  0
  -55.6210    1.9570  -23.6480 N   0  0  0  0  0
  -54.7850    1.6300  -22.6340 C   0  0  0  0  0
  -54.9620    2.2160  -21.5690 O   0  0  0  0  0
  -52.6980   -0.9070  -24.4660 N   0  0  0  0  0
  -52.4780   -1.6100  -25.6660 C   0  0  0  0  0
  -51.5140   -2.6400  -25.6690 C   0  0  0  0  0
  -51.2730   -3.3470  -26.8490 C   0  0  0  0  0
  -51.9450   -3.0290  -27.9540 N   0  0  0  0  0
  -52.8380   -2.0430  -27.9370 C   0  0  0  0  0
  -53.1030   -1.3430  -26.8280 N   0  0  0  0  0
  -53.5160   -1.7530  -29.1000 N   0  0  0  0  0
  -52.3529   -0.3053  -14.6859 H   0  0  0  0  0
  -51.2519   -1.6558  -15.1376 H   0  0  0  0  0
  -48.7717   -0.8331  -15.9733 H   0  0  0  0  0
  -48.5249    0.9472  -15.8212 H   0  0  0  0  0
  -48.6162    0.8312  -13.4327 H   0  0  0  0  0
  -47.5175   -0.4809  -13.9608 H   0  0  0  0  0
  -52.6098    1.7266  -16.1007 H   0  0  0  0  0
  -53.6285    1.9870  -18.3302 H   0  0  0  0  0
  -50.5916   -0.5393  -20.0449 H   0  0  0  0  0
  -49.6196   -0.8783  -17.7909 H   0  0  0  0  0
  -49.3171   -1.9695  -13.8121 H   0  0  0  0  0
  -51.4031   -1.4974  -12.6876 H   0  0  0  0  0
  -50.9648    0.2111  -12.7375 H   0  0  0  0  0
  -49.0521   -0.5193  -11.2737 H   0  0  0  0  0
  -49.4953   -2.2317  -11.4794 H   0  0  0  0  0
  -47.8663   -1.6730  -11.9325 H   0  0  0  0  0
  -53.4356    1.7993  -20.5828 H   0  0  0  0  0
  -54.5282    0.0515  -26.1440 H   0  0  0  0  0
  -56.2454    1.6974  -25.6605 H   0  0  0  0  0
  -56.3449    2.6544  -23.4747 H   0  0  0  0  0
  -52.0557   -1.1360  -23.7074 H   0  0  0  0  0
  -50.9631   -2.8814  -24.7600 H   0  0  0  0  0
  -50.5400   -4.1535  -26.8655 H   0  0  0  0  0
  -53.3282   -2.2893  -29.9471 H   0  0  0  0  0
  -54.2060   -1.0019  -29.1144 H   0  0  0  0  0
  1 11  1  0  0  0
 13  1  1  0  0  0
  2  4  1  0  0  0
 13  2  1  0  0  0
  7  3  4  0  0  0
  3  8  4  0  0  0
  3 14  1  0  0  0
  4 10  1  0  0  0
  6  5  4  0  0  0
  5  9  4  0  0  0
  5 13  1  0  0  0
  6  7  4  0  0  0
  8  9  4  0  0  0
 10 11  1  0  0  0
 10 12  1  0  0  0
 14 15  1  0  0  0
 15 16  2  0  0  0
 15 17  1  0  0  0
 17 18  2  0  0  0
 17 22  1  0  0  0
 18 19  1  0  0  0
 18 24  1  0  0  0
 19 20  2  0  0  0
 20 21  1  0  0  0
 21 22  1  0  0  0
 22 23  2  0  0  0
 24 25  1  0  0  0
 25 26  4  0  0  0
 25 30  4  0  0  0
 26 27  4  0  0  0
 27 28  4  0  0  0
 28 29  4  0  0  0
 29 30  4  0  0  0
 29 31  1  0  0  0
  1 32  1  0  0  0
  1 33  1  0  0  0
  2 34  1  0  0  0
  2 35  1  0  0  0
  4 36  1  0  0  0
  4 37  1  0  0  0
  6 38  1  0  0  0
  7 39  1  0  0  0
  8 40  1  0  0  0
  9 41  1  0  0  0
 10 42  1  0  0  0
 11 43  1  0  0  0
 11 44  1  0  0  0
 12 45  1  0  0  0
 12 46  1  0  0  0
 12 47  1  0  0  0
 14 48  1  0  0  0
 19 49  1  0  0  0
 20 50  1  0  0  0
 21 51  1  0  0  0
 24 52  1  0  0  0
 26 53  1  0  0  0
 27 54  1  0  0  0
 31 55  1  0  0  0
 31 56  1  0  0  0
M  END
$$$$
