5mkz_ligand
  -I-interpret- 

 29 30  0  0  0  0  0  0  0  0999 V2000
   25.3750   50.8450   -0.8460 C   0  0  0  0  0
   24.9250   47.4790    1.6250 C   0  0  0  0  0
   23.9360   49.0290    0.0020 C   0  0  0  0  0
   24.1580   50.1920   -0.7920 C   0  0  0  0  0
   29.8170   51.1170   -1.4690 C   0  0  0  0  0
   28.9160   50.6840   -2.5920 C   0  0  0  0  0
   29.2740   49.6780   -3.5380 C   0  0  0  0  0
   28.3210   49.4610   -4.4730 C   0  0  0  0  0
   26.9590   50.4770   -4.2350 S   0  0  0  0  0
   27.6780   51.2120   -2.8410 C   0  0  0  0  0
   26.9440   52.3040   -2.0790 C   0  0  0  0  0
   25.6280   51.9090   -1.6300 N   0  0  0  0  0
   26.3760   50.3160    0.0360 C   0  0  0  0  0
   26.2210   49.2880    0.7940 N   0  0  0  0  0
   25.0150   48.6550    0.7700 N   0  0  0  0  0
   22.8820   48.4000    0.0290 O   0  0  0  0  0
   22.8700   50.6940   -1.8010 Cl  0  0  0  0  0
   25.6707   46.7474    1.3141 H   0  0  0  0  0
   25.1078   47.7688    2.6597 H   0  0  0  0  0
   23.9293   47.0440    1.5387 H   0  0  0  0  0
   30.0326   50.2624   -0.8278 H   0  0  0  0  0
   30.7474   51.5074   -1.8813 H   0  0  0  0  0
   29.3219   51.8940   -0.8866 H   0  0  0  0  0
   30.2206   49.1383   -3.5101 H   0  0  0  0  0
   28.4075   48.7311   -5.2779 H   0  0  0  0  0
   26.8192   53.1489   -2.7563 H   0  0  0  0  0
   27.5350   52.5398   -1.1940 H   0  0  0  0  0
   24.8351   52.4769   -1.9286 H   0  0  0  0  0
   27.3402   50.8234    0.0660 H   0  0  0  0  0
  1  4  2  0  0  0
 12  1  1  0  0  0
  1 13  1  0  0  0
 15  2  1  0  0  0
  4  3  1  0  0  0
  3 15  1  0  0  0
  3 16  2  0  0  0
  4 17  1  0  0  0
  6  5  1  0  0  0
  6  7  4  0  0  0
 10  6  4  0  0  0
  8  7  4  0  0  0
  9  8  4  0  0  0
 10  9  4  0  0  0
 11 10  1  0  0  0
 11 12  1  0  0  0
 13 14  2  0  0  0
 14 15  1  0  0  0
  2 18  1  0  0  0
  2 19  1  0  0  0
  2 20  1  0  0  0
  5 21  1  0  0  0
  5 22  1  0  0  0
  5 23  1  0  0  0
  7 24  1  0  0  0
  8 25  1  0  0  0
 11 26  1  0  0  0
 11 27  1  0  0  0
 12 28  1  0  0  0
 13 29  1  0  0  0
M  END
$$$$
