### 
### Created by X-TOOL on Mon Sep 10 21:13:13 2018
### 

@<TRIPOS>MOLECULE
4j73_ligand
  102   101     1     0     0
SMALL
GAST_HUCK


@<TRIPOS>ATOM
      1 N         -15.2580   -4.5530  -17.0180 N.4       1 GLU         0.2377
      2 CA        -14.4900   -5.1110  -18.1290 C.3       1 GLU         0.0621
      3 C         -13.4590   -4.1160  -18.6240 C.2       1 GLU         0.2264
      4 O         -12.3620   -4.5110  -19.0060 O.2       1 GLU        -0.3907
      5 CB        -15.4450   -5.5280  -19.2650 C.3       1 GLU        -0.0040
      6 N         -13.7560   -2.8190  -18.5010 N.am      1 ALA        -0.2613
      7 CA        -12.8340   -1.7530  -18.8930 C.3       1 ALA         0.1283
      8 C         -11.4460   -1.8650  -18.2640 C.2       1 ALA         0.2036
      9 O         -10.4380   -1.5230  -18.8910 O.2       1 ALA        -0.3944
     10 CB        -13.4220   -0.4110  -18.5800 C.3       1 ALA        -0.0244
     11 N         -11.3670   -2.3160  -17.0170 N.am      1 LYS        -0.2637
     12 CA        -10.0690   -2.4840  -16.3870 C.3       1 LYS         0.1310
     13 C          -9.1960   -3.4950  -17.1470 C.2       1 LYS         0.2039
     14 O          -7.9850   -3.2920  -17.2610 O.2       1 LYS        -0.3944
     15 CB        -10.2300   -2.8780  -14.9040 C.3       1 LYS        -0.0122
     16 CG         -8.9080   -3.0570  -14.1390 C.3       1 LYS        -0.0440
     17 CD         -8.0420   -1.7920  -14.2330 C.3       1 LYS        -0.0124
     18 CE         -6.7240   -1.9640  -13.4830 C.3       1 LYS        -0.0354
     19 NZ         -6.0770   -0.6170  -13.3770 N.4       1 LYS         0.2185
     20 N          -9.8020   -4.5730  -17.6400 N.am      1 LYS        -0.2637
     21 CA         -9.0610   -5.5930  -18.3730 C.3       1 LYS         0.1310
     22 C          -8.5720   -5.0620  -19.7130 C.2       1 LYS         0.2039
     23 O          -7.4610   -5.3730  -20.1310 O.2       1 LYS        -0.3944
     24 CB         -9.8900   -6.8560  -18.6270 C.3       1 LYS        -0.0122
     25 CG         -9.0290   -8.0230  -19.1740 C.3       1 LYS        -0.0440
     26 CD         -9.9240   -9.2310  -19.4530 C.3       1 LYS        -0.0124
     27 CE         -9.1450  -10.3250  -20.1450 C.3       1 LYS        -0.0354
     28 NZ         -8.2610  -11.1610  -19.2430 N.4       1 LYS         0.2185
     29 N          -9.3700   -4.2200  -20.3480 N.am      1 LEU        -0.2637
     30 CA         -9.1560   -3.9160  -21.7510 C.3       1 LEU         0.1312
     31 C          -8.3470   -2.6640  -22.0440 C.2       1 LEU         0.2034
     32 O          -7.6480   -2.6350  -23.0520 O.2       1 LEU        -0.3944
     33 CB        -10.5100   -3.8180  -22.4550 C.3       1 LEU        -0.0101
     34 CG        -11.2970   -5.1250  -22.4820 C.3       1 LEU        -0.0425
     35 CD1       -12.6720   -4.9080  -23.1440 C.3       1 LEU        -0.0625
     36 CD2       -10.5240   -6.2030  -23.2220 C.3       1 LEU        -0.0625
     37 N          -8.4540   -1.6410  -21.2050 N.am      1 VAL        -0.2692
     38 CA         -7.9250   -0.3290  -21.5670 C.3       1 VAL         0.0967
     39 C          -6.3990   -0.3720  -21.6620 C.2       1 VAL         0.0603
     40 O          -5.7480   -1.2280  -21.0410 O.co2     1 VAL        -0.5666
     41 CB         -8.3780    0.7340  -20.5690 C.3       1 VAL        -0.0118
     42 CG1        -7.7210    0.5090  -19.2060 C.3       1 VAL        -0.0590
     43 CG2        -8.0630    2.1270  -21.0970 C.3       1 VAL        -0.0590
     44 OXT        -5.7780    0.4230  -22.3780 O.co2     1 VAL        -0.5666
     45 H1        -15.9363   -5.2298  -16.7050 H         1 GLU         0.2015
     46 H2        -15.7329   -3.7181  -17.3236 H         1 GLU         0.2015
     47 H3        -14.6347   -4.3263  -16.2590 H         1 GLU         0.2015
     48 H4        -13.9608   -6.0069  -17.7724 H         1 GLU         0.1095
     49 H5        -14.8623   -5.9472  -20.0985 H         1 GLU         0.0310
     50 H6        -16.0048   -4.6482  -19.6150 H         1 GLU         0.0310
     51 H7        -16.1493   -6.2862  -18.8922 H         1 GLU         0.0310
     52 H8        -14.6473   -2.5661  -18.1246 H         1 ALA         0.1884
     53 H9        -12.7048   -1.8215  -19.9832 H         1 ALA         0.0797
     54 H10       -12.7165    0.3776  -18.8808 H         1 ALA         0.0277
     55 H11       -13.6146   -0.3380  -17.4995 H         1 ALA         0.0277
     56 H12       -14.3665   -0.2872  -19.1300 H         1 ALA         0.0277
     57 H13       -12.2008   -2.5397  -16.5122 H         1 LYS         0.1883
     58 H14        -9.5542   -1.5125  -16.4202 H         1 LYS         0.0800
     59 H15       -10.7825   -3.8281  -14.8600 H         1 LYS         0.0312
     60 H16       -10.8125   -2.0915  -14.4019 H         1 LYS         0.0312
     61 H17        -8.3548   -3.9044  -14.5701 H         1 LYS         0.0269
     62 H18        -9.1294   -3.2635  -13.0815 H         1 LYS         0.0269
     63 H19        -8.5944   -0.9466  -13.7970 H         1 LYS         0.0317
     64 H20        -7.8271   -1.5829  -15.2913 H         1 LYS         0.0317
     65 H21        -6.0667   -2.6522  -14.0347 H         1 LYS         0.0813
     66 H22        -6.9156   -2.3670  -12.4776 H         1 LYS         0.0813
     67 H23        -5.2018   -0.7025  -12.8842 H         1 LYS         0.1994
     68 H24        -6.6858    0.0096  -12.8742 H         1 LYS         0.1994
     69 H25        -5.9079   -0.2518  -14.3012 H         1 LYS         0.1994
     70 H26       -10.7864   -4.6857  -17.5048 H         1 LYS         0.1883
     71 H27        -8.1863   -5.8713  -17.7668 H         1 LYS         0.0800
     72 H28       -10.6759   -6.6221  -19.3602 H         1 LYS         0.0312
     73 H29       -10.3535   -7.1715  -17.6806 H         1 LYS         0.0312
     74 H30        -8.2665   -8.2960  -18.4297 H         1 LYS         0.0269
     75 H31        -8.5360   -7.7092  -20.1059 H         1 LYS         0.0269
     76 H32       -10.7596   -8.9201  -20.0972 H         1 LYS         0.0317
     77 H33       -10.3184   -9.6156  -18.5009 H         1 LYS         0.0317
     78 H34        -8.5056   -9.8564  -20.9076 H         1 LYS         0.0813
     79 H35        -9.8651  -10.9980  -20.6333 H         1 LYS         0.0813
     80 H36        -7.7853  -11.8595  -19.7924 H         1 LYS         0.1994
     81 H37        -8.8275  -11.6130  -18.5425 H         1 LYS         0.1994
     82 H38        -7.5817  -10.5669  -18.7939 H         1 LYS         0.1994
     83 H39       -10.1273   -3.7891  -19.8573 H         1 LEU         0.1883
     84 H40        -8.6029   -4.7633  -22.1823 H         1 LEU         0.0800
     85 H41       -10.3367   -3.4982  -23.4931 H         1 LEU         0.0315
     86 H42       -11.1155   -3.0615  -21.9345 H         1 LEU         0.0315
     87 H43       -11.4554   -5.4581  -21.4457 H         1 LEU         0.0298
     88 H44       -13.2270   -5.8576  -23.1562 H         1 LEU         0.0232
     89 H45       -12.5305   -4.5528  -24.1754 H         1 LEU         0.0232
     90 H46       -13.2398   -4.1588  -22.5728 H         1 LEU         0.0232
     91 H47        -9.5457   -6.3485  -22.7406 H         1 LEU         0.0232
     92 H48       -10.3760   -5.8957  -24.2678 H         1 LEU         0.0232
     93 H49       -11.0905   -7.1455  -23.1934 H         1 LEU         0.0232
     94 H50        -8.8998   -1.7696  -20.3192 H         1 VAL         0.1875
     95 H51        -8.3227   -0.0601  -22.5567 H         1 VAL         0.0729
     96 H52        -9.4677    0.6499  -20.4446 H         1 VAL         0.0336
     97 H53        -8.0602    1.2841  -18.5031 H         1 VAL         0.0234
     98 H54        -6.6275    0.5637  -19.3125 H         1 VAL         0.0234
     99 H55        -8.0029   -0.4826  -18.8223 H         1 VAL         0.0234
    100 H56        -8.5449    2.2656  -22.0760 H         1 VAL         0.0234
    101 H57        -6.9742    2.2407  -21.2049 H         1 VAL         0.0234
    102 H58        -8.4423    2.8810  -20.3916 H         1 VAL         0.0234
@<TRIPOS>BOND
     1    1    2 1  
     2    2    3 1  
     3    2    5 1  
     4    3    4 2  
     5    3    6 am 
     6    6    7 1  
     7    7    8 1  
     8    7   10 1  
     9    8    9 2  
    10    8   11 am 
    11   11   12 1  
    12   12   13 1  
    13   12   15 1  
    14   13   14 2  
    15   13   20 am 
    16   15   16 1  
    17   16   17 1  
    18   17   18 1  
    19   18   19 1  
    20   20   21 1  
    21   21   22 1  
    22   21   24 1  
    23   22   23 2  
    24   22   29 am 
    25   24   25 1  
    26   25   26 1  
    27   26   27 1  
    28   27   28 1  
    29   29   30 1  
    30   30   31 1  
    31   30   33 1  
    32   31   32 2  
    33   31   37 am 
    34   33   34 1  
    35   34   35 1  
    36   34   36 1  
    37   37   38 1  
    38   38   39 1  
    39   38   41 1  
    40   39   40 ar 
    41   39   44 ar 
    42   41   42 1  
    43   41   43 1  
    44    1   45 1  
    45    1   46 1  
    46    1   47 1  
    47    2   48 1  
    48    5   49 1  
    49    5   50 1  
    50    5   51 1  
    51    6   52 1  
    52    7   53 1  
    53   10   54 1  
    54   10   55 1  
    55   10   56 1  
    56   11   57 1  
    57   12   58 1  
    58   15   59 1  
    59   15   60 1  
    60   16   61 1  
    61   16   62 1  
    62   17   63 1  
    63   17   64 1  
    64   18   65 1  
    65   18   66 1  
    66   19   67 1  
    67   19   68 1  
    68   19   69 1  
    69   20   70 1  
    70   21   71 1  
    71   24   72 1  
    72   24   73 1  
    73   25   74 1  
    74   25   75 1  
    75   26   76 1  
    76   26   77 1  
    77   27   78 1  
    78   27   79 1  
    79   28   80 1  
    80   28   81 1  
    81   28   82 1  
    82   29   83 1  
    83   30   84 1  
    84   33   85 1  
    85   33   86 1  
    86   34   87 1  
    87   35   88 1  
    88   35   89 1  
    89   35   90 1  
    90   36   91 1  
    91   36   92 1  
    92   36   93 1  
    93   37   94 1  
    94   38   95 1  
    95   41   96 1  
    96   42   97 1  
    97   42   98 1  
    98   42   99 1  
    99   43  100 1  
   100   43  101 1  
   101   43  102 1  
@<TRIPOS>SUBSTRUCTURE
     1 GLU         1

