4j73_ligand
  -I-interpret- 

103102  0  0  0  0  0  0  0  0999 V2000
  -15.2580   -4.5530  -17.0180 N   0  3  0  0  0
  -14.4900   -5.1110  -18.1290 C   0  0  0  0  0
  -13.4590   -4.1160  -18.6240 C   0  0  0  0  0
  -12.3620   -4.5110  -19.0060 O   0  0  0  0  0
  -15.4450   -5.5280  -19.2650 C   0  0  0  0  0
  -13.7560   -2.8190  -18.5010 N   0  0  0  0  0
  -12.8340   -1.7530  -18.8930 C   0  0  0  0  0
  -11.4460   -1.8650  -18.2640 C   0  0  0  0  0
  -10.4380   -1.5230  -18.8910 O   0  0  0  0  0
  -13.4220   -0.4110  -18.5800 C   0  0  0  0  0
  -11.3670   -2.3160  -17.0170 N   0  0  0  0  0
  -10.0690   -2.4840  -16.3870 C   0  0  0  0  0
   -9.1960   -3.4950  -17.1470 C   0  0  0  0  0
   -7.9850   -3.2920  -17.2610 O   0  0  0  0  0
  -10.2300   -2.8780  -14.9040 C   0  0  0  0  0
   -8.9080   -3.0570  -14.1390 C   0  0  0  0  0
   -8.0420   -1.7920  -14.2330 C   0  0  0  0  0
   -6.7240   -1.9640  -13.4830 C   0  0  0  0  0
   -6.0770   -0.6170  -13.3770 N   0  3  0  0  0
   -9.8020   -4.5730  -17.6400 N   0  0  0  0  0
   -9.0610   -5.5930  -18.3730 C   0  0  0  0  0
   -8.5720   -5.0620  -19.7130 C   0  0  0  0  0
   -7.4610   -5.3730  -20.1310 O   0  0  0  0  0
   -9.8900   -6.8560  -18.6270 C   0  0  0  0  0
   -9.0290   -8.0230  -19.1740 C   0  0  0  0  0
   -9.9240   -9.2310  -19.4530 C   0  0  0  0  0
   -9.1450  -10.3250  -20.1450 C   0  0  0  0  0
   -8.2610  -11.1610  -19.2430 N   0  3  0  0  0
   -9.3700   -4.2200  -20.3480 N   0  0  0  0  0
   -9.1560   -3.9160  -21.7510 C   0  0  0  0  0
   -8.3470   -2.6640  -22.0440 C   0  0  0  0  0
   -7.6480   -2.6350  -23.0520 O   0  0  0  0  0
  -10.5100   -3.8180  -22.4550 C   0  0  0  0  0
  -11.2970   -5.1250  -22.4820 C   0  0  0  0  0
  -12.6720   -4.9080  -23.1440 C   0  0  0  0  0
  -10.5240   -6.2030  -23.2220 C   0  0  0  0  0
   -8.4540   -1.6410  -21.2050 N   0  0  0  0  0
   -7.9250   -0.3290  -21.5670 C   0  0  0  0  0
   -6.3990   -0.3720  -21.6620 C   0  0  0  0  0
   -5.7480   -1.2280  -21.0410 O   0  0  0  0  0
   -8.3780    0.7340  -20.5690 C   0  0  0  0  0
   -7.7210    0.5090  -19.2060 C   0  0  0  0  0
   -8.0630    2.1270  -21.0970 C   0  0  0  0  0
   -5.7780    0.4230  -22.3780 O   0  0  0  0  0
  -14.6212   -4.2790  -16.2698 H   0  0  0  0  0
  -15.7764   -3.7361  -17.3410 H   0  0  0  0  0
  -15.9105   -5.2557  -16.6705 H   0  0  0  0  0
  -13.9551   -5.9943  -17.7802 H   0  0  0  0  0
  -15.9625   -4.6470  -19.6446 H   0  0  0  0  0
  -14.8715   -5.9888  -20.0693 H   0  0  0  0  0
  -16.1738   -6.2420  -18.8815 H   0  0  0  0  0
  -14.6651   -2.5610  -18.1171 H   0  0  0  0  0
  -12.6957   -1.8664  -19.9682 H   0  0  0  0  0
  -13.5034   -0.2945  -17.4993 H   0  0  0  0  0
  -12.7772    0.3698  -18.9834 H   0  0  0  0  0
  -14.4117   -0.3354  -19.0304 H   0  0  0  0  0
  -12.2174   -2.5442  -16.5021 H   0  0  0  0  0
   -9.5522   -1.5251  -16.4266 H   0  0  0  0  0
  -10.7401   -3.8411  -14.8854 H   0  0  0  0  0
  -10.7707   -2.0664  -14.4172 H   0  0  0  0  0
   -8.3594   -3.8898  -14.5790 H   0  0  0  0  0
   -9.1342   -3.2488  -13.0901 H   0  0  0  0  0
   -8.5899   -0.9628  -13.7853 H   0  0  0  0  0
   -7.8209   -1.6006  -15.2830 H   0  0  0  0  0
   -6.0724   -2.6553  -14.0174 H   0  0  0  0  0
   -6.9050   -2.3756  -12.4901 H   0  0  0  0  0
   -5.1916   -0.7047  -12.8783 H   0  0  0  0  0
   -5.9065   -0.2485  -14.3127 H   0  0  0  0  0
   -6.6940    0.0161  -12.8681 H   0  0  0  0  0
  -10.8061   -4.6880  -17.5021 H   0  0  0  0  0
   -8.2130   -5.8538  -17.7398 H   0  0  0  0  0
  -10.6501   -6.6182  -19.3712 H   0  0  0  0  0
  -10.3252   -7.1718  -17.6789 H   0  0  0  0  0
   -8.2737   -8.2936  -18.4362 H   0  0  0  0  0
   -8.5408   -7.7120  -20.0976 H   0  0  0  0  0
  -10.7443   -8.9197  -20.0998 H   0  0  0  0  0
  -10.3037   -9.6142  -18.5059 H   0  0  0  0  0
   -8.4850   -9.8335  -20.8598 H   0  0  0  0  0
   -9.8791  -11.0041  -20.5785 H   0  0  0  0  0
   -7.7802  -11.8674  -19.8000 H   0  0  0  0  0
   -7.5742  -10.5588  -18.7891 H   0  0  0  0  0
   -8.8354  -11.6178  -18.5346 H   0  0  0  0  0
  -10.1425   -3.7805  -19.8475 H   0  0  0  0  0
   -8.5498   -4.7384  -22.1307 H   0  0  0  0  0
  -10.3147   -3.5388  -23.4904 H   0  0  0  0  0
  -11.1082   -3.0937  -21.9021 H   0  0  0  0  0
  -11.4487   -5.4539  -21.4539 H   0  0  0  0  0
  -13.2336   -4.1654  -22.5772 H   0  0  0  0  0
  -12.5304   -4.5561  -24.1658 H   0  0  0  0  0
  -13.2210   -5.8496  -23.1555 H   0  0  0  0  0
  -10.3425   -5.8795  -24.2469 H   0  0  0  0  0
   -9.5719   -6.3750  -22.7200 H   0  0  0  0  0
  -11.1048   -7.1254  -23.2282 H   0  0  0  0  0
   -8.9087   -1.7722  -20.3015 H   0  0  0  0  0
   -8.3202   -0.0601  -22.5466 H   0  0  0  0  0
   -6.3478   -1.7751  -20.5287 H   0  0  0  0  0
   -9.4575    0.6512  -20.4424 H   0  0  0  0  0
   -8.0010   -0.4738  -18.8269 H   0  0  0  0  0
   -6.6376    0.5634  -19.3129 H   0  0  0  0  0
   -8.0578    1.2776  -18.5104 H   0  0  0  0  0
   -6.9883    2.2207  -21.2527 H   0  0  0  0  0
   -8.5833    2.2821  -22.0422 H   0  0  0  0  0
   -8.3928    2.8718  -20.3727 H   0  0  0  0  0
  1  2  1  0  0  0
  2  3  1  0  0  0
  2  5  1  0  0  0
  3  4  2  0  0  0
  3  6  1  0  0  0
  6  7  1  0  0  0
  7  8  1  0  0  0
  7 10  1  0  0  0
  8  9  2  0  0  0
  8 11  1  0  0  0
 11 12  1  0  0  0
 12 13  1  0  0  0
 12 15  1  0  0  0
 13 14  2  0  0  0
 13 20  1  0  0  0
 15 16  1  0  0  0
 16 17  1  0  0  0
 17 18  1  0  0  0
 18 19  1  0  0  0
 20 21  1  0  0  0
 21 22  1  0  0  0
 21 24  1  0  0  0
 22 23  2  0  0  0
 22 29  1  0  0  0
 24 25  1  0  0  0
 25 26  1  0  0  0
 26 27  1  0  0  0
 27 28  1  0  0  0
 29 30  1  0  0  0
 30 31  1  0  0  0
 30 33  1  0  0  0
 31 32  2  0  0  0
 31 37  1  0  0  0
 33 34  1  0  0  0
 34 35  1  0  0  0
 34 36  1  0  0  0
 37 38  1  0  0  0
 38 39  1  0  0  0
 38 41  1  0  0  0
 39 40  1  0  0  0
 39 44  2  0  0  0
 41 42  1  0  0  0
 41 43  1  0  0  0
  1 45  1  0  0  0
  1 46  1  0  0  0
  1 47  1  0  0  0
  2 48  1  0  0  0
  5 49  1  0  0  0
  5 50  1  0  0  0
  5 51  1  0  0  0
  6 52  1  0  0  0
  7 53  1  0  0  0
 10 54  1  0  0  0
 10 55  1  0  0  0
 10 56  1  0  0  0
 11 57  1  0  0  0
 12 58  1  0  0  0
 15 59  1  0  0  0
 15 60  1  0  0  0
 16 61  1  0  0  0
 16 62  1  0  0  0
 17 63  1  0  0  0
 17 64  1  0  0  0
 18 65  1  0  0  0
 18 66  1  0  0  0
 19 67  1  0  0  0
 19 68  1  0  0  0
 19 69  1  0  0  0
 20 70  1  0  0  0
 21 71  1  0  0  0
 24 72  1  0  0  0
 24 73  1  0  0  0
 25 74  1  0  0  0
 25 75  1  0  0  0
 26 76  1  0  0  0
 26 77  1  0  0  0
 27 78  1  0  0  0
 27 79  1  0  0  0
 28 80  1  0  0  0
 28 81  1  0  0  0
 28 82  1  0  0  0
 29 83  1  0  0  0
 30 84  1  0  0  0
 33 85  1  0  0  0
 33 86  1  0  0  0
 34 87  1  0  0  0
 35 88  1  0  0  0
 35 89  1  0  0  0
 35 90  1  0  0  0
 36 91  1  0  0  0
 36 92  1  0  0  0
 36 93  1  0  0  0
 37 94  1  0  0  0
 38 95  1  0  0  0
 40 96  1  0  0  0
 41 97  1  0  0  0
 42 98  1  0  0  0
 42 99  1  0  0  0
 42100  1  0  0  0
 43101  1  0  0  0
 43102  1  0  0  0
 43103  1  0  0  0
M  END
$$$$
