3djv_ligand
  -I-interpret- 

 35 36  0  0  0  0  0  0  0  0999 V2000
   32.0930   38.1280   12.1670 P   0  0  0  0  0
   32.9580   39.3740   12.1560 O   0  0  0  0  0
   32.8480   36.8280   12.0200 O   0  0  0  0  0
   31.0490   38.1190   13.2580 O   0  0  0  0  0
   31.2960   42.2590    8.9820 O   0  0  0  0  0
   30.9030   41.5590   10.1730 C   0  0  0  0  0
   30.3010   40.1870    9.8600 C   0  0  0  0  0
   29.6400   40.1940    8.5890 O   0  0  0  0  0
   31.3530   39.0760    9.7820 C   0  0  0  0  0
   31.1870   38.1560   10.8380 O   0  0  0  0  0
   31.0940   38.3500    8.4750 C   0  0  0  0  0
   32.3320   37.8720    7.9670 O   0  0  0  0  0
   30.5630   39.5450    7.7110 C   0  0  0  0  0
   30.1230   39.5120    6.3130 N   0  0  0  0  0
   29.7620   38.3900    5.5080 C   0  0  0  0  0
   29.4220   38.6270    4.2200 N   0  0  0  0  0
   29.4280   39.8770    3.6870 C   0  0  0  0  0
   29.7910   40.9650    4.4590 C   0  0  0  0  0
   30.1350   40.7390    5.7740 C   0  0  0  0  0
   29.7370   37.2070    5.9270 O   0  0  0  0  0
   29.0840   40.0930    2.3980 N   0  0  0  0  0
   33.5960   39.3130   11.4413 H   0  0  0  0  0
   33.4901   36.9106   11.3111 H   0  0  0  0  0
   31.6672   43.1115    9.2210 H   0  0  0  0  0
   30.1465   42.1544   10.6841 H   0  0  0  0  0
   31.7900   41.4094   10.7886 H   0  0  0  0  0
   29.6099   39.9903   10.6796 H   0  0  0  0  0
   32.3577   39.4939    9.8456 H   0  0  0  0  0
   30.4442   37.4748    8.4756 H   0  0  0  0  0
   32.1800   37.4104    7.1391 H   0  0  0  0  0
   31.4720   40.0912    7.4591 H   0  0  0  0  0
   29.1520   37.8407    3.6290 H   0  0  0  0  0
   29.8047   41.9712    4.0400 H   0  0  0  0  0
   30.4263   41.5854    6.3959 H   0  0  0  0  0
   28.8127   39.3092    1.8043 H   0  0  0  0  0
  1  2  1  0  0  0
  1  3  1  0  0  0
  1  4  2  0  0  0
 10  1  1  0  0  0
  6  5  1  0  0  0
  7  6  1  0  0  0
  7  8  1  0  0  0
  9  7  1  0  0  0
  8 13  1  0  0  0
  9 10  1  0  0  0
  9 11  1  0  0  0
 11 12  1  0  0  0
 11 13  1  0  0  0
 13 14  1  0  0  0
 14 15  1  0  0  0
 14 19  1  0  0  0
 15 16  1  0  0  0
 15 20  2  0  0  0
 16 17  1  0  0  0
 17 18  1  0  0  0
 17 21  2  0  0  0
 18 19  2  0  0  0
  2 22  1  0  0  0
  3 23  1  0  0  0
  5 24  1  0  0  0
  6 25  1  0  0  0
  6 26  1  0  0  0
  7 27  1  0  0  0
  9 28  1  0  0  0
 11 29  1  0  0  0
 12 30  1  0  0  0
 13 31  1  0  0  0
 16 32  1  0  0  0
 18 33  1  0  0  0
 19 34  1  0  0  0
 21 35  1  0  0  0
M  END
$$$$
