5y13_ligand
  -I-interpret- 

 38 39  0  0  0  0  0  0  0  0999 V2000
   -5.7720    4.5490  -14.9120 O   0  0  0  0  0
   -6.2500    5.7230  -15.1990 C   0  0  0  0  0
   -5.7200    6.7970  -14.7170 O   0  0  0  0  0
   -7.4170    5.8160  -16.1250 C   0  0  0  0  0
   -7.1210    6.4070  -17.4250 C   0  0  0  0  0
   -7.5670    7.8600  -17.6270 C   0  0  0  0  0
   -7.9140    8.2220  -19.0540 C   0  0  0  0  0
   -7.6530    9.5850  -19.4690 N   0  0  0  0  0
   -6.0740    9.8980  -19.6800 S   0  0  0  0  0
   -5.9950   10.8380  -20.8890 O   0  0  0  0  0
   -5.5410   10.5400  -18.4600 O   0  0  0  0  0
   -5.1270    8.3860  -19.9690 C   0  0  0  0  0
   -5.1610    7.6180  -21.2110 C   0  0  0  0  0
   -5.9460    8.0310  -22.2760 C   0  0  0  0  0
   -5.9620    7.2780  -23.4730 C   0  0  0  0  0
   -5.1850    6.1040  -23.5770 C   0  0  0  0  0
   -4.4200    5.6960  -22.5260 C   0  0  0  0  0
   -4.3830    6.4540  -21.3140 C   0  0  0  0  0
   -3.5960    6.0460  -20.2070 C   0  0  0  0  0
   -2.4510    4.4420  -20.0980 Br  0  0  0  0  0
   -3.5880    6.8140  -19.0140 C   0  0  0  0  0
   -4.3520    7.9720  -18.9170 C   0  0  0  0  0
   -6.2910    3.8757  -15.3579 H   0  0  0  0  0
   -8.1519    6.4615  -15.6440 H   0  0  0  0  0
   -7.7556    4.7967  -16.3106 H   0  0  0  0  0
   -7.6687    5.8162  -18.1592 H   0  0  0  0  0
   -6.0350    6.4066  -17.5188 H   0  0  0  0  0
   -6.7292    8.4927  -17.3339 H   0  0  0  0  0
   -8.4718    7.9993  -17.0353 H   0  0  0  0  0
   -8.9918    8.0855  -19.1418 H   0  0  0  0  0
   -7.2826    7.5937  -19.6822 H   0  0  0  0  0
   -8.3871   10.2781  -19.6140 H   0  0  0  0  0
   -6.5499    8.9345  -22.1911 H   0  0  0  0  0
   -6.5736    7.6038  -24.3144 H   0  0  0  0  0
   -5.1971    5.5232  -24.4993 H   0  0  0  0  0
   -3.8305    4.7830  -22.6098 H   0  0  0  0  0
   -2.9792    6.4944  -18.1682 H   0  0  0  0  0
   -4.3343    8.5554  -17.9964 H   0  0  0  0  0
  1  2  1  0  0  0
  2  3  2  0  0  0
  2  4  1  0  0  0
  4  5  1  0  0  0
  5  6  1  0  0  0
  6  7  1  0  0  0
  7  8  1  0  0  0
  8  9  1  0  0  0
  9 10  2  0  0  0
  9 11  2  0  0  0
  9 12  1  0  0  0
 12 13  4  0  0  0
 12 22  4  0  0  0
 13 14  4  0  0  0
 13 18  4  0  0  0
 14 15  4  0  0  0
 15 16  4  0  0  0
 16 17  4  0  0  0
 17 18  4  0  0  0
 18 19  4  0  0  0
 19 20  1  0  0  0
 19 21  4  0  0  0
 21 22  4  0  0  0
  1 23  1  0  0  0
  4 24  1  0  0  0
  4 25  1  0  0  0
  5 26  1  0  0  0
  5 27  1  0  0  0
  6 28  1  0  0  0
  6 29  1  0  0  0
  7 30  1  0  0  0
  7 31  1  0  0  0
  8 32  1  0  0  0
 14 33  1  0  0  0
 15 34  1  0  0  0
 16 35  1  0  0  0
 17 36  1  0  0  0
 21 37  1  0  0  0
 22 38  1  0  0  0
M  END
$$$$
