4do3_ligand
  -I-interpret- 

 30 32  0  0  0  0  0  0  0  0999 V2000
   18.2830   47.0400   10.3660 Cl  0  0  0  0  0
   19.5520   47.1320    9.1240 C   0  0  0  0  0
   19.3960   46.3180    7.9940 C   0  0  0  0  0
   20.3420   46.3290    6.9960 C   0  0  0  0  0
   21.4260   47.1840    7.1700 C   0  0  0  0  0
   22.5280   47.4580    6.3820 N   0  0  0  0  0
   20.6260   47.9950    9.3240 C   0  0  0  0  0
   21.5560   48.0080    8.3010 C   0  0  0  0  0
   22.7240   48.7630    8.1910 C   0  0  0  0  0
   23.2710   49.7150    9.0680 C   0  0  0  0  0
   24.4780   50.3020    8.6330 C   0  0  0  0  0
   23.3430   48.4080    6.9700 C   0  0  0  0  0
   24.5320   48.9950    6.5660 C   0  0  0  0  0
   25.1150   49.9540    7.3990 C   0  0  0  0  0
   26.3930   50.5760    6.8960 C   0  0  0  0  0
   26.9400   51.6560    7.8330 C   0  0  0  0  0
   26.0880   51.2460    5.5610 C   0  0  0  0  0
   26.3700   50.6290    4.4940 O   0  0  0  0  0
   25.5420   52.3700    5.5520 O   0  0  0  0  0
   18.5213   45.6736    7.9058 H   0  0  0  0  0
   20.2473   45.6987    6.1118 H   0  0  0  0  0
   20.7258   48.6120   10.2170 H   0  0  0  0  0
   22.7982   49.9801   10.0136 H   0  0  0  0  0
   24.9472   51.0553    9.2658 H   0  0  0  0  0
   25.0005   48.7157    5.6223 H   0  0  0  0  0
   27.1389   49.7847    6.8204 H   0  0  0  0  0
   26.2023   52.4515    7.9383 H   0  0  0  0  0
   27.1456   51.2178    8.8096 H   0  0  0  0  0
   27.8602   52.0650    7.4159 H   0  0  0  0  0
   26.7815   49.7891    4.7105 H   0  0  0  0  0
  1  2  1  0  0  0
  2  3  4  0  0  0
  2  7  4  0  0  0
  3  4  4  0  0  0
  4  5  4  0  0  0
  5  6  4  0  0  0
  5  8  4  0  0  0
  6 12  4  0  0  0
  7  8  4  0  0  0
  8  9  4  0  0  0
  9 10  4  0  0  0
  9 12  4  0  0  0
 10 11  4  0  0  0
 11 14  4  0  0  0
 12 13  4  0  0  0
 13 14  4  0  0  0
 14 15  1  0  0  0
 15 16  1  0  0  0
 15 17  1  0  0  0
 17 18  1  0  0  0
 17 19  2  0  0  0
  3 20  1  0  0  0
  4 21  1  0  0  0
  7 22  1  0  0  0
 10 23  1  0  0  0
 11 24  1  0  0  0
 13 25  1  0  0  0
 15 26  1  0  0  0
 16 27  1  0  0  0
 16 28  1  0  0  0
 16 29  1  0  0  0
 18 30  1  0  0  0
M  END
$$$$
