1sbr_ligand
  -I-interpret- 

 35 36  0  0  0  0  0  0  0  0999 V2000
   11.6510   41.9440    4.2410 C   0  0  0  0  0
   14.7650   43.9370    7.2660 N   0  0  0  0  0
   16.0560   46.2700    3.0440 C   0  0  0  0  0
   19.4780   44.7750    1.5790 O   0  0  0  0  0
   19.2880   44.6420    2.9730 C   0  0  0  0  0
   19.1850   46.0630    3.4720 C   0  0  0  0  0
   17.0440   46.2030    6.5290 C   0  0  0  0  0
   18.6850   46.0750    6.1150 S   0  0  0  0  0
   18.1240   46.1150    4.5530 C   0  0  0  0  0
   16.7810   46.2280    4.3750 C   0  0  0  0  0
   16.1740   46.2730    5.5450 N   0  3  0  0  0
   14.8560   46.3420    5.7470 C   0  0  0  0  0
   14.0620   44.1140    6.1350 C   0  0  0  0  0
   13.2820   43.0950    5.7960 N   0  0  0  0  0
   12.5960   43.0930    4.5470 C   0  0  0  0  0
   12.5430   44.3720    3.8580 N   0  0  0  0  0
   13.3400   45.3600    4.2730 C   0  0  0  0  0
   14.0730   45.2640    5.4100 C   0  0  0  0  0
   12.2052   41.0055    4.2564 H   0  0  0  0  0
   10.8622   41.9140    4.9926 H   0  0  0  0  0
   11.2099   42.0908    3.2551 H   0  0  0  0  0
   14.6743   43.0679    7.7922 H   0  0  0  0  0
   15.3895   44.6717    7.5986 H   0  0  0  0  0
   16.4086   47.1245    2.4664 H   0  0  0  0  0
   16.2558   45.3505    2.4937 H   0  0  0  0  0
   14.9842   46.3650    3.2183 H   0  0  0  0  0
   19.5536   43.9038    1.1829 H   0  0  0  0  0
   20.1041   44.0980    3.4485 H   0  0  0  0  0
   18.3997   44.0574    3.2124 H   0  0  0  0  0
   18.9143   46.7276    2.6516 H   0  0  0  0  0
   20.1444   46.3870    3.8753 H   0  0  0  0  0
   16.7233   46.2263    7.5705 H   0  0  0  0  0
   14.5147   47.1501    5.1001 H   0  0  0  0  0
   14.7423   46.4452    6.8261 H   0  0  0  0  0
   13.4033   46.2720    3.6794 H   0  0  0  0  0
 15  1  1  0  0  0
 13  2  1  0  0  0
 10  3  1  0  0  0
  5  4  1  0  0  0
  6  5  1  0  0  0
  9  6  1  0  0  0
  7  8  4  0  0  0
 11  7  4  0  0  0
  9  8  4  0  0  0
 10  9  4  0  0  0
 11 10  4  0  0  0
 12 11  1  0  0  0
 18 12  1  0  0  0
 14 13  4  0  0  0
 13 18  4  0  0  0
 14 15  4  0  0  0
 15 16  4  0  0  0
 16 17  4  0  0  0
 17 18  4  0  0  0
  1 19  1  0  0  0
  1 20  1  0  0  0
  1 21  1  0  0  0
  2 22  1  0  0  0
  2 23  1  0  0  0
  3 24  1  0  0  0
  3 25  1  0  0  0
  3 26  1  0  0  0
  4 27  1  0  0  0
  5 28  1  0  0  0
  5 29  1  0  0  0
  6 30  1  0  0  0
  6 31  1  0  0  0
  7 32  1  0  0  0
 12 33  1  0  0  0
 12 34  1  0  0  0
 17 35  1  0  0  0
M  END
$$$$
