5o1c_ligand
  -I-interpret- 

 34 36  0  0  0  0  0  0  0  0999 V2000
   92.3940   91.8930  -43.0980 N   0  0  0  0  0
   91.7420   94.2030  -42.9040 C   0  0  0  0  0
   91.2330   95.3970  -43.4450 C   0  0  0  0  0
   90.8250   95.4490  -44.7790 C   0  0  0  0  0
   90.2720   96.6980  -45.3950 C   0  0  0  0  0
   91.7330   90.7540  -42.6940 C   0  0  0  0  0
   93.9060   90.5290  -42.1530 C   0  0  0  0  0
   90.2960   91.4610  -46.6270 C   0  0  0  0  0
   91.5110   89.8650  -47.9560 C   0  0  0  0  0
   92.6760   91.3590  -46.4920 C   0  0  0  0  0
   90.9440   94.2930  -45.5660 C   0  0  0  0  0
   93.7270   91.7530  -42.7580 C   0  0  0  0  0
   91.4880   91.9530  -46.0710 C   0  0  0  0  0
   90.3010   90.4250  -47.5630 C   0  0  0  0  0
   92.7050   90.3320  -47.4350 C   0  0  0  0  0
   91.4520   93.0700  -45.0840 C   0  0  0  0  0
   91.8510   93.0460  -43.7150 C   0  0  0  0  0
   92.6430   89.8970  -42.1110 C   0  0  0  0  0
   91.5350   88.8640  -48.8440 F   0  0  0  0  0
   92.3140   94.2230  -40.8440 I   0  0  0  0  0
   89.9050   96.6270  -46.6120 O   0  0  0  0  0
   91.1150   96.5240  -42.6690 O   0  0  0  0  0
   90.2110   97.7220  -44.6470 O   0  0  0  0  0
   90.6669   90.5617  -42.8150 H   0  0  0  0  0
   94.8455   90.1238  -41.7771 H   0  0  0  0  0
   89.3454   91.8978  -46.3209 H   0  0  0  0  0
   93.6172   91.7099  -46.0688 H   0  0  0  0  0
   90.6260   94.3439  -46.6073 H   0  0  0  0  0
   94.5084   92.4910  -42.9393 H   0  0  0  0  0
   89.3639   90.0584  -47.9820 H   0  0  0  0  0
   93.6541   89.9034  -47.7569 H   0  0  0  0  0
   92.4274   88.9131  -41.6945 H   0  0  0  0  0
   90.0601   95.7384  -46.9405 H   0  0  0  0  0
   90.7526   97.2387  -43.1977 H   0  0  0  0  0
  1  6  4  0  0  0
  1 12  4  0  0  0
 17  1  1  0  0  0
  3  2  4  0  0  0
  2 17  4  0  0  0
  2 20  1  0  0  0
  4  3  4  0  0  0
  3 22  1  0  0  0
  4  5  1  0  0  0
 11  4  4  0  0  0
  5 21  1  0  0  0
  5 23  2  0  0  0
  6 18  4  0  0  0
 12  7  4  0  0  0
  7 18  4  0  0  0
 13  8  4  0  0  0
  8 14  4  0  0  0
 14  9  4  0  0  0
 15  9  4  0  0  0
  9 19  1  0  0  0
 13 10  4  0  0  0
 10 15  4  0  0  0
 16 11  4  0  0  0
 13 16  1  0  0  0
 16 17  4  0  0  0
  6 24  1  0  0  0
  7 25  1  0  0  0
  8 26  1  0  0  0
 10 27  1  0  0  0
 11 28  1  0  0  0
 12 29  1  0  0  0
 14 30  1  0  0  0
 15 31  1  0  0  0
 18 32  1  0  0  0
 21 33  1  0  0  0
 22 34  1  0  0  0
M  END
$$$$
