3wka_ligand
  -I-interpret- 

 32 33  0  0  0  0  0  0  0  0999 V2000
  -16.4540   -9.4940   70.6780 C   0  0  0  0  0
  -16.2550   -9.8590   71.9530 C   0  0  0  0  0
  -16.1090   -8.0940   70.2770 C   0  0  0  0  0
  -15.3900   -7.6630   72.5630 C   0  0  0  0  0
  -17.9050  -12.1560   67.5970 C   0  0  0  0  0
  -16.5450  -12.3550   68.2540 C   0  0  0  0  0
  -18.8610  -11.3940   68.4850 C   0  0  0  0  0
  -15.9660  -11.0830   68.8860 C   0  0  0  0  0
  -18.2530  -10.1230   69.0680 C   0  0  0  0  0
  -15.5220   -9.4520   74.2800 C   0  0  0  0  0
  -15.6140   -7.2810   71.2640 N   0  0  0  0  0
  -16.9600  -10.3710   69.7210 N   0  0  0  0  0
  -15.7270   -8.9850   72.9020 N   0  0  0  0  0
  -16.5840  -11.1420   72.2950 N   0  0  0  0  0
  -16.2610   -7.6490   69.1470 O   0  0  0  0  0
  -14.9200   -6.8420   73.3330 O   0  0  0  0  0
  -18.3341  -13.1386   67.4007 H   0  0  0  0  0
  -17.7593  -11.5808   66.6827 H   0  0  0  0  0
  -15.8526  -12.6730   67.4746 H   0  0  0  0  0
  -16.6758  -13.0833   69.0544 H   0  0  0  0  0
  -19.1293  -12.0445   69.3174 H   0  0  0  0  0
  -19.7169  -11.1024   67.8764 H   0  0  0  0  0
  -15.6578  -10.4148   68.0819 H   0  0  0  0  0
  -15.1310  -11.3714   69.5245 H   0  0  0  0  0
  -18.9409   -9.7326   69.8180 H   0  0  0  0  0
  -18.0895   -9.4209   68.2505 H   0  0  0  0  0
  -14.4661   -9.3684   74.5373 H   0  0  0  0  0
  -16.1129   -8.8399   74.9614 H   0  0  0  0  0
  -15.8355  -10.4929   74.3599 H   0  0  0  0  0
  -15.3951   -6.3169   71.0131 H   0  0  0  0  0
  -16.9633  -11.7760   71.5917 H   0  0  0  0  0
  -16.4500  -11.4647   73.2533 H   0  0  0  0  0
  1  2  2  0  0  0
  1  3  1  0  0  0
 12  1  1  0  0  0
  2 13  1  0  0  0
  2 14  1  0  0  0
  3 11  1  0  0  0
  3 15  2  0  0  0
 11  4  1  0  0  0
 13  4  1  0  0  0
  4 16  2  0  0  0
  6  5  1  0  0  0
  5  7  1  0  0  0
  8  6  1  0  0  0
  7  9  1  0  0  0
  8 12  1  0  0  0
  9 12  1  0  0  0
 13 10  1  0  0  0
  5 17  1  0  0  0
  5 18  1  0  0  0
  6 19  1  0  0  0
  6 20  1  0  0  0
  7 21  1  0  0  0
  7 22  1  0  0  0
  8 23  1  0  0  0
  8 24  1  0  0  0
  9 25  1  0  0  0
  9 26  1  0  0  0
 10 27  1  0  0  0
 10 28  1  0  0  0
 10 29  1  0  0  0
 11 30  1  0  0  0
 14 31  1  0  0  0
 14 32  1  0  0  0
M  END
$$$$
