5wfd_ligand
  -I-interpret- 

 78 82  0  0  0  0  0  0  0  0999 V2000
   22.6760   -0.3380  -24.0990 C   0  0  0  0  0
   23.5000   -0.1080  -22.9100 C   0  0  0  0  0
   23.1430   -0.7130  -21.5750 C   0  0  0  0  0
   23.2170   -0.8610  -19.0860 C   0  0  0  0  0
   23.5520   -0.2570  -20.3080 C   0  0  0  0  0
   23.0220   -7.2550  -29.2790 C   0  0  0  0  0
   22.4290   -5.8910  -28.8720 C   0  0  0  0  0
   20.9300   -4.6080  -27.4520 C   0  0  0  0  0
   22.7920   -4.6600  -29.4880 C   0  0  0  0  0
   22.6200   -2.0890  -29.7890 C   0  0  0  0  0
   22.2360   -3.4100  -29.1160 C   0  0  0  0  0
   21.9910   -0.1290  -26.5790 C   0  0  0  0  0
   22.9770    0.1980  -25.3720 C   0  0  0  0  0
   21.2710   -3.3480  -28.0850 C   0  0  0  0  0
   20.6450   -2.0580  -27.6030 C   0  0  0  0  0
   26.4800    4.9390  -24.1940 C   0  0  0  0  0
   26.6800    3.7810  -23.1870 C   0  0  0  0  0
   27.1680    2.4110  -23.7950 C   0  0  0  0  0
   28.4470    2.6250  -24.5710 C   0  0  0  0  0
   25.9890    2.2610  -26.0920 C   0  0  0  0  0
   24.8590    1.6910  -26.6390 C   0  0  0  0  0
   24.3870    1.7760  -28.1100 C   0  0  0  0  0
   24.1650    0.9740  -25.5710 C   0  0  0  0  0
   22.4090   -2.0570  -19.0760 C   0  0  0  0  0
   22.6300   -2.1900  -16.4830 C   0  0  0  0  0
   22.2890   -2.9920  -15.2150 C   0  0  0  0  0
   20.2160   -3.7780  -16.2380 C   0  0  0  0  0
   20.5830   -3.0950  -17.5900 C   0  0  0  0  0
   22.3640   -1.8890  -21.4590 C   0  0  0  0  0
   24.6340    0.6440  -23.1190 C   0  0  0  0  0
   24.9900    1.1820  -24.3660 C   0  0  0  0  0
   26.1010    1.9540  -24.6950 N   0  0  0  0  0
   21.5040   -1.4650  -26.6560 N   0  0  0  0  0
   21.4840   -5.8370  -27.8390 N   0  0  0  0  0
   22.0430   -2.7140  -17.7780 N   0  0  0  0  0
   21.4510   -4.1770  -15.5650 N   0  3  0  0  0
   22.0070   -2.5180  -20.3020 N   0  0  0  0  0
   21.6520    0.6840  -27.3590 O   0  0  0  0  0
   20.0250   -4.5120  -26.4560 O   0  0  0  0  0
   21.7834   -0.9552  -23.9968 H   0  0  0  0  0
   23.5657   -0.4285  -18.1482 H   0  0  0  0  0
   24.1777    0.6348  -20.2728 H   0  0  0  0  0
   22.7969   -7.4493  -30.3276 H   0  0  0  0  0
   24.1023   -7.2375  -29.1352 H   0  0  0  0  0
   22.5845   -8.0390  -28.6608 H   0  0  0  0  0
   23.5346   -4.6795  -30.2856 H   0  0  0  0  0
   21.7347   -1.6426  -30.2418 H   0  0  0  0  0
   23.0305   -1.4085  -29.0430 H   0  0  0  0  0
   23.3672   -2.2790  -30.5595 H   0  0  0  0  0
   19.6768   -2.2642  -27.1467 H   0  0  0  0  0
   20.4978   -1.3809  -28.4444 H   0  0  0  0  0
   27.4245    5.1498  -24.6956 H   0  0  0  0  0
   25.7313    4.6516  -24.9322 H   0  0  0  0  0
   26.1439    5.8284  -23.6609 H   0  0  0  0  0
   25.7025    3.5882  -22.7450 H   0  0  0  0  0
   27.4609    4.1055  -22.4993 H   0  0  0  0  0
   27.3675    1.6751  -23.0161 H   0  0  0  0  0
   28.2664    3.3352  -25.3779 H   0  0  0  0  0
   29.2138    3.0185  -23.9037 H   0  0  0  0  0
   28.7800    1.6751  -24.9891 H   0  0  0  0  0
   26.7044    2.8663  -26.6487 H   0  0  0  0  0
   24.2227    2.8197  -28.3778 H   0  0  0  0  0
   25.1501    1.3485  -28.7604 H   0  0  0  0  0
   23.4568    1.2195  -28.2245 H   0  0  0  0  0
   23.7130   -2.2405  -16.5952 H   0  0  0  0  0
   22.2108   -1.1944  -16.3376 H   0  0  0  0  0
   21.7348   -2.3535  -14.5270 H   0  0  0  0  0
   23.2134   -3.3335  -14.7492 H   0  0  0  0  0
   19.5945   -4.6543  -16.4222 H   0  0  0  0  0
   19.6600   -3.0818  -15.6100 H   0  0  0  0  0
   20.0195   -2.1625  -17.6217 H   0  0  0  0  0
   20.3566   -3.8230  -18.3691 H   0  0  0  0  0
   22.0136   -2.3378  -22.3885 H   0  0  0  0  0
   25.2913    0.8320  -22.2701 H   0  0  0  0  0
   21.8253   -2.0865  -25.9138 H   0  0  0  0  0
   21.1979   -6.6946  -27.3667 H   0  0  0  0  0
   21.2068   -4.6663  -14.7040 H   0  0  0  0  0
   21.9843   -4.7756  -16.1956 H   0  0  0  0  0
  2  1  4  0  0  0
  1 13  4  0  0  0
  3  2  1  0  0  0
  2 30  4  0  0  0
  5  3  4  0  0  0
  3 29  4  0  0  0
  4  5  4  0  0  0
 24  4  4  0  0  0
  7  6  1  0  0  0
  9  7  2  0  0  0
 34  7  1  0  0  0
 14  8  1  0  0  0
  8 34  1  0  0  0
  8 39  2  0  0  0
 11  9  1  0  0  0
 11 10  1  0  0  0
 14 11  2  0  0  0
 13 12  1  0  0  0
 12 33  1  0  0  0
 12 38  2  0  0  0
 13 23  4  0  0  0
 15 14  1  0  0  0
 33 15  1  0  0  0
 17 16  1  0  0  0
 18 17  1  0  0  0
 18 19  1  0  0  0
 32 18  1  0  0  0
 21 20  4  0  0  0
 20 32  4  0  0  0
 21 22  1  0  0  0
 23 21  4  0  0  0
 23 31  4  0  0  0
 35 24  1  0  0  0
 24 37  4  0  0  0
 26 25  1  0  0  0
 25 35  1  0  0  0
 36 26  1  0  0  0
 27 28  1  0  0  0
 27 36  1  0  0  0
 28 35  1  0  0  0
 29 37  4  0  0  0
 30 31  4  0  0  0
 31 32  4  0  0  0
  1 40  1  0  0  0
  4 41  1  0  0  0
  5 42  1  0  0  0
  6 43  1  0  0  0
  6 44  1  0  0  0
  6 45  1  0  0  0
  9 46  1  0  0  0
 10 47  1  0  0  0
 10 48  1  0  0  0
 10 49  1  0  0  0
 15 50  1  0  0  0
 15 51  1  0  0  0
 16 52  1  0  0  0
 16 53  1  0  0  0
 16 54  1  0  0  0
 17 55  1  0  0  0
 17 56  1  0  0  0
 18 57  1  0  0  0
 19 58  1  0  0  0
 19 59  1  0  0  0
 19 60  1  0  0  0
 20 61  1  0  0  0
 22 62  1  0  0  0
 22 63  1  0  0  0
 22 64  1  0  0  0
 25 65  1  0  0  0
 25 66  1  0  0  0
 26 67  1  0  0  0
 26 68  1  0  0  0
 27 69  1  0  0  0
 27 70  1  0  0  0
 28 71  1  0  0  0
 28 72  1  0  0  0
 29 73  1  0  0  0
 30 74  1  0  0  0
 33 75  1  0  0  0
 34 76  1  0  0  0
 36 77  1  0  0  0
 36 78  1  0  0  0
M  END
$$$$
