1w3j_ligand
  -I-interpret- 

 22 22  0  0  0  0  0  0  0  0999 V2000
   -3.1290    9.5980    8.7350 C   0  0  0  0  0
   -2.1270   10.7340    8.9770 C   0  0  0  0  0
   -0.9830   10.7330    7.9360 C   0  0  0  0  0
   -0.0710   11.9460    8.2280 C   0  0  0  0  0
    0.5250   11.8380    9.6390 C   0  0  0  0  0
   -2.5250    8.3170    8.9190 O   0  0  0  0  0
   -1.5250   10.5350   10.2500 O   0  0  0  0  0
   -1.4550   10.7730    6.6030 O   0  0  0  0  0
    0.9780   12.1350    7.2910 O   0  0  0  0  0
   -0.5220   11.5910   10.6400 N   0  3  0  0  0
   -3.4859    9.6663    7.7073 H   0  0  0  0  0
   -3.9451    9.7001    9.4503 H   0  0  0  0  0
   -2.6717   11.6756    8.9083 H   0  0  0  0  0
   -0.4286    9.7991    8.0282 H   0  0  0  0  0
   -0.7197   12.8179    8.1438 H   0  0  0  0  0
    1.0221   12.7777    9.8798 H   0  0  0  0  0
    1.2276   11.0049    9.6573 H   0  0  0  0  0
   -3.1776    7.6310    8.7603 H   0  0  0  0  0
   -2.0186   10.0128    6.4413 H   0  0  0  0  0
    0.6082   12.2029    6.4077 H   0  0  0  0  0
   -1.0373   12.4639   10.7540 H   0  0  0  0  0
   -0.0550   11.2611   11.4847 H   0  0  0  0  0
  1  2  1  0  0  0
  1  6  1  0  0  0
  2  3  1  0  0  0
  2  7  1  0  0  0
  3  4  1  0  0  0
  3  8  1  0  0  0
  4  5  1  0  0  0
  4  9  1  0  0  0
  5 10  1  0  0  0
  7 10  1  0  0  0
  1 11  1  0  0  0
  1 12  1  0  0  0
  2 13  1  0  0  0
  3 14  1  0  0  0
  4 15  1  0  0  0
  5 16  1  0  0  0
  5 17  1  0  0  0
  6 18  1  0  0  0
  8 19  1  0  0  0
  9 20  1  0  0  0
 10 21  1  0  0  0
 10 22  1  0  0  0
M  END
$$$$
