5npf_ligand
  -I-interpret- 

 30 30  0  0  0  0  0  0  0  0999 V2000
   59.7860   67.0550   60.6700 C   0  0  0  0  0
   59.2190   66.8350   59.2700 C   0  0  0  0  0
   57.0460   65.8750   60.2720 C   0  0  0  0  0
   58.6070   67.1310   61.6680 C   0  0  0  0  0
   57.6820   65.8250   61.6560 C   0  0  0  0  0
   58.1920   65.6910   59.2420 C   0  0  0  0  0
   60.7940   68.2220   60.7060 C   0  0  0  0  0
   61.5540   68.1860   61.9570 O   0  0  0  0  0
   57.9410   68.3300   61.3690 O   0  0  0  0  0
   56.1050   64.8530   60.2060 O   0  0  0  0  0
   57.6630   65.6350   57.9290 O   0  0  0  0  0
   60.3300   66.5320   58.3630 O   0  0  0  0  0
   57.1000   69.0540   62.4460 S   0  0  0  0  0
   58.1500   69.5590   63.3940 O   0  0  0  0  0
   56.3370   68.0640   63.1930 O   0  0  0  0  0
   56.3410   70.0000   61.6500 O   0  0  0  0  0
   60.3987   66.2111   60.9870 H   0  0  0  0  0
   58.7008   67.7408   58.9553 H   0  0  0  0  0
   56.5371   66.8160   60.0629 H   0  0  0  0  0
   58.9532   67.1442   62.7015 H   0  0  0  0  0
   58.2419   64.9067   61.8329 H   0  0  0  0  0
   56.9470   65.8181   62.4609 H   0  0  0  0  0
   58.6926   64.7630   59.5181 H   0  0  0  0  0
   60.2532   69.1662   60.6410 H   0  0  0  0  0
   61.4813   68.1293   59.8651 H   0  0  0  0  0
   62.1786   68.9148   61.9717 H   0  0  0  0  0
   55.4185   65.0090   60.8586 H   0  0  0  0  0
   58.3800   65.5212   57.3009 H   0  0  0  0  0
   60.9660   67.2507   58.3866 H   0  0  0  0  0
   58.6876   70.2201   62.9517 H   0  0  0  0  0
  2  1  1  0  0  0
  1  4  1  0  0  0
  1  7  1  0  0  0
  6  2  1  0  0  0
  2 12  1  0  0  0
  3  5  1  0  0  0
  3  6  1  0  0  0
  3 10  1  0  0  0
  4  5  1  0  0  0
  4  9  1  0  0  0
  6 11  1  0  0  0
  7  8  1  0  0  0
  9 13  1  0  0  0
 13 14  1  0  0  0
 13 15  2  0  0  0
 13 16  2  0  0  0
  1 17  1  0  0  0
  2 18  1  0  0  0
  3 19  1  0  0  0
  4 20  1  0  0  0
  5 21  1  0  0  0
  5 22  1  0  0  0
  6 23  1  0  0  0
  7 24  1  0  0  0
  7 25  1  0  0  0
  8 26  1  0  0  0
 10 27  1  0  0  0
 11 28  1  0  0  0
 12 29  1  0  0  0
 14 30  1  0  0  0
M  END
$$$$
