4kc1_ligand
  -I-interpret- 

 45 47  0  0  0  0  0  0  0  0999 V2000
   17.9670   23.6360   11.3430 O   0  0  0  0  0
   17.4970   23.5590   10.1830 C   0  0  0  0  0
   18.1330   24.1720    9.1740 N   0  0  0  0  0
   17.6570   24.1120    7.9260 C   0  0  0  0  0
   18.2680   24.6880    7.0080 O   0  0  0  0  0
   16.3230   22.8440    9.9320 C   0  0  0  0  0
   15.8230   22.7750    8.6290 C   0  0  0  0  0
   16.4770   23.3970    7.6300 N   0  0  0  0  0
   15.9870   23.3680    6.2360 C   0  0  0  0  0
   14.6660   22.8160    6.1900 O   0  0  0  0  0
   16.8630   22.5090    5.3290 C   0  0  0  0  0
   16.8990   23.0470    3.9930 O   0  0  0  0  0
   16.1050   21.2030    5.3130 C   0  0  0  0  0
   16.4370   20.4110    4.1710 O   0  0  0  0  0
   14.6500   21.6700    5.3320 C   0  0  0  0  0
   13.6100   20.6550    5.8180 C   0  0  0  0  0
   14.0200   19.9300    7.0130 N   0  0  0  0  0
   14.6140   18.7390    6.9170 C   0  0  0  0  0
   15.0590   18.3190    5.8480 O   0  0  0  0  0
   14.7600   17.8610    8.1250 C   0  0  0  0  0
   14.3460   18.2560    9.3990 C   0  0  0  0  0
   14.5200   17.3720   10.4660 C   0  0  0  0  0
   15.0980   16.1200   10.2420 C   0  0  0  0  0
   15.4910   15.7710    8.9510 C   0  0  0  0  0
   15.3170   16.6450    7.9350 N   0  0  0  0  0
   16.1190   14.4290    8.6500 C   0  0  0  0  0
   16.3220   14.3340    7.2370 O   0  0  0  0  0
   18.9911   24.6908    9.3611 H   0  0  0  0  0
   15.8007   22.3434   10.7473 H   0  0  0  0  0
   14.9078   22.2202    8.4224 H   0  0  0  0  0
   16.0053   24.3995    5.8843 H   0  0  0  0  0
   17.8969   22.4386    5.6668 H   0  0  0  0  0
   17.4546   22.4921    3.4407 H   0  0  0  0  0
   16.3390   20.5411    6.1468 H   0  0  0  0  0
   15.9375   19.5915    4.1951 H   0  0  0  0  0
   14.3277   21.8597    4.3082 H   0  0  0  0  0
   13.4700   19.9230    5.0226 H   0  0  0  0  0
   12.7034   21.2075    6.0649 H   0  0  0  0  0
   13.8513   20.3370    7.9329 H   0  0  0  0  0
   13.8956   19.2358    9.5575 H   0  0  0  0  0
   14.2060   17.6578   11.4699 H   0  0  0  0  0
   15.2402   15.4233   11.0682 H   0  0  0  0  0
   15.4643   13.6259    8.9882 H   0  0  0  0  0
   17.0718   14.3370    9.1713 H   0  0  0  0  0
   16.7209   13.4861    7.0285 H   0  0  0  0  0
  1  2  2  0  0  0
  2  3  1  0  0  0
  2  6  1  0  0  0
  3  4  1  0  0  0
  4  5  2  0  0  0
  4  8  1  0  0  0
  6  7  2  0  0  0
  7  8  1  0  0  0
  8  9  1  0  0  0
  9 10  1  0  0  0
  9 11  1  0  0  0
 10 15  1  0  0  0
 11 12  1  0  0  0
 11 13  1  0  0  0
 13 14  1  0  0  0
 13 15  1  0  0  0
 15 16  1  0  0  0
 16 17  1  0  0  0
 17 18  1  0  0  0
 18 19  2  0  0  0
 18 20  1  0  0  0
 20 21  4  0  0  0
 20 25  4  0  0  0
 21 22  4  0  0  0
 22 23  4  0  0  0
 23 24  4  0  0  0
 24 25  4  0  0  0
 24 26  1  0  0  0
 26 27  1  0  0  0
  3 28  1  0  0  0
  6 29  1  0  0  0
  7 30  1  0  0  0
  9 31  1  0  0  0
 11 32  1  0  0  0
 12 33  1  0  0  0
 13 34  1  0  0  0
 14 35  1  0  0  0
 15 36  1  0  0  0
 16 37  1  0  0  0
 16 38  1  0  0  0
 17 39  1  0  0  0
 21 40  1  0  0  0
 22 41  1  0  0  0
 23 42  1  0  0  0
 26 43  1  0  0  0
 26 44  1  0  0  0
 27 45  1  0  0  0
M  END
$$$$
