4mw4_ligand
  -I-interpret- 

 41 42  0  0  0  0  0  0  0  0999 V2000
  -36.7560   15.2180    7.0000 I   0  0  0  0  0
  -38.8640   14.9130    7.0920 C   0  0  0  0  0
  -39.4150   13.6130    7.0930 C   0  0  0  0  0
  -38.6000   12.5260    7.1240 O   0  0  0  0  0
  -39.7070   16.0190    7.1100 C   0  0  0  0  0
  -41.0760   15.8210    7.0890 C   0  0  0  0  0
  -42.1300   17.1990    7.0350 Cl  0  0  0  0  0
  -41.6330   14.5630    7.0740 C   0  0  0  0  0
  -40.8200   13.4410    7.0790 C   0  0  0  0  0
  -41.4230   12.0550    7.0450 C   0  0  0  0  0
  -41.6680   11.4320    8.3520 N   0  3  0  0  0
  -42.9500   11.8190    8.9530 C   0  0  0  0  0
  -43.1370   11.2450   10.3560 C   0  0  0  0  0
  -44.1150   11.9880   11.2490 C   0  0  0  0  0
  -43.4470   12.8720   12.1960 N   0  0  0  0  0
  -44.1240   13.7500   12.9590 C   0  0  0  0  0
  -45.3500   13.7500   13.0360 O   0  0  0  0  0
  -43.3430   14.6490   13.6630 N   0  0  0  0  0
  -43.8000   15.6870   14.5240 C   0  0  0  0  0
  -42.8400   16.5810   15.0920 C   0  0  0  0  0
  -43.3780   17.5340   15.8670 C   0  0  0  0  0
  -45.0700   17.3820   15.9270 S   0  0  0  0  0
  -45.0740   16.0210   14.9120 C   0  0  0  0  0
  -39.1330   11.7276    7.1200 H   0  0  0  0  0
  -39.2949   17.0276    7.1402 H   0  0  0  0  0
  -42.7169   14.4487    7.0581 H   0  0  0  0  0
  -40.7027   11.4186    6.5310 H   0  0  0  0  0
  -42.3962   12.1546    6.5643 H   0  0  0  0  0
  -40.9279   11.7404    8.9825 H   0  0  0  0  0
  -41.6874   10.4219    8.2117 H   0  0  0  0  0
  -43.7482   11.4289    8.3215 H   0  0  0  0  0
  -42.9703   12.9061    9.0295 H   0  0  0  0  0
  -42.1652   11.3064   10.8458 H   0  0  0  0  0
  -43.5403   10.2407   10.2265 H   0  0  0  0  0
  -44.6777   11.2487   11.8190 H   0  0  0  0  0
  -44.7538   12.5995   10.6118 H   0  0  0  0  0
  -42.4319   12.8236   12.2834 H   0  0  0  0  0
  -42.3329   14.5588   13.5538 H   0  0  0  0  0
  -41.7684   16.4958   14.9116 H   0  0  0  0  0
  -42.8072   18.3025   16.3882 H   0  0  0  0  0
  -45.9715   15.4823   14.6079 H   0  0  0  0  0
  1  2  1  0  0  0
  2  3  4  0  0  0
  2  5  4  0  0  0
  3  4  1  0  0  0
  3  9  4  0  0  0
  5  6  4  0  0  0
  6  7  1  0  0  0
  6  8  4  0  0  0
  8  9  4  0  0  0
  9 10  1  0  0  0
 10 11  1  0  0  0
 11 12  1  0  0  0
 12 13  1  0  0  0
 13 14  1  0  0  0
 14 15  1  0  0  0
 15 16  1  0  0  0
 16 17  2  0  0  0
 16 18  1  0  0  0
 18 19  1  0  0  0
 19 20  4  0  0  0
 19 23  4  0  0  0
 20 21  4  0  0  0
 21 22  4  0  0  0
 22 23  4  0  0  0
  4 24  1  0  0  0
  5 25  1  0  0  0
  8 26  1  0  0  0
 10 27  1  0  0  0
 10 28  1  0  0  0
 11 29  1  0  0  0
 11 30  1  0  0  0
 12 31  1  0  0  0
 12 32  1  0  0  0
 13 33  1  0  0  0
 13 34  1  0  0  0
 14 35  1  0  0  0
 14 36  1  0  0  0
 15 37  1  0  0  0
 18 38  1  0  0  0
 20 39  1  0  0  0
 21 40  1  0  0  0
 23 41  1  0  0  0
M  END
$$$$
