1bm7_ligand
  -I-interpret- 

 30 31  0  0  0  0  0  0  0  0999 V2000
   20.6990   41.8890    3.6790 C   0  0  0  0  0
   22.1040   42.6810    1.8300 O   0  0  0  0  0
   19.9260   41.0650    2.8420 C   0  0  0  0  0
   18.8260   40.3700    3.3310 C   0  0  0  0  0
   22.4850   43.4790    3.7410 O   0  0  0  0  0
   18.4910   40.4910    4.6800 C   0  0  0  0  0
   19.2550   41.3040    5.5150 C   0  0  0  0  0
   20.3730   42.0190    5.0170 C   0  0  0  0  0
   21.8500   42.6210    3.1450 C   0  0  0  0  0
   21.1820   42.8760    5.8280 N   0  0  0  0  0
   21.3260   43.0600    7.2240 C   0  0  0  0  0
   21.1170   41.9060    7.9620 C   0  0  0  0  0
   21.2220   41.9380    9.3210 C   0  0  0  0  0
   21.5400   43.1240   10.0140 C   0  0  0  0  0
   21.7530   44.2990    9.2750 C   0  0  0  0  0
   21.6480   44.2720    7.8830 C   0  0  0  0  0
   20.9890   40.6720   10.0870 C   0  0  0  0  0
   21.2360   39.5570    9.3790 F   0  0  0  0  0
   21.7360   40.5430   11.1880 F   0  0  0  0  0
   19.7230   40.5290   10.5020 F   0  0  0  0  0
   21.5989   42.0023    1.3764 H   0  0  0  0  0
   20.1944   40.9694    1.7899 H   0  0  0  0  0
   18.2329   39.7388    2.6693 H   0  0  0  0  0
   17.6331   39.9505    5.0801 H   0  0  0  0  0
   18.9885   41.3915    6.5683 H   0  0  0  0  0
   21.7872   43.4881    5.2807 H   0  0  0  0  0
   20.8687   40.9729    7.4562 H   0  0  0  0  0
   21.6189   43.1288   11.1011 H   0  0  0  0  0
   21.9996   45.2294    9.7866 H   0  0  0  0  0
   21.8134   45.1811    7.3048 H   0  0  0  0  0
  1  9  1  0  0  0
  1  8  4  0  0  0
  1  3  4  0  0  0
  3  4  4  0  0  0
  4  6  4  0  0  0
  6  7  4  0  0  0
  7  8  4  0  0  0
  8 10  1  0  0  0
 10 11  1  0  0  0
 11 16  4  0  0  0
 11 12  4  0  0  0
 12 13  4  0  0  0
 13 17  1  0  0  0
 13 14  4  0  0  0
 14 15  4  0  0  0
 15 16  4  0  0  0
  9  2  1  0  0  0
  9  5  2  0  0  0
 17 18  1  0  0  0
 17 20  1  0  0  0
 17 19  1  0  0  0
  2 21  1  0  0  0
  3 22  1  0  0  0
  4 23  1  0  0  0
  6 24  1  0  0  0
  7 25  1  0  0  0
 10 26  1  0  0  0
 12 27  1  0  0  0
 14 28  1  0  0  0
 15 29  1  0  0  0
 16 30  1  0  0  0
M  END
$$$$
