3p8z_ligand
  -I-interpret- 

 60 63  0  0  0  0  0  0  0  0999 V2000
    8.2150   -7.5260   45.5840 C   0  0  0  0  0
    7.0820   -7.6340   43.3640 N   0  3  0  0  0
    8.6460   -6.9080   46.5750 O   0  0  0  0  0
    7.1850    2.4740   37.2930 N   0  0  0  0  0
    7.9810    1.7720   38.1210 C   0  0  0  0  0
    7.5150    1.2590   39.2740 N   0  0  0  0  0
    6.2110    1.4640   39.6190 C   0  0  0  0  0
    5.3570    2.1970   38.8090 C   0  0  0  0  0
    5.8850    2.7360   37.6060 C   0  0  0  0  0
    5.1770    3.4590   36.7090 N   0  0  0  0  0
    4.1320    2.2150   39.4190 N   0  0  0  0  0
    4.2570    1.5130   40.5870 C   0  0  0  0  0
    5.5270    1.0710   40.7070 N   0  0  0  0  0
    7.5680   -6.7660   44.4350 C   0  0  0  0  0
    6.3830   -5.9280   44.9780 C   0  0  0  0  0
    4.5940   -2.8250   42.7950 C   0  0  0  0  0
    4.6950   -3.8670   44.2360 S   0  0  0  0  0
    6.1670   -4.8060   43.9890 C   0  0  0  0  0
    6.1030    0.2610   41.7870 C   0  0  0  0  0
    5.5450    0.5750   43.1950 C   0  0  0  0  0
    6.2530    1.5800   43.9160 O   0  0  0  0  0
    3.8470    3.9650   36.9360 C   0  0  0  0  0
    2.8030    3.1490   36.2170 C   0  0  0  0  0
    3.0770    2.6400   34.9400 C   0  0  0  0  0
    5.6470   -0.7700   43.9120 C   0  0  0  0  0
    6.8650   -0.8430   44.6560 O   0  0  0  0  0
    2.1020    1.9120   34.2890 C   0  0  0  0  0
    0.8460    1.6820   34.8640 C   0  0  0  0  0
    0.5770    2.1880   36.1400 C   0  0  0  0  0
    1.5450    2.9340   36.8140 C   0  0  0  0  0
    2.4850    1.2730   32.6900 Cl  0  0  0  0  0
    5.7000   -1.7910   42.7750 C   0  0  0  0  0
    5.6320   -1.0710   41.5290 O   0  0  0  0  0
    8.3300   -8.7950   45.5470 O   0  0  0  0  0
    7.8563   -8.1897   43.0006 H   0  0  0  0  0
    6.3602   -8.2539   43.7316 H   0  0  0  0  0
    6.6916   -7.0620   42.6152 H   0  0  0  0  0
    9.0255    1.6159   37.8515 H   0  0  0  0  0
    5.6145    3.6600   35.8098 H   0  0  0  0  0
    3.4574    1.3383   41.3069 H   0  0  0  0  0
    8.3420   -6.1298   44.0058 H   0  0  0  0  0
    6.6025   -5.5373   45.9716 H   0  0  0  0  0
    5.4858   -6.5385   45.0797 H   0  0  0  0  0
    3.6366   -2.3043   42.8134 H   0  0  0  0  0
    4.6935   -3.4523   41.9092 H   0  0  0  0  0
    6.0849   -5.2662   43.0043 H   0  0  0  0  0
    7.0032   -4.1169   44.1076 H   0  0  0  0  0
    7.1794    0.4328   41.7921 H   0  0  0  0  0
    4.5384    0.9870   43.1242 H   0  0  0  0  0
    5.8398    1.7085   44.7729 H   0  0  0  0  0
    3.8015    4.9864   36.5582 H   0  0  0  0  0
    3.6413    3.9163   38.0053 H   0  0  0  0  0
    4.0441    2.8163   34.4690 H   0  0  0  0  0
    4.8234   -0.9323   44.6073 H   0  0  0  0  0
    6.9164   -1.6920   45.1011 H   0  0  0  0  0
    0.0873    1.1156   34.3239 H   0  0  0  0  0
   -0.3891    1.9996   36.6082 H   0  0  0  0  0
    1.3286    3.3487   37.7985 H   0  0  0  0  0
    6.6300   -2.3459   42.8987 H   0  0  0  0  0
    7.9546   -9.1254   44.7276 H   0  0  0  0  0
  1  3  2  0  0  0
 14  1  1  0  0  0
  1 34  1  0  0  0
 14  2  1  0  0  0
  5  4  4  0  0  0
  9  4  4  0  0  0
  6  5  4  0  0  0
  7  6  4  0  0  0
  7  8  4  0  0  0
 13  7  4  0  0  0
  8  9  4  0  0  0
 11  8  4  0  0  0
  9 10  1  0  0  0
 10 22  1  0  0  0
 12 11  4  0  0  0
 13 12  4  0  0  0
 19 13  1  0  0  0
 15 14  1  0  0  0
 18 15  1  0  0  0
 16 17  1  0  0  0
 32 16  1  0  0  0
 17 18  1  0  0  0
 20 19  1  0  0  0
 19 33  1  0  0  0
 20 21  1  0  0  0
 25 20  1  0  0  0
 22 23  1  0  0  0
 23 24  4  0  0  0
 23 30  4  0  0  0
 24 27  4  0  0  0
 25 26  1  0  0  0
 25 32  1  0  0  0
 27 28  4  0  0  0
 27 31  1  0  0  0
 28 29  4  0  0  0
 29 30  4  0  0  0
 32 33  1  0  0  0
  2 35  1  0  0  0
  2 36  1  0  0  0
  2 37  1  0  0  0
  5 38  1  0  0  0
 10 39  1  0  0  0
 12 40  1  0  0  0
 14 41  1  0  0  0
 15 42  1  0  0  0
 15 43  1  0  0  0
 16 44  1  0  0  0
 16 45  1  0  0  0
 18 46  1  0  0  0
 18 47  1  0  0  0
 19 48  1  0  0  0
 20 49  1  0  0  0
 21 50  1  0  0  0
 22 51  1  0  0  0
 22 52  1  0  0  0
 24 53  1  0  0  0
 25 54  1  0  0  0
 26 55  1  0  0  0
 28 56  1  0  0  0
 29 57  1  0  0  0
 30 58  1  0  0  0
 32 59  1  0  0  0
 34 60  1  0  0  0
M  END
$$$$
