6p3u_ligand
  -I-interpret- 

 41 44  0  0  0  0  0  0  0  0999 V2000
   18.1840  -11.7850   35.0550 C   0  0  0  0  0
   17.1340  -11.1430   34.4140 C   0  0  0  0  0
   15.6220   -8.0850   35.3680 C   0  0  0  0  0
   15.6900   -9.1450   34.4940 C   0  0  0  0  0
   20.4870   -8.7670   39.5340 C   0  0  0  0  0
   20.0580   -9.4940   38.4380 C   0  0  0  0  0
   18.7770   -9.2940   37.9230 C   0  0  0  0  0
   18.2570  -10.0670   36.6870 C   0  0  0  0  0
   19.6460   -7.8180   40.0900 C   0  0  0  0  0
   21.9810  -14.3040   32.8120 C   0  0  0  0  0
   20.6890  -13.7960   32.9420 C   0  0  0  0  0
   21.1050  -11.8020   36.1660 C   0  0  0  0  0
   21.4110  -12.6800   34.9550 C   0  0  0  0  0
   20.4060  -12.9830   34.0320 C   0  0  0  0  0
   21.8600  -11.0790   36.7120 O   0  0  0  0  0
   22.2950  -15.1030   31.7660 F   0  0  0  0  0
   22.9770  -14.0160   33.7320 C   0  0  0  0  0
   22.6960  -13.2020   34.8130 C   0  0  0  0  0
   19.7770  -11.9370   36.8090 C   0  0  0  0  0
   18.7300  -11.2220   36.1560 N   0  3  0  0  0
   20.0650   -7.1020   41.1560 F   0  0  0  0  0
   18.3860   -7.5760   39.5790 C   0  0  0  0  0
   17.9570   -8.3150   38.4930 C   0  0  0  0  0
   17.2030   -9.4370   36.0250 C   0  0  0  0  0
   16.5520   -8.2320   36.3250 C   0  0  0  0  0
   16.6840   -9.9720   34.9370 N   0  0  0  0  0
   18.5644  -12.7331   34.6748 H   0  0  0  0  0
   16.6828  -11.5659   33.5164 H   0  0  0  0  0
   14.9209   -7.2536   35.2948 H   0  0  0  0  0
   15.0673   -9.2971   33.6124 H   0  0  0  0  0
   21.4772   -8.9396   39.9556 H   0  0  0  0  0
   20.7221  -10.2245   37.9760 H   0  0  0  0  0
   19.9199  -14.0311   32.2062 H   0  0  0  0  0
   19.4016  -12.5818   34.1674 H   0  0  0  0  0
   23.9773  -14.4296   33.6035 H   0  0  0  0  0
   23.4694  -12.9710   35.5455 H   0  0  0  0  0
   19.8656  -11.5261   37.8147 H   0  0  0  0  0
   19.5116  -12.9937   36.7754 H   0  0  0  0  0
   17.7425   -6.8169   40.0236 H   0  0  0  0  0
   16.9669   -8.1325   38.0753 H   0  0  0  0  0
   16.7571   -7.5586   37.1572 H   0  0  0  0  0
  1  2  4  0  0  0
 20  1  4  0  0  0
  2 26  4  0  0  0
  4  3  4  0  0  0
  3 25  4  0  0  0
 26  4  4  0  0  0
  6  5  4  0  0  0
  5  9  4  0  0  0
  7  6  4  0  0  0
  8  7  1  0  0  0
  7 23  4  0  0  0
 20  8  4  0  0  0
  8 24  4  0  0  0
  9 21  1  0  0  0
  9 22  4  0  0  0
 11 10  4  0  0  0
 10 16  1  0  0  0
 17 10  4  0  0  0
 14 11  4  0  0  0
 12 13  1  0  0  0
 12 15  2  0  0  0
 19 12  1  0  0  0
 13 14  4  0  0  0
 13 18  4  0  0  0
 18 17  4  0  0  0
 19 20  1  0  0  0
 22 23  4  0  0  0
 24 25  4  0  0  0
 24 26  4  0  0  0
  1 27  1  0  0  0
  2 28  1  0  0  0
  3 29  1  0  0  0
  4 30  1  0  0  0
  5 31  1  0  0  0
  6 32  1  0  0  0
 11 33  1  0  0  0
 14 34  1  0  0  0
 17 35  1  0  0  0
 18 36  1  0  0  0
 19 37  1  0  0  0
 19 38  1  0  0  0
 22 39  1  0  0  0
 23 40  1  0  0  0
 25 41  1  0  0  0
M  END
$$$$
