4bzo_ligand
  -I-interpret- 

 53 56  0  0  0  0  0  0  0  0999 V2000
   20.8970  -34.3990    4.6090 O   0  0  0  0  0
   22.0050  -33.8930    4.7990 C   0  0  0  0  0
   22.9420  -34.4680    5.5750 N   0  0  0  0  0
   22.7330  -35.7070    6.3460 C   0  0  0  0  0
   23.2280  -36.9710    5.7190 C   0  0  0  0  0
   24.0800  -36.9720    4.6140 C   0  0  0  0  0
   24.5230  -38.1790    4.0710 C   0  0  0  0  0
   24.1340  -39.4110    4.6350 C   0  0  0  0  0
   23.2810  -39.4200    5.7470 C   0  0  0  0  0
   22.8340  -38.2020    6.2830 C   0  0  0  0  0
   23.5180  -35.5150    7.6650 C   0  0  0  0  0
   22.9000  -34.4860    8.4980 N   0  3  0  0  0
   22.3760  -32.5930    4.0990 C   0  0  0  0  0
   21.6140  -32.3540    2.7750 C   0  0  0  0  0
   22.2320  -33.1060    1.6580 N   0  0  0  0  0
   22.5140  -34.5090    1.6910 C   0  0  0  0  0
   21.8490  -30.8650    2.4880 C   0  0  0  0  0
   21.4830  -30.5400    1.1140 N   0  0  0  0  0
   21.6390  -31.3240    0.0380 C   0  0  0  0  0
   21.4880  -30.9230   -1.1130 O   0  0  0  0  0
   22.0020  -32.7410    0.2840 C   0  0  0  0  0
   22.3010  -33.8340   -0.5010 C   0  0  0  0  0
   22.5970  -34.9080    0.3490 C   0  0  0  0  0
   23.0220  -36.2680   -0.1150 C   0  0  0  0  0
   23.1080  -37.3610    0.7460 C   0  0  0  0  0
   23.5850  -38.5770    0.2380 C   0  0  0  0  0
   23.6430  -39.6580    1.0360 F   0  0  0  0  0
   24.0040  -38.6960   -1.0570 N   0  0  0  0  0
   23.9590  -37.6370   -1.8940 C   0  0  0  0  0
   23.4790  -36.4160   -1.4260 C   0  0  0  0  0
   23.8554  -34.0177    5.6335 H   0  0  0  0  0
   21.6554  -35.8381    6.4445 H   0  0  0  0  0
   24.4004  -36.0277    4.1737 H   0  0  0  0  0
   25.1780  -38.1689    3.1998 H   0  0  0  0  0
   24.4934  -40.3482    4.2101 H   0  0  0  0  0
   22.9674  -40.3644    6.1917 H   0  0  0  0  0
   22.1719  -38.2078    7.1488 H   0  0  0  0  0
   24.5351  -35.2055    7.4244 H   0  0  0  0  0
   23.5151  -36.4569    8.2136 H   0  0  0  0  0
   23.4363  -34.3800    9.3592 H   0  0  0  0  0
   22.8898  -33.6008    7.9913 H   0  0  0  0  0
   21.9440  -34.7613    8.7231 H   0  0  0  0  0
   23.4374  -32.6470    3.8567 H   0  0  0  0  0
   22.1174  -31.7767    4.7735 H   0  0  0  0  0
   20.5702  -32.6566    2.8581 H   0  0  0  0  0
   22.6382  -35.1359    2.5740 H   0  0  0  0  0
   22.9058  -30.6409    2.6333 H   0  0  0  0  0
   21.2327  -30.2743    3.1657 H   0  0  0  0  0
   21.0659  -29.6227    0.9558 H   0  0  0  0  0
   22.3063  -33.8585   -1.5907 H   0  0  0  0  0
   22.8109  -37.2719    1.7909 H   0  0  0  0  0
   24.2951  -37.7368   -2.9261 H   0  0  0  0  0
   23.4597  -35.5577   -2.0976 H   0  0  0  0  0
  1  2  2  0  0  0
  2  3  1  0  0  0
  2 13  1  0  0  0
  3  4  1  0  0  0
  4  5  1  0  0  0
  4 11  1  0  0  0
  5  6  4  0  0  0
  5 10  4  0  0  0
  6  7  4  0  0  0
  7  8  4  0  0  0
  8  9  4  0  0  0
  9 10  4  0  0  0
 11 12  1  0  0  0
 13 14  1  0  0  0
 14 15  1  0  0  0
 14 17  1  0  0  0
 15 16  4  0  0  0
 15 21  4  0  0  0
 16 23  4  0  0  0
 17 18  1  0  0  0
 18 19  1  0  0  0
 19 20  2  0  0  0
 19 21  1  0  0  0
 21 22  4  0  0  0
 22 23  4  0  0  0
 23 24  1  0  0  0
 24 25  4  0  0  0
 24 30  4  0  0  0
 25 26  4  0  0  0
 26 27  1  0  0  0
 26 28  4  0  0  0
 28 29  4  0  0  0
 29 30  4  0  0  0
  3 31  1  0  0  0
  4 32  1  0  0  0
  6 33  1  0  0  0
  7 34  1  0  0  0
  8 35  1  0  0  0
  9 36  1  0  0  0
 10 37  1  0  0  0
 11 38  1  0  0  0
 11 39  1  0  0  0
 12 40  1  0  0  0
 12 41  1  0  0  0
 12 42  1  0  0  0
 13 43  1  0  0  0
 13 44  1  0  0  0
 14 45  1  0  0  0
 16 46  1  0  0  0
 17 47  1  0  0  0
 17 48  1  0  0  0
 18 49  1  0  0  0
 22 50  1  0  0  0
 25 51  1  0  0  0
 29 52  1  0  0  0
 30 53  1  0  0  0
M  END
$$$$
