5a46_ligand
  -I-interpret- 

 53 57  0  0  0  0  0  0  0  0999 V2000
   81.1360    5.2080    1.2470 C   0  0  0  0  0
   81.4500    3.3500    2.7520 C   0  0  0  0  0
   82.1710    2.8520    3.9900 C   0  0  0  0  0
   84.1080    4.2300    3.3330 C   0  0  0  0  0
   83.3230    4.6830    2.1190 C   0  0  0  0  0
   84.4190    2.2460    4.7480 C   0  0  0  0  0
   86.9490    1.3880    8.4260 C   0  0  0  0  0
   86.7990    0.3560    7.6130 N   0  0  0  0  0
   85.5020    0.1830    5.4460 C   0  0  0  0  0
   84.7050    0.8830    4.5550 C   0  0  0  0  0
   87.8200    1.3410    9.6160 C   0  0  0  0  0
   87.6820    2.3090   10.6930 C   0  0  0  0  0
   88.2060    2.8300   13.1540 C   0  0  0  0  0
   88.8170    2.5310   14.3500 C   0  0  0  0  0
   89.5360    1.3560   14.4520 C   0  0  0  0  0
   88.8430   -0.6660    8.9690 O   0  0  0  0  0
   81.8900    4.6970    2.4010 N   0  3  0  0  0
   83.6270    2.9320    3.8220 N   0  0  0  0  0
   84.9320    2.8980    5.8800 C   0  0  0  0  0
   85.7190    2.1820    6.7780 C   0  0  0  0  0
   86.3840    2.5290    7.9450 N   0  0  0  0  0
   86.0030    0.8340    6.5720 C   0  0  0  0  0
   86.9620    3.4580   10.5810 N   0  3  0  0  0
   88.2880    2.0310   12.0120 C   0  0  0  0  0
   87.5300    3.9960   13.0700 F   0  0  0  0  0
   89.6510    0.5110   13.3650 C   0  0  0  0  0
   89.0660    0.8450   12.1410 C   0  0  0  0  0
   89.2230   -0.0030   11.0520 N   0  0  0  0  0
   88.6910    0.2000    9.8270 C   0  0  0  0  0
   81.4608    6.2242    1.0235 H   0  0  0  0  0
   81.3186    4.5686    0.3833 H   0  0  0  0  0
   80.0715    5.2087    1.4816 H   0  0  0  0  0
   80.3792    3.3721    2.9545 H   0  0  0  0  0
   81.6741    2.6801    1.9219 H   0  0  0  0  0
   81.8961    1.8108    4.1584 H   0  0  0  0  0
   81.8828    3.4759    4.8360 H   0  0  0  0  0
   83.9816    4.9686    4.1246 H   0  0  0  0  0
   85.1563    4.1292    3.0518 H   0  0  0  0  0
   83.5125    3.9892    1.2999 H   0  0  0  0  0
   83.6382    5.6923    1.8542 H   0  0  0  0  0
   85.7351   -0.8668    5.2682 H   0  0  0  0  0
   84.2919    0.3674    3.6880 H   0  0  0  0  0
   88.4519    2.0045    9.0257 H   0  0  0  0  0
   88.0378    2.4416    9.6713 H   0  0  0  0  0
   88.7353    3.2081   15.2003 H   0  0  0  0  0
   90.0153    1.0940   15.3953 H   0  0  0  0  0
   81.7119    5.3209    3.1881 H   0  0  0  0  0
   84.7169    3.9523    6.0540 H   0  0  0  0  0
   87.0097    3.9747   11.4592 H   0  0  0  0  0
   87.3483    4.0279    9.8284 H   0  0  0  0  0
   85.9901    3.2298   10.3717 H   0  0  0  0  0
   90.2027   -0.4239   13.4632 H   0  0  0  0  0
   89.7835   -0.8443   11.1879 H   0  0  0  0  0
 17  1  1  0  0  0
  3  2  1  0  0  0
  2 17  1  0  0  0
 18  3  1  0  0  0
  4  5  1  0  0  0
 18  4  1  0  0  0
  5 17  1  0  0  0
 10  6  4  0  0  0
  6 18  1  0  0  0
  6 19  4  0  0  0
  7  8  4  0  0  0
 11  7  1  0  0  0
  7 21  4  0  0  0
  8 22  4  0  0  0
  9 10  4  0  0  0
 22  9  4  0  0  0
 12 11  1  0  0  0
 11 29  1  0  0  0
 12 23  1  0  0  0
 24 12  1  0  0  0
 13 14  4  0  0  0
 13 24  4  0  0  0
 13 25  1  0  0  0
 14 15  4  0  0  0
 15 26  4  0  0  0
 29 16  2  0  0  0
 19 20  4  0  0  0
 20 21  4  0  0  0
 20 22  4  0  0  0
 24 27  4  0  0  0
 26 27  4  0  0  0
 27 28  1  0  0  0
 28 29  1  0  0  0
  1 30  1  0  0  0
  1 31  1  0  0  0
  1 32  1  0  0  0
  2 33  1  0  0  0
  2 34  1  0  0  0
  3 35  1  0  0  0
  3 36  1  0  0  0
  4 37  1  0  0  0
  4 38  1  0  0  0
  5 39  1  0  0  0
  5 40  1  0  0  0
  9 41  1  0  0  0
 10 42  1  0  0  0
 11 43  1  0  0  0
 12 44  1  0  0  0
 14 45  1  0  0  0
 15 46  1  0  0  0
 17 47  1  0  0  0
 19 48  1  0  0  0
 23 49  1  0  0  0
 23 50  1  0  0  0
 23 51  1  0  0  0
 26 52  1  0  0  0
 28 53  1  0  0  0
M  END
$$$$
