1xqc_ligand
  -I-interpret- 

 67 72  0  0  0  0  0  0  0  0999 V2000
   18.8540   -0.1960   39.2410 O   0  0  0  0  0
   17.6290    0.0460   38.5970 C   0  0  0  0  0
   16.5280    0.5650   39.2780 C   0  0  0  0  0
   15.3320    0.8090   38.5640 C   0  0  0  0  0
   15.2680    0.5430   37.2000 C   0  0  0  0  0
   16.3690    0.0200   36.5750 C   0  0  0  0  0
   17.5450   -0.2360   37.2650 C   0  0  0  0  0
   14.0460    0.7780   36.3970 C   0  0  0  0  0
   14.0520    0.5680   34.9440 N   0  0  0  0  0
   12.8780    0.7390   34.1870 C   0  0  0  0  0
   11.6290    0.3610   34.6890 C   0  0  0  0  0
   10.4470    0.5970   33.9230 C   0  0  0  0  0
   10.5000    1.2140   32.6800 C   0  0  0  0  0
   11.7330    1.6120   32.1640 C   0  0  0  0  0
   12.8990    1.3850   32.9160 C   0  0  0  0  0
   15.0810   -0.2110   34.3390 C   0  0  0  0  0
   16.3700   -0.3080   35.1340 C   0  0  0  0  0
   13.9360    2.2900   36.5180 C   0  0  0  0  0
   14.9480    3.1820   36.1900 C   0  0  0  0  0
   14.7820    4.5700   36.3210 C   0  0  0  0  0
   13.5790    5.1390   36.7930 C   0  0  0  0  0
   12.6020    4.2140   37.1090 C   0  0  0  0  0
   12.7650    2.8330   36.9690 C   0  0  0  0  0
   13.3830    6.4520   36.9550 N   0  0  0  0  0
   12.0810    6.9150   37.4730 C   0  0  0  0  0
   11.8740    8.4370   37.4610 C   0  0  0  0  0
   13.0200    9.2050   37.9430 N   0  3  0  0  0
   14.2240    8.7620   37.2280 C   0  0  0  0  0
   14.4790    7.2890   37.4700 C   0  0  0  0  0
   15.3990    9.6160   37.7570 C   0  0  0  0  0
   15.0860   11.1190   37.6320 C   0  0  0  0  0
   13.7650   11.5030   38.3340 C   0  0  0  0  0
   12.7280   10.6250   37.6050 C   0  0  0  0  0
   19.4825   -0.5507   38.6079 H   0  0  0  0  0
   16.5886    0.7794   40.3450 H   0  0  0  0  0
   14.4594    1.2059   39.0829 H   0  0  0  0  0
   18.4016   -0.6623   36.7429 H   0  0  0  0  0
   13.2890    0.0854   36.7650 H   0  0  0  0  0
   11.5573   -0.1148   35.6670 H   0  0  0  0  0
    9.4819    0.2860   34.3228 H   0  0  0  0  0
    9.5855    1.3858   32.1124 H   0  0  0  0  0
   11.7921    2.0939   31.1881 H   0  0  0  0  0
   13.8558    1.7155   32.5119 H   0  0  0  0  0
   15.3303    0.2773   33.3969 H   0  0  0  0  0
   14.6927   -1.2254   34.2474 H   0  0  0  0  0
   16.6394   -1.3634   35.0927 H   0  0  0  0  0
   17.0272    0.4358   34.6835 H   0  0  0  0  0
   15.8974    2.7942   35.8207 H   0  0  0  0  0
   15.6072    5.2286   36.0500 H   0  0  0  0  0
   11.6494    4.5828   37.4893 H   0  0  0  0  0
   11.9374    2.1719   37.2259 H   0  0  0  0  0
   12.0302    6.6012   38.5156 H   0  0  0  0  0
   11.3170    6.4908   36.8215 H   0  0  0  0  0
   11.0404    8.6521   38.1295 H   0  0  0  0  0
   11.7059    8.7291   36.4244 H   0  0  0  0  0
   13.1740    9.0835   38.9440 H   0  0  0  0  0
   14.1057    8.8911   36.1521 H   0  0  0  0  0
   15.3958    7.0104   36.9504 H   0  0  0  0  0
   14.5573    7.1272   38.5451 H   0  0  0  0  0
   16.2880    9.3928   37.1671 H   0  0  0  0  0
   15.5600    9.3777   38.8084 H   0  0  0  0  0
   14.9877   11.3570   36.5729 H   0  0  0  0  0
   15.8951   11.6736   38.1073 H   0  0  0  0  0
   13.5422   12.5680   38.2689 H   0  0  0  0  0
   13.7886   11.3297   39.4099 H   0  0  0  0  0
   11.7185   10.8900   37.9194 H   0  0  0  0  0
   12.7906   10.7792   36.5278 H   0  0  0  0  0
  1  2  1  0  0  0
  2  3  4  0  0  0
  2  7  4  0  0  0
  3  4  4  0  0  0
  4  5  4  0  0  0
  5  6  4  0  0  0
  5  8  1  0  0  0
  6  7  4  0  0  0
  6 17  1  0  0  0
  8  9  1  0  0  0
  8 18  1  0  0  0
  9 10  1  0  0  0
  9 16  1  0  0  0
 10 11  4  0  0  0
 10 15  4  0  0  0
 11 12  4  0  0  0
 12 13  4  0  0  0
 13 14  4  0  0  0
 14 15  4  0  0  0
 16 17  1  0  0  0
 18 19  4  0  0  0
 18 23  4  0  0  0
 19 20  4  0  0  0
 20 21  4  0  0  0
 21 22  4  0  0  0
 21 24  1  0  0  0
 22 23  4  0  0  0
 24 25  1  0  0  0
 24 29  1  0  0  0
 25 26  1  0  0  0
 26 27  1  0  0  0
 27 28  1  0  0  0
 27 33  1  0  0  0
 28 29  1  0  0  0
 28 30  1  0  0  0
 30 31  1  0  0  0
 31 32  1  0  0  0
 32 33  1  0  0  0
  1 34  1  0  0  0
  3 35  1  0  0  0
  4 36  1  0  0  0
  7 37  1  0  0  0
  8 38  1  0  0  0
 11 39  1  0  0  0
 12 40  1  0  0  0
 13 41  1  0  0  0
 14 42  1  0  0  0
 15 43  1  0  0  0
 16 44  1  0  0  0
 16 45  1  0  0  0
 17 46  1  0  0  0
 17 47  1  0  0  0
 19 48  1  0  0  0
 20 49  1  0  0  0
 22 50  1  0  0  0
 23 51  1  0  0  0
 25 52  1  0  0  0
 25 53  1  0  0  0
 26 54  1  0  0  0
 26 55  1  0  0  0
 27 56  1  0  0  0
 28 57  1  0  0  0
 29 58  1  0  0  0
 29 59  1  0  0  0
 30 60  1  0  0  0
 30 61  1  0  0  0
 31 62  1  0  0  0
 31 63  1  0  0  0
 32 64  1  0  0  0
 32 65  1  0  0  0
 33 66  1  0  0  0
 33 67  1  0  0  0
M  END
$$$$
