1evh_ligand
  -I-interpret- 

 84 88  0  0  0  0  0  0  0  0999 V2000
   14.4800   17.8570   21.6620 C   0  0  0  0  0
   15.0350   16.8000   21.9850 O   0  0  0  0  0
   12.9570   17.9870   21.7120 C   0  0  0  0  0
   15.0680   18.7870   20.9120 N   0  0  0  0  0
   16.4510   18.6560   20.4610 C   0  0  0  0  0
   17.2200   19.9500   20.6710 C   0  0  0  0  0
   16.6310   21.0330   20.7280 O   0  0  0  0  0
   16.5190   18.3180   18.9670 C   0  0  0  0  0
   15.8980   17.0060   18.6060 C   0  0  0  0  0
   14.5300   16.9060   18.3940 C   0  0  0  0  0
   16.6850   15.8670   18.4730 C   0  0  0  0  0
   13.9530   15.6910   18.0520 C   0  0  0  0  0
   16.1140   14.6460   18.1320 C   0  0  0  0  0
   14.7480   14.5580   17.9200 C   0  0  0  0  0
   18.5520   19.8570   20.7940 N   0  0  0  0  0
   19.3470   21.0680   20.9880 C   0  0  0  0  0
   19.5160   21.7620   19.6420 C   0  0  0  0  0
   19.3160   21.1520   18.5870 O   0  0  0  0  0
   20.6660   20.5270   21.5330 C   0  0  0  0  0
   20.8020   19.2330   20.7980 C   0  0  0  0  0
   19.3980   18.6540   20.9000 C   0  0  0  0  0
   19.8820   23.0500   19.6560 N   0  0  0  0  0
   20.0650   23.7770   18.3990 C   0  0  0  0  0
   21.2580   23.2400   17.6090 C   0  0  0  0  0
   22.2090   22.7130   18.1870 O   0  0  0  0  0
   20.2740   25.2140   18.8670 C   0  0  0  0  0
   20.9720   25.0340   20.1750 C   0  0  0  0  0
   20.1780   23.9140   20.8120 C   0  0  0  0  0
   21.2110   23.3490   16.2730 N   0  0  0  0  0
   22.3160   22.8650   15.4440 C   0  0  0  0  0
   23.5600   23.7370   15.6310 C   0  0  0  0  0
   23.4890   24.8100   16.2320 O   0  0  0  0  0
   21.7400   22.9390   14.0300 C   0  0  0  0  0
   20.7890   24.0890   14.1150 C   0  0  0  0  0
   20.1040   23.8460   15.4360 C   0  0  0  0  0
   24.7170   23.2800   15.1310 N   0  0  0  0  0
   25.9890   24.0050   15.2370 C   0  0  0  0  0
   25.9110   25.4350   14.7050 C   0  0  0  0  0
   26.3250   26.3560   15.4410 O   0  0  0  0  0
   26.9460   23.1390   14.4240 C   0  0  0  0  0
   26.4040   21.7700   14.6300 C   0  0  0  0  0
   24.9200   21.9820   14.4650 C   0  0  0  0  0
   25.4440   25.6780   13.5603 O   0  0  0  0  0
   12.5086   17.2481   21.0479 H   0  0  0  0  0
   12.6124   17.8172   22.7321 H   0  0  0  0  0
   12.6684   18.9880   21.3915 H   0  0  0  0  0
   14.5367   19.6156   20.6445 H   0  0  0  0  0
   16.8934   17.8521   21.0494 H   0  0  0  0  0
   17.5737   18.2592   18.6984 H   0  0  0  0  0
   15.9651   19.0926   18.4366 H   0  0  0  0  0
   13.9022   17.7911   18.4972 H   0  0  0  0  0
   17.7605   15.9322   18.6378 H   0  0  0  0  0
   12.8776   15.6250   17.8870 H   0  0  0  0  0
   16.7402   13.7595   18.0317 H   0  0  0  0  0
   14.2974   13.6028   17.6503 H   0  0  0  0  0
   18.9087   21.8077   21.6579 H   0  0  0  0  0
   20.6681   20.4090   22.6166 H   0  0  0  0  0
   21.5067   21.2025   21.3747 H   0  0  0  0  0
   21.5672   18.5797   21.2172 H   0  0  0  0  0
   21.1414   19.3571   19.7697 H   0  0  0  0  0
   19.2317   18.0931   21.8197 H   0  0  0  0  0
   19.1842   17.9110   20.1317 H   0  0  0  0  0
   19.2250   23.6776   17.7115 H   0  0  0  0  0
   19.3422   25.7726   18.9552 H   0  0  0  0  0
   20.8457   25.8134   18.1585 H   0  0  0  0  0
   20.9937   25.9416   20.7783 H   0  0  0  0  0
   22.0315   24.8017   20.0676 H   0  0  0  0  0
   19.2844   24.2604   21.3312 H   0  0  0  0  0
   20.7188   23.4002   21.6068 H   0  0  0  0  0
   22.6541   21.8595   15.6946 H   0  0  0  0  0
   21.2561   22.0122   13.7216 H   0  0  0  0  0
   22.5067   23.0799   13.2681 H   0  0  0  0  0
   20.0955   24.1337   13.2752 H   0  0  0  0  0
   21.2842   25.0586   14.0617 H   0  0  0  0  0
   19.2703   23.1474   15.3662 H   0  0  0  0  0
   19.6240   24.7365   15.8419 H   0  0  0  0  0
   26.3039   24.1413   16.2716 H   0  0  0  0  0
   27.9836   23.2377   14.7429 H   0  0  0  0  0
   26.9896   23.4251   13.3731 H   0  0  0  0  0
   26.6709   21.3448   15.5975 H   0  0  0  0  0
   26.8123   21.0383   13.9328 H   0  0  0  0  0
   24.3201   21.1794   14.8941 H   0  0  0  0  0
   24.5976   21.9772   13.4238 H   0  0  0  0  0
   25.1777   24.8553   13.1433 H   0  0  0  0  0
  1  2  2  0  0  0
  1  3  1  0  0  0
  6  5  1  0  0  0
  5  8  1  0  0  0
  5  4  1  0  0  0
  8  9  1  0  0  0
  9 11  4  0  0  0
  9 10  4  0  0  0
 10 12  4  0  0  0
 12 14  4  0  0  0
 13 14  4  0  0  0
 11 13  4  0  0  0
  6  7  2  0  0  0
 16 15  1  0  0  0
 16 19  1  0  0  0
 17 16  1  0  0  0
 17 18  2  0  0  0
 19 20  1  0  0  0
 20 21  1  0  0  0
 15 21  1  0  0  0
 23 22  1  0  0  0
 23 26  1  0  0  0
 24 23  1  0  0  0
 24 25  2  0  0  0
 26 27  1  0  0  0
 27 28  1  0  0  0
 22 28  1  0  0  0
 30 29  1  0  0  0
 30 33  1  0  0  0
 31 30  1  0  0  0
 31 32  2  0  0  0
 33 34  1  0  0  0
 34 35  1  0  0  0
 29 35  1  0  0  0
 36 37  1  0  0  0
 37 40  1  0  0  0
 37 38  1  0  0  0
 38 39  2  0  0  0
 41 40  1  0  0  0
 42 41  1  0  0  0
 36 42  1  0  0  0
  4  1  1  0  0  0
 15  6  1  0  0  0
 22 17  1  0  0  0
 29 24  1  0  0  0
 31 36  1  0  0  0
 38 43  1  0  0  0
  3 44  1  0  0  0
  3 45  1  0  0  0
  3 46  1  0  0  0
  4 47  1  0  0  0
  5 48  1  0  0  0
  8 49  1  0  0  0
  8 50  1  0  0  0
 10 51  1  0  0  0
 11 52  1  0  0  0
 12 53  1  0  0  0
 13 54  1  0  0  0
 14 55  1  0  0  0
 16 56  1  0  0  0
 19 57  1  0  0  0
 19 58  1  0  0  0
 20 59  1  0  0  0
 20 60  1  0  0  0
 21 61  1  0  0  0
 21 62  1  0  0  0
 23 63  1  0  0  0
 26 64  1  0  0  0
 26 65  1  0  0  0
 27 66  1  0  0  0
 27 67  1  0  0  0
 28 68  1  0  0  0
 28 69  1  0  0  0
 30 70  1  0  0  0
 33 71  1  0  0  0
 33 72  1  0  0  0
 34 73  1  0  0  0
 34 74  1  0  0  0
 35 75  1  0  0  0
 35 76  1  0  0  0
 37 77  1  0  0  0
 40 78  1  0  0  0
 40 79  1  0  0  0
 41 80  1  0  0  0
 41 81  1  0  0  0
 42 82  1  0  0  0
 42 83  1  0  0  0
 43 84  1  0  0  0
M  END
$$$$
