2wf4_ligand
  -I-interpret- 

 79 83  0  0  0  0  0  0  0  0999 V2000
   30.5640    1.4880   34.2700 C   0  0  0  0  0
   29.3310    1.5830   33.7160 N   0  0  0  0  0
   29.0620    2.4570   32.5590 C   0  0  0  0  0
   28.1930    3.6470   33.0360 C   0  0  0  0  0
   28.3380    1.6470   31.4470 C   0  0  0  0  0
   29.0240    4.6100   33.8730 C   0  0  0  0  0
   31.4500    2.3370   34.0700 O   0  0  0  0  0
   30.7720    0.3180   35.1120 C   0  0  0  0  0
   31.3800    0.4790   36.3770 C   0  0  0  0  0
   31.6190   -0.6390   37.2430 C   0  0  0  0  0
   31.2260   -1.9380   36.8000 C   0  0  0  0  0
   30.5970   -2.1000   35.4950 C   0  0  0  0  0
   30.3850   -0.9780   34.6800 C   0  0  0  0  0
   29.0440    0.3350   31.1180 C   0  0  0  0  0
   28.3090   -0.8790   31.1000 C   0  0  0  0  0
   28.9500   -2.1120   30.7960 C   0  0  0  0  0
   30.3370   -2.1440   30.5080 C   0  0  0  0  0
   31.0870   -0.9430   30.5210 C   0  0  0  0  0
   30.4490    0.2900   30.8230 C   0  0  0  0  0
   28.3200    5.7790   34.3790 N   0  3  0  0  0
   27.7530    4.3990   31.9350 O   0  0  0  0  0
   29.1070    6.7680   35.1280 C   0  0  0  0  0
   29.7680    6.1630   36.3840 C   0  0  0  0  0
   30.5490    7.2260   37.1890 C   0  0  0  0  0
   29.6780    8.3260   37.4940 O   0  0  0  0  0
   29.0730    8.9830   36.3680 C   0  0  0  0  0
   28.2320    7.9630   35.5740 C   0  0  0  0  0
   31.2990   -3.2950   37.3800 C   0  0  0  0  0
   30.7340   -4.1410   36.4260 C   0  0  0  0  0
   30.3240   -3.4630   35.3290 N   0  0  0  0  0
   32.2340   -0.3880   38.4670 N   0  0  0  0  0
   31.7670   -1.2190   39.8040 S   0  0  0  0  0
   32.5100   -2.8290   39.6940 C   0  0  0  0  0
   29.6800   -4.0710   34.1380 C   0  0  0  0  0
   28.1460   -3.9230   34.0980 C   0  0  0  0  0
   30.3330   -1.3540   39.7620 O   0  0  0  0  0
   32.3320   -0.5510   40.9320 O   0  0  0  0  0
   31.8410   -3.8040   38.7220 C   0  0  0  0  0
   27.0700    3.1550   33.7220 O   0  0  0  0  0
   33.3380    0.5830   38.5600 C   0  0  0  0  0
   28.5670    1.0343   34.1105 H   0  0  0  0  0
   29.9943    2.8383   32.1425 H   0  0  0  0  0
   28.3268    2.2563   30.5432 H   0  0  0  0  0
   27.3372    1.4071   31.8061 H   0  0  0  0  0
   29.8123    4.9842   33.2199 H   0  0  0  0  0
   29.3578    4.0497   34.7464 H   0  0  0  0  0
   31.6745    1.4767   36.7026 H   0  0  0  0  0
   29.9175   -1.1027   33.7033 H   0  0  0  0  0
   27.2418   -0.8664   31.3215 H   0  0  0  0  0
   28.3718   -3.0359   30.7846 H   0  0  0  0  0
   30.8254   -3.0907   30.2770 H   0  0  0  0  0
   32.1540   -0.9645   30.2993 H   0  0  0  0  0
   31.0317    1.2112   30.8309 H   0  0  0  0  0
   27.6281    5.4210   35.0374 H   0  0  0  0  0
   27.9721    6.2697   33.5552 H   0  0  0  0  0
   28.5129    4.7407   31.4581 H   0  0  0  0  0
   29.8846    7.1063   34.4432 H   0  0  0  0  0
   30.4687    5.3915   36.0648 H   0  0  0  0  0
   28.9834    5.7573   37.0227 H   0  0  0  0  0
   31.3934    7.5823   36.5990 H   0  0  0  0  0
   30.9167    6.7844   38.1152 H   0  0  0  0  0
   29.8507    9.3943   35.7245 H   0  0  0  0  0
   28.4309    9.7909   36.7188 H   0  0  0  0  0
   27.4284    7.5945   36.2116 H   0  0  0  0  0
   27.8246    8.4527   34.6895 H   0  0  0  0  0
   30.6346   -5.2194   36.5493 H   0  0  0  0  0
   32.4271   -3.2755   40.6849 H   0  0  0  0  0
   33.5252   -2.6760   39.3278 H   0  0  0  0  0
   29.8976   -5.1387   34.1669 H   0  0  0  0  0
   30.0740   -3.5545   33.2628 H   0  0  0  0  0
   27.7128   -4.4043   34.9748 H   0  0  0  0  0
   27.8843   -2.8649   34.0963 H   0  0  0  0  0
   27.7601   -4.3955   33.1947 H   0  0  0  0  0
   32.6311   -4.5039   38.4499 H   0  0  0  0  0
   30.9596   -4.1600   39.2554 H   0  0  0  0  0
   27.3591    2.6385   34.4778 H   0  0  0  0  0
   33.0779    1.3591   39.2798 H   0  0  0  0  0
   34.2435    0.0715   38.8866 H   0  0  0  0  0
   33.5066    1.0342   37.5822 H   0  0  0  0  0
  1  2  1  0  0  0
  1  7  2  0  0  0
  1  8  1  0  0  0
  2  3  1  0  0  0
  3  4  1  0  0  0
  3  5  1  0  0  0
  4  6  1  0  0  0
  4 21  1  0  0  0
  4 39  1  0  0  0
  5 14  1  0  0  0
  6 20  1  0  0  0
  8  9  4  0  0  0
  8 13  4  0  0  0
  9 10  4  0  0  0
 10 11  4  0  0  0
 10 31  1  0  0  0
 11 12  4  0  0  0
 11 28  4  0  0  0
 12 13  4  0  0  0
 12 30  4  0  0  0
 14 15  4  0  0  0
 14 19  4  0  0  0
 15 16  4  0  0  0
 16 17  4  0  0  0
 17 18  4  0  0  0
 18 19  4  0  0  0
 20 22  1  0  0  0
 22 23  1  0  0  0
 22 27  1  0  0  0
 23 24  1  0  0  0
 24 25  1  0  0  0
 25 26  1  0  0  0
 26 27  1  0  0  0
 28 29  4  0  0  0
 28 38  1  0  0  0
 29 30  4  0  0  0
 30 34  1  0  0  0
 31 32  1  0  0  0
 31 40  1  0  0  0
 32 33  1  0  0  0
 32 36  2  0  0  0
 32 37  2  0  0  0
 33 38  1  0  0  0
 34 35  1  0  0  0
  2 41  1  0  0  0
  3 42  1  0  0  0
  5 43  1  0  0  0
  5 44  1  0  0  0
  6 45  1  0  0  0
  6 46  1  0  0  0
  9 47  1  0  0  0
 13 48  1  0  0  0
 15 49  1  0  0  0
 16 50  1  0  0  0
 17 51  1  0  0  0
 18 52  1  0  0  0
 19 53  1  0  0  0
 20 54  1  0  0  0
 20 55  1  0  0  0
 21 56  1  0  0  0
 22 57  1  0  0  0
 23 58  1  0  0  0
 23 59  1  0  0  0
 24 60  1  0  0  0
 24 61  1  0  0  0
 26 62  1  0  0  0
 26 63  1  0  0  0
 27 64  1  0  0  0
 27 65  1  0  0  0
 29 66  1  0  0  0
 33 67  1  0  0  0
 33 68  1  0  0  0
 34 69  1  0  0  0
 34 70  1  0  0  0
 35 71  1  0  0  0
 35 72  1  0  0  0
 35 73  1  0  0  0
 38 74  1  0  0  0
 38 75  1  0  0  0
 39 76  1  0  0  0
 40 77  1  0  0  0
 40 78  1  0  0  0
 40 79  1  0  0  0
M  END
$$$$
