3of8_ligand
  -I-interpret- 

 75 77  0  0  0  0  0  0  0  0999 V2000
   29.7440    7.2640    2.7920 C   0  0  0  0  0
   29.0320    6.3230    3.2300 O   0  0  0  0  0
   31.0110    7.2620    2.9150 O   0  0  0  0  0
   31.7700    6.1040    2.9920 C   0  0  0  0  0
   32.7450    5.9770    1.8510 C   0  0  0  0  0
   34.0910    6.2750    2.0400 C   0  0  0  0  0
   34.9670    6.1740    0.9560 C   0  0  0  0  0
   34.4850    5.7990   -0.3050 C   0  0  0  0  0
   33.1280    5.5220   -0.4900 C   0  0  0  0  0
   32.2550    5.6130    0.5940 C   0  0  0  0  0
   29.1060    8.5020    2.4730 N   0  0  0  0  0
   27.8040    8.4900    3.2750 C   0  0  0  0  0
   26.6160    7.8170    2.4500 C   0  0  0  0  0
   26.5740    7.6560    1.2410 O   0  0  0  0  0
   27.3530    9.7980    4.1020 C   0  0  0  0  0
   28.3070   10.9650    4.1130 C   0  0  0  0  0
   28.4660   11.6270    2.9180 C   0  0  0  0  0
   29.0100   11.3510    5.2420 C   0  0  0  0  0
   29.3420   12.6940    2.8370 C   0  0  0  0  0
   29.8850   12.4310    5.1610 C   0  0  0  0  0
   30.0510   13.0960    3.9580 C   0  0  0  0  0
   25.5160    7.5410    3.3300 N   0  0  0  0  0
   22.4050    7.6110    3.7610 O   0  0  0  0  0
   19.0540    3.8460    4.0430 O   0  0  0  0  0
   21.4570    7.9950    1.5490 O   0  0  0  0  0
   24.4250    5.5500    4.1360 C   0  0  0  0  0
   24.4730    6.5980    3.0110 C   0  0  0  0  0
   23.2170    7.4300    2.8550 C   0  0  0  0  0
   22.8360    7.9570    1.6550 C   0  0  0  0  0
   23.0570    5.0010    4.3120 C   0  0  0  0  0
   20.4140    4.2320    4.2280 C   0  0  0  0  0
   17.9670    5.9730    4.1120 C   0  0  0  0  0
   18.1400    4.6960    3.3320 C   0  0  0  0  0
   22.3540    4.9160    5.5220 C   0  0  0  0  0
   22.4760    4.7370    3.0990 C   0  0  0  0  0
   21.0050    4.5170    5.4790 C   0  0  0  0  0
   21.1510    4.3450    3.0630 C   0  0  0  0  0
   18.6100    5.0490    1.9450 C   0  0  0  0  0
   16.7890    4.0160    3.1420 C   0  0  0  0  0
   31.0904    5.2529    2.9501 H   0  0  0  0  0
   32.3406    6.1368    3.9201 H   0  0  0  0  0
   34.4568    6.5828    3.0196 H   0  0  0  0  0
   36.0273    6.3873    1.0917 H   0  0  0  0  0
   35.1730    5.7229   -1.1470 H   0  0  0  0  0
   32.7546    5.2371   -1.4736 H   0  0  0  0  0
   31.1941    5.4009    0.4611 H   0  0  0  0  0
   29.4446    9.2332    1.8477 H   0  0  0  0  0
   28.0800    7.8562    4.1178 H   0  0  0  0  0
   27.2641    9.4772    5.1399 H   0  0  0  0  0
   26.4471   10.1594    3.6154 H   0  0  0  0  0
   27.9041   11.3121    2.0387 H   0  0  0  0  0
   28.8799   10.8158    6.1826 H   0  0  0  0  0
   29.4749   13.2191    1.8911 H   0  0  0  0  0
   30.4385   12.7525    6.0433 H   0  0  0  0  0
   30.7407   13.9375    3.8924 H   0  0  0  0  0
   25.4701    8.0344    4.2215 H   0  0  0  0  0
   21.2127    8.3684    0.6990 H   0  0  0  0  0
   24.7264    6.0298    5.0672 H   0  0  0  0  0
   25.0940    4.7307    3.8728 H   0  0  0  0  0
   24.6214    6.0327    2.0910 H   0  0  0  0  0
   23.2218    8.9737    1.5799 H   0  0  0  0  0
   23.2323    7.3313    0.8553 H   0  0  0  0  0
   17.5687    5.7426    5.1001 H   0  0  0  0  0
   18.9326    6.4683    4.2145 H   0  0  0  0  0
   17.2750    6.6289    3.5838 H   0  0  0  0  0
   22.8385    5.1523    6.4694 H   0  0  0  0  0
   23.0497    4.8346    2.1774 H   0  0  0  0  0
   20.4248    4.4292    6.3975 H   0  0  0  0  0
   20.6813    4.1222    2.1050 H   0  0  0  0  0
   19.5641    5.5723    2.0083 H   0  0  0  0  0
   18.7325    4.1368    1.3611 H   0  0  0  0  0
   17.8723    5.6925    1.4656 H   0  0  0  0  0
   16.9235    3.0961    2.5730 H   0  0  0  0  0
   16.3609    3.7825    4.1168 H   0  0  0  0  0
   16.1199    4.6849    2.6008 H   0  0  0  0  0
  1  2  2  0  0  0
  1  3  1  0  0  0
 11  1  1  0  0  0
  3  4  1  0  0  0
  4  5  1  0  0  0
  5  6  4  0  0  0
  5 10  4  0  0  0
  6  7  4  0  0  0
  7  8  4  0  0  0
  9  8  4  0  0  0
 10  9  4  0  0  0
 12 11  1  0  0  0
 13 12  1  0  0  0
 12 15  1  0  0  0
 13 14  2  0  0  0
 22 13  1  0  0  0
 15 16  1  0  0  0
 16 17  4  0  0  0
 16 18  4  0  0  0
 17 19  4  0  0  0
 18 20  4  0  0  0
 19 21  4  0  0  0
 20 21  4  0  0  0
 27 22  1  0  0  0
 28 23  2  0  0  0
 31 24  1  0  0  0
 24 33  1  0  0  0
 29 25  1  0  0  0
 26 27  1  0  0  0
 30 26  1  0  0  0
 27 28  1  0  0  0
 28 29  1  0  0  0
 34 30  4  0  0  0
 30 35  4  0  0  0
 36 31  4  0  0  0
 31 37  4  0  0  0
 33 32  1  0  0  0
 33 38  1  0  0  0
 33 39  1  0  0  0
 34 36  4  0  0  0
 35 37  4  0  0  0
  4 40  1  0  0  0
  4 41  1  0  0  0
  6 42  1  0  0  0
  7 43  1  0  0  0
  8 44  1  0  0  0
  9 45  1  0  0  0
 10 46  1  0  0  0
 11 47  1  0  0  0
 12 48  1  0  0  0
 15 49  1  0  0  0
 15 50  1  0  0  0
 17 51  1  0  0  0
 18 52  1  0  0  0
 19 53  1  0  0  0
 20 54  1  0  0  0
 21 55  1  0  0  0
 22 56  1  0  0  0
 25 57  1  0  0  0
 26 58  1  0  0  0
 26 59  1  0  0  0
 27 60  1  0  0  0
 29 61  1  0  0  0
 29 62  1  0  0  0
 32 63  1  0  0  0
 32 64  1  0  0  0
 32 65  1  0  0  0
 34 66  1  0  0  0
 35 67  1  0  0  0
 36 68  1  0  0  0
 37 69  1  0  0  0
 38 70  1  0  0  0
 38 71  1  0  0  0
 38 72  1  0  0  0
 39 73  1  0  0  0
 39 74  1  0  0  0
 39 75  1  0  0  0
M  END
$$$$
