5mkx_ligand
  -I-interpret- 

 19 19  0  0  0  0  0  0  0  0999 V2000
   -1.6330    8.5740   35.1470 C   0  0  0  0  0
   -1.2660    9.7580   34.3710 N   0  0  0  0  0
   -0.5270    9.7230   33.2500 C   0  0  0  0  0
   -0.0040    8.4910   32.7360 C   0  0  0  0  0
    0.6950    8.3790   31.6470 N   0  0  0  0  0
    0.9580    9.5170   30.9390 N   0  0  0  0  0
    1.7470    9.3150   29.7270 C   0  0  0  0  0
    0.5300   10.7810   31.2600 C   0  0  0  0  0
    0.8090   11.7450   30.5540 O   0  0  0  0  0
   -0.2540   10.8410   32.4660 C   0  0  0  0  0
   -0.8360   12.3950   32.9420 Cl  0  0  0  0  0
   -2.2106    7.8949   34.5199 H   0  0  0  0  0
   -0.7287    8.0722   35.4913 H   0  0  0  0  0
   -2.2322    8.8756   36.0061 H   0  0  0  0  0
   -0.2080    7.5813   33.3007 H   0  0  0  0  0
    1.1672    9.6327   28.8604 H   0  0  0  0  0
    2.6625    9.9033   29.7887 H   0  0  0  0  0
    1.9981    8.2587   29.6303 H   0  0  0  0  0
   -0.4725    9.7733   32.4458 H   0  0  0  0  0
  1  2  1  0  0  0
  2  3  2  0  0  0
  3  4  1  0  0  0
  3 10  1  0  0  0
  4  5  2  0  0  0
  5  6  1  0  0  0
  6  7  1  0  0  0
  6  8  1  0  0  0
  8  9  2  0  0  0
  8 10  1  0  0  0
 10 11  1  0  0  0
  1 12  1  0  0  0
  1 13  1  0  0  0
  1 14  1  0  0  0
  4 15  1  0  0  0
  7 16  1  0  0  0
  7 17  1  0  0  0
  7 18  1  0  0  0
 10 19  1  0  0  0
M  END
$$$$
