5j64_ligand
  -I-interpret- 

 31 33  0  0  0  0  0  0  0  0999 V2000
   -1.5020   11.8960   22.6250 C   0  0  0  0  0
   -2.7760   11.5690   23.1120 C   0  0  0  0  0
   -2.8820   10.7870   24.2410 C   0  0  0  0  0
   -1.8020    9.4500   26.0460 C   0  0  0  0  0
   -1.5450    7.6380   27.3300 C   0  0  0  0  0
   -0.2950    7.5730   25.2080 C   0  0  0  0  0
    1.0200    7.4080   25.5890 C   0  0  0  0  0
    1.9510    6.8630   24.7070 C   0  0  0  0  0
   -0.7190    7.1920   23.9420 C   0  0  0  0  0
   -1.7370   10.3590   24.9110 C   0  0  0  0  0
   -0.4680   10.6830   24.4140 C   0  0  0  0  0
   -0.3610   11.4700   23.2840 C   0  0  0  0  0
   -1.3740   12.6040   21.4730 O   0  0  0  0  0
   -4.1130   10.4730   24.7470 O   0  0  0  0  0
   -2.5640    9.6300   27.0970 N   0  0  0  0  0
   -2.3710    8.5030   27.9270 N   0  0  0  0  0
   -1.1610    8.1970   26.1510 N   0  0  0  0  0
    1.5330    6.4620   23.4330 C   0  0  0  0  0
    0.2030    6.6220   23.0770 C   0  0  0  0  0
   -1.1910    6.5610   27.7820 O   0  0  0  0  0
    1.3790    7.7530   26.8410 F   0  0  0  0  0
   -3.6705   11.9290   22.6037 H   0  0  0  0  0
    2.9931    6.7503   25.0060 H   0  0  0  0  0
   -1.7545    7.3378   23.6345 H   0  0  0  0  0
    0.4280   10.3169   24.9152 H   0  0  0  0  0
    0.6223   11.7560   22.9107 H   0  0  0  0  0
   -0.4427   12.7406   21.2844 H   0  0  0  0  0
   -4.0064    9.9260   25.5287 H   0  0  0  0  0
   -2.7977    8.3695   28.8438 H   0  0  0  0  0
    2.2444    6.0293   22.7296 H   0  0  0  0  0
   -0.1266    6.2914   22.0920 H   0  0  0  0  0
  2  1  4  0  0  0
  1 12  4  0  0  0
  1 13  1  0  0  0
  3  2  4  0  0  0
 10  3  4  0  0  0
  3 14  1  0  0  0
  4 10  1  0  0  0
  4 15  2  0  0  0
 17  4  1  0  0  0
  5 16  1  0  0  0
 17  5  1  0  0  0
  5 20  2  0  0  0
  6  7  4  0  0  0
  6  9  4  0  0  0
  6 17  1  0  0  0
  7  8  4  0  0  0
  7 21  1  0  0  0
  8 18  4  0  0  0
  9 19  4  0  0  0
 10 11  4  0  0  0
 11 12  4  0  0  0
 15 16  1  0  0  0
 18 19  4  0  0  0
  2 22  1  0  0  0
  8 23  1  0  0  0
  9 24  1  0  0  0
 11 25  1  0  0  0
 12 26  1  0  0  0
 13 27  1  0  0  0
 14 28  1  0  0  0
 16 29  1  0  0  0
 18 30  1  0  0  0
 19 31  1  0  0  0
M  END
$$$$
