2g97_ligand
  -I-interpret- 

 58 60  0  0  0  0  0  0  0  0999 V2000
   -3.6740  103.1150   10.4560 C   0  0  0  0  0
   -3.4850  103.4210    9.1100 C   0  0  0  0  0
   -4.3770  104.2690    8.4610 C   0  0  0  0  0
   -5.4600  104.8040    9.1560 C   0  0  0  0  0
   -5.6530  104.4970   10.4980 C   0  0  0  0  0
   -4.7520  103.6540   11.1490 C   0  0  0  0  0
   -4.8800  103.4030   12.6540 C   0  0  0  0  0
   -5.9570  103.0530   13.1350 O   0  0  0  0  0
   -3.8200  103.6100   13.4390 N   0  0  0  0  0
   -2.5920  104.2320   12.8910 C   0  0  0  0  0
   -1.3600  103.4280   13.3140 C   0  0  0  0  0
   -3.8580  103.3360   14.8960 C   0  0  0  0  0
   -2.6060  102.5520   15.3100 C   0  0  0  0  0
   -1.3340  103.2640   14.8360 C   0  0  0  0  0
   -0.0320  102.6240   15.3340 C   0  0  0  0  0
    0.3660  101.2730   14.7310 C   0  0  0  0  0
    1.8840  101.2210   14.5140 C   0  0  0  0  0
    2.4400   99.8160   14.2670 C   0  0  0  0  0
    2.0990   98.9680   15.4260 N   0  0  0  0  0
    2.9280   98.2470   16.1590 C   0  0  0  0  0
    2.5030   97.6710   17.1640 O   0  0  0  0  0
    4.3100   98.1540   15.9160 C   0  0  0  0  0
    4.9120   97.5680   14.8150 C   0  0  0  0  0
    6.3050   97.5070   14.6480 C   0  0  0  0  0
    6.8410   96.7720   13.5910 C   0  0  0  0  0
    8.2170   96.5810   13.5010 C   0  0  0  0  0
    9.0440   97.1570   14.4600 C   0  0  0  0  0
    8.5110   97.8670   15.4410 N   0  0  0  0  0
    7.2000   98.0400   15.5640 C   0  0  0  0  0
   -2.9756  102.4519   10.9665 H   0  0  0  0  0
   -2.6404  102.9971    8.5667 H   0  0  0  0  0
   -4.2288  104.5148    7.4095 H   0  0  0  0  0
   -6.1589  105.4662    8.6450 H   0  0  0  0  0
   -6.5034  104.9126   11.0385 H   0  0  0  0  0
   -2.5044  105.2484   13.2748 H   0  0  0  0  0
   -2.6534  104.2457   11.8028 H   0  0  0  0  0
   -0.4617  103.9574   12.9964 H   0  0  0  0  0
   -1.3995  102.4428   12.8492 H   0  0  0  0  0
   -4.7453  102.7474   15.1291 H   0  0  0  0  0
   -3.8882  104.2803   15.4397 H   0  0  0  0  0
   -2.6449  101.5627   14.8540 H   0  0  0  0  0
   -2.5821  102.4779   16.3972 H   0  0  0  0  0
   -1.3366  104.2524   15.2956 H   0  0  0  0  0
   -0.1838  102.4381   16.3972 H   0  0  0  0  0
    0.7618  103.3163   15.0537 H   0  0  0  0  0
   -0.1375  101.1461   13.7726 H   0  0  0  0  0
    0.0742  100.4756   15.4145 H   0  0  0  0  0
    2.3504  101.5937   15.4260 H   0  0  0  0  0
    2.1002  101.8116   13.6237 H   0  0  0  0  0
    3.5221   99.8601   14.1433 H   0  0  0  0  0
    2.0056   99.3979   13.3590 H   0  0  0  0  0
    1.1143   98.9352   15.6900 H   0  0  0  0  0
    4.9717   98.5851   16.6673 H   0  0  0  0  0
    4.2759   97.1346   14.0433 H   0  0  0  0  0
    6.1817   96.3465   12.8344 H   0  0  0  0  0
    8.6406   95.9883   12.6903 H   0  0  0  0  0
   10.1244   97.0242   14.4036 H   0  0  0  0  0
    6.8173   98.6158   16.4067 H   0  0  0  0  0
  1  2  4  0  0  0
  1  6  4  0  0  0
  2  3  4  0  0  0
  3  4  4  0  0  0
  4  5  4  0  0  0
  5  6  4  0  0  0
  6  7  1  0  0  0
  7  8  2  0  0  0
  7  9  1  0  0  0
  9 10  1  0  0  0
  9 12  1  0  0  0
 10 11  1  0  0  0
 11 14  1  0  0  0
 12 13  1  0  0  0
 13 14  1  0  0  0
 14 15  1  0  0  0
 15 16  1  0  0  0
 16 17  1  0  0  0
 17 18  1  0  0  0
 18 19  1  0  0  0
 19 20  1  0  0  0
 20 21  2  0  0  0
 20 22  1  0  0  0
 22 23  2  0  0  0
 23 24  1  0  0  0
 24 25  4  0  0  0
 24 29  4  0  0  0
 25 26  4  0  0  0
 26 27  4  0  0  0
 27 28  4  0  0  0
 28 29  4  0  0  0
  1 30  1  0  0  0
  2 31  1  0  0  0
  3 32  1  0  0  0
  4 33  1  0  0  0
  5 34  1  0  0  0
 10 35  1  0  0  0
 10 36  1  0  0  0
 11 37  1  0  0  0
 11 38  1  0  0  0
 12 39  1  0  0  0
 12 40  1  0  0  0
 13 41  1  0  0  0
 13 42  1  0  0  0
 14 43  1  0  0  0
 15 44  1  0  0  0
 15 45  1  0  0  0
 16 46  1  0  0  0
 16 47  1  0  0  0
 17 48  1  0  0  0
 17 49  1  0  0  0
 18 50  1  0  0  0
 18 51  1  0  0  0
 19 52  1  0  0  0
 22 53  1  0  0  0
 23 54  1  0  0  0
 25 55  1  0  0  0
 26 56  1  0  0  0
 27 57  1  0  0  0
 29 58  1  0  0  0
M  END
$$$$
