3ws8_ligand
  -I-interpret- 

 49 53  0  0  0  0  0  0  0  0999 V2000
   17.7930    7.9410   55.8070 C   0  0  0  0  0
   18.9400    8.5620   56.2580 C   0  0  0  0  0
   17.7190    6.5580   55.7980 C   0  0  0  0  0
   23.9800    6.2340   55.0160 C   0  0  0  0  0
   22.6290    6.3550   55.2740 C   0  0  0  0  0
   20.0020    7.7970   56.6930 C   0  0  0  0  0
   18.7890    5.7840   56.2120 C   0  0  0  0  0
   24.4690    4.9810   57.0140 C   0  0  0  0  0
   24.8670    5.5740   55.8430 C   0  0  0  0  0
   23.1270    5.0900   57.2950 C   0  0  0  0  0
   22.2530    5.7480   56.4530 C   0  0  0  0  0
   19.9240    6.4180   56.6600 C   0  0  0  0  0
   18.5290    3.2650   63.0460 C   0  0  0  0  0
   17.6880    2.7140   62.1070 C   0  0  0  0  0
   21.2050    4.9630   58.2160 C   0  0  0  0  0
   19.5800    3.3700   61.1870 C   0  0  0  0  0
   16.6580    1.7800   59.7050 C   0  0  0  0  0
   17.8780    2.3240   59.7280 C   0  0  0  0  0
   15.9830    1.7320   61.0270 C   0  0  0  0  0
   26.2950    5.5080   55.4580 C   0  0  0  0  0
   18.3350    3.4520   64.4870 C   0  0  0  0  0
   20.1140    4.6550   59.1600 C   0  0  0  0  0
   20.5820    3.6160   60.1580 C   0  0  0  0  0
   22.4630    4.6120   58.3740 N   0  0  0  0  0
   19.6990    3.6740   62.4610 N   0  0  0  0  0
   16.4530    2.1650   62.1560 N   0  0  0  0  0
   21.0260    5.6550   57.0520 N   0  0  0  0  0
   18.3730    2.7800   60.9230 N   0  0  0  0  0
   16.9488    8.5365   55.4593 H   0  0  0  0  0
   19.0062    9.6499   56.2703 H   0  0  0  0  0
   16.8040    6.0717   55.4597 H   0  0  0  0  0
   24.3698    6.6869   54.1044 H   0  0  0  0  0
   21.9337    6.8753   54.6153 H   0  0  0  0  0
   20.9052    8.2816   57.0638 H   0  0  0  0  0
   18.7333    4.6958   56.1836 H   0  0  0  0  0
   25.1647    4.4618   57.6731 H   0  0  0  0  0
   16.1966    1.4029   58.7923 H   0  0  0  0  0
   18.4683    2.4038   58.8151 H   0  0  0  0  0
   14.9886    1.2863   61.0512 H   0  0  0  0  0
   26.3879    5.0017   54.4972 H   0  0  0  0  0
   26.6955    6.5186   55.3779 H   0  0  0  0  0
   26.8493    4.9552   56.2165 H   0  0  0  0  0
   17.4650    4.0866   64.6559 H   0  0  0  0  0
   18.1765    2.4827   64.9598 H   0  0  0  0  0
   19.2197    3.9252   64.9130 H   0  0  0  0  0
   19.2575    4.2670   58.6087 H   0  0  0  0  0
   19.8277    5.5631   59.6906 H   0  0  0  0  0
   20.7632    2.6831   59.6241 H   0  0  0  0  0
   21.4871    3.9852   60.6403 H   0  0  0  0  0
  2  1  4  0  0  0
  3  1  4  0  0  0
  6  2  4  0  0  0
  7  3  4  0  0  0
  5  4  4  0  0  0
  4  9  4  0  0  0
 11  5  4  0  0  0
 12  6  4  0  0  0
 12  7  4  0  0  0
  8  9  4  0  0  0
 10  8  4  0  0  0
  9 20  1  0  0  0
 11 10  4  0  0  0
 24 10  4  0  0  0
 27 11  4  0  0  0
 27 12  1  0  0  0
 14 13  4  0  0  0
 13 21  1  0  0  0
 25 13  4  0  0  0
 14 26  4  0  0  0
 28 14  4  0  0  0
 22 15  1  0  0  0
 15 24  4  0  0  0
 15 27  4  0  0  0
 23 16  1  0  0  0
 16 25  4  0  0  0
 16 28  4  0  0  0
 18 17  4  0  0  0
 17 19  4  0  0  0
 28 18  4  0  0  0
 26 19  4  0  0  0
 22 23  1  0  0  0
  1 29  1  0  0  0
  2 30  1  0  0  0
  3 31  1  0  0  0
  4 32  1  0  0  0
  5 33  1  0  0  0
  6 34  1  0  0  0
  7 35  1  0  0  0
  8 36  1  0  0  0
 17 37  1  0  0  0
 18 38  1  0  0  0
 19 39  1  0  0  0
 20 40  1  0  0  0
 20 41  1  0  0  0
 20 42  1  0  0  0
 21 43  1  0  0  0
 21 44  1  0  0  0
 21 45  1  0  0  0
 22 46  1  0  0  0
 22 47  1  0  0  0
 23 48  1  0  0  0
 23 49  1  0  0  0
M  END
$$$$
