5oh9_ligand
  -I-interpret- 

 10 10  0  0  0  0  0  0  0  0999 V2000
   25.6510   17.3690   -8.7840 O   0  0  0  0  0
   24.6180   17.5380   -8.1320 C   0  0  0  0  0
   23.5710   16.7290   -8.3210 N   0  0  0  0  0
   24.3960   18.7780   -7.0100 S   0  0  0  0  0
   22.7260   18.2160   -6.6140 C   0  0  0  0  0
   22.5270   16.9780   -7.5100 C   0  0  0  0  0
   21.5550   16.2280   -7.4700 O   0  0  0  0  0
   23.5642   15.9864   -9.0202 H   0  0  0  0  0
   21.9763   18.9852   -6.7996 H   0  0  0  0  0
   22.6085   17.9832   -5.5556 H   0  0  0  0  0
  1  2  2  0  0  0
  2  3  1  0  0  0
  2  4  1  0  0  0
  3  6  1  0  0  0
  4  5  1  0  0  0
  5  6  1  0  0  0
  6  7  2  0  0  0
  3  8  1  0  0  0
  5  9  1  0  0  0
  5 10  1  0  0  0
M  END
$$$$
