2xxx_ligand
  -I-interpret- 

 20 19  0  0  0  0  0  0  0  0999 V2000
  -11.4790    0.7120  -22.9020 N   0  3  0  0  0
  -10.1610    1.1400  -23.3700 C   0  0  0  0  0
   -9.7380    2.4490  -22.7130 C   0  0  0  0  0
  -10.3190    2.8570  -21.7030 O   0  0  0  0  0
  -10.1410    1.2650  -24.8980 C   0  0  0  0  0
  -10.1100   -0.0800  -25.6210 C   0  0  0  0  0
   -8.7990   -0.8320  -25.4170 C   0  0  0  0  0
   -7.7760   -0.1750  -25.1480 O   0  0  0  0  0
   -8.7890   -2.0790  -25.5320 O   0  0  0  0  0
   -8.8130    3.1200  -23.1730 O   0  0  0  0  0
  -11.4691    0.6357  -21.8849 H   0  0  0  0  0
  -12.1785    1.3979  -23.1859 H   0  0  0  0  0
  -11.7053   -0.1950  -23.3100 H   0  0  0  0  0
   -9.4402    0.3755  -23.0800 H   0  0  0  0  0
  -11.0111    2.2373  -21.4610 H   0  0  0  0  0
   -9.2331    1.8034  -25.1701 H   0  0  0  0  0
  -11.0568    1.7754  -25.1962 H   0  0  0  0  0
  -10.2213    0.1125  -26.6881 H   0  0  0  0  0
  -10.9136   -0.6949  -25.2157 H   0  0  0  0  0
   -9.6740   -2.3871  -25.7403 H   0  0  0  0  0
  1  2  1  0  0  0
  2  3  1  0  0  0
  2  5  1  0  0  0
  3  4  1  0  0  0
  3 10  2  0  0  0
  5  6  1  0  0  0
  6  7  1  0  0  0
  7  8  2  0  0  0
  7  9  1  0  0  0
  1 11  1  0  0  0
  1 12  1  0  0  0
  1 13  1  0  0  0
  2 14  1  0  0  0
  4 15  1  0  0  0
  5 16  1  0  0  0
  5 17  1  0  0  0
  6 18  1  0  0  0
  6 19  1  0  0  0
  9 20  1  0  0  0
M  END
$$$$
