5ijj_ligand
  -I-interpret- 

 54 54  0  0  0  0  0  0  0  0999 V2000
  -16.3480  -11.1850   39.8180 O   0  0  0  0  0
  -17.4150  -10.1370   39.6520 P   0  0  0  0  0
  -17.8020   -9.5230   40.9850 O   0  0  0  0  0
  -18.5750  -10.4800   38.7110 O   0  0  0  0  0
  -16.6270   -8.9820   38.8250 O   0  0  0  0  0
  -17.2930   -7.8930   38.2050 C   0  0  0  0  0
  -16.5190   -7.5130   36.9610 C   0  0  0  0  0
  -17.2820   -8.1180   35.9330 O   0  0  0  0  0
  -16.8610   -9.4350   35.0950 P   0  0  0  0  0
  -18.1120  -10.2910   35.0150 O   0  0  0  0  0
  -15.8380  -10.1250   35.9560 O   0  0  0  0  0
  -16.4520   -8.7400   33.7990 O   0  0  0  0  0
  -17.5230   -6.7940   39.2270 C   0  0  0  0  0
  -18.8840   -6.5090   39.0280 O   0  0  0  0  0
  -19.9800   -6.7140   40.1460 P   0  0  0  0  0
  -19.7930   -8.1990   40.3780 O   0  0  0  0  0
  -21.1780   -6.1990   39.3360 O   0  0  0  0  0
  -19.5240   -5.8860   41.3160 O   0  0  0  0  0
  -17.0060   -5.3870   39.0180 C   0  0  0  0  0
  -16.4360   -4.9490   40.2480 O   0  0  0  0  0
  -17.1290   -3.9220   41.2870 P   0  0  0  0  0
  -18.5200   -3.5980   40.7690 O   0  0  0  0  0
  -16.2080   -2.7110   41.2590 O   0  0  0  0  0
  -17.0780   -4.8240   42.5000 O   0  0  0  0  0
  -16.0620   -5.1860   37.8530 C   0  0  0  0  0
  -16.3110   -3.8110   37.5720 O   0  0  0  0  0
  -15.2670   -2.6610   37.2010 P   0  0  0  0  0
  -16.0730   -1.4220   37.5180 O   0  0  0  0  0
  -14.1130   -2.9010   38.1580 O   0  0  0  0  0
  -14.9550   -2.8340   35.7140 O   0  0  0  0  0
  -16.3770   -6.0400   36.6350 C   0  0  0  0  0
  -17.5920   -5.5930   36.0880 O   0  0  0  0  0
  -17.8450   -4.9920   34.5970 P   0  0  0  0  0
  -17.5250   -3.5290   34.6660 O   0  0  0  0  0
  -16.9980   -5.7770   33.6090 O   0  0  0  0  0
  -19.3150   -5.2910   34.4150 O   0  0  0  0  0
  -18.4824   -8.8604   40.8453 H   0  0  0  0  0
  -19.1908   -9.7441   38.6825 H   0  0  0  0  0
  -18.2950   -8.1438   37.8568 H   0  0  0  0  0
  -15.4844   -7.8308   37.0900 H   0  0  0  0  0
  -18.7649   -9.8510   34.4657 H   0  0  0  0  0
  -17.2283   -8.3573   33.3837 H   0  0  0  0  0
  -17.0684   -7.1845   40.1375 H   0  0  0  0  0
  -20.0972   -8.6830   39.6068 H   0  0  0  0  0
  -21.3680   -6.8126   38.6225 H   0  0  0  0  0
  -17.8600   -4.7747   38.7284 H   0  0  0  0  0
  -18.4492   -3.0238   40.0029 H   0  0  0  0  0
  -16.3406   -2.2284   40.4398 H   0  0  0  0  0
  -15.0337   -5.4622   38.0862 H   0  0  0  0  0
  -13.6459   -3.6992   37.9005 H   0  0  0  0  0
  -14.4437   -3.6365   35.5867 H   0  0  0  0  0
  -15.5439   -5.9375   35.9396 H   0  0  0  0  0
  -17.2629   -6.6996   33.6244 H   0  0  0  0  0
  -19.4451   -6.2415   34.3795 H   0  0  0  0  0
  1  2  2  0  0  0
  2  3  1  0  0  0
  2  4  1  0  0  0
  2  5  1  0  0  0
  5  6  1  0  0  0
  6  7  1  0  0  0
  6 13  1  0  0  0
  7  8  1  0  0  0
  7 31  1  0  0  0
  8  9  1  0  0  0
  9 10  1  0  0  0
  9 11  2  0  0  0
  9 12  1  0  0  0
 13 14  1  0  0  0
 13 19  1  0  0  0
 14 15  1  0  0  0
 15 16  1  0  0  0
 15 17  1  0  0  0
 15 18  2  0  0  0
 19 20  1  0  0  0
 19 25  1  0  0  0
 20 21  1  0  0  0
 21 22  1  0  0  0
 21 23  1  0  0  0
 21 24  2  0  0  0
 25 26  1  0  0  0
 25 31  1  0  0  0
 26 27  1  0  0  0
 27 28  2  0  0  0
 27 29  1  0  0  0
 27 30  1  0  0  0
 31 32  1  0  0  0
 32 33  1  0  0  0
 33 34  2  0  0  0
 33 35  1  0  0  0
 33 36  1  0  0  0
  3 37  1  0  0  0
  4 38  1  0  0  0
  6 39  1  0  0  0
  7 40  1  0  0  0
 10 41  1  0  0  0
 12 42  1  0  0  0
 13 43  1  0  0  0
 16 44  1  0  0  0
 17 45  1  0  0  0
 19 46  1  0  0  0
 22 47  1  0  0  0
 23 48  1  0  0  0
 25 49  1  0  0  0
 29 50  1  0  0  0
 30 51  1  0  0  0
 31 52  1  0  0  0
 35 53  1  0  0  0
 36 54  1  0  0  0
M  END
$$$$
