### 
### Created by X-TOOL on Mon Sep 10 21:13:29 2018
### 

@<TRIPOS>MOLECULE
5ijj_ligand
   42    42     1     0     0
SMALL
GAST_HUCK


@<TRIPOS>ATOM
      1 O44       -16.3480  -11.1850   39.8180 O.co2     1 I6P        -0.5537
      2 P4        -17.4150  -10.1370   39.6520 P.3       1 I6P         0.2013
      3 O24       -17.8020   -9.5230   40.9850 O.co2     1 I6P        -0.5537
      4 O34       -18.5750  -10.4800   38.7110 O.co2     1 I6P        -0.5537
      5 O14       -16.6270   -8.9820   38.8250 O.3       1 I6P        -0.2668
      6 C4        -17.2930   -7.8930   38.2050 C.3       1 I6P         0.1556
      7 C3        -16.5190   -7.5130   36.9610 C.3       1 I6P         0.1556
      8 O13       -17.2820   -8.1180   35.9330 O.3       1 I6P        -0.2668
      9 P3        -16.8610   -9.4350   35.0950 P.3       1 I6P         0.2013
     10 O43       -18.1120  -10.2910   35.0150 O.co2     1 I6P        -0.5537
     11 O33       -15.8380  -10.1250   35.9560 O.co2     1 I6P        -0.5537
     12 O23       -16.4520   -8.7400   33.7990 O.co2     1 I6P        -0.5537
     13 C5        -17.5230   -6.7940   39.2270 C.3       1 I6P         0.1556
     14 O15       -18.8840   -6.5090   39.0280 O.3       1 I6P        -0.2668
     15 P5        -19.9800   -6.7140   40.1460 P.3       1 I6P         0.2013
     16 O45       -19.7930   -8.1990   40.3780 O.co2     1 I6P        -0.5537
     17 O35       -21.1780   -6.1990   39.3360 O.co2     1 I6P        -0.5537
     18 O25       -19.5240   -5.8860   41.3160 O.co2     1 I6P        -0.5537
     19 C6        -17.0060   -5.3870   39.0180 C.3       1 I6P         0.1556
     20 O16       -16.4360   -4.9490   40.2480 O.3       1 I6P        -0.2668
     21 P6        -17.1290   -3.9220   41.2870 P.3       1 I6P         0.2013
     22 O46       -18.5200   -3.5980   40.7690 O.co2     1 I6P        -0.5537
     23 O36       -16.2080   -2.7110   41.2590 O.co2     1 I6P        -0.5537
     24 O26       -17.0780   -4.8240   42.5000 O.co2     1 I6P        -0.5537
     25 C1        -16.0620   -5.1860   37.8530 C.3       1 I6P         0.1556
     26 O11       -16.3110   -3.8110   37.5720 O.3       1 I6P        -0.2668
     27 P1        -15.2670   -2.6610   37.2010 P.3       1 I6P         0.2013
     28 O41       -16.0730   -1.4220   37.5180 O.co2     1 I6P        -0.5537
     29 O31       -14.1130   -2.9010   38.1580 O.co2     1 I6P        -0.5537
     30 O21       -14.9550   -2.8340   35.7140 O.co2     1 I6P        -0.5537
     31 C2        -16.3770   -6.0400   36.6350 C.3       1 I6P         0.1556
     32 O12       -17.5920   -5.5930   36.0880 O.3       1 I6P        -0.2668
     33 P2        -17.8450   -4.9920   34.5970 P.3       1 I6P         0.2013
     34 O22       -17.5250   -3.5290   34.6660 O.co2     1 I6P        -0.5537
     35 O32       -16.9980   -5.7770   33.6090 O.co2     1 I6P        -0.5537
     36 O42       -19.3150   -5.2910   34.4150 O.co2     1 I6P        -0.5537
     37 H1        -18.2858   -8.2331   37.8754 H         1 I6P         0.0710
     38 H2        -15.5105   -7.9485   37.0170 H         1 I6P         0.0710
     39 H3        -17.2631   -7.1576   40.2321 H         1 I6P         0.0710
     40 H4        -17.8814   -4.7538   38.8112 H         1 I6P         0.0710
     41 H5        -15.0188   -5.3615   38.1544 H         1 I6P         0.0710
     42 H6        -15.5697   -5.9168   35.8981 H         1 I6P         0.0710
@<TRIPOS>BOND
     1    1    2 ar 
     2    2    3 ar 
     3    2    4 ar 
     4    2    5 1  
     5    5    6 1  
     6    6    7 1  
     7    6   13 1  
     8    7    8 1  
     9    7   31 1  
    10    8    9 1  
    11    9   10 ar 
    12    9   11 ar 
    13    9   12 ar 
    14   13   14 1  
    15   13   19 1  
    16   14   15 1  
    17   15   16 ar 
    18   15   17 ar 
    19   15   18 ar 
    20   19   20 1  
    21   19   25 1  
    22   20   21 1  
    23   21   22 ar 
    24   21   23 ar 
    25   21   24 ar 
    26   25   26 1  
    27   25   31 1  
    28   26   27 1  
    29   27   28 ar 
    30   27   29 ar 
    31   27   30 ar 
    32   31   32 1  
    33   32   33 1  
    34   33   34 ar 
    35   33   35 ar 
    36   33   36 ar 
    37    6   37 1  
    38    7   38 1  
    39   13   39 1  
    40   19   40 1  
    41   25   41 1  
    42   31   42 1  
@<TRIPOS>SUBSTRUCTURE
     1 I6P         1

