3jpx_ligand
  -I-interpret- 

132132  0  0  0  0  0  0  0  0999 V2000
   21.2090   36.3110   26.7750 N   0  3  0  0  0
   19.8630   35.7950   27.2080 C   0  0  0  0  0
   19.8220   34.2760   27.3510 C   0  0  0  0  0
   20.2830   33.5570   26.4630 O   0  0  0  0  0
   18.7040   36.2140   26.2680 C   0  0  0  0  0
   18.0720   37.5400   26.6020 C   0  0  0  0  0
   16.7550   37.6640   27.0060 N   0  0  0  0  0
   18.5650   38.8030   26.5420 C   0  0  0  0  0
   16.4700   38.9410   27.1890 C   0  0  0  0  0
   17.5530   39.6520   26.9240 N   0  0  0  0  0
   19.2170   33.7800   28.4330 N   0  0  0  0  0
   19.2470   32.3470   28.6120 C   0  0  0  0  0
   18.0040   31.5920   28.0990 C   0  0  0  0  0
   16.9510   32.1840   27.8320 O   0  0  0  0  0
   19.5990   31.9310   30.0280 C   0  0  0  0  0
   19.1620   32.8690   31.0930 C   0  0  0  0  0
   19.9630   32.6430   32.3790 C   0  0  0  0  0
   19.0860   32.6600   33.5610 N   0  0  0  0  0
   18.1950   33.6310   33.8960 C   0  0  0  0  0
   17.9940   34.7210   33.1240 N   0  0  0  0  0
   17.4520   33.4960   35.0140 N   0  0  0  0  0
   18.1810   30.2820   27.9910 N   0  0  0  0  0
   17.1340   29.3840   27.5570 C   0  0  0  0  0
   17.7260   28.2070   26.7630 C   0  0  0  0  0
   16.6370   27.3700   26.1180 C   0  0  0  0  0
   17.2410   26.0880   25.5590 C   0  0  0  0  0
   16.1120   25.3560   24.7600 C   0  0  0  0  0
   16.5230   24.1180   24.0330 N   0  3  0  0  0
   16.2350   28.9690   28.6710 C   0  0  0  0  0
   15.0090   28.8200   28.4640 O   0  0  0  0  0
   17.2940   24.3760   22.8020 C   0  0  0  0  0
   15.3350   23.3620   23.5240 C   0  0  0  0  0
   17.3920   23.2950   24.9280 C   0  0  0  0  0
   16.8330   28.8000   29.8550 N   0  0  0  0  0
   16.1760   28.2860   31.0850 C   0  0  0  0  0
   16.4860   29.2350   32.2630 C   0  0  0  0  0
   17.5850   29.7910   32.3290 O   0  0  0  0  0
   16.6760   26.8450   31.4080 C   0  0  0  0  0
   16.0780   26.3120   32.7780 C   0  0  0  0  0
   16.3000   25.8880   30.2810 C   0  0  0  0  0
   15.5100   29.4670   33.1430 N   0  0  0  0  0
   15.6990   30.2960   34.3430 C   0  0  0  0  0
   16.7100   29.6340   35.2870 C   0  0  0  0  0
   16.6930   28.4040   35.4730 O   0  0  0  0  0
   14.3590   30.4830   35.0700 C   0  0  0  0  0
   13.2530   31.3060   34.3980 C   0  0  0  0  0
   11.9500   31.1040   35.1120 C   0  0  0  0  0
   13.6130   32.8120   34.3540 C   0  0  0  0  0
   17.5710   30.4350   35.8940 N   0  0  0  0  0
   18.6890   29.8790   36.6850 C   0  0  0  0  0
   18.4030   29.5120   38.1700 C   0  0  0  0  0
   17.2430   29.3950   38.6120 O   0  0  0  0  0
   19.8930   30.8240   36.5920 C   0  0  0  0  0
   19.5940   32.2540   37.0900 C   0  0  0  0  0
   20.8910   33.0610   37.1860 C   0  0  0  0  0
   21.2250   33.6410   35.8750 N   0  0  0  0  0
   22.4570   33.9210   35.4340 C   0  0  0  0  0
   23.5250   33.6550   36.1810 N   0  0  0  0  0
   22.6170   34.4610   34.2220 N   0  0  0  0  0
   19.3190   29.3160   38.9930 O   0  0  0  0  0
   21.9203   35.9986   27.4360 H   0  0  0  0  0
   21.4262   35.9523   25.8452 H   0  0  0  0  0
   21.1894   37.3305   26.7515 H   0  0  0  0  0
   19.7173   36.2603   28.1828 H   0  0  0  0  0
   17.9257   35.4573   26.3667 H   0  0  0  0  0
   19.1246   36.3059   25.2666 H   0  0  0  0  0
   19.5740   39.0905   26.2464 H   0  0  0  0  0
   15.5062   39.3405   27.5047 H   0  0  0  0  0
   18.7521   34.3889   29.1065 H   0  0  0  0  0
   20.0618   32.0342   27.9590 H   0  0  0  0  0
   20.6869   31.8867   30.0786 H   0  0  0  0  0
   19.0847   30.9879   30.2129 H   0  0  0  0  0
   18.1061   32.6966   31.3017 H   0  0  0  0  0
   19.3271   33.8907   30.7510 H   0  0  0  0  0
   20.6963   33.4434   32.4778 H   0  0  0  0  0
   20.4491   31.6692   32.3200 H   0  0  0  0  0
   19.1535   31.8623   34.1931 H   0  0  0  0  0
   17.2957   35.4143   33.3924 H   0  0  0  0  0
   18.5405   34.8508   32.2726 H   0  0  0  0  0
   17.5606   32.6695   35.6018 H   0  0  0  0  0
   19.0941   29.8915   28.2239 H   0  0  0  0  0
   16.4829   29.9281   26.8728 H   0  0  0  0  0
   18.2877   27.5740   27.4500 H   0  0  0  0  0
   18.3661   28.6072   25.9767 H   0  0  0  0  0
   16.1766   27.9364   25.3084 H   0  0  0  0  0
   15.8829   27.1196   26.8642 H   0  0  0  0  0
   17.6134   25.4555   26.3648 H   0  0  0  0  0
   18.0871   26.3131   24.9098 H   0  0  0  0  0
   15.7698   26.0584   23.9999 H   0  0  0  0  0
   15.3678   25.0474   25.4942 H   0  0  0  0  0
   16.6909   24.9694   22.1148 H   0  0  0  0  0
   18.2041   24.9211   23.0524 H   0  0  0  0  0
   17.5546   23.4274   22.3325 H   0  0  0  0  0
   14.7010   23.0761   24.3633 H   0  0  0  0  0
   14.7699   23.9941   22.8390 H   0  0  0  0  0
   15.6723   22.4674   23.0005 H   0  0  0  0  0
   18.2755   23.8706   25.2041 H   0  0  0  0  0
   16.8358   23.0273   25.8264 H   0  0  0  0  0
   17.6963   22.3890   24.4040 H   0  0  0  0  0
   17.8213   29.0439   29.9193 H   0  0  0  0  0
   15.0985   28.2455   30.9257 H   0  0  0  0  0
   17.7609   26.8897   31.5030 H   0  0  0  0  0
   16.3850   26.9730   33.5886 H   0  0  0  0  0
   14.9900   26.2931   32.7151 H   0  0  0  0  0
   16.4498   25.3051   32.9679 H   0  0  0  0  0
   15.2162   25.8715   30.1665 H   0  0  0  0  0
   16.7598   26.2245   29.3518 H   0  0  0  0  0
   16.6564   24.8866   30.5224 H   0  0  0  0  0
   14.5935   29.0515   32.9762 H   0  0  0  0  0
   16.0802   31.2707   34.0384 H   0  0  0  0  0
   14.6073   31.0356   35.9761 H   0  0  0  0  0
   13.9458   29.4782   35.1574 H   0  0  0  0  0
   13.1549   30.9569   33.3701 H   0  0  0  0  0
   11.6794   30.0486   35.0800 H   0  0  0  0  0
   12.0523   31.4229   36.1493 H   0  0  0  0  0
   11.1744   31.6942   34.6239 H   0  0  0  0  0
   13.7496   33.1815   35.3703 H   0  0  0  0  0
   14.5357   32.9473   33.7898 H   0  0  0  0  0
   12.8061   33.3632   33.8710 H   0  0  0  0  0
   17.4620   31.4461   35.8152 H   0  0  0  0  0
   18.8874   28.9104   36.2261 H   0  0  0  0  0
   20.1729   30.8952   35.5410 H   0  0  0  0  0
   20.6801   30.4147   37.2252 H   0  0  0  0  0
   19.1332   32.1997   38.0763 H   0  0  0  0  0
   18.9200   32.7434   36.3870 H   0  0  0  0  0
   21.6996   32.4018   37.5017 H   0  0  0  0  0
   20.7587   33.8654   37.9095 H   0  0  0  0  0
   20.4484   33.8479   35.2469 H   0  0  0  0  0
   23.4106   33.2324   37.1023 H   0  0  0  0  0
   23.5538   34.6667   33.8749 H   0  0  0  0  0
   21.8023   34.6675   33.6441 H   0  0  0  0  0
   20.1676   29.4289   38.5585 H   0  0  0  0  0
  1  2  1  0  0  0
  2  3  1  0  0  0
  2  5  1  0  0  0
  3  4  2  0  0  0
  3 11  1  0  0  0
  5  6  1  0  0  0
  6  7  4  0  0  0
  6  8  4  0  0  0
  7  9  4  0  0  0
  8 10  4  0  0  0
  9 10  4  0  0  0
 11 12  1  0  0  0
 12 13  1  0  0  0
 12 15  1  0  0  0
 13 14  2  0  0  0
 13 22  1  0  0  0
 15 16  1  0  0  0
 16 17  1  0  0  0
 17 18  1  0  0  0
 18 19  1  0  0  0
 19 20  1  0  0  0
 19 21  2  0  0  0
 22 23  1  0  0  0
 23 24  1  0  0  0
 23 29  1  0  0  0
 24 25  1  0  0  0
 25 26  1  0  0  0
 26 27  1  0  0  0
 27 28  1  0  0  0
 28 31  1  0  0  0
 28 32  1  0  0  0
 28 33  1  0  0  0
 29 30  2  0  0  0
 29 34  1  0  0  0
 34 35  1  0  0  0
 35 36  1  0  0  0
 35 38  1  0  0  0
 36 37  2  0  0  0
 36 41  1  0  0  0
 38 39  1  0  0  0
 38 40  1  0  0  0
 41 42  1  0  0  0
 42 43  1  0  0  0
 42 45  1  0  0  0
 43 44  2  0  0  0
 43 49  1  0  0  0
 45 46  1  0  0  0
 46 47  1  0  0  0
 46 48  1  0  0  0
 49 50  1  0  0  0
 50 51  1  0  0  0
 50 53  1  0  0  0
 51 52  2  0  0  0
 51 60  1  0  0  0
 53 54  1  0  0  0
 54 55  1  0  0  0
 55 56  1  0  0  0
 56 57  1  0  0  0
 57 58  2  0  0  0
 57 59  1  0  0  0
  1 61  1  0  0  0
  1 62  1  0  0  0
  1 63  1  0  0  0
  2 64  1  0  0  0
  5 65  1  0  0  0
  5 66  1  0  0  0
  8 67  1  0  0  0
  9 68  1  0  0  0
 11 69  1  0  0  0
 12 70  1  0  0  0
 15 71  1  0  0  0
 15 72  1  0  0  0
 16 73  1  0  0  0
 16 74  1  0  0  0
 17 75  1  0  0  0
 17 76  1  0  0  0
 18 77  1  0  0  0
 20 78  1  0  0  0
 20 79  1  0  0  0
 21 80  1  0  0  0
 22 81  1  0  0  0
 23 82  1  0  0  0
 24 83  1  0  0  0
 24 84  1  0  0  0
 25 85  1  0  0  0
 25 86  1  0  0  0
 26 87  1  0  0  0
 26 88  1  0  0  0
 27 89  1  0  0  0
 27 90  1  0  0  0
 31 91  1  0  0  0
 31 92  1  0  0  0
 31 93  1  0  0  0
 32 94  1  0  0  0
 32 95  1  0  0  0
 32 96  1  0  0  0
 33 97  1  0  0  0
 33 98  1  0  0  0
 33 99  1  0  0  0
 34100  1  0  0  0
 35101  1  0  0  0
 38102  1  0  0  0
 39103  1  0  0  0
 39104  1  0  0  0
 39105  1  0  0  0
 40106  1  0  0  0
 40107  1  0  0  0
 40108  1  0  0  0
 41109  1  0  0  0
 42110  1  0  0  0
 45111  1  0  0  0
 45112  1  0  0  0
 46113  1  0  0  0
 47114  1  0  0  0
 47115  1  0  0  0
 47116  1  0  0  0
 48117  1  0  0  0
 48118  1  0  0  0
 48119  1  0  0  0
 49120  1  0  0  0
 50121  1  0  0  0
 53122  1  0  0  0
 53123  1  0  0  0
 54124  1  0  0  0
 54125  1  0  0  0
 55126  1  0  0  0
 55127  1  0  0  0
 56128  1  0  0  0
 58129  1  0  0  0
 59130  1  0  0  0
 59131  1  0  0  0
 60132  1  0  0  0
M  END
$$$$
