### 
### Created by X-TOOL on Mon Sep 10 21:12:59 2018
### 

@<TRIPOS>MOLECULE
3jpx_ligand
  134   134     1     0     0
SMALL
GAST_HUCK


@<TRIPOS>ATOM
      1 N          21.2090   36.3110   26.7750 N.4       1 HIS         0.2390
      2 CA         19.8630   35.7950   27.2080 C.3       1 HIS         0.0708
      3 C          19.8220   34.2760   27.3510 C.2       1 HIS         0.2282
      4 O          20.2830   33.5570   26.4630 O.2       1 HIS        -0.3906
      5 CB         18.7040   36.2140   26.2680 C.3       1 HIS         0.0347
      6 CG         18.0720   37.5400   26.6020 C.2       1 HIS         0.0005
      7 ND1        16.7550   37.6640   27.0060 N.2       1 HIS        -0.3251
      8 CD2        18.5650   38.8030   26.5420 C.2       1 HIS         0.0293
      9 CE1        16.4700   38.9410   27.1890 C.2       1 HIS         0.0907
     10 NE2        17.5530   39.6520   26.9240 N.pl3     1 HIS        -0.2752
     11 N          19.2170   33.7800   28.4330 N.am      1 ARG        -0.2609
     12 CA         19.2470   32.3470   28.6120 C.3       1 ARG         0.1312
     13 C          18.0040   31.5920   28.0990 C.2       1 ARG         0.2039
     14 O          16.9510   32.1840   27.8320 O.2       1 ARG        -0.3944
     15 CB         19.5990   31.9310   30.0280 C.3       1 ARG        -0.0092
     16 CG         19.1620   32.8690   31.0930 C.3       1 ARG        -0.0156
     17 CD         19.9630   32.6430   32.3790 C.3       1 ARG         0.0627
     18 NE         19.0860   32.6600   33.5610 N.pl3     1 ARG        -0.2723
     19 CZ         18.1950   33.6310   33.8960 C.cat     1 ARG         0.2882
     20 NH1        17.9940   34.7210   33.1240 N.pl3     1 ARG        -0.2849
     21 NH2        17.4520   33.4960   35.0140 N.pl3     1 ARG        -0.2849
     22 N          18.1810   30.2820   27.9910 N.am      1 M3L        -0.2637
     23 CA         17.1340   29.3840   27.5570 C.3       1 M3L         0.1310
     24 CB         17.7260   28.2070   26.7630 C.3       1 M3L        -0.0122
     25 CG         16.6370   27.3700   26.1180 C.3       1 M3L        -0.0440
     26 CD         17.2410   26.0880   25.5590 C.3       1 M3L        -0.0123
     27 CE         16.1120   25.3560   24.7600 C.3       1 M3L        -0.0309
     28 NZ         16.5230   24.1180   24.0330 N.4       1 M3L         0.2369
     29 C          16.2350   28.9690   28.6710 C.2       1 M3L         0.2039
     30 O          15.0090   28.8200   28.4640 O.2       1 M3L        -0.3944
     31 CM1        17.2940   24.3760   22.8020 C.3       1 M3L        -0.0418
     32 CM2        15.3350   23.3620   23.5240 C.3       1 M3L        -0.0418
     33 CM3        17.3920   23.2950   24.9280 C.3       1 M3L        -0.0418
     34 N          16.8330   28.8000   29.8550 N.am      1 VAL        -0.2635
     35 CA         16.1760   28.2860   31.0850 C.3       1 VAL         0.1332
     36 C          16.4860   29.2350   32.2630 C.2       1 VAL         0.2041
     37 O          17.5850   29.7910   32.3290 O.2       1 VAL        -0.3944
     38 CB         16.6760   26.8450   31.4080 C.3       1 VAL        -0.0063
     39 CG1        16.0780   26.3120   32.7780 C.3       1 VAL        -0.0584
     40 CG2        16.3000   25.8880   30.2810 C.3       1 VAL        -0.0584
     41 N          15.5100   29.4670   33.1430 N.am      1 LEU        -0.2637
     42 CA         15.6990   30.2960   34.3430 C.3       1 LEU         0.1312
     43 C          16.7100   29.6340   35.2870 C.2       1 LEU         0.2033
     44 O          16.6930   28.4040   35.4730 O.2       1 LEU        -0.3944
     45 CB         14.3590   30.4830   35.0700 C.3       1 LEU        -0.0101
     46 CG         13.2530   31.3060   34.3980 C.3       1 LEU        -0.0425
     47 CD1        11.9500   31.1040   35.1120 C.3       1 LEU        -0.0625
     48 CD2        13.6130   32.8120   34.3540 C.3       1 LEU        -0.0625
     49 N          17.5710   30.4350   35.8940 N.am      1 ARG        -0.2695
     50 CA         18.6890   29.8790   36.6850 C.3       1 ARG         0.0945
     51 C          18.4030   29.5120   38.1700 C.2       1 ARG         0.0601
     52 O          17.2430   29.3950   38.6120 O.co2     1 ARG        -0.5666
     53 CB         19.8930   30.8240   36.5920 C.3       1 ARG        -0.0148
     54 CG         19.5940   32.2540   37.0900 C.3       1 ARG        -0.0162
     55 CD         20.8910   33.0610   37.1860 C.3       1 ARG         0.0627
     56 NE         21.2250   33.6410   35.8750 N.pl3     1 ARG        -0.2723
     57 CZ         22.4570   33.9210   35.4340 C.cat     1 ARG         0.2882
     58 NH1        23.5250   33.6550   36.1810 N.pl3     1 ARG        -0.2849
     59 NH2        22.6170   34.4610   34.2220 N.pl3     1 ARG        -0.2849
     60 OXT        19.3190   29.3160   38.9930 O.co2     1 ARG        -0.5666
     61 H1         21.1749   37.3155   26.6981 H         1 HIS         0.2016
     62 H2         21.4493   35.9135   25.8804 H         1 HIS         0.2016
     63 H3         21.9042   36.0496   27.4565 H         1 HIS         0.2016
     64 H4         19.6630   36.2306   28.1981 H         1 HIS         0.1116
     65 H5         17.9241   35.4400   26.3192 H         1 HIS         0.0453
     66 H6         19.0977   36.2706   25.2424 H         1 HIS         0.0453
     67 H7         19.5731   39.0902   26.2467 H         1 HIS         0.0729
     68 H8         15.5071   39.3401   27.5044 H         1 HIS         0.1199
     69 H9         17.6267   40.6771   26.9927 H         1 HIS         0.2361
     70 H10        18.7612   34.3769   29.0933 H         1 ARG         0.1885
     71 H11        20.0792   31.9990   27.9825 H         1 ARG         0.0800
     72 H12        20.6927   31.8315   30.0909 H         1 ARG         0.0313
     73 H13        19.1302   30.9549   30.2218 H         1 ARG         0.0313
     74 H14        18.0939   32.7070   31.3003 H         1 ARG         0.0301
     75 H15        19.3162   33.9024   30.7490 H         1 ARG         0.0301
     76 H16        20.7148   33.4398   32.4784 H         1 ARG         0.0689
     77 H17        20.4680   31.6675   32.3207 H         1 ARG         0.0689
     78 H18        19.1542   31.8545   34.1993 H         1 ARG         0.2642
     79 H19        17.3102   35.4360   33.4105 H         1 ARG         0.2615
     80 H20        18.5245   34.8372   32.2488 H         1 ARG         0.2615
     81 H21        17.5823   32.6756   35.6230 H         1 ARG         0.2615
     82 H22        16.7545   34.2133   35.2585 H         1 ARG         0.2615
     83 H23        19.0762   29.8992   28.2193 H         1 M3L         0.1883
     84 H24        16.5049   29.9490   26.8534 H         1 M3L         0.0800
     85 H25        18.3083   27.5714   27.4463 H         1 M3L         0.0312
     86 H26        18.3865   28.6018   25.9770 H         1 M3L         0.0312
     87 H27        16.1713   27.9415   25.3016 H         1 M3L         0.0269
     88 H28        15.8751   27.1179   26.8703 H         1 M3L         0.0269
     89 H29        17.5963   25.4490   26.3808 H         1 M3L         0.0317
     90 H30        18.0814   26.3272   24.8908 H         1 M3L         0.0317
     91 H31        15.7104   26.0635   24.0197 H         1 M3L         0.0815
     92 H32        15.3197   25.0811   25.4718 H         1 M3L         0.0815
     93 H33        17.5577   23.4194   22.3273 H         1 M3L         0.0778
     94 H34        18.2128   24.9261   23.0533 H         1 M3L         0.0778
     95 H35        16.6864   24.9748   22.1075 H         1 M3L         0.0778
     96 H36        14.6735   23.1087   24.3656 H         1 M3L         0.0778
     97 H37        15.6719   22.4379   23.0315 H         1 M3L         0.0778
     98 H38        14.7868   23.9840   22.8011 H         1 M3L         0.0778
     99 H39        18.2445   23.9006   25.2693 H         1 M3L         0.0778
    100 H40        17.7624   22.4191   24.3752 H         1 M3L         0.0778
    101 H41        16.8088   22.9596   25.7982 H         1 M3L         0.0778
    102 H42        17.8019   29.0391   29.9180 H         1 VAL         0.1883
    103 H43        15.0882   28.2564   30.9244 H         1 VAL         0.0802
    104 H44        17.7722   26.8725   31.4950 H         1 VAL         0.0343
    105 H45        16.4525   25.2958   32.9708 H         1 VAL         0.0234
    106 H46        14.9799   26.2924   32.7159 H         1 VAL         0.0234
    107 H47        16.3871   26.9782   33.5969 H         1 VAL         0.0234
    108 H48        16.7149   26.2582   29.3319 H         1 VAL         0.0234
    109 H49        15.2046   25.8259   30.2028 H         1 VAL         0.0234
    110 H50        16.7095   24.8899   30.4956 H         1 VAL         0.0234
    111 H51        14.6115   29.0597   32.9795 H         1 LEU         0.1883
    112 H52        16.0832   31.2811   34.0398 H         1 LEU         0.0800
    113 H53        14.5802   30.9670   36.0327 H         1 LEU         0.0315
    114 H54        13.9480   29.4787   35.2504 H         1 LEU         0.0315
    115 H55        13.1411   30.9499   33.3633 H         1 LEU         0.0298
    116 H56        11.1664   31.6992   34.6203 H         1 LEU         0.0232
    117 H57        12.0519   31.4255   36.1590 H         1 LEU         0.0232
    118 H58        11.6757   30.0392   35.0804 H         1 LEU         0.0232
    119 H59        14.5699   32.9450   33.8280 H         1 LEU         0.0232
    120 H60        13.7020   33.1979   35.3802 H         1 LEU         0.0232
    121 H61        12.8229   33.3625   33.8224 H         1 LEU         0.0232
    122 H62        17.4642   31.4263   35.8168 H         1 ARG         0.1875
    123 H63        18.9706   28.9368   36.1921 H         1 ARG         0.0726
    124 H64        20.2103   30.8810   35.5403 H         1 ARG         0.0307
    125 H65        20.7100   30.4076   37.1995 H         1 ARG         0.0307
    126 H66        19.1237   32.2023   38.0830 H         1 ARG         0.0301
    127 H67        18.9094   32.7487   36.3853 H         1 ARG         0.0301
    128 H68        21.7079   32.3993   37.5097 H         1 ARG         0.0689
    129 H69        20.7622   33.8705   37.9196 H         1 ARG         0.0689
    130 H70        20.4408   33.8499   35.2407 H         1 ARG         0.2642
    131 H71        24.4675   33.8757   35.8291 H         1 ARG         0.2615
    132 H72        23.4095   33.2283   37.1113 H         1 ARG         0.2615
    133 H73        21.7943   34.6695   33.6384 H         1 ARG         0.2615
    134 H74        23.5630   34.6687   33.8715 H         1 ARG         0.2615
@<TRIPOS>BOND
     1    1    2 1  
     2    2    3 1  
     3    2    5 1  
     4    3    4 2  
     5    3   11 am 
     6    5    6 1  
     7    6    7 1  
     8    6    8 2  
     9    7    9 2  
    10    8   10 1  
    11    9   10 1  
    12   11   12 1  
    13   12   13 1  
    14   12   15 1  
    15   13   14 2  
    16   13   22 am 
    17   15   16 1  
    18   16   17 1  
    19   17   18 1  
    20   18   19 ar 
    21   19   20 ar 
    22   19   21 ar 
    23   22   23 1  
    24   23   24 1  
    25   23   29 1  
    26   24   25 1  
    27   25   26 1  
    28   26   27 1  
    29   27   28 1  
    30   28   31 1  
    31   28   32 1  
    32   28   33 1  
    33   29   30 2  
    34   29   34 am 
    35   34   35 1  
    36   35   36 1  
    37   35   38 1  
    38   36   37 2  
    39   36   41 am 
    40   38   39 1  
    41   38   40 1  
    42   41   42 1  
    43   42   43 1  
    44   42   45 1  
    45   43   44 2  
    46   43   49 am 
    47   45   46 1  
    48   46   47 1  
    49   46   48 1  
    50   49   50 1  
    51   50   51 1  
    52   50   53 1  
    53   51   52 ar 
    54   51   60 ar 
    55   53   54 1  
    56   54   55 1  
    57   55   56 1  
    58   56   57 ar 
    59   57   58 ar 
    60   57   59 ar 
    61    1   61 1  
    62    1   62 1  
    63    1   63 1  
    64    2   64 1  
    65    5   65 1  
    66    5   66 1  
    67    8   67 1  
    68    9   68 1  
    69   10   69 1  
    70   11   70 1  
    71   12   71 1  
    72   15   72 1  
    73   15   73 1  
    74   16   74 1  
    75   16   75 1  
    76   17   76 1  
    77   17   77 1  
    78   18   78 1  
    79   20   79 1  
    80   20   80 1  
    81   21   81 1  
    82   21   82 1  
    83   22   83 1  
    84   23   84 1  
    85   24   85 1  
    86   24   86 1  
    87   25   87 1  
    88   25   88 1  
    89   26   89 1  
    90   26   90 1  
    91   27   91 1  
    92   27   92 1  
    93   31   93 1  
    94   31   94 1  
    95   31   95 1  
    96   32   96 1  
    97   32   97 1  
    98   32   98 1  
    99   33   99 1  
   100   33  100 1  
   101   33  101 1  
   102   34  102 1  
   103   35  103 1  
   104   38  104 1  
   105   39  105 1  
   106   39  106 1  
   107   39  107 1  
   108   40  108 1  
   109   40  109 1  
   110   40  110 1  
   111   41  111 1  
   112   42  112 1  
   113   45  113 1  
   114   45  114 1  
   115   46  115 1  
   116   47  116 1  
   117   47  117 1  
   118   47  118 1  
   119   48  119 1  
   120   48  120 1  
   121   48  121 1  
   122   49  122 1  
   123   50  123 1  
   124   53  124 1  
   125   53  125 1  
   126   54  126 1  
   127   54  127 1  
   128   55  128 1  
   129   55  129 1  
   130   56  130 1  
   131   58  131 1  
   132   58  132 1  
   133   59  133 1  
   134   59  134 1  
@<TRIPOS>SUBSTRUCTURE
     1 HIS         1

