4kp8_ligand
  -I-interpret- 

 31 32  0  0  0  0  0  0  0  0999 V2000
   -5.5960   14.5920   -5.4960 O   0  0  0  0  0
   -4.4920   15.5500   -5.9940 S   0  0  0  0  0
   -4.7390   15.5970   -7.5240 O   0  0  0  0  0
   -2.9040   14.8600   -5.7340 N   0  0  0  0  0
   -4.6220   17.1940   -5.2820 C   0  0  0  0  0
   -3.8580   17.3440   -4.1380 C   0  0  0  0  0
   -3.8450   18.5500   -3.4290 C   0  0  0  0  0
   -4.5720   19.6350   -3.9020 C   0  0  0  0  0
   -5.3730   18.2930   -5.7840 C   0  0  0  0  0
   -5.3270   19.5340   -5.0730 C   0  0  0  0  0
   -6.0870   20.7560   -5.4230 C   0  0  0  0  0
   -5.5450   21.7850   -5.8300 O   0  0  0  0  0
   -7.5770   20.7390   -5.2100 C   0  0  0  0  0
   -8.1150   22.3960   -4.7040 S   0  0  0  0  0
   -7.4680   22.2240   -3.0190 C   0  0  0  0  0
   -8.3150   22.0320   -1.9480 N   0  0  0  0  0
   -7.8400   21.9010   -0.6750 C   0  0  0  0  0
   -6.4660   21.9720   -0.4350 C   0  0  0  0  0
   -5.6030   22.1580   -1.5140 C   0  0  0  0  0
   -6.1180   22.2840   -2.7780 N   0  0  0  0  0
   -2.8120   13.9399   -5.3034 H   0  0  0  0  0
   -2.0709   15.3781   -6.0131 H   0  0  0  0  0
   -3.2557   16.5078   -3.7830 H   0  0  0  0  0
   -3.2668   18.6378   -2.5092 H   0  0  0  0  0
   -4.5532   20.5764   -3.3529 H   0  0  0  0  0
   -5.9703   18.1920   -6.6902 H   0  0  0  0  0
   -7.8309   20.0158   -4.4350 H   0  0  0  0  0
   -8.0789   20.4543   -6.1348 H   0  0  0  0  0
   -8.5315   21.7413    0.1523 H   0  0  0  0  0
   -6.0751   21.8835    0.5786 H   0  0  0  0  0
   -4.5258   22.2029   -1.3535 H   0  0  0  0  0
  1  2  2  0  0  0
  2  3  2  0  0  0
  2  4  1  0  0  0
  2  5  1  0  0  0
  5  6  4  0  0  0
  5  9  4  0  0  0
  6  7  4  0  0  0
  7  8  4  0  0  0
  8 10  4  0  0  0
  9 10  4  0  0  0
 10 11  1  0  0  0
 11 12  2  0  0  0
 11 13  1  0  0  0
 13 14  1  0  0  0
 14 15  1  0  0  0
 15 16  4  0  0  0
 15 20  4  0  0  0
 16 17  4  0  0  0
 17 18  4  0  0  0
 18 19  4  0  0  0
 19 20  4  0  0  0
  4 21  1  0  0  0
  4 22  1  0  0  0
  6 23  1  0  0  0
  7 24  1  0  0  0
  8 25  1  0  0  0
  9 26  1  0  0  0
 13 27  1  0  0  0
 13 28  1  0  0  0
 17 29  1  0  0  0
 18 30  1  0  0  0
 19 31  1  0  0  0
M  END
$$$$
