### 
### Created by X-TOOL on Mon Sep 10 21:13:07 2018
### 

@<TRIPOS>MOLECULE
2xn6_ligand
   71    77     1     0     0
SMALL
GAST_HUCK


@<TRIPOS>ATOM
      1 O1          1.5040  -13.4860   24.5790 O.2       1 F6Y        -0.3516
      2 C1          0.9710  -12.5370   24.0270 C.2       1 F6Y         0.2544
      3 C2          0.1410  -11.4820   24.6610 C.ar      1 F6Y         0.0618
      4 C3         -0.2220  -11.2950   25.9880 C.ar      1 F6Y        -0.0245
      5 C4         -1.0250  -10.1910   26.2900 C.ar      1 F6Y        -0.0246
      6 O2          1.0310  -12.2380   22.6030 O.3       1 F6Y        -0.3558
      7 C5          0.2610  -11.0520   22.3190 C.3       1 F6Y         0.0728
      8 C6          1.1310   -9.9570   21.7620 C.ar      1 F6Y        -0.0345
      9 C7          2.4760   -9.8550   22.1220 C.ar      1 F6Y        -0.0665
     10 C8          3.2640   -8.8320   21.5970 C.ar      1 F6Y        -0.0210
     11 C9          2.7100   -7.9070   20.7150 C.ar      1 F6Y         0.1035
     12 O3          3.4780   -6.9060   20.2010 O.3       1 F6Y        -0.3219
     13 C11         1.3680   -8.0070   20.3580 C.ar      1 F6Y         0.0230
     14 C12         0.5820   -9.0290   20.8840 C.ar      1 F6Y         0.1350
     15 O4         -0.7400   -9.1280   20.5290 O.3       1 F6Y        -0.2253
     16 C13        -1.3560  -10.3550   20.5440 C.ar      1 F6Y         0.1350
     17 C14        -2.4300  -10.6010   19.6920 C.ar      1 F6Y         0.0230
     18 C15        -3.0580  -11.8440   19.7030 C.ar      1 F6Y         0.1035
     19 O5         -4.1080  -12.0840   18.8700 O.3       1 F6Y        -0.3219
     20 C16        -2.6070  -12.8400   20.5670 C.ar      1 F6Y        -0.0210
     21 C17        -1.5310  -12.5930   21.4190 C.ar      1 F6Y        -0.0665
     22 C18        -0.8990  -11.3480   21.4060 C.ar      1 F6Y        -0.0345
     23 C19        -0.2580  -10.6330   23.6660 C.ar      1 F6Y        -0.0519
     24 C20        -1.0580   -9.5330   23.9500 C.ar      1 F6Y        -0.0384
     25 C21        -1.4350   -9.3120   25.2770 C.ar      1 F6Y         0.0658
     26 C22        -2.3080   -8.1350   25.6080 C.2       1 F6Y         0.2125
     27 O6         -1.8010   -7.1010   26.0110 O.2       1 F6Y        -0.3826
     28 C1         -6.7550   -8.9210   25.3190 C.ar      1 T44        -0.0435
     29 C2         -7.5040   -9.3800   24.2400 C.ar      1 T44        -0.0542
     30 C3         -8.6220   -8.6770   23.8110 C.ar      1 T44         0.0381
     31 C4         -9.0150   -7.5170   24.4670 C.ar      1 T44         0.1288
     32 C5         -8.2730   -7.0610   25.5500 C.ar      1 T44         0.0381
     33 C6         -7.1480   -7.7610   25.9820 C.ar      1 T44        -0.0542
     34 C7         -5.5490   -9.7090   25.7810 C.3       1 T44         0.0122
     35 C8         -4.2610   -9.4740   24.9960 C.3       1 T44         0.1022
     36 C9         -4.4630   -9.5090   23.5040 C.2       1 T44         0.0619
     37 C1'       -10.0300   -5.9310   22.9820 C.ar      1 T44         0.1107
     38 C2'        -8.8090   -5.3840   22.5710 C.ar      1 T44        -0.0230
     39 C3'        -8.7540   -4.4990   21.4940 C.ar      1 T44         0.0330
     40 C4'        -9.9170   -4.1500   20.8170 C.ar      1 T44         0.0996
     41 C5'       -11.1300   -4.6920   21.2200 C.ar      1 T44         0.0330
     42 C6'       -11.1900   -5.5790   22.2950 C.ar      1 T44        -0.0230
     43 N8         -3.6290   -8.2450   25.4550 N.am      1 T44        -0.2683
     44 O4        -10.1170   -6.8120   24.0390 O.3       1 T44        -0.2638
     45 O4'        -9.8750   -3.2830   19.7600 O.3       1 T44        -0.3355
     46 O9         -4.7360   -8.4540   22.8940 O.co2     1 T44        -0.5665
     47 O10        -4.3420  -10.6100   22.9240 O.co2     1 T44        -0.5665
     48 I3         -9.6920   -9.4250   22.1840 I         1 T44        -0.0570
     49 I3'        -6.9110   -3.7130   20.9120 I         1 T44        -0.0586
     50 I5         -8.8350   -5.3190   26.5510 I         1 T44        -0.0570
     51 I5'       -12.8760   -4.1700   20.2080 I         1 T44        -0.0586
     52 H           0.1071  -11.9838   26.7660 H         1 F6Y         0.0717
     53 H          -1.3345  -10.0123   27.3197 H         1 F6Y         0.0781
     54 H           2.9104  -10.5761   22.8144 H         1 F6Y         0.0684
     55 H           4.3147   -8.7558   21.8769 H         1 F6Y         0.0567
     56 H           2.9445   -6.3630   19.6161 H         1 F6Y         0.2557
     57 H           0.9326   -7.2853   19.6668 H         1 F6Y         0.0527
     58 H          -2.7792   -9.8203   19.0163 H         1 F6Y         0.0527
     59 H          -4.4221  -12.9813   19.0032 H         1 F6Y         0.2557
     60 H          -3.0962  -13.8140   20.5769 H         1 F6Y         0.0567
     61 H          -1.1828  -13.3730   22.0961 H         1 F6Y         0.0684
     62 H          -1.3833   -8.8593   23.1573 H         1 F6Y         0.0779
     63 H          -7.2114  -10.2969   23.7284 H         1 F6Y         0.0581
     64 H          -6.5765   -7.4011   26.8376 H         1 F6Y         0.0581
     65 H          -5.8009  -10.7615   25.6511 H         1 F6Y         0.0447
     66 H          -5.3479   -9.3920   26.8043 H         1 F6Y         0.0447
     67 H          -3.5839  -10.3042   25.1968 H         1 F6Y         0.0747
     68 H          -7.8928   -5.6519   23.0972 H         1 F6Y         0.0576
     69 H         -12.1489   -5.9987   22.5990 H         1 F6Y         0.0576
     70 H          -4.2173   -7.4392   25.6672 H         1 F6Y         0.1871
     71 H          -8.9685   -3.0032   19.6129 H         1 F6Y         0.2470
@<TRIPOS>BOND
     1    2    1 2  
     2    3    2 1  
     3    6    2 1  
     4    4    3 ar 
     5   23    3 ar 
     6    5    4 ar 
     7   25    5 ar 
     8    7    6 1  
     9    7    8 1  
    10    7   22 1  
    11   23    7 1  
    12    8    9 ar 
    13    8   14 ar 
    14    9   10 ar 
    15   10   11 ar 
    16   11   12 1  
    17   13   11 ar 
    18   14   13 ar 
    19   14   15 1  
    20   16   15 1  
    21   16   17 ar 
    22   22   16 ar 
    23   17   18 ar 
    24   18   19 1  
    25   20   18 ar 
    26   21   20 ar 
    27   22   21 ar 
    28   24   23 ar 
    29   25   24 ar 
    30   26   25 1  
    31   26   27 2  
    32   43   26 am 
    33   29   28 ar 
    34   33   28 ar 
    35   28   34 1  
    36   30   29 ar 
    37   31   30 ar 
    38   30   48 1  
    39   31   32 ar 
    40   44   31 1  
    41   32   33 ar 
    42   32   50 1  
    43   34   35 1  
    44   35   36 1  
    45   35   43 1  
    46   36   46 ar 
    47   36   47 ar 
    48   37   38 ar 
    49   37   42 ar 
    50   37   44 1  
    51   38   39 ar 
    52   39   40 ar 
    53   39   49 1  
    54   40   41 ar 
    55   40   45 1  
    56   41   42 ar 
    57   41   51 1  
    58    4   52 1  
    59    5   53 1  
    60    9   54 1  
    61   10   55 1  
    62   12   56 1  
    63   13   57 1  
    64   17   58 1  
    65   19   59 1  
    66   20   60 1  
    67   21   61 1  
    68   24   62 1  
    69   29   63 1  
    70   33   64 1  
    71   34   65 1  
    72   34   66 1  
    73   35   67 1  
    74   38   68 1  
    75   42   69 1  
    76   43   70 1  
    77   45   71 1  
@<TRIPOS>SUBSTRUCTURE
     1 F6Y         1

