2xn6_ligand
  -I-interpret- 

 72 78  0  0  0  0  0  0  0  0999 V2000
    1.5040  -13.4860   24.5790 O   0  0  0  0  0
    0.9710  -12.5370   24.0270 C   0  0  0  0  0
    0.1410  -11.4820   24.6610 C   0  0  0  0  0
   -0.2220  -11.2950   25.9880 C   0  0  0  0  0
   -1.0250  -10.1910   26.2900 C   0  0  0  0  0
    1.0310  -12.2380   22.6030 O   0  0  0  0  0
    0.2610  -11.0520   22.3190 C   0  0  0  0  0
    1.1310   -9.9570   21.7620 C   0  0  0  0  0
    2.4760   -9.8550   22.1220 C   0  0  0  0  0
    3.2640   -8.8320   21.5970 C   0  0  0  0  0
    2.7100   -7.9070   20.7150 C   0  0  0  0  0
    3.4780   -6.9060   20.2010 O   0  0  0  0  0
    1.3680   -8.0070   20.3580 C   0  0  0  0  0
    0.5820   -9.0290   20.8840 C   0  0  0  0  0
   -0.7400   -9.1280   20.5290 O   0  0  0  0  0
   -1.3560  -10.3550   20.5440 C   0  0  0  0  0
   -2.4300  -10.6010   19.6920 C   0  0  0  0  0
   -3.0580  -11.8440   19.7030 C   0  0  0  0  0
   -4.1080  -12.0840   18.8700 O   0  0  0  0  0
   -2.6070  -12.8400   20.5670 C   0  0  0  0  0
   -1.5310  -12.5930   21.4190 C   0  0  0  0  0
   -0.8990  -11.3480   21.4060 C   0  0  0  0  0
   -0.2580  -10.6330   23.6660 C   0  0  0  0  0
   -1.0580   -9.5330   23.9500 C   0  0  0  0  0
   -1.4350   -9.3120   25.2770 C   0  0  0  0  0
   -2.3080   -8.1350   25.6080 C   0  0  0  0  0
   -1.8010   -7.1010   26.0110 O   0  0  0  0  0
   -6.7550   -8.9210   25.3190 C   0  0  0  0  0
   -7.5040   -9.3800   24.2400 C   0  0  0  0  0
   -8.6220   -8.6770   23.8110 C   0  0  0  0  0
   -9.0150   -7.5170   24.4670 C   0  0  0  0  0
   -8.2730   -7.0610   25.5500 C   0  0  0  0  0
   -7.1480   -7.7610   25.9820 C   0  0  0  0  0
   -5.5490   -9.7090   25.7810 C   0  0  0  0  0
   -4.2610   -9.4740   24.9960 C   0  0  0  0  0
   -4.4630   -9.5090   23.5040 C   0  0  0  0  0
  -10.0300   -5.9310   22.9820 C   0  0  0  0  0
   -8.8090   -5.3840   22.5710 C   0  0  0  0  0
   -8.7540   -4.4990   21.4940 C   0  0  0  0  0
   -9.9170   -4.1500   20.8170 C   0  0  0  0  0
  -11.1300   -4.6920   21.2200 C   0  0  0  0  0
  -11.1900   -5.5790   22.2950 C   0  0  0  0  0
   -3.6290   -8.2450   25.4550 N   0  0  0  0  0
  -10.1170   -6.8120   24.0390 O   0  0  0  0  0
   -9.8750   -3.2830   19.7600 O   0  0  0  0  0
   -4.7360   -8.4540   22.8940 O   0  0  0  0  0
   -4.3420  -10.6100   22.9240 O   0  0  0  0  0
   -9.6920   -9.4250   22.1840 I   0  0  0  0  0
   -6.9110   -3.7130   20.9120 I   0  0  0  0  0
   -8.8350   -5.3190   26.5510 I   0  0  0  0  0
  -12.8760   -4.1700   20.2080 I   0  0  0  0  0
    0.1071  -11.9838   26.7660 H   0  0  0  0  0
   -1.3345  -10.0123   27.3197 H   0  0  0  0  0
    2.9104  -10.5761   22.8144 H   0  0  0  0  0
    4.3147   -8.7558   21.8769 H   0  0  0  0  0
    2.9445   -6.3630   19.6161 H   0  0  0  0  0
    0.9326   -7.2853   19.6668 H   0  0  0  0  0
   -2.7792   -9.8203   19.0163 H   0  0  0  0  0
   -4.4221  -12.9813   19.0032 H   0  0  0  0  0
   -3.0962  -13.8140   20.5769 H   0  0  0  0  0
   -1.1828  -13.3730   22.0961 H   0  0  0  0  0
   -1.3833   -8.8593   23.1573 H   0  0  0  0  0
   -7.2114  -10.2969   23.7284 H   0  0  0  0  0
   -6.5765   -7.4011   26.8376 H   0  0  0  0  0
   -5.8009  -10.7615   25.6511 H   0  0  0  0  0
   -5.3479   -9.3920   26.8043 H   0  0  0  0  0
   -3.5839  -10.3042   25.1968 H   0  0  0  0  0
   -7.8928   -5.6519   23.0972 H   0  0  0  0  0
  -12.1489   -5.9987   22.5990 H   0  0  0  0  0
   -4.2173   -7.4392   25.6672 H   0  0  0  0  0
  -10.7622   -3.1568   19.4157 H   0  0  0  0  0
   -4.1322  -11.2890   23.5694 H   0  0  0  0  0
  2  1  2  0  0  0
  3  2  1  0  0  0
  6  2  1  0  0  0
  4  3  4  0  0  0
 23  3  4  0  0  0
  5  4  4  0  0  0
 25  5  4  0  0  0
  7  6  1  0  0  0
  7  8  1  0  0  0
  7 22  1  0  0  0
 23  7  1  0  0  0
  8  9  4  0  0  0
  8 14  4  0  0  0
  9 10  4  0  0  0
 10 11  4  0  0  0
 11 12  1  0  0  0
 13 11  4  0  0  0
 14 13  4  0  0  0
 14 15  1  0  0  0
 16 15  1  0  0  0
 16 17  4  0  0  0
 22 16  4  0  0  0
 17 18  4  0  0  0
 18 19  1  0  0  0
 20 18  4  0  0  0
 21 20  4  0  0  0
 22 21  4  0  0  0
 24 23  4  0  0  0
 25 24  4  0  0  0
 26 25  1  0  0  0
 26 27  2  0  0  0
 43 26  1  0  0  0
 29 28  4  0  0  0
 33 28  4  0  0  0
 28 34  1  0  0  0
 30 29  4  0  0  0
 31 30  4  0  0  0
 30 48  1  0  0  0
 31 32  4  0  0  0
 44 31  1  0  0  0
 32 33  4  0  0  0
 32 50  1  0  0  0
 34 35  1  0  0  0
 35 36  1  0  0  0
 35 43  1  0  0  0
 36 46  2  0  0  0
 36 47  1  0  0  0
 37 38  4  0  0  0
 37 42  4  0  0  0
 37 44  1  0  0  0
 38 39  4  0  0  0
 39 40  4  0  0  0
 39 49  1  0  0  0
 40 41  4  0  0  0
 40 45  1  0  0  0
 41 42  4  0  0  0
 41 51  1  0  0  0
  4 52  1  0  0  0
  5 53  1  0  0  0
  9 54  1  0  0  0
 10 55  1  0  0  0
 12 56  1  0  0  0
 13 57  1  0  0  0
 17 58  1  0  0  0
 19 59  1  0  0  0
 20 60  1  0  0  0
 21 61  1  0  0  0
 24 62  1  0  0  0
 29 63  1  0  0  0
 33 64  1  0  0  0
 34 65  1  0  0  0
 34 66  1  0  0  0
 35 67  1  0  0  0
 38 68  1  0  0  0
 42 69  1  0  0  0
 43 70  1  0  0  0
 45 71  1  0  0  0
 47 72  1  0  0  0
M  END
$$$$
