3c89_ligand
  -I-interpret- 

 74 73  0  0  0  0  0  0  0  0999 V2000
   27.5560   27.4460   53.1860 N   0  3  0  0  0
   27.5310   25.9890   53.2650 C   0  0  0  0  0
   26.5300   25.5250   54.3160 C   0  0  0  0  0
   26.3950   26.1300   55.3770 O   0  0  0  0  0
   28.9130   25.4350   53.6130 C   0  0  0  0  0
   29.9880   25.7270   52.5860 C   0  0  0  0  0
   31.2620   24.9520   52.9150 C   0  0  0  0  0
   32.3300   25.2220   51.9590 N   0  0  0  0  0
   33.0390   26.3460   51.9150 C   0  0  0  0  0
   32.8050   27.3230   52.7820 N   0  0  0  0  0
   33.9820   26.4960   50.9930 N   0  0  0  0  0
   25.8510   24.4230   54.0130 N   0  0  0  0  0
   24.8220   23.8370   54.8800 C   0  0  0  0  0
   25.3360   23.2260   56.1830 C   0  0  0  0  0
   24.7030   23.3940   57.2470 O   0  0  0  0  0
   24.0650   22.7730   54.1000 C   0  0  0  0  0
   23.0880   23.2970   53.0480 C   0  0  0  0  0
   21.7110   23.4700   53.6660 C   0  0  0  0  0
   21.4660   22.4190   54.6500 N   0  0  0  0  0
   20.3580   22.2970   55.3740 C   0  0  0  0  0
   19.3610   23.1560   55.2310 N   0  0  0  0  0
   20.2620   21.3260   56.2700 N   0  0  0  0  0
   26.4550   22.5030   56.1000 N   0  0  0  0  0
   27.0410   21.8860   57.2770 C   0  0  0  0  0
   26.4990   20.4920   57.5720 C   0  0  0  0  0
   25.8330   19.8790   56.7590 O   0  0  0  0  0
   26.7820   19.9960   58.7720 N   0  0  0  0  0
   26.3340   18.6590   59.2010 C   0  0  0  0  0
   24.8160   18.5630   59.2910 C   0  0  0  0  0
   24.2430   17.4770   59.0150 O   0  0  0  0  0
   26.9080   18.3180   60.5780 C   0  0  0  0  0
   28.4140   18.1270   60.6320 C   0  0  0  0  0
   28.9710   16.6080   59.8460 S   0  0  0  0  0
   28.7230   15.4050   61.1540 C   0  0  0  0  0
   24.1001   19.6216   59.6594 O   0  0  0  0  0
   28.2310   27.7354   52.4782 H   0  0  0  0  0
   26.6288   27.7875   52.9331 H   0  0  0  0  0
   27.8257   27.8298   54.0917 H   0  0  0  0  0
   27.2317   25.6132   52.2866 H   0  0  0  0  0
   28.8152   24.3509   53.6711 H   0  0  0  0  0
   29.2226   25.9141   54.5419 H   0  0  0  0  0
   30.2087   26.7944   52.5964 H   0  0  0  0  0
   29.6313   25.4229   51.6020 H   0  0  0  0  0
   31.0320   23.8872   52.8765 H   0  0  0  0  0
   31.6032   25.2618   53.9028 H   0  0  0  0  0
   32.5485   24.4970   51.2756 H   0  0  0  0  0
   32.0772   27.2146   53.4883 H   0  0  0  0  0
   34.5233   27.3596   50.9529 H   0  0  0  0  0
   34.1653   25.7477   50.3245 H   0  0  0  0  0
   26.0567   23.9587   53.1284 H   0  0  0  0  0
   24.1817   24.6674   55.1776 H   0  0  0  0  0
   23.4703   22.2200   54.8271 H   0  0  0  0  0
   24.8140   22.1898   53.5642 H   0  0  0  0  0
   23.0271   22.5842   52.2257 H   0  0  0  0  0
   23.4400   24.2594   52.6767 H   0  0  0  0  0
   20.9568   23.4080   52.8815 H   0  0  0  0  0
   21.6601   24.4406   54.1595 H   0  0  0  0  0
   22.2008   21.7261   54.7924 H   0  0  0  0  0
   19.4387   23.9205   54.5603 H   0  0  0  0  0
   19.4234   21.2435   56.8448 H   0  0  0  0  0
   21.0267   20.6609   56.3851 H   0  0  0  0  0
   26.9067   22.3816   55.1936 H   0  0  0  0  0
   26.7981   22.5178   58.1314 H   0  0  0  0  0
   28.1112   21.7879   57.0950 H   0  0  0  0  0
   27.3297   20.5617   59.4204 H   0  0  0  0  0
   26.6920   17.9577   58.4472 H   0  0  0  0  0
   26.4645   17.3665   60.8713 H   0  0  0  0  0
   26.6797   19.1637   61.2267 H   0  0  0  0  0
   28.7012   18.0775   61.6823 H   0  0  0  0  0
   28.8699   18.9599   60.0967 H   0  0  0  0  0
   29.3220   15.6841   62.0209 H   0  0  0  0  0
   27.6690   15.3832   61.4308 H   0  0  0  0  0
   29.0280   14.4195   60.8021 H   0  0  0  0  0
   24.6886   20.3603   59.8316 H   0  0  0  0  0
  2  1  1  0  0  0
  2  5  1  0  0  0
  3  2  1  0  0  0
  3  4  2  0  0  0
  5  6  1  0  0  0
  6  7  1  0  0  0
  7  8  1  0  0  0
  8  9  1  0  0  0
  9 11  1  0  0  0
  9 10  2  0  0  0
 13 12  1  0  0  0
 13 16  1  0  0  0
 14 13  1  0  0  0
 14 15  2  0  0  0
 16 17  1  0  0  0
 17 18  1  0  0  0
 18 19  1  0  0  0
 19 20  1  0  0  0
 20 22  1  0  0  0
 20 21  2  0  0  0
 12  3  1  0  0  0
 24 23  1  0  0  0
 25 24  1  0  0  0
 25 26  2  0  0  0
 23 14  1  0  0  0
 27 28  1  0  0  0
 28 31  1  0  0  0
 28 29  1  0  0  0
 29 30  2  0  0  0
 31 32  1  0  0  0
 32 33  1  0  0  0
 33 34  1  0  0  0
 25 27  1  0  0  0
 29 35  1  0  0  0
  1 36  1  0  0  0
  1 37  1  0  0  0
  1 38  1  0  0  0
  2 39  1  0  0  0
  5 40  1  0  0  0
  5 41  1  0  0  0
  6 42  1  0  0  0
  6 43  1  0  0  0
  7 44  1  0  0  0
  7 45  1  0  0  0
  8 46  1  0  0  0
 10 47  1  0  0  0
 11 48  1  0  0  0
 11 49  1  0  0  0
 12 50  1  0  0  0
 13 51  1  0  0  0
 16 52  1  0  0  0
 16 53  1  0  0  0
 17 54  1  0  0  0
 17 55  1  0  0  0
 18 56  1  0  0  0
 18 57  1  0  0  0
 19 58  1  0  0  0
 21 59  1  0  0  0
 22 60  1  0  0  0
 22 61  1  0  0  0
 23 62  1  0  0  0
 24 63  1  0  0  0
 24 64  1  0  0  0
 27 65  1  0  0  0
 28 66  1  0  0  0
 31 67  1  0  0  0
 31 68  1  0  0  0
 32 69  1  0  0  0
 32 70  1  0  0  0
 34 71  1  0  0  0
 34 72  1  0  0  0
 34 73  1  0  0  0
 35 74  1  0  0  0
M  END
$$$$
