4o0t_ligand
  -I-interpret- 

 56 59  0  0  0  0  0  0  0  0999 V2000
   13.3550  -11.8340   15.5130 C   0  0  0  0  0
   13.0080  -12.5910   14.3520 O   0  0  0  0  0
   12.4070  -13.8600   14.6260 C   0  0  0  0  0
   12.6240  -14.7750   13.4160 C   0  0  0  0  0
   13.8130  -15.6120   13.6150 N   0  0  0  0  0
   15.0160  -15.3510   12.9920 C   0  0  0  0  0
   15.2040  -14.5450   11.9740 N   0  0  0  0  0
   16.5200  -14.5330   11.6240 C   0  0  0  0  0
   17.2460  -13.8590   10.6260 C   0  0  0  0  0
   18.5950  -14.0400   10.5080 C   0  0  0  0  0
   19.2580  -14.9140   11.3730 C   0  0  0  0  0
   18.5530  -15.5840   12.3690 C   0  0  0  0  0
   17.1850  -15.4090   12.5080 C   0  0  0  0  0
   16.2070  -15.9210   13.3680 N   0  0  0  0  0
   16.3470  -16.8260   14.4330 C   0  0  0  0  0
   17.4150  -17.7200   14.5620 C   0  0  0  0  0
   17.4620  -18.5740   15.6530 C   0  0  0  0  0
   16.4910  -18.5310   16.5520 N   0  0  0  0  0
   15.4890  -17.6760   16.4110 C   0  0  0  0  0
   15.4190  -16.8450   15.3790 N   0  0  0  0  0
   14.4870  -17.6480   17.3640 N   0  0  0  0  0
   20.6730  -15.1140   11.2830 C   0  0  0  0  0
   21.8170  -15.3510   11.2550 C   0  0  0  0  0
   23.2640  -15.6240   11.2190 C   0  0  0  0  0
   23.7650  -15.8060   12.6490 C   0  0  0  0  0
   25.2260  -16.2550   12.6600 C   0  0  0  0  0
   25.3740  -17.5670   11.8950 C   0  0  0  0  0
   24.9250  -17.3600   10.4500 C   0  0  0  0  0
   23.4640  -16.9170   10.4210 C   0  0  0  0  0
   23.9660  -14.5540   10.5890 O   0  0  0  0  0
   12.4573  -11.6391   16.0998 H   0  0  0  0  0
   14.0678  -12.3988   16.1138 H   0  0  0  0  0
   13.8036  -10.8886   15.2080 H   0  0  0  0  0
   11.3400  -13.7336   14.8091 H   0  0  0  0  0
   12.8618  -14.3025   15.5123 H   0  0  0  0  0
   12.7668  -14.1606   12.5271 H   0  0  0  0  0
   11.7525  -15.4186   13.2965 H   0  0  0  0  0
   13.7475  -16.4173   14.2376 H   0  0  0  0  0
   16.7285  -13.1870    9.9413 H   0  0  0  0  0
   19.1529  -13.5036    9.7405 H   0  0  0  0  0
   19.0825  -16.2535   13.0469 H   0  0  0  0  0
   18.2042  -17.7450   13.8105 H   0  0  0  0  0
   18.2897  -19.2736   15.7695 H   0  0  0  0  0
   14.5254  -18.2807   18.1631 H   0  0  0  0  0
   13.7097  -16.9946   17.2677 H   0  0  0  0  0
   23.1595  -16.5686   13.1389 H   0  0  0  0  0
   23.6864  -14.8532   13.1726 H   0  0  0  0  0
   25.5483  -16.4024   13.6908 H   0  0  0  0  0
   25.8399  -15.4906   12.1835 H   0  0  0  0  0
   24.7575  -18.3345   12.3629 H   0  0  0  0  0
   26.4166  -17.8844   11.9119 H   0  0  0  0  0
   25.0285  -18.2969    9.9026 H   0  0  0  0  0
   25.5439  -16.5916    9.9868 H   0  0  0  0  0
   23.1746  -16.7364    9.3857 H   0  0  0  0  0
   22.8527  -17.7010   10.8680 H   0  0  0  0  0
   24.9052  -14.7525   10.5765 H   0  0  0  0  0
  1  2  1  0  0  0
  2  3  1  0  0  0
  3  4  1  0  0  0
  4  5  1  0  0  0
  5  6  1  0  0  0
  6  7  4  0  0  0
  6 14  4  0  0  0
  7  8  4  0  0  0
  8  9  4  0  0  0
  8 13  4  0  0  0
  9 10  4  0  0  0
 10 11  4  0  0  0
 11 12  4  0  0  0
 11 22  1  0  0  0
 12 13  4  0  0  0
 13 14  4  0  0  0
 14 15  1  0  0  0
 15 16  4  0  0  0
 15 20  4  0  0  0
 16 17  4  0  0  0
 17 18  4  0  0  0
 18 19  4  0  0  0
 19 20  4  0  0  0
 19 21  1  0  0  0
 22 23  3  0  0  0
 23 24  1  0  0  0
 24 25  1  0  0  0
 24 29  1  0  0  0
 24 30  1  0  0  0
 25 26  1  0  0  0
 26 27  1  0  0  0
 27 28  1  0  0  0
 28 29  1  0  0  0
  1 31  1  0  0  0
  1 32  1  0  0  0
  1 33  1  0  0  0
  3 34  1  0  0  0
  3 35  1  0  0  0
  4 36  1  0  0  0
  4 37  1  0  0  0
  5 38  1  0  0  0
  9 39  1  0  0  0
 10 40  1  0  0  0
 12 41  1  0  0  0
 16 42  1  0  0  0
 17 43  1  0  0  0
 21 44  1  0  0  0
 21 45  1  0  0  0
 25 46  1  0  0  0
 25 47  1  0  0  0
 26 48  1  0  0  0
 26 49  1  0  0  0
 27 50  1  0  0  0
 27 51  1  0  0  0
 28 52  1  0  0  0
 28 53  1  0  0  0
 29 54  1  0  0  0
 29 55  1  0  0  0
 30 56  1  0  0  0
M  END
$$$$
