2uzj_ligand
  -I-interpret- 

 54 53  0  0  0  0  0  0  0  0999 V2000
   12.3660    7.4960   11.6140 C   0  0  0  0  0
   12.8680    8.6460   11.4410 O   0  0  0  0  0
   12.5430    6.5390   10.8260 O   0  0  0  0  0
   11.5370    7.2210   12.8600 C   0  0  0  0  0
   10.4330    8.2540   13.0320 C   0  0  0  0  0
   11.0380    9.5280   13.2050 O   0  0  0  0  0
    9.4910    8.0150   14.1920 C   0  0  0  0  0
    9.1790    6.8800   14.5810 O   0  0  0  0  0
    9.0200    9.1320   14.7540 N   0  0  0  0  0
    8.0510    9.1360   15.8470 C   0  0  0  0  0
    8.4330   10.3320   16.7050 C   0  0  0  0  0
    9.0940    9.9740   18.0180 C   0  0  0  0  0
    9.8870   11.1540   18.5720 C   0  0  0  0  0
    9.9230    8.6890   17.9490 C   0  0  0  0  0
    6.7030    9.4550   15.2740 C   0  0  0  0  0
    6.6180   10.3050   14.3890 O   0  0  0  0  0
    5.6410    8.7970   15.7260 N   0  0  0  0  0
    4.2750    9.0100   15.2520 C   0  0  0  0  0
    3.4120    8.0090   16.0240 C   0  0  0  0  0
    3.1500    6.6930   15.2870 C   0  0  0  0  0
    2.6750    6.8380   13.8330 C   0  0  0  0  0
    1.2590    6.4600   13.7050 N   0  0  0  0  0
    0.5330    5.4160   14.1550 C   0  0  0  0  0
    1.0640    4.4390   14.9040 N   0  0  0  0  0
   -0.7650    5.3370   13.8570 N   0  0  0  0  0
   12.6034    9.2213   12.1626 H   0  0  0  0  0
   12.1930    7.2676   13.7293 H   0  0  0  0  0
   11.0780    6.2374   12.7601 H   0  0  0  0  0
    9.8200    8.1847   12.1334 H   0  0  0  0  0
   11.6401    9.6966   12.4766 H   0  0  0  0  0
    9.3546   10.0287   14.4014 H   0  0  0  0  0
    8.0364    8.1884   16.3855 H   0  0  0  0  0
    7.5107   10.8609   16.9451 H   0  0  0  0  0
    9.1529   10.9183   16.1340 H   0  0  0  0  0
    8.2926    9.7551   18.7237 H   0  0  0  0  0
   10.6596   11.4384   17.8576 H   0  0  0  0  0
    9.2151   11.9963   18.7369 H   0  0  0  0  0
   10.3508   10.8673   19.5158 H   0  0  0  0  0
    9.2778    7.8565   17.6682 H   0  0  0  0  0
   10.7114    8.8062   17.2055 H   0  0  0  0  0
   10.3681    8.4925   18.9244 H   0  0  0  0  0
    5.7889    8.0963   16.4524 H   0  0  0  0  0
    4.1978    8.8564   14.1756 H   0  0  0  0  0
    3.9480   10.0353   15.4251 H   0  0  0  0  0
    2.4432    8.4818   16.1853 H   0  0  0  0  0
    3.9527    7.7603   16.9372 H   0  0  0  0  0
    2.3504    6.1864   15.8275 H   0  0  0  0  0
    4.1000    6.1597   15.2533 H   0  0  0  0  0
    3.2724    6.1807   13.2012 H   0  0  0  0  0
    2.7897    7.8782   13.5282 H   0  0  0  0  0
    0.7113    7.1275   13.1620 H   0  0  0  0  0
    0.4788    3.6683   15.2264 H   0  0  0  0  0
    2.0532    4.4664   15.1514 H   0  0  0  0  0
   -1.2036    6.0638   13.2915 H   0  0  0  0  0
  1  2  1  0  0  0
  1  3  2  0  0  0
  1  4  1  0  0  0
  4  5  1  0  0  0
  5  6  1  0  0  0
  5  7  1  0  0  0
  7  8  2  0  0  0
  7  9  1  0  0  0
  9 10  1  0  0  0
 10 11  1  0  0  0
 10 15  1  0  0  0
 11 12  1  0  0  0
 12 13  1  0  0  0
 12 14  1  0  0  0
 15 16  2  0  0  0
 15 17  1  0  0  0
 17 18  1  0  0  0
 18 19  1  0  0  0
 19 20  1  0  0  0
 20 21  1  0  0  0
 21 22  1  0  0  0
 22 23  1  0  0  0
 23 24  1  0  0  0
 23 25  2  0  0  0
  2 26  1  0  0  0
  4 27  1  0  0  0
  4 28  1  0  0  0
  5 29  1  0  0  0
  6 30  1  0  0  0
  9 31  1  0  0  0
 10 32  1  0  0  0
 11 33  1  0  0  0
 11 34  1  0  0  0
 12 35  1  0  0  0
 13 36  1  0  0  0
 13 37  1  0  0  0
 13 38  1  0  0  0
 14 39  1  0  0  0
 14 40  1  0  0  0
 14 41  1  0  0  0
 17 42  1  0  0  0
 18 43  1  0  0  0
 18 44  1  0  0  0
 19 45  1  0  0  0
 19 46  1  0  0  0
 20 47  1  0  0  0
 20 48  1  0  0  0
 21 49  1  0  0  0
 21 50  1  0  0  0
 22 51  1  0  0  0
 24 52  1  0  0  0
 24 53  1  0  0  0
 25 54  1  0  0  0
M  END
$$$$
