3lcu_ligand
  -I-interpret- 

 47 49  0  0  0  0  0  0  0  0999 V2000
    8.5910   -1.9530   22.6830 N   0  3  0  0  0
    7.2210   -1.6910   23.0920 C   0  0  0  0  0
    6.4860   -1.0800   21.8900 C   0  0  0  0  0
    6.5040   -1.8810   20.5930 C   0  0  0  0  0
    5.6630   -1.0990   19.2250 S   0  0  0  0  0
    6.4850   -3.0010   23.5670 C   0  0  0  0  0
    7.0660   -4.0160   23.4090 O   0  0  0  0  0
    5.4390   -3.0710   23.9650 O   0  0  0  0  0
    6.9830   -0.2940   18.4840 C   0  0  0  0  0
    7.5630    1.0610   19.0580 C   0  0  0  0  0
    8.5240    1.4670   18.0950 O   0  0  0  0  0
    6.5660    2.1910   19.1530 C   0  0  0  0  0
    6.3970    2.5750   20.5210 O   0  0  0  0  0
    7.1960    3.3030   18.2080 C   0  0  0  0  0
    6.9130    4.6220   18.6460 O   0  0  0  0  0
    8.6550    2.8990   18.2460 C   0  0  0  0  0
    9.4850    3.3500   17.2920 N   0  0  0  0  0
    9.2390    3.3810   15.9280 C   0  0  0  0  0
   10.2390    3.8610   15.2320 N   0  0  0  0  0
   11.2080    4.1620   16.2290 C   0  0  0  0  0
   12.5130    4.7090   16.0240 C   0  0  0  0  0
   13.0230    5.0240   14.8290 N   0  0  0  0  0
   13.2230    4.8910   17.1920 N   0  0  0  0  0
   12.7320    4.5740   18.4310 C   0  0  0  0  0
   11.4770    4.0400   18.6380 N   0  0  0  0  0
   10.7790    3.8670   17.4810 C   0  0  0  0  0
    9.0281   -1.0811   22.3844 H   0  0  0  0  0
    9.1105   -2.3433   23.4692 H   0  0  0  0  0
    8.5924   -2.6178   21.9094 H   0  0  0  0  0
    7.2245   -1.0077   23.9412 H   0  0  0  0  0
    6.9988   -0.1436   21.6703 H   0  0  0  0  0
    5.4387   -1.0101   22.1838 H   0  0  0  0  0
    5.9855   -2.8191   20.7911 H   0  0  0  0  0
    7.5486   -1.9928   20.3025 H   0  0  0  0  0
    7.9439   -3.8311   23.0674 H   0  0  0  0  0
    6.5964   -0.0139   17.5041 H   0  0  0  0  0
    7.8091   -0.9961   18.5973 H   0  0  0  0  0
    7.9250    0.8773   20.0696 H   0  0  0  0  0
    5.5522    1.9538   18.8305 H   0  0  0  0  0
    5.7624    3.2933   20.5745 H   0  0  0  0  0
    6.7951    3.3427   17.1952 H   0  0  0  0  0
    7.3148    5.2514   18.0427 H   0  0  0  0  0
    9.1195    3.3122   19.1414 H   0  0  0  0  0
    8.3060    3.0398   15.4795 H   0  0  0  0  0
   12.4708    4.8771   13.9841 H   0  0  0  0  0
   13.9643    5.4112   14.7622 H   0  0  0  0  0
   13.3664    4.7532   19.2991 H   0  0  0  0  0
  1  2  1  0  0  0
  2  3  1  0  0  0
  2  6  1  0  0  0
  3  4  1  0  0  0
  4  5  1  0  0  0
  5  9  1  0  0  0
  6  7  1  0  0  0
  6  8  2  0  0  0
  9 10  1  0  0  0
 10 11  1  0  0  0
 10 12  1  0  0  0
 11 16  1  0  0  0
 12 13  1  0  0  0
 12 14  1  0  0  0
 14 15  1  0  0  0
 14 16  1  0  0  0
 16 17  1  0  0  0
 17 18  4  0  0  0
 17 26  4  0  0  0
 18 19  4  0  0  0
 19 20  4  0  0  0
 20 21  4  0  0  0
 20 26  4  0  0  0
 21 22  1  0  0  0
 21 23  4  0  0  0
 23 24  4  0  0  0
 24 25  4  0  0  0
 25 26  4  0  0  0
  1 27  1  0  0  0
  1 28  1  0  0  0
  1 29  1  0  0  0
  2 30  1  0  0  0
  3 31  1  0  0  0
  3 32  1  0  0  0
  4 33  1  0  0  0
  4 34  1  0  0  0
  7 35  1  0  0  0
  9 36  1  0  0  0
  9 37  1  0  0  0
 10 38  1  0  0  0
 12 39  1  0  0  0
 13 40  1  0  0  0
 14 41  1  0  0  0
 15 42  1  0  0  0
 16 43  1  0  0  0
 18 44  1  0  0  0
 22 45  1  0  0  0
 22 46  1  0  0  0
 24 47  1  0  0  0
M  END
$$$$
