5a5q_ligand
  -I-interpret- 

 38 40  0  0  0  0  0  0  0  0999 V2000
  -23.6300   44.6790    9.8800 C   0  0  0  0  0
  -24.9820   44.6340   10.5370 C   0  0  0  0  0
  -25.9830   45.4420   10.1510 C   0  0  0  0  0
  -27.2810   45.4160   10.7640 C   0  0  0  0  0
  -28.3460   46.2350   10.3920 C   0  0  0  0  0
  -29.5400   46.0970   11.0690 C   0  0  0  0  0
  -29.7460   45.2210   12.0670 N   0  0  0  0  0
  -28.7490   44.3990   12.4610 C   0  0  0  0  0
  -29.0180   43.5440   13.4720 N   0  0  0  0  0
  -30.3660   43.2470   13.9540 C   0  0  0  0  0
  -30.3210   42.7850   15.3990 C   0  0  0  0  0
  -31.7040   42.3980   15.8770 C   0  0  0  0  0
  -32.2550   41.3450   15.0140 N   0  3  0  0  0
  -32.3880   41.8170   13.6260 C   0  0  0  0  0
  -31.0280   42.1990   13.0780 C   0  0  0  0  0
  -27.4940   44.5010   11.7960 C   0  0  0  0  0
  -26.4470   43.6800   12.1730 N   0  0  0  0  0
  -25.2080   43.6810   11.6250 C   0  0  0  0  0
  -24.3630   42.8960   12.0490 O   0  0  0  0  0
  -23.7352   44.4515    8.8192 H   0  0  0  0  0
  -23.2027   45.6747    9.9988 H   0  0  0  0  0
  -22.9756   43.9433   10.3475 H   0  0  0  0  0
  -25.8025   46.1464    9.3390 H   0  0  0  0  0
  -28.2383   46.9639    9.5888 H   0  0  0  0  0
  -30.3698   46.7399   10.7755 H   0  0  0  0  0
  -28.2331   43.0774   13.9265 H   0  0  0  0  0
  -30.9601   44.1594   13.9018 H   0  0  0  0  0
  -29.9478   43.6000   16.0192 H   0  0  0  0  0
  -29.6659   41.9169   15.4723 H   0  0  0  0  0
  -32.3550   43.2714   15.8386 H   0  0  0  0  0
  -31.6400   42.0274   16.9001 H   0  0  0  0  0
  -33.1784   41.0865   15.3618 H   0  0  0  0  0
  -31.6221   40.5452   15.0286 H   0  0  0  0  0
  -33.0420   42.6887   13.6041 H   0  0  0  0  0
  -32.8108   41.0200   13.0144 H   0  0  0  0  0
  -30.3967   41.3107   13.0563 H   0  0  0  0  0
  -31.1563   42.6095   12.0765 H   0  0  0  0  0
  -26.6226   43.0171   12.9281 H   0  0  0  0  0
  1  2  1  0  0  0
  2  3  2  0  0  0
  2 18  1  0  0  0
  3  4  1  0  0  0
  4  5  4  0  0  0
  4 16  4  0  0  0
  5  6  4  0  0  0
  6  7  4  0  0  0
  7  8  4  0  0  0
  8  9  1  0  0  0
  8 16  4  0  0  0
  9 10  1  0  0  0
 10 11  1  0  0  0
 10 15  1  0  0  0
 11 12  1  0  0  0
 12 13  1  0  0  0
 13 14  1  0  0  0
 14 15  1  0  0  0
 16 17  1  0  0  0
 17 18  1  0  0  0
 18 19  2  0  0  0
  1 20  1  0  0  0
  1 21  1  0  0  0
  1 22  1  0  0  0
  3 23  1  0  0  0
  5 24  1  0  0  0
  6 25  1  0  0  0
  9 26  1  0  0  0
 10 27  1  0  0  0
 11 28  1  0  0  0
 11 29  1  0  0  0
 12 30  1  0  0  0
 12 31  1  0  0  0
 13 32  1  0  0  0
 13 33  1  0  0  0
 14 34  1  0  0  0
 14 35  1  0  0  0
 15 36  1  0  0  0
 15 37  1  0  0  0
 17 38  1  0  0  0
M  END
$$$$
