6ckx_ligand
  -I-interpret- 

 61 65  0  0  0  0  0  0  0  0999 V2000
    8.1010  -23.1720   38.6810 C   0  0  0  0  0
    9.5700  -22.7310   38.7600 C   0  0  0  0  0
    9.7830  -21.6730   39.8590 C   0  0  0  0  0
   12.9550  -20.3010   44.2090 C   0  0  0  0  0
   15.0910  -22.0870   44.1300 C   0  0  0  0  0
   13.9160  -22.4440   43.5340 C   0  0  0  0  0
   12.8140  -21.5590   43.5430 C   0  0  0  0  0
    8.0840  -25.6370   38.1170 C   0  0  0  0  0
    7.2690  -27.7330   39.0380 C   0  0  0  0  0
    9.5870  -27.5030   38.3340 C   0  0  0  0  0
    7.2340  -25.0870   35.3890 C   0  0  0  0  0
    7.4910  -24.0080   36.4220 C   0  0  0  0  0
    7.3190  -22.8590   36.0550 O   0  0  0  0  0
    7.8900  -24.2880   37.7140 N   0  0  0  0  0
    9.2600  -22.1960   41.2130 C   0  0  0  0  0
    7.7590  -22.4830   41.0740 C   0  0  0  0  0
    7.5680  -23.6020   40.0530 C   0  0  0  0  0
    9.4290  -21.2520   42.3370 N   0  0  0  0  0
   10.6420  -20.9780   42.9520 C   0  0  0  0  0
   10.7550  -19.7940   43.5750 N   0  0  0  0  0
   11.8550  -19.4210   44.2180 C   0  0  0  0  0
   14.1710  -19.9740   44.8380 C   0  0  0  0  0
   15.2190  -20.8560   44.7930 C   0  0  0  0  0
   11.6400  -21.8620   42.9300 N   0  0  0  0  0
    7.0420  -26.4160   38.6580 C   0  0  0  0  0
    8.5510  -28.2810   38.8650 C   0  0  0  0  0
    9.3560  -26.1950   37.9610 C   0  0  0  0  0
    8.8750  -29.6850   39.2400 C   0  0  0  0  0
    8.0210  -30.6470   39.8360 C   0  0  0  0  0
    8.7180  -31.7470   39.9990 N   0  0  0  0  0
   10.0250  -31.5290   39.5070 N   0  0  0  0  0
   11.1310  -32.4850   39.4840 C   0  0  0  0  0
   10.1040  -30.2650   39.0460 C   0  0  0  0  0
    7.5506  -22.2990   38.3302 H   0  0  0  0  0
    9.8518  -22.2950   37.8016 H   0  0  0  0  0
   10.1801  -23.6027   38.9968 H   0  0  0  0  0
    9.2378  -20.7676   39.5923 H   0  0  0  0  0
   10.8484  -21.4602   39.9469 H   0  0  0  0  0
   15.9418  -22.7672   44.0907 H   0  0  0  0  0
   13.8272  -23.4161   43.0489 H   0  0  0  0  0
    6.4643  -28.3322   39.4641 H   0  0  0  0  0
   10.5814  -27.9331   38.2147 H   0  0  0  0  0
    6.1979  -25.0294   35.0554 H   0  0  0  0  0
    7.8996  -24.9398   34.5385 H   0  0  0  0  0
    7.4203  -26.0649   35.8329 H   0  0  0  0  0
    9.8488  -23.0833   41.4457 H   0  0  0  0  0
    7.2392  -21.5847   40.7409 H   0  0  0  0  0
    7.3489  -22.7863   42.0373 H   0  0  0  0  0
    8.1161  -24.4833   40.3861 H   0  0  0  0  0
    6.5046  -23.8252   39.9663 H   0  0  0  0  0
    8.5994  -20.7702   42.6835 H   0  0  0  0  0
   11.9054  -18.4637   44.7367 H   0  0  0  0  0
   14.2788  -19.0227   45.3590 H   0  0  0  0  0
   16.1614  -20.5992   45.2768 H   0  0  0  0  0
    6.0496  -25.9818   38.7794 H   0  0  0  0  0
   10.1660  -25.5963   37.5444 H   0  0  0  0  0
    6.9761  -30.4998   40.1091 H   0  0  0  0  0
   11.3602  -32.7981   40.5026 H   0  0  0  0  0
   10.8462  -33.3540   38.8908 H   0  0  0  0  0
   12.0083  -32.0131   39.0415 H   0  0  0  0  0
   10.9799  -29.7918   38.6022 H   0  0  0  0  0
  2  1  1  0  0  0
  1 14  1  0  0  0
 17  1  1  0  0  0
  3  2  1  0  0  0
 15  3  1  0  0  0
  7  4  4  0  0  0
  4 21  4  0  0  0
  4 22  4  0  0  0
  6  5  4  0  0  0
  5 23  4  0  0  0
  7  6  4  0  0  0
 24  7  4  0  0  0
 14  8  1  0  0  0
  8 25  4  0  0  0
  8 27  4  0  0  0
 25  9  4  0  0  0
  9 26  4  0  0  0
 10 26  4  0  0  0
 27 10  4  0  0  0
 12 11  1  0  0  0
 12 13  2  0  0  0
 14 12  1  0  0  0
 15 16  1  0  0  0
 18 15  1  0  0  0
 16 17  1  0  0  0
 19 18  1  0  0  0
 19 20  4  0  0  0
 19 24  4  0  0  0
 20 21  4  0  0  0
 22 23  4  0  0  0
 26 28  1  0  0  0
 28 29  4  0  0  0
 28 33  4  0  0  0
 29 30  4  0  0  0
 30 31  4  0  0  0
 31 32  1  0  0  0
 31 33  4  0  0  0
  1 34  1  0  0  0
  2 35  1  0  0  0
  2 36  1  0  0  0
  3 37  1  0  0  0
  3 38  1  0  0  0
  5 39  1  0  0  0
  6 40  1  0  0  0
  9 41  1  0  0  0
 10 42  1  0  0  0
 11 43  1  0  0  0
 11 44  1  0  0  0
 11 45  1  0  0  0
 15 46  1  0  0  0
 16 47  1  0  0  0
 16 48  1  0  0  0
 17 49  1  0  0  0
 17 50  1  0  0  0
 18 51  1  0  0  0
 21 52  1  0  0  0
 22 53  1  0  0  0
 23 54  1  0  0  0
 25 55  1  0  0  0
 27 56  1  0  0  0
 29 57  1  0  0  0
 32 58  1  0  0  0
 32 59  1  0  0  0
 32 60  1  0  0  0
 33 61  1  0  0  0
M  END
$$$$
