### 
### Created by X-TOOL on Mon Sep 10 21:12:48 2018
### 

@<TRIPOS>MOLECULE
1haa_ligand
  225   231     1     0     0
SMALL
GAST_HUCK


@<TRIPOS>ATOM
      1 N           4.5010    1.1870  -10.9010 N.4       1 TRP         0.2388
      2 CA          5.4240    1.6280   -9.8220 C.3       1 TRP         0.0691
      3 C           4.7080    1.6990   -8.4790 C.2       1 TRP         0.2280
      4 O           3.4840    1.8160   -8.4230 O.2       1 TRP        -0.3906
      5 CB          5.9870    3.0010  -10.1940 C.3       1 TRP         0.0245
      6 CG          4.9410    4.0700  -10.3030 C.2       1 TRP        -0.0386
      7 CD1         4.1330    4.5320   -9.3050 C.2       1 TRP         0.0168
      8 CD2         4.5930    4.8110  -11.4780 C.ar      1 TRP        -0.0213
      9 NE1         3.3040    5.5170   -9.7870 N.pl3     1 TRP        -0.2890
     10 CE2         3.5670    5.7060  -11.1190 C.ar      1 TRP         0.0603
     11 CE3         5.0500    4.8070  -12.7990 C.ar      1 TRP        -0.0747
     12 CZ2         2.9920    6.5850  -12.0320 C.ar      1 TRP        -0.0443
     13 CZ3         4.4780    5.6800  -13.7050 C.ar      1 TRP        -0.0792
     14 CH2         3.4590    6.5590  -13.3180 C.ar      1 TRP        -0.0768
     15 N           5.4770    1.6340   -7.3960 N.am      1 ARG        -0.2609
     16 CA          4.9100    1.6980   -6.0550 C.3       1 ARG         0.1312
     17 C           5.9070    2.3270   -5.0970 C.2       1 ARG         0.2040
     18 O           6.9060    2.9000   -5.5240 O.2       1 ARG        -0.3944
     19 CB          4.5030    0.3030   -5.5720 C.3       1 ARG        -0.0092
     20 CG          5.6740   -0.6170   -5.2690 C.3       1 ARG        -0.0156
     21 CD          6.1870   -1.3030   -6.5240 C.3       1 ARG         0.0627
     22 NE          7.5300   -1.8420   -6.3370 N.pl3     1 ARG        -0.2723
     23 CZ          8.1960   -2.5200   -7.2700 C.cat     1 ARG         0.2882
     24 NH1         7.6460   -2.7420   -8.4570 N.pl3     1 ARG        -0.2849
     25 NH2         9.4140   -2.9760   -7.0140 N.pl3     1 ARG        -0.2849
     26 N           5.6400    2.2220   -3.8040 N.am      1 TYR        -0.2621
     27 CA          6.5370    2.7930   -2.8100 C.3       1 TYR         0.1390
     28 C           7.0720    1.7120   -1.8880 C.2       1 TYR         0.2058
     29 O           6.4320    0.6840   -1.6920 O.2       1 TYR        -0.3942
     30 CB          5.8220    3.8530   -1.9720 C.3       1 TYR         0.0163
     31 CG          5.0120    4.8470   -2.7770 C.ar      1 TYR        -0.0493
     32 CD1         3.9560    4.4370   -3.5820 C.ar      1 TYR        -0.0685
     33 CD2         5.3060    6.2030   -2.7240 C.ar      1 TYR        -0.0685
     34 CE1         3.2190    5.3520   -4.3100 C.ar      1 TYR        -0.0398
     35 CE2         4.5740    7.1220   -3.4500 C.ar      1 TYR        -0.0398
     36 CZ          3.5320    6.6900   -4.2400 C.ar      1 TYR         0.0805
     37 OH          2.7940    7.6010   -4.9580 O.3       1 TYR        -0.3376
     38 N           8.2370    1.9590   -1.3100 N.am      1 TYR        -0.2620
     39 CA          8.8440    1.0210   -0.3870 C.3       1 TYR         0.1390
     40 C           8.5380    1.4570    1.0410 C.2       1 TYR         0.2057
     41 O           8.1410    2.5970    1.2750 O.2       1 TYR        -0.3942
     42 CB         10.3540    0.9390   -0.6260 C.3       1 TYR         0.0163
     43 CG         10.7310    0.5090   -2.0320 C.ar      1 TYR        -0.0493
     44 CD1         9.7750    0.0620   -2.9380 C.ar      1 TYR        -0.0685
     45 CD2        12.0540    0.5380   -2.4440 C.ar      1 TYR        -0.0685
     46 CE1        10.1320   -0.3420   -4.2100 C.ar      1 TYR        -0.0398
     47 CE2        12.4180    0.1370   -3.7150 C.ar      1 TYR        -0.0398
     48 CZ         11.4540   -0.3020   -4.5930 C.ar      1 TYR         0.0805
     49 OH         11.8130   -0.7030   -5.8600 O.3       1 TYR        -0.3376
     50 N           8.7030    0.5490    1.9870 N.am      1 GLU        -0.2635
     51 CA          8.4180    0.8540    3.3870 C.3       1 GLU         0.1325
     52 C           9.4450    1.8250    3.9610 C.2       1 GLU         0.2041
     53 O           9.1540    2.5750    4.8930 O.2       1 GLU        -0.3944
     54 CB          8.4020   -0.4290    4.2170 C.3       1 GLU        -0.0008
     55 CG          8.0620   -0.2020    5.6810 C.3       1 GLU         0.0044
     56 CD          8.2890   -1.4370    6.5310 C.2       1 GLU         0.0350
     57 OE1         9.4490   -1.8890    6.6220 O.co2     1 GLU        -0.5690
     58 OE2         7.3060   -1.9520    7.1040 O.co2     1 GLU        -0.5690
     59 N          10.6510    1.7900    3.4090 N.am      1 SER        -0.2616
     60 CA         11.7340    2.6490    3.8710 C.3       1 SER         0.1539
     61 C          11.4690    4.1270    3.5760 C.2       1 SER         0.2062
     62 O          12.1530    4.9990    4.1130 O.2       1 SER        -0.3943
     63 CB         13.0510    2.2180    3.2230 C.3       1 SER         0.0843
     64 OG         13.2340    2.8430    1.9640 O.3       1 SER        -0.3903
     65 N          10.4890    4.4140    2.7220 N.am      1 SER        -0.2615
     66 CA         10.1760    5.7990    2.3800 C.3       1 SER         0.1539
     67 C           8.7370    5.9590    1.8970 C.2       1 SER         0.2062
     68 O           7.9810    4.9920    1.8210 O.2       1 SER        -0.3943
     69 CB         11.1400    6.3060    1.3170 C.3       1 SER         0.0843
     70 OG         11.8700    7.4280    1.7810 O.3       1 SER        -0.3903
     71 N           8.3730    7.1970    1.5680 N.am      1 LEU        -0.2636
     72 CA          7.0310    7.5070    1.0840 C.3       1 LEU         0.1312
     73 C           7.0670    8.0110   -0.3590 C.2       1 LEU         0.2039
     74 O           6.0440    8.4240   -0.9040 O.2       1 LEU        -0.3944
     75 CB          6.3770    8.5690    1.9730 C.3       1 LEU        -0.0101
     76 CG          5.7750    8.0590    3.2850 C.3       1 LEU        -0.0425
     77 CD1         5.0040    9.1700    3.9820 C.3       1 LEU        -0.0625
     78 CD2         4.8690    6.8640    3.0340 C.3       1 LEU        -0.0625
     79 N           8.2490    7.9870   -0.9730 N.am      1 GLU        -0.2636
     80 CA          8.4050    8.4540   -2.3460 C.3       1 GLU         0.1327
     81 C           8.0680    7.3510   -3.3480 C.2       1 GLU         0.2065
     82 O           8.0900    6.1670   -3.0130 O.2       1 GLU        -0.3942
     83 CB          9.8340    8.9490   -2.5770 C.3       1 GLU        -0.0008
     84 CG         10.0210   10.4260   -2.2710 C.3       1 GLU         0.0044
     85 CD         11.3660   10.7240   -1.6360 C.2       1 GLU         0.0350
     86 OE1        11.5440   10.3990   -0.4440 O.co2     1 GLU        -0.5690
     87 OE2        12.2390   11.2830   -2.3320 O.co2     1 GLU        -0.5690
     88 N           7.7560    7.7320   -4.6010 N.am      1 PRO        -0.2498
     89 CA          7.4160    6.7820   -5.6600 C.3       1 PRO         0.1338
     90 C           8.6340    5.9910   -6.1050 C.2       1 PRO         0.2042
     91 O           9.7470    6.5160   -6.1430 O.2       1 PRO        -0.3944
     92 CB          6.8960    7.6680   -6.8050 C.3       1 PRO        -0.0104
     93 CG          6.7270    9.0290   -6.2120 C.3       1 PRO        -0.0281
     94 CD          7.7130    9.1120   -5.0850 C.3       1 PRO         0.0369
     95 N           8.4260    4.7210   -6.4160 N.am      1 TYR        -0.2621
     96 CA          9.5200    3.8570   -6.8270 C.3       1 TYR         0.1392
     97 C           9.1460    3.0190   -8.0490 C.2       1 TYR         0.2082
     98 O           8.4010    2.0450   -7.9380 O.2       1 TYR        -0.3940
     99 CB          9.9090    2.9480   -5.6640 C.3       1 TYR         0.0164
    100 CG         10.9500    3.5540   -4.7440 C.ar      1 TYR        -0.0493
    101 CD1        10.6910    4.7320   -4.0440 C.ar      1 TYR        -0.0685
    102 CD2        12.1910    2.9530   -4.5720 C.ar      1 TYR        -0.0685
    103 CE1        11.6390    5.2850   -3.2040 C.ar      1 TYR        -0.0398
    104 CE2        13.1420    3.5030   -3.7330 C.ar      1 TYR        -0.0398
    105 CZ         12.8610    4.6670   -3.0520 C.ar      1 TYR         0.0805
    106 OH         13.8060    5.2160   -2.2160 O.3       1 TYR        -0.3376
    107 N           9.6650    3.3840   -9.2370 N.am      1 PRO        -0.2497
    108 CA          9.3840    2.6570  -10.4770 C.3       1 PRO         0.1337
    109 C          10.1880    1.3660  -10.5840 C.2       1 PRO         0.2036
    110 O          11.0560    1.0920   -9.7550 O.2       1 PRO        -0.3944
    111 CB          9.8110    3.6450  -11.5600 C.3       1 PRO        -0.0104
    112 CG         10.9020    4.4400  -10.9300 C.3       1 PRO        -0.0281
    113 CD         10.5660    4.5320   -9.4640 C.3       1 PRO         0.0369
    114 N           9.8930    0.5750  -11.6110 N.am      1 ASP        -0.2679
    115 CA         10.5880   -0.6880  -11.8270 C.3       1 ASP         0.1057
    116 C          10.6660   -1.0200  -13.3130 C.2       1 ASP         0.0618
    117 O          11.3720   -1.9870  -13.6670 O.co2     1 ASP        -0.5665
    118 CB          9.8810   -1.8180  -11.0760 C.3       1 ASP         0.0351
    119 CG          8.4290   -1.9630  -11.4860 C.2       1 ASP         0.0387
    120 OD1         7.8660   -0.9910  -12.0320 O.co2     1 ASP        -0.5688
    121 OD2         7.8540   -3.0490  -11.2600 O.co2     1 ASP        -0.5688
    122 OXT        10.0180   -0.3100  -14.1110 O.co2     1 ASP        -0.5665
    123 H1          5.0004    1.1492  -11.7758 H         1 TRP         0.2016
    124 H2          3.7375    1.8406  -10.9780 H         1 TRP         0.2016
    125 H3          4.1394    0.2722  -10.6808 H         1 TRP         0.2016
    126 H4          6.2514    0.9076   -9.7421 H         1 TRP         0.1114
    127 H5          6.4991    2.9156  -11.1638 H         1 TRP         0.0430
    128 H6          6.7111    3.3006   -9.4220 H         1 TRP         0.0430
    129 H7          4.1434    4.1729   -8.2770 H         1 TRP         0.0795
    130 H8          2.6000    6.0295   -9.2369 H         1 TRP         0.2216
    131 H9          5.8393    4.1310  -13.1074 H         1 TRP         0.0540
    132 H10         2.2025    7.2659  -11.7351 H         1 TRP         0.0541
    133 H11         4.8240    5.6843  -14.7323 H         1 TRP         0.0510
    134 H12         3.0315    7.2325  -14.0520 H         1 TRP         0.0530
    135 H13         6.4666    1.5391   -7.5042 H         1 ARG         0.1885
    136 H14         4.0102    2.3299   -6.0867 H         1 ARG         0.0800
    137 H15         3.8882   -0.1671   -6.3537 H         1 ARG         0.0313
    138 H16         3.9065    0.4158   -4.6547 H         1 ARG         0.0313
    139 H17         5.3486   -1.3840   -4.5508 H         1 ARG         0.0301
    140 H18         6.4889   -0.0240   -4.8281 H         1 ARG         0.0301
    141 H19         6.2080   -0.5722   -7.3459 H         1 ARG         0.0689
    142 H20         5.5057   -2.1268   -6.7832 H         1 ARG         0.0689
    143 H21         7.9907   -1.6889   -5.4286 H         1 ARG         0.2642
    144 H22         8.1653   -3.2669   -9.1751 H         1 ARG         0.2615
    145 H23         6.6998   -2.3894   -8.6602 H         1 ARG         0.2615
    146 H24         9.8447   -2.8060   -6.0940 H         1 ARG         0.2615
    147 H25         9.9297   -3.5004   -7.7351 H         1 ARG         0.2615
    148 H26         4.8127    1.7450   -3.5073 H         1 TYR         0.1885
    149 H27         7.3819    3.2649   -3.3329 H         1 TYR         0.0821
    150 H28         6.5803    4.4094   -1.4016 H         1 TYR         0.0453
    151 H29         5.1426    3.3399   -1.2755 H         1 TYR         0.0453
    152 H30         3.7065    3.3837   -3.6398 H         1 TYR         0.0530
    153 H31         6.1245    6.5464   -2.1018 H         1 TYR         0.0530
    154 H32         2.3979    5.0169   -4.9334 H         1 TYR         0.0525
    155 H33         4.8182    8.1769   -3.3983 H         1 TYR         0.0525
    156 H34         3.3642    8.0646   -5.5601 H         1 TYR         0.2458
    157 H35         8.7107    2.8154   -1.5157 H         1 TYR         0.1885
    158 H36         8.4092    0.0245   -0.5538 H         1 TYR         0.0821
    159 H37        10.7782    0.2134    0.0836 H         1 TYR         0.0453
    160 H38        10.7888    1.9320   -0.4391 H         1 TYR         0.0453
    161 H39         8.7329    0.0301   -2.6412 H         1 TYR         0.0530
    162 H40        12.8177    0.8819   -1.7559 H         1 TYR         0.0530
    163 H41         9.3746   -0.6890   -4.9036 H         1 TYR         0.0525
    164 H42        13.4580    0.1681   -4.0190 H         1 TYR         0.0525
    165 H43        11.0375   -0.9748   -6.3366 H         1 TYR         0.2458
    166 H44         9.0289   -0.3636    1.7400 H         1 GLU         0.1883
    167 H45         7.4246    1.3228    3.4443 H         1 GLU         0.0801
    168 H46         9.3976   -0.8932    4.1591 H         1 GLU         0.0330
    169 H47         7.6536   -1.1115    3.7880 H         1 GLU         0.0330
    170 H48         7.0034    0.0875    5.7560 H         1 GLU         0.0433
    171 H49         8.6930    0.6121    6.0671 H         1 GLU         0.0433
    172 H50        10.8217    1.1562    2.6545 H         1 SER         0.1884
    173 H51        11.8239    2.5290    4.9607 H         1 SER         0.0823
    174 H52        13.0416    1.1269    3.0834 H         1 SER         0.0606
    175 H53        13.8841    2.4958    3.8854 H         1 SER         0.0606
    176 H54        14.0576    2.5572    1.5866 H         1 SER         0.2097
    177 H55         9.9605    3.6720    2.3095 H         1 SER         0.1884
    178 H56        10.3024    6.4107    3.2854 H         1 SER         0.0823
    179 H57        10.5685    6.5947    0.4226 H         1 SER         0.0606
    180 H58        11.8443    5.5017    1.0583 H         1 SER         0.0606
    181 H59        12.4623    7.7230    1.0993 H         1 SER         0.2097
    182 H60         9.0396    7.9373    1.6552 H         1 LEU         0.1883
    183 H61         6.4258    6.5893    1.1221 H         1 LEU         0.0800
    184 H62         5.5715    9.0446    1.3942 H         1 LEU         0.0315
    185 H63         7.1421    9.3192    2.2216 H         1 LEU         0.0315
    186 H64         6.5968    7.7394    3.9427 H         1 LEU         0.0298
    187 H65         4.5786    8.7874    4.9215 H         1 LEU         0.0232
    188 H66         4.1920    9.5194    3.3273 H         1 LEU         0.0232
    189 H67         5.6839   10.0064    4.2012 H         1 LEU         0.0232
    190 H68         5.4402    6.0703    2.5302 H         1 LEU         0.0232
    191 H69         4.0263    7.1702    2.3967 H         1 LEU         0.0232
    192 H70         4.4852    6.4869    3.9934 H         1 LEU         0.0232
    193 H71         9.0479    7.6408   -0.4812 H         1 GLU         0.1883
    194 H72         7.7124    9.2932   -2.5072 H         1 GLU         0.0801
    195 H73        10.0963    8.7760   -3.6312 H         1 GLU         0.0330
    196 H74        10.5113    8.3712   -1.9310 H         1 GLU         0.0330
    197 H75         9.2268   10.7462   -1.5806 H         1 GLU         0.0433
    198 H76         9.9413   10.9933   -3.2100 H         1 GLU         0.0433
    199 H77         6.6347    6.0863   -5.3200 H         1 PRO         0.0802
    200 H78         5.9330    7.2888   -7.1775 H         1 PRO         0.0313
    201 H79         7.6230    7.6958   -7.6300 H         1 PRO         0.0313
    202 H80         5.7021    9.1569   -5.8337 H         1 PRO         0.0287
    203 H81         6.9396    9.8031   -6.9640 H         1 PRO         0.0287
    204 H82         8.7003    9.4386   -5.4436 H         1 PRO         0.0524
    205 H83         7.3626    9.7981   -4.2998 H         1 PRO         0.0524
    206 H84         7.4989    4.3493   -6.3672 H         1 TYR         0.1885
    207 H85        10.3831    4.4864   -7.0894 H         1 TYR         0.0821
    208 H86        10.3112    2.0102   -6.0747 H         1 TYR         0.0453
    209 H87         9.0062    2.7324   -5.0737 H         1 TYR         0.0453
    210 H88         9.7310    5.2217   -4.1606 H         1 TYR         0.0530
    211 H89        12.4173    2.0367   -5.1051 H         1 TYR         0.0530
    212 H90        11.4220    6.2013   -2.6669 H         1 TYR         0.0525
    213 H91        14.1050    3.0203   -3.6114 H         1 TYR         0.0525
    214 H92        13.4592    6.0097   -1.8258 H         1 TYR         0.2458
    215 H93         8.3120    2.4235  -10.5560 H         1 PRO         0.0802
    216 H94         8.9713    4.2954  -11.8460 H         1 PRO         0.0313
    217 H95        10.1812    3.1123  -12.4483 H         1 PRO         0.0313
    218 H96        10.9462    5.4453  -11.3744 H         1 PRO         0.0287
    219 H97        11.8696    3.9352  -11.0680 H         1 PRO         0.0287
    220 H98        11.4732    4.4462   -8.8479 H         1 PRO         0.0524
    221 H99        10.0571    5.4805   -9.2373 H         1 PRO         0.0524
    222 H100        9.1768    0.8533  -12.2510 H         1 ASP         0.1876
    223 H101       11.6118   -0.5930  -11.4362 H         1 ASP         0.0745
    224 H102        9.9242   -1.6067   -9.9974 H         1 ASP         0.0471
    225 H103       10.4035   -2.7629  -11.2858 H         1 ASP         0.0471
@<TRIPOS>BOND
     1    1    2 1  
     2    2    3 1  
     3    2    5 1  
     4    3    4 2  
     5    3   15 am 
     6    5    6 1  
     7    6    7 2  
     8    6    8 1  
     9    7    9 1  
    10    8   10 ar 
    11    8   11 ar 
    12    9   10 1  
    13   10   12 ar 
    14   11   13 ar 
    15   12   14 ar 
    16   13   14 ar 
    17   15   16 1  
    18   16   17 1  
    19   16   19 1  
    20   17   18 2  
    21   17   26 am 
    22   19   20 1  
    23   20   21 1  
    24   21   22 1  
    25   22   23 ar 
    26   23   24 ar 
    27   23   25 ar 
    28   26   27 1  
    29   27   28 1  
    30   27   30 1  
    31   28   29 2  
    32   28   38 am 
    33   30   31 1  
    34   31   32 ar 
    35   31   33 ar 
    36   32   34 ar 
    37   33   35 ar 
    38   34   36 ar 
    39   35   36 ar 
    40   36   37 1  
    41   38   39 1  
    42   39   40 1  
    43   39   42 1  
    44   40   41 2  
    45   40   50 am 
    46   42   43 1  
    47   43   44 ar 
    48   43   45 ar 
    49   44   46 ar 
    50   45   47 ar 
    51   46   48 ar 
    52   47   48 ar 
    53   48   49 1  
    54   50   51 1  
    55   51   52 1  
    56   51   54 1  
    57   52   53 2  
    58   52   59 am 
    59   54   55 1  
    60   55   56 1  
    61   56   57 ar 
    62   56   58 ar 
    63   59   60 1  
    64   60   61 1  
    65   60   63 1  
    66   61   62 2  
    67   61   65 am 
    68   63   64 1  
    69   65   66 1  
    70   66   67 1  
    71   66   69 1  
    72   67   68 2  
    73   67   71 am 
    74   69   70 1  
    75   71   72 1  
    76   72   73 1  
    77   72   75 1  
    78   73   74 2  
    79   73   79 am 
    80   75   76 1  
    81   76   77 1  
    82   76   78 1  
    83   79   80 1  
    84   80   81 1  
    85   80   83 1  
    86   81   82 2  
    87   81   88 am 
    88   83   84 1  
    89   84   85 1  
    90   85   86 ar 
    91   85   87 ar 
    92   88   89 1  
    93   88   94 1  
    94   89   90 1  
    95   89   92 1  
    96   90   91 2  
    97   90   95 am 
    98   92   93 1  
    99   93   94 1  
   100   95   96 1  
   101   96   97 1  
   102   96   99 1  
   103   97   98 2  
   104   97  107 am 
   105   99  100 1  
   106  100  101 ar 
   107  100  102 ar 
   108  101  103 ar 
   109  102  104 ar 
   110  103  105 ar 
   111  104  105 ar 
   112  105  106 1  
   113  107  108 1  
   114  107  113 1  
   115  108  109 1  
   116  108  111 1  
   117  109  110 2  
   118  109  114 am 
   119  111  112 1  
   120  112  113 1  
   121  114  115 1  
   122  115  116 1  
   123  115  118 1  
   124  116  117 ar 
   125  116  122 ar 
   126  118  119 1  
   127  119  120 ar 
   128  119  121 ar 
   129    1  123 1  
   130    1  124 1  
   131    1  125 1  
   132    2  126 1  
   133    5  127 1  
   134    5  128 1  
   135    7  129 1  
   136    9  130 1  
   137   11  131 1  
   138   12  132 1  
   139   13  133 1  
   140   14  134 1  
   141   15  135 1  
   142   16  136 1  
   143   19  137 1  
   144   19  138 1  
   145   20  139 1  
   146   20  140 1  
   147   21  141 1  
   148   21  142 1  
   149   22  143 1  
   150   24  144 1  
   151   24  145 1  
   152   25  146 1  
   153   25  147 1  
   154   26  148 1  
   155   27  149 1  
   156   30  150 1  
   157   30  151 1  
   158   32  152 1  
   159   33  153 1  
   160   34  154 1  
   161   35  155 1  
   162   37  156 1  
   163   38  157 1  
   164   39  158 1  
   165   42  159 1  
   166   42  160 1  
   167   44  161 1  
   168   45  162 1  
   169   46  163 1  
   170   47  164 1  
   171   49  165 1  
   172   50  166 1  
   173   51  167 1  
   174   54  168 1  
   175   54  169 1  
   176   55  170 1  
   177   55  171 1  
   178   59  172 1  
   179   60  173 1  
   180   63  174 1  
   181   63  175 1  
   182   64  176 1  
   183   65  177 1  
   184   66  178 1  
   185   69  179 1  
   186   69  180 1  
   187   70  181 1  
   188   71  182 1  
   189   72  183 1  
   190   75  184 1  
   191   75  185 1  
   192   76  186 1  
   193   77  187 1  
   194   77  188 1  
   195   77  189 1  
   196   78  190 1  
   197   78  191 1  
   198   78  192 1  
   199   79  193 1  
   200   80  194 1  
   201   83  195 1  
   202   83  196 1  
   203   84  197 1  
   204   84  198 1  
   205   89  199 1  
   206   92  200 1  
   207   92  201 1  
   208   93  202 1  
   209   93  203 1  
   210   94  204 1  
   211   94  205 1  
   212   95  206 1  
   213   96  207 1  
   214   99  208 1  
   215   99  209 1  
   216  101  210 1  
   217  102  211 1  
   218  103  212 1  
   219  104  213 1  
   220  106  214 1  
   221  108  215 1  
   222  111  216 1  
   223  111  217 1  
   224  112  218 1  
   225  112  219 1  
   226  113  220 1  
   227  113  221 1  
   228  114  222 1  
   229  115  223 1  
   230  118  224 1  
   231  118  225 1  
@<TRIPOS>SUBSTRUCTURE
     1 TRP         1

