1haa_ligand
  -I-interpret- 

227233  0  0  0  0  0  0  0  0999 V2000
    4.5010    1.1870  -10.9010 N   0  3  0  0  0
    5.4240    1.6280   -9.8220 C   0  0  0  0  0
    4.7080    1.6990   -8.4790 C   0  0  0  0  0
    3.4840    1.8160   -8.4230 O   0  0  0  0  0
    5.9870    3.0010  -10.1940 C   0  0  0  0  0
    4.9410    4.0700  -10.3030 C   0  0  0  0  0
    4.1330    4.5320   -9.3050 C   0  0  0  0  0
    4.5930    4.8110  -11.4780 C   0  0  0  0  0
    3.3040    5.5170   -9.7870 N   0  0  0  0  0
    3.5670    5.7060  -11.1190 C   0  0  0  0  0
    5.0500    4.8070  -12.7990 C   0  0  0  0  0
    2.9920    6.5850  -12.0320 C   0  0  0  0  0
    4.4780    5.6800  -13.7050 C   0  0  0  0  0
    3.4590    6.5590  -13.3180 C   0  0  0  0  0
    5.4770    1.6340   -7.3960 N   0  0  0  0  0
    4.9100    1.6980   -6.0550 C   0  0  0  0  0
    5.9070    2.3270   -5.0970 C   0  0  0  0  0
    6.9060    2.9000   -5.5240 O   0  0  0  0  0
    4.5030    0.3030   -5.5720 C   0  0  0  0  0
    5.6740   -0.6170   -5.2690 C   0  0  0  0  0
    6.1870   -1.3030   -6.5240 C   0  0  0  0  0
    7.5300   -1.8420   -6.3370 N   0  0  0  0  0
    8.1960   -2.5200   -7.2700 C   0  0  0  0  0
    7.6460   -2.7420   -8.4570 N   0  0  0  0  0
    9.4140   -2.9760   -7.0140 N   0  0  0  0  0
    5.6400    2.2220   -3.8040 N   0  0  0  0  0
    6.5370    2.7930   -2.8100 C   0  0  0  0  0
    7.0720    1.7120   -1.8880 C   0  0  0  0  0
    6.4320    0.6840   -1.6920 O   0  0  0  0  0
    5.8220    3.8530   -1.9720 C   0  0  0  0  0
    5.0120    4.8470   -2.7770 C   0  0  0  0  0
    3.9560    4.4370   -3.5820 C   0  0  0  0  0
    5.3060    6.2030   -2.7240 C   0  0  0  0  0
    3.2190    5.3520   -4.3100 C   0  0  0  0  0
    4.5740    7.1220   -3.4500 C   0  0  0  0  0
    3.5320    6.6900   -4.2400 C   0  0  0  0  0
    2.7940    7.6010   -4.9580 O   0  0  0  0  0
    8.2370    1.9590   -1.3100 N   0  0  0  0  0
    8.8440    1.0210   -0.3870 C   0  0  0  0  0
    8.5380    1.4570    1.0410 C   0  0  0  0  0
    8.1410    2.5970    1.2750 O   0  0  0  0  0
   10.3540    0.9390   -0.6260 C   0  0  0  0  0
   10.7310    0.5090   -2.0320 C   0  0  0  0  0
    9.7750    0.0620   -2.9380 C   0  0  0  0  0
   12.0540    0.5380   -2.4440 C   0  0  0  0  0
   10.1320   -0.3420   -4.2100 C   0  0  0  0  0
   12.4180    0.1370   -3.7150 C   0  0  0  0  0
   11.4540   -0.3020   -4.5930 C   0  0  0  0  0
   11.8130   -0.7030   -5.8600 O   0  0  0  0  0
    8.7030    0.5490    1.9870 N   0  0  0  0  0
    8.4180    0.8540    3.3870 C   0  0  0  0  0
    9.4450    1.8250    3.9610 C   0  0  0  0  0
    9.1540    2.5750    4.8930 O   0  0  0  0  0
    8.4020   -0.4290    4.2170 C   0  0  0  0  0
    8.0620   -0.2020    5.6810 C   0  0  0  0  0
    8.2890   -1.4370    6.5310 C   0  0  0  0  0
    9.4490   -1.8890    6.6220 O   0  0  0  0  0
    7.3060   -1.9520    7.1040 O   0  0  0  0  0
   10.6510    1.7900    3.4090 N   0  0  0  0  0
   11.7340    2.6490    3.8710 C   0  0  0  0  0
   11.4690    4.1270    3.5760 C   0  0  0  0  0
   12.1530    4.9990    4.1130 O   0  0  0  0  0
   13.0510    2.2180    3.2230 C   0  0  0  0  0
   13.2340    2.8430    1.9640 O   0  0  0  0  0
   10.4890    4.4140    2.7220 N   0  0  0  0  0
   10.1760    5.7990    2.3800 C   0  0  0  0  0
    8.7370    5.9590    1.8970 C   0  0  0  0  0
    7.9810    4.9920    1.8210 O   0  0  0  0  0
   11.1400    6.3060    1.3170 C   0  0  0  0  0
   11.8700    7.4280    1.7810 O   0  0  0  0  0
    8.3730    7.1970    1.5680 N   0  0  0  0  0
    7.0310    7.5070    1.0840 C   0  0  0  0  0
    7.0670    8.0110   -0.3590 C   0  0  0  0  0
    6.0440    8.4240   -0.9040 O   0  0  0  0  0
    6.3770    8.5690    1.9730 C   0  0  0  0  0
    5.7750    8.0590    3.2850 C   0  0  0  0  0
    5.0040    9.1700    3.9820 C   0  0  0  0  0
    4.8690    6.8640    3.0340 C   0  0  0  0  0
    8.2490    7.9870   -0.9730 N   0  0  0  0  0
    8.4050    8.4540   -2.3460 C   0  0  0  0  0
    8.0680    7.3510   -3.3480 C   0  0  0  0  0
    8.0900    6.1670   -3.0130 O   0  0  0  0  0
    9.8340    8.9490   -2.5770 C   0  0  0  0  0
   10.0210   10.4260   -2.2710 C   0  0  0  0  0
   11.3660   10.7240   -1.6360 C   0  0  0  0  0
   11.5440   10.3990   -0.4440 O   0  0  0  0  0
   12.2390   11.2830   -2.3320 O   0  0  0  0  0
    7.7560    7.7320   -4.6010 N   0  0  0  0  0
    7.4160    6.7820   -5.6600 C   0  0  0  0  0
    8.6340    5.9910   -6.1050 C   0  0  0  0  0
    9.7470    6.5160   -6.1430 O   0  0  0  0  0
    6.8960    7.6680   -6.8050 C   0  0  0  0  0
    6.7270    9.0290   -6.2120 C   0  0  0  0  0
    7.7130    9.1120   -5.0850 C   0  0  0  0  0
    8.4260    4.7210   -6.4160 N   0  0  0  0  0
    9.5200    3.8570   -6.8270 C   0  0  0  0  0
    9.1460    3.0190   -8.0490 C   0  0  0  0  0
    8.4010    2.0450   -7.9380 O   0  0  0  0  0
    9.9090    2.9480   -5.6640 C   0  0  0  0  0
   10.9500    3.5540   -4.7440 C   0  0  0  0  0
   10.6910    4.7320   -4.0440 C   0  0  0  0  0
   12.1910    2.9530   -4.5720 C   0  0  0  0  0
   11.6390    5.2850   -3.2040 C   0  0  0  0  0
   13.1420    3.5030   -3.7330 C   0  0  0  0  0
   12.8610    4.6670   -3.0520 C   0  0  0  0  0
   13.8060    5.2160   -2.2160 O   0  0  0  0  0
    9.6650    3.3840   -9.2370 N   0  0  0  0  0
    9.3840    2.6570  -10.4770 C   0  0  0  0  0
   10.1880    1.3660  -10.5840 C   0  0  0  0  0
   11.0560    1.0920   -9.7550 O   0  0  0  0  0
    9.8110    3.6450  -11.5600 C   0  0  0  0  0
   10.9020    4.4400  -10.9300 C   0  0  0  0  0
   10.5660    4.5320   -9.4640 C   0  0  0  0  0
    9.8930    0.5750  -11.6110 N   0  0  0  0  0
   10.5880   -0.6880  -11.8270 C   0  0  0  0  0
   10.6660   -1.0200  -13.3130 C   0  0  0  0  0
   11.3720   -1.9870  -13.6670 O   0  0  0  0  0
    9.8810   -1.8180  -11.0760 C   0  0  0  0  0
    8.4290   -1.9630  -11.4860 C   0  0  0  0  0
    7.8660   -0.9910  -12.0320 O   0  0  0  0  0
    7.8540   -3.0490  -11.2600 O   0  0  0  0  0
   10.0180   -0.3100  -14.1110 O   0  0  0  0  0
    4.1177    0.2715  -10.6658 H   0  0  0  0  0
    3.7414    1.8614  -10.9937 H   0  0  0  0  0
    5.0130    1.1266  -11.7811 H   0  0  0  0  0
    6.2326    0.9036   -9.7242 H   0  0  0  0  0
    6.4601    2.9061  -11.1714 H   0  0  0  0  0
    6.6754    3.2971   -9.4024 H   0  0  0  0  0
    4.1434    4.1725   -8.2760 H   0  0  0  0  0
    5.8436    4.1272  -13.1091 H   0  0  0  0  0
    2.1981    7.2696  -11.7334 H   0  0  0  0  0
    4.8259    5.6843  -14.7380 H   0  0  0  0  0
    3.0291    7.2362  -14.0560 H   0  0  0  0  0
    6.4864    1.5372   -7.5064 H   0  0  0  0  0
    4.0147    2.3190   -6.0848 H   0  0  0  0  0
    3.9289   -0.1605   -6.3743 H   0  0  0  0  0
    3.9475    0.4334   -4.6433 H   0  0  0  0  0
    5.3375   -1.3836   -4.5710 H   0  0  0  0  0
    6.4824   -0.0182   -4.8494 H   0  0  0  0  0
    6.2223   -0.5665   -7.3268 H   0  0  0  0  0
    5.5165   -2.1290   -6.7612 H   0  0  0  0  0
    7.9863   -1.6904   -5.4374 H   0  0  0  0  0
    8.1603   -3.2617   -9.1682 H   0  0  0  0  0
    6.7090   -2.3929   -8.6582 H   0  0  0  0  0
    9.8406   -2.8076   -6.1029 H   0  0  0  0  0
    4.7962    1.7355   -3.5013 H   0  0  0  0  0
    7.3650    3.2581   -3.3449 H   0  0  0  0  0
    6.5922    4.4187   -1.4478 H   0  0  0  0  0
    5.1251    3.3274   -1.3191 H   0  0  0  0  0
    3.7052    3.3779   -3.6402 H   0  0  0  0  0
    6.1291    6.5483   -2.0983 H   0  0  0  0  0
    2.3934    5.0151   -4.9369 H   0  0  0  0  0
    4.8195    8.1827   -3.3980 H   0  0  0  0  0
    3.1374    8.4837   -4.8016 H   0  0  0  0  0
    8.7202    2.8325   -1.5198 H   0  0  0  0  0
    8.4294    0.0262   -0.5498 H   0  0  0  0  0
   10.7508    0.1903    0.0596 H   0  0  0  0  0
   10.7615    1.9382   -0.4721 H   0  0  0  0  0
    8.7271    0.0299   -2.6396 H   0  0  0  0  0
   12.8219    0.8838   -1.7521 H   0  0  0  0  0
    9.3704   -0.6909   -4.9074 H   0  0  0  0  0
   13.4638    0.1683   -4.0207 H   0  0  0  0  0
   12.7630   -0.6141   -5.9654 H   0  0  0  0  0
    9.0354   -0.3818    1.7350 H   0  0  0  0  0
    7.4362    1.3253    3.4315 H   0  0  0  0  0
    9.4036   -0.8571    4.1765 H   0  0  0  0  0
    7.6328   -1.0788    3.7997 H   0  0  0  0  0
    7.0054    0.0584    5.7434 H   0  0  0  0  0
    8.7116    0.5882    6.0575 H   0  0  0  0  0
    6.5162   -1.4463    6.8987 H   0  0  0  0  0
   10.8252    1.1436    2.6395 H   0  0  0  0  0
   11.7982    2.5391    4.9535 H   0  0  0  0  0
   13.0278    1.1384    3.0745 H   0  0  0  0  0
   13.8719    2.5099    3.8780 H   0  0  0  0  0
   14.0663    2.5542    1.5826 H   0  0  0  0  0
    9.9499    3.6572    2.3012 H   0  0  0  0  0
   10.2866    6.3923    3.2877 H   0  0  0  0  0
   10.5656    6.6031    0.4396 H   0  0  0  0  0
   11.8431    5.5087    1.0761 H   0  0  0  0  0
   12.4686    7.7261    1.0922 H   0  0  0  0  0
    9.0529    7.9521    1.6569 H   0  0  0  0  0
    6.4462    6.5879    1.1201 H   0  0  0  0  0
    5.5515    8.9873    1.3971 H   0  0  0  0  0
    7.1657    9.2695    2.2475 H   0  0  0  0  0
    6.5909    7.7399    3.9335 H   0  0  0  0  0
    5.6788    9.9982    4.1986 H   0  0  0  0  0
    4.1998    9.5153    3.3323 H   0  0  0  0  0
    4.5830    8.7897    4.9127 H   0  0  0  0  0
    4.0595    7.1574    2.3656 H   0  0  0  0  0
    5.4470    6.0613    2.5762 H   0  0  0  0  0
    4.4533    6.5196    3.9809 H   0  0  0  0  0
    9.0639    7.6338   -0.4713 H   0  0  0  0  0
    7.7090    9.2785   -2.5003 H   0  0  0  0  0
   10.0654    8.8012   -3.6318 H   0  0  0  0  0
   10.4867    8.3903   -1.9062 H   0  0  0  0  0
    9.2441   10.7238   -1.5668 H   0  0  0  0  0
    9.9655   10.9733   -3.2120 H   0  0  0  0  0
   11.8914   11.4415   -3.2127 H   0  0  0  0  0
    6.6855    6.0427   -5.3313 H   0  0  0  0  0
    5.9570    7.2888   -7.2083 H   0  0  0  0  0
    7.5898    7.6821   -7.6456 H   0  0  0  0  0
    5.7076    9.1823   -5.8578 H   0  0  0  0  0
    6.9065    9.8082   -6.9527 H   0  0  0  0  0
    8.6881    9.4862   -5.3969 H   0  0  0  0  0
    7.4225    9.8263   -4.3146 H   0  0  0  0  0
    7.4804    4.3419   -6.3662 H   0  0  0  0  0
   10.3670    4.4836   -7.1065 H   0  0  0  0  0
   10.3360    2.0390   -6.0877 H   0  0  0  0  0
    9.0112    2.7721   -5.0715 H   0  0  0  0  0
    9.7256    5.2244   -4.1612 H   0  0  0  0  0
   12.4186    2.0316   -5.1081 H   0  0  0  0  0
   11.4208    6.2063   -2.6639 H   0  0  0  0  0
   14.1103    3.0176   -3.6108 H   0  0  0  0  0
   14.5943    4.6681   -2.2224 H   0  0  0  0  0
    8.3413    2.3473  -10.5471 H   0  0  0  0  0
    8.9838    4.2744  -11.8881 H   0  0  0  0  0
   10.1448    3.1392  -12.4660 H   0  0  0  0  0
   10.9743    5.4308  -11.3785 H   0  0  0  0  0
   11.8710    3.9643  -11.0810 H   0  0  0  0  0
   11.4530    4.4951   -8.8316 H   0  0  0  0  0
   10.1009    5.4827   -9.2035 H   0  0  0  0  0
    9.1625    0.8588  -12.2638 H   0  0  0  0  0
   11.6030   -0.5852  -11.4433 H   0  0  0  0  0
    9.9096   -1.5855  -10.0115 H   0  0  0  0  0
   10.3929   -2.7513  -11.3106 H   0  0  0  0  0
    8.4683   -3.6530  -10.8364 H   0  0  0  0  0
    9.5496    0.3715  -13.6235 H   0  0  0  0  0
  1  2  1  0  0  0
  2  3  1  0  0  0
  2  5  1  0  0  0
  3  4  2  0  0  0
  3 15  1  0  0  0
  5  6  1  0  0  0
  6  7  4  0  0  0
  6  8  4  0  0  0
  7  9  4  0  0  0
  8 10  4  0  0  0
  8 11  4  0  0  0
  9 10  4  0  0  0
 10 12  4  0  0  0
 11 13  4  0  0  0
 12 14  4  0  0  0
 13 14  4  0  0  0
 15 16  1  0  0  0
 16 17  1  0  0  0
 16 19  1  0  0  0
 17 18  2  0  0  0
 17 26  1  0  0  0
 19 20  1  0  0  0
 20 21  1  0  0  0
 21 22  1  0  0  0
 22 23  1  0  0  0
 23 24  1  0  0  0
 23 25  2  0  0  0
 26 27  1  0  0  0
 27 28  1  0  0  0
 27 30  1  0  0  0
 28 29  2  0  0  0
 28 38  1  0  0  0
 30 31  1  0  0  0
 31 32  4  0  0  0
 31 33  4  0  0  0
 32 34  4  0  0  0
 33 35  4  0  0  0
 34 36  4  0  0  0
 35 36  4  0  0  0
 36 37  1  0  0  0
 38 39  1  0  0  0
 39 40  1  0  0  0
 39 42  1  0  0  0
 40 41  2  0  0  0
 40 50  1  0  0  0
 42 43  1  0  0  0
 43 44  4  0  0  0
 43 45  4  0  0  0
 44 46  4  0  0  0
 45 47  4  0  0  0
 46 48  4  0  0  0
 47 48  4  0  0  0
 48 49  1  0  0  0
 50 51  1  0  0  0
 51 52  1  0  0  0
 51 54  1  0  0  0
 52 53  2  0  0  0
 52 59  1  0  0  0
 54 55  1  0  0  0
 55 56  1  0  0  0
 56 57  2  0  0  0
 56 58  1  0  0  0
 59 60  1  0  0  0
 60 61  1  0  0  0
 60 63  1  0  0  0
 61 62  2  0  0  0
 61 65  1  0  0  0
 63 64  1  0  0  0
 65 66  1  0  0  0
 66 67  1  0  0  0
 66 69  1  0  0  0
 67 68  2  0  0  0
 67 71  1  0  0  0
 69 70  1  0  0  0
 71 72  1  0  0  0
 72 73  1  0  0  0
 72 75  1  0  0  0
 73 74  2  0  0  0
 73 79  1  0  0  0
 75 76  1  0  0  0
 76 77  1  0  0  0
 76 78  1  0  0  0
 79 80  1  0  0  0
 80 81  1  0  0  0
 80 83  1  0  0  0
 81 82  2  0  0  0
 81 88  1  0  0  0
 83 84  1  0  0  0
 84 85  1  0  0  0
 85 86  2  0  0  0
 85 87  1  0  0  0
 88 89  1  0  0  0
 88 94  1  0  0  0
 89 90  1  0  0  0
 89 92  1  0  0  0
 90 91  2  0  0  0
 90 95  1  0  0  0
 92 93  1  0  0  0
 93 94  1  0  0  0
 95 96  1  0  0  0
 96 97  1  0  0  0
 96 99  1  0  0  0
 97 98  2  0  0  0
 97107  1  0  0  0
 99100  1  0  0  0
100101  4  0  0  0
100102  4  0  0  0
101103  4  0  0  0
102104  4  0  0  0
103105  4  0  0  0
104105  4  0  0  0
105106  1  0  0  0
107108  1  0  0  0
107113  1  0  0  0
108109  1  0  0  0
108111  1  0  0  0
109110  2  0  0  0
109114  1  0  0  0
111112  1  0  0  0
112113  1  0  0  0
114115  1  0  0  0
115116  1  0  0  0
115118  1  0  0  0
116117  2  0  0  0
116122  1  0  0  0
118119  1  0  0  0
119120  2  0  0  0
119121  1  0  0  0
  1123  1  0  0  0
  1124  1  0  0  0
  1125  1  0  0  0
  2126  1  0  0  0
  5127  1  0  0  0
  5128  1  0  0  0
  7129  1  0  0  0
 11130  1  0  0  0
 12131  1  0  0  0
 13132  1  0  0  0
 14133  1  0  0  0
 15134  1  0  0  0
 16135  1  0  0  0
 19136  1  0  0  0
 19137  1  0  0  0
 20138  1  0  0  0
 20139  1  0  0  0
 21140  1  0  0  0
 21141  1  0  0  0
 22142  1  0  0  0
 24143  1  0  0  0
 24144  1  0  0  0
 25145  1  0  0  0
 26146  1  0  0  0
 27147  1  0  0  0
 30148  1  0  0  0
 30149  1  0  0  0
 32150  1  0  0  0
 33151  1  0  0  0
 34152  1  0  0  0
 35153  1  0  0  0
 37154  1  0  0  0
 38155  1  0  0  0
 39156  1  0  0  0
 42157  1  0  0  0
 42158  1  0  0  0
 44159  1  0  0  0
 45160  1  0  0  0
 46161  1  0  0  0
 47162  1  0  0  0
 49163  1  0  0  0
 50164  1  0  0  0
 51165  1  0  0  0
 54166  1  0  0  0
 54167  1  0  0  0
 55168  1  0  0  0
 55169  1  0  0  0
 58170  1  0  0  0
 59171  1  0  0  0
 60172  1  0  0  0
 63173  1  0  0  0
 63174  1  0  0  0
 64175  1  0  0  0
 65176  1  0  0  0
 66177  1  0  0  0
 69178  1  0  0  0
 69179  1  0  0  0
 70180  1  0  0  0
 71181  1  0  0  0
 72182  1  0  0  0
 75183  1  0  0  0
 75184  1  0  0  0
 76185  1  0  0  0
 77186  1  0  0  0
 77187  1  0  0  0
 77188  1  0  0  0
 78189  1  0  0  0
 78190  1  0  0  0
 78191  1  0  0  0
 79192  1  0  0  0
 80193  1  0  0  0
 83194  1  0  0  0
 83195  1  0  0  0
 84196  1  0  0  0
 84197  1  0  0  0
 87198  1  0  0  0
 89199  1  0  0  0
 92200  1  0  0  0
 92201  1  0  0  0
 93202  1  0  0  0
 93203  1  0  0  0
 94204  1  0  0  0
 94205  1  0  0  0
 95206  1  0  0  0
 96207  1  0  0  0
 99208  1  0  0  0
 99209  1  0  0  0
101210  1  0  0  0
102211  1  0  0  0
103212  1  0  0  0
104213  1  0  0  0
106214  1  0  0  0
108215  1  0  0  0
111216  1  0  0  0
111217  1  0  0  0
112218  1  0  0  0
112219  1  0  0  0
113220  1  0  0  0
113221  1  0  0  0
114222  1  0  0  0
115223  1  0  0  0
118224  1  0  0  0
118225  1  0  0  0
121226  1  0  0  0
122227  1  0  0  0
M  END
$$$$
