1g50_ligand
  -I-interpret- 

 44 47  0  0  0  0  0  0  0  0999 V2000
  104.0100   17.3780   24.9290 C   0  0  0  0  0
  102.8460   17.9870   25.5110 C   0  0  0  0  0
  101.5290   17.4880   25.1790 C   0  0  0  0  0
  100.3780   18.0690   25.7290 O   0  0  0  0  0
  101.3860   16.3980   24.2750 C   0  0  0  0  0
  102.5170   15.7810   23.6850 C   0  0  0  0  0
  102.2810   14.6270   22.7180 C   0  0  0  0  0
  103.5620   13.9870   22.0720 C   0  0  0  0  0
  104.8120   14.0540   22.9540 C   0  0  0  0  0
  105.1190   15.5650   23.3380 C   0  0  0  0  0
  103.8780   16.2620   24.0080 C   0  0  0  0  0
  106.4090   15.5880   24.2050 C   0  0  0  0  0
  107.6470   14.9140   23.5370 C   0  0  0  0  0
  107.3650   13.4590   23.1300 C   0  0  0  0  0
  106.0610   13.4280   22.2360 C   0  0  0  0  0
  106.0620   11.9820   21.7250 C   0  0  0  0  0
  107.5710   11.7490   21.3410 C   0  0  0  0  0
  108.3520   12.8450   22.1120 C   0  0  0  0  0
  109.5470   12.2750   22.6740 O   0  0  0  0  0
  107.3140   12.5550   24.4260 C   0  0  0  0  0
  105.0007   17.7565   25.1806 H   0  0  0  0  0
  102.9549   18.8234   26.2014 H   0  0  0  0  0
   99.6011   17.6119   25.3987 H   0  0  0  0  0
  100.3887   16.0313   24.0322 H   0  0  0  0  0
  101.6976   15.0365   21.8934 H   0  0  0  0  0
  101.8068   13.8362   23.2992 H   0  0  0  0  0
  103.7791   14.5499   21.1642 H   0  0  0  0  0
  103.3440   12.9324   21.9038 H   0  0  0  0  0
  104.6159   13.4743   23.8560 H   0  0  0  0  0
  105.3026   16.1597   22.4431 H   0  0  0  0  0
  106.1926   15.0284   25.1150 H   0  0  0  0  0
  106.6649   16.6347   24.3697 H   0  0  0  0  0
  108.4637   14.9125   24.2589 H   0  0  0  0  0
  107.8954   15.4764   22.6369 H   0  0  0  0  0
  106.0231   14.0879   21.3693 H   0  0  0  0  0
  105.3822   11.8276   20.8871 H   0  0  0  0  0
  105.6978   11.2700   22.4656 H   0  0  0  0  0
  107.7306   11.8190   20.2650 H   0  0  0  0  0
  107.9072   10.7475   21.6093 H   0  0  0  0  0
  108.7099   13.6556   21.4773 H   0  0  0  0  0
  110.0938   11.9212   21.9687 H   0  0  0  0  0
  108.2713   12.6108   24.9442 H   0  0  0  0  0
  106.5216   12.9107   25.0846 H   0  0  0  0  0
  107.1141   11.5225   24.1396 H   0  0  0  0  0
  1  2  4  0  0  0
  1 11  4  0  0  0
  2  3  4  0  0  0
  3  4  1  0  0  0
  3  5  4  0  0  0
  5  6  4  0  0  0
  6  7  1  0  0  0
  6 11  4  0  0  0
  7  8  1  0  0  0
  8  9  1  0  0  0
  9 10  1  0  0  0
  9 15  1  0  0  0
 10 11  1  0  0  0
 10 12  1  0  0  0
 12 13  1  0  0  0
 13 14  1  0  0  0
 14 15  1  0  0  0
 14 18  1  0  0  0
 14 20  1  0  0  0
 15 16  1  0  0  0
 16 17  1  0  0  0
 17 18  1  0  0  0
 18 19  1  0  0  0
  1 21  1  0  0  0
  2 22  1  0  0  0
  4 23  1  0  0  0
  5 24  1  0  0  0
  7 25  1  0  0  0
  7 26  1  0  0  0
  8 27  1  0  0  0
  8 28  1  0  0  0
  9 29  1  0  0  0
 10 30  1  0  0  0
 12 31  1  0  0  0
 12 32  1  0  0  0
 13 33  1  0  0  0
 13 34  1  0  0  0
 15 35  1  0  0  0
 16 36  1  0  0  0
 16 37  1  0  0  0
 17 38  1  0  0  0
 17 39  1  0  0  0
 18 40  1  0  0  0
 19 41  1  0  0  0
 20 42  1  0  0  0
 20 43  1  0  0  0
 20 44  1  0  0  0
M  END
$$$$
