2gg3_ligand
  -I-interpret- 

 24 25  0  0  0  0  0  0  0  0999 V2000
   -8.4270   -1.7810    7.6520 F   0  0  0  0  0
   -7.1880   -1.4290    8.0680 C   0  0  0  0  0
   -6.0540   -2.0670    7.5690 C   0  0  0  0  0
   -4.7900   -1.6780    8.0160 C   0  0  0  0  0
   -4.6830   -0.6810    8.9910 C   0  0  0  0  0
   -5.8130   -0.0250    9.4630 C   0  0  0  0  0
   -7.0660   -0.4170    9.0120 C   0  0  0  0  0
   -3.4480   -0.2000    9.4460 N   0  0  0  0  0
   -2.4850   -0.4760    8.7240 N   0  0  0  0  0
   -1.2090   -0.0390    8.9890 C   0  0  0  0  0
   -0.6660    0.8020   10.0640 C   0  0  0  0  0
   -1.3420    1.3480   11.1300 N   0  0  0  0  0
    0.6700    0.9860    9.8930 N   0  0  0  0  0
    1.0850    0.3020    8.7360 N   0  0  0  0  0
   -0.0100   -0.2930    8.1920 C   0  0  0  0  0
    0.0010   -1.0490    7.0650 N   0  0  0  0  0
   -6.1534   -2.8654    6.8337 H   0  0  0  0  0
   -3.8944   -2.1471    7.6087 H   0  0  0  0  0
   -5.7167    0.7898   10.1806 H   0  0  0  0  0
   -7.9592    0.0720    9.4007 H   0  0  0  0  0
   -2.3426    1.1824   11.2382 H   0  0  0  0  0
   -0.8427    1.9185   11.8124 H   0  0  0  0  0
   -0.8618   -1.4777    6.7300 H   0  0  0  0  0
    0.8720   -1.1885    6.5529 H   0  0  0  0  0
  1  2  1  0  0  0
  2  3  4  0  0  0
  2  7  4  0  0  0
  3  4  4  0  0  0
  4  5  4  0  0  0
  5  6  4  0  0  0
  5  8  1  0  0  0
  6  7  4  0  0  0
  8  9  2  0  0  0
  9 10  1  0  0  0
 10 11  4  0  0  0
 10 15  4  0  0  0
 11 12  1  0  0  0
 11 13  4  0  0  0
 13 14  4  0  0  0
 14 15  4  0  0  0
 15 16  1  0  0  0
  3 17  1  0  0  0
  4 18  1  0  0  0
  6 19  1  0  0  0
  7 20  1  0  0  0
 12 21  1  0  0  0
 12 22  1  0  0  0
 16 23  1  0  0  0
 16 24  1  0  0  0
M  END
$$$$
