### 
### Created by X-TOOL on Mon Sep 10 21:12:49 2018
### 

@<TRIPOS>MOLECULE
1mpl_ligand
   42    41     1     0     0
SMALL
GAST_HUCK


@<TRIPOS>ATOM
      1 N2         25.9390  -19.0030   39.5930 N.4       1 RE1         0.2357
      2 C4         25.3040  -17.6030   39.5320 C.3       1 RE1         0.0544
      3 C5         24.6200  -17.4960   38.1570 C.2       1 RE1         0.2231
      4 N3         24.2120  -16.2480   37.8540 N.am      1 RE1        -0.2670
      5 C6         23.4880  -15.8720   36.6450 C.3       1 RE1         0.0945
      6 C7         22.0810  -15.3450   36.9370 C.3       1 RE1        -0.0178
      7 C8         21.1890  -16.3060   37.7450 C.3       1 RE1        -0.0474
      8 C9         19.7620  -15.6290   37.7520 C.3       1 RE1        -0.0359
      9 C10        19.6300  -14.3000   38.4860 C.3       1 RE1         0.0373
     10 C11        18.1720  -13.9100   38.6880 C.2       1 RE1         0.1774
     11 N4         17.6430  -13.1560   37.7310 N.am      1 RE1        -0.2687
     12 C12        16.2350  -12.6980   37.8010 C.3       1 RE1         0.1009
     13 P1         16.3130  -10.9150   38.1530 P.3       1 RE1        -0.0040
     14 O3         24.4750  -18.4380   37.4300 O.2       1 RE1        -0.3911
     15 C13        24.2780  -14.7670   35.9400 C.2       1 RE1         0.0601
     16 O4         24.9820  -13.9420   36.5820 O.co2     1 RE1        -0.5666
     17 O5         24.0680  -14.7580   34.7190 O.co2     1 RE1        -0.5666
     18 O6         17.5670  -14.3060   39.6410 O.2       1 RE1        -0.3970
     19 C14        15.4860  -12.9790   36.4740 C.3       1 RE1        -0.0256
     20 O7         16.7700  -10.6740   39.5420 O.co2     1 RE1        -0.6195
     21 O8         16.9810  -10.1990   37.0360 O.co2     1 RE1        -0.6195
     22 H1         26.4025  -19.1233   40.4800 H         1 RE1         0.2012
     23 H2         26.6102  -19.1003   38.8473 H         1 RE1         0.2012
     24 H3         25.2204  -19.7026   39.4918 H         1 RE1         0.2012
     25 H4         26.0790  -16.8289   39.6327 H         1 RE1         0.1061
     26 H5         24.5624  -17.4862   40.3360 H         1 RE1         0.1061
     27 H6         24.4221  -15.5227   38.5096 H         1 RE1         0.1876
     28 H7         23.4097  -16.7511   35.9885 H         1 RE1         0.0726
     29 H8         21.5846  -15.1427   35.9765 H         1 RE1         0.0305
     30 H9         22.1771  -14.4077   37.5047 H         1 RE1         0.0305
     31 H10        21.5697  -16.4165   38.7711 H         1 RE1         0.0268
     32 H11        21.1464  -17.2930   37.2614 H         1 RE1         0.0268
     33 H12        19.0612  -16.3368   38.2188 H         1 RE1         0.0290
     34 H13        19.4697  -15.4602   36.7051 H         1 RE1         0.0290
     35 H14        20.1302  -13.5167   37.8976 H         1 RE1         0.0502
     36 H15        20.1153  -14.3862   39.4694 H         1 RE1         0.0502
     37 H16        18.2058  -12.8921   36.9477 H         1 RE1         0.1869
     38 H17        15.7133  -13.2174   38.6183 H         1 RE1         0.0759
     39 H18        15.3621  -10.5810   38.1374 H         1 RE1         0.1507
     40 H19        15.4571  -14.0634   36.2919 H         1 RE1         0.0268
     41 H20        16.0103  -12.4818   35.6446 H         1 RE1         0.0268
     42 H21        14.4589  -12.5914   36.5435 H         1 RE1         0.0268
@<TRIPOS>BOND
     1    1    2 1  
     2    2    3 1  
     3    3    4 am 
     4    3   14 2  
     5    4    5 1  
     6    5    6 1  
     7    5   15 1  
     8    6    7 1  
     9    7    8 1  
    10    8    9 1  
    11    9   10 1  
    12   10   11 am 
    13   10   18 2  
    14   11   12 1  
    15   12   13 1  
    16   12   19 1  
    17   13   20 ar 
    18   13   21 ar 
    19   15   16 ar 
    20   15   17 ar 
    21    1   22 1  
    22    1   23 1  
    23    1   24 1  
    24    2   25 1  
    25    2   26 1  
    26    4   27 1  
    27    5   28 1  
    28    6   29 1  
    29    6   30 1  
    30    7   31 1  
    31    7   32 1  
    32    8   33 1  
    33    8   34 1  
    34    9   35 1  
    35    9   36 1  
    36   11   37 1  
    37   12   38 1  
    38   13   39 1  
    39   19   40 1  
    40   19   41 1  
    41   19   42 1  
@<TRIPOS>SUBSTRUCTURE
     1 RE1         1

