1mpl_ligand
  -I-interpret- 

 43 42  0  0  0  0  0  0  0  0999 V2000
   25.9390  -19.0030   39.5930 N   0  3  0  0  0
   25.3040  -17.6030   39.5320 C   0  0  0  0  0
   24.6200  -17.4960   38.1570 C   0  0  0  0  0
   24.2120  -16.2480   37.8540 N   0  0  0  0  0
   23.4880  -15.8720   36.6450 C   0  0  0  0  0
   22.0810  -15.3450   36.9370 C   0  0  0  0  0
   21.1890  -16.3060   37.7450 C   0  0  0  0  0
   19.7620  -15.6290   37.7520 C   0  0  0  0  0
   19.6300  -14.3000   38.4860 C   0  0  0  0  0
   18.1720  -13.9100   38.6880 C   0  0  0  0  0
   17.6430  -13.1560   37.7310 N   0  0  0  0  0
   16.2350  -12.6980   37.8010 C   0  0  0  0  0
   16.3130  -10.9150   38.1530 P   0  0  0  0  0
   24.4750  -18.4380   37.4300 O   0  0  0  0  0
   24.2780  -14.7670   35.9400 C   0  0  0  0  0
   24.9820  -13.9420   36.5820 O   0  0  0  0  0
   24.0680  -14.7580   34.7190 O   0  0  0  0  0
   17.5670  -14.3060   39.6410 O   0  0  0  0  0
   15.4860  -12.9790   36.4740 C   0  0  0  0  0
   16.7700  -10.6740   39.5420 O   0  0  0  0  0
   16.9810  -10.1990   37.0360 O   0  0  0  0  0
   26.4077  -19.1236   40.4909 H   0  0  0  0  0
   25.2110  -19.7100   39.4904 H   0  0  0  0  0
   26.6179  -19.1003   38.8380 H   0  0  0  0  0
   26.0580  -16.8256   39.6555 H   0  0  0  0  0
   24.5844  -17.4642   40.3389 H   0  0  0  0  0
   24.4263  -15.5082   38.5227 H   0  0  0  0  0
   23.3850  -16.7645   36.0279 H   0  0  0  0  0
   21.5930  -15.1928   35.9743 H   0  0  0  0  0
   22.1983  -14.4418   37.5358 H   0  0  0  0  0
   21.5694  -16.4578   38.7551 H   0  0  0  0  0
   21.1620  -17.3015   37.3019 H   0  0  0  0  0
   19.1055  -16.3243   38.2752 H   0  0  0  0  0
   19.5282  -15.4171   36.7087 H   0  0  0  0  0
   20.1121  -13.5276   37.8868 H   0  0  0  0  0
   20.0972  -14.4010   39.4656 H   0  0  0  0  0
   18.2171  -12.8868   36.9320 H   0  0  0  0  0
   15.6808  -13.2309   38.5736 H   0  0  0  0  0
   24.9791  -14.1767   37.5129 H   0  0  0  0  0
   14.4685  -12.5944   36.5441 H   0  0  0  0  0
   16.0064  -12.4858   35.6530 H   0  0  0  0  0
   15.4580  -14.0538   36.2946 H   0  0  0  0  0
   16.5771  -10.4578   36.2045 H   0  0  0  0  0
  1  2  1  0  0  0
  2  3  1  0  0  0
  3  4  1  0  0  0
  3 14  2  0  0  0
  4  5  1  0  0  0
  5  6  1  0  0  0
  5 15  1  0  0  0
  6  7  1  0  0  0
  7  8  1  0  0  0
  8  9  1  0  0  0
  9 10  1  0  0  0
 10 11  1  0  0  0
 10 18  2  0  0  0
 11 12  1  0  0  0
 12 13  1  0  0  0
 12 19  1  0  0  0
 13 20  2  0  0  0
 13 21  1  0  0  0
 15 16  1  0  0  0
 15 17  2  0  0  0
  1 22  1  0  0  0
  1 23  1  0  0  0
  1 24  1  0  0  0
  2 25  1  0  0  0
  2 26  1  0  0  0
  4 27  1  0  0  0
  5 28  1  0  0  0
  6 29  1  0  0  0
  6 30  1  0  0  0
  7 31  1  0  0  0
  7 32  1  0  0  0
  8 33  1  0  0  0
  8 34  1  0  0  0
  9 35  1  0  0  0
  9 36  1  0  0  0
 11 37  1  0  0  0
 12 38  1  0  0  0
 16 39  1  0  0  0
 19 40  1  0  0  0
 19 41  1  0  0  0
 19 42  1  0  0  0
 21 43  1  0  0  0
M  END
$$$$
