1zdp_ligand
  -I-interpret- 

 32 32  0  0  0  0  0  0  0  0999 V2000
   35.9780   42.5960   -6.6940 S   0  0  0  0  0
   35.5080   41.9090   -5.0620 C   0  0  0  0  0
   36.5470   42.3690   -4.0240 C   0  0  0  0  0
   37.9330   41.6360   -3.8810 C   0  0  0  0  0
   39.0790   42.2020   -3.8060 O   0  0  0  0  0
   35.7210   42.1760   -2.7970 C   0  0  0  0  0
   36.5990   42.7150   -1.7360 C   0  0  0  0  0
   37.1950   43.9660   -1.9310 C   0  0  0  0  0
   36.7960   41.9440   -0.5910 C   0  0  0  0  0
   38.0200   44.4970   -0.9440 C   0  0  0  0  0
   37.6440   42.4630    0.3870 C   0  0  0  0  0
   38.2130   43.7310    0.2110 C   0  0  0  0  0
   37.7820   40.3140   -3.8400 N   0  0  0  0  0
   38.8530   39.2870   -3.7720 C   0  0  0  0  0
   38.6030   38.3270   -4.9870 C   0  0  0  0  0
   37.4440   38.2600   -5.5230 O   0  0  0  0  0
   39.5470   37.6070   -5.4400 O   0  0  0  0  0
   35.0918   42.2101   -7.6076 H   0  0  0  0  0
   35.4839   40.8203   -5.1085 H   0  0  0  0  0
   34.5166   42.2632   -4.7797 H   0  0  0  0  0
   36.9312   43.3544   -4.2874 H   0  0  0  0  0
   35.4370   41.1368   -2.6310 H   0  0  0  0  0
   34.7543   42.6769   -2.8484 H   0  0  0  0  0
   37.0140   44.5216   -2.8511 H   0  0  0  0  0
   36.3082   40.9773   -0.4657 H   0  0  0  0  0
   38.4964   45.4698   -1.0657 H   0  0  0  0  0
   37.8631   41.8845    1.2845 H   0  0  0  0  0
   38.8334   44.1389    1.0090 H   0  0  0  0  0
   36.8229   39.9673   -3.8572 H   0  0  0  0  0
   38.8235   38.7456   -2.8265 H   0  0  0  0  0
   39.8422   39.7419   -3.8233 H   0  0  0  0  0
   36.8478   38.8604   -5.0696 H   0  0  0  0  0
  1  2  1  0  0  0
  2  3  1  0  0  0
  3  4  1  0  0  0
  3  6  1  0  0  0
  4  5  2  0  0  0
  4 13  1  0  0  0
  6  7  1  0  0  0
  7  8  4  0  0  0
  7  9  4  0  0  0
  8 10  4  0  0  0
  9 11  4  0  0  0
 10 12  4  0  0  0
 11 12  4  0  0  0
 13 14  1  0  0  0
 14 15  1  0  0  0
 15 16  1  0  0  0
 15 17  2  0  0  0
  1 18  1  0  0  0
  2 19  1  0  0  0
  2 20  1  0  0  0
  3 21  1  0  0  0
  6 22  1  0  0  0
  6 23  1  0  0  0
  8 24  1  0  0  0
  9 25  1  0  0  0
 10 26  1  0  0  0
 11 27  1  0  0  0
 12 28  1  0  0  0
 13 29  1  0  0  0
 14 30  1  0  0  0
 14 31  1  0  0  0
 16 32  1  0  0  0
M  END
$$$$
