5cwa_ligand
  -I-interpret- 

 27 27  0  0  0  0  0  0  0  0999 V2000
   48.2880  -45.7430   -6.5980 O   0  0  0  0  0
   48.0450  -45.7600   -5.3950 C   0  0  0  0  0
   47.3270  -44.9110   -4.8460 O   0  0  0  0  0
   48.6520  -46.7910   -4.5970 C   0  0  0  0  0
   48.9660  -47.9780   -5.0890 C   0  0  0  0  0
   49.6090  -49.0380   -4.2340 C   0  0  0  0  0
   48.9160  -46.4920   -3.2360 O   0  0  0  0  0
   49.9310  -45.6600   -2.8940 C   0  0  0  0  0
   50.9220  -45.2290   -3.7750 C   0  0  0  0  0
   51.8990  -44.3700   -3.2980 C   0  0  0  0  0
   51.8650  -43.9410   -1.9760 C   0  0  0  0  0
   49.9130  -45.2480   -1.5980 C   0  0  0  0  0
   48.8750  -45.7110   -0.8310 O   0  0  0  0  0
   50.8670  -44.3680   -1.1240 C   0  0  0  0  0
   50.8150  -43.9230    0.3020 C   0  0  0  0  0
   49.9570  -44.4360    1.0340 O   0  0  0  0  0
   51.6180  -43.0960    0.7710 O   0  0  0  0  0
   47.2651  -45.1044   -3.9077 H   0  0  0  0  0
   48.7547  -48.1937   -6.1363 H   0  0  0  0  0
   50.5598  -48.6670   -3.8513 H   0  0  0  0  0
   48.9498  -49.2798   -3.4003 H   0  0  0  0  0
   49.7812  -49.9317   -4.8338 H   0  0  0  0  0
   50.9280  -45.5597   -4.8136 H   0  0  0  0  0
   52.6953  -44.0301   -3.9602 H   0  0  0  0  0
   52.6338  -43.2610   -1.6091 H   0  0  0  0  0
   48.9569  -45.3629    0.0599 H   0  0  0  0  0
   52.2108  -42.7982    0.0771 H   0  0  0  0  0
  1  2  2  0  0  0
  2  3  1  0  0  0
  2  4  1  0  0  0
  4  5  2  0  0  0
  4  7  1  0  0  0
  5  6  1  0  0  0
  7  8  1  0  0  0
  8  9  4  0  0  0
  8 12  4  0  0  0
  9 10  4  0  0  0
 10 11  4  0  0  0
 11 14  4  0  0  0
 12 13  1  0  0  0
 12 14  4  0  0  0
 14 15  1  0  0  0
 15 16  2  0  0  0
 15 17  1  0  0  0
  3 18  1  0  0  0
  5 19  1  0  0  0
  6 20  1  0  0  0
  6 21  1  0  0  0
  6 22  1  0  0  0
  9 23  1  0  0  0
 10 24  1  0  0  0
 11 25  1  0  0  0
 13 26  1  0  0  0
 17 27  1  0  0  0
M  END
$$$$
