6bfw_ligand
  -I-interpret- 

 63 65  0  0  0  0  0  0  0  0999 V2000
   15.9830    0.6310   -2.9050 C   0  0  0  0  0
   15.6170   -1.2560   -1.4690 C   0  0  0  0  0
   15.6020   -0.1060   -4.0120 C   0  0  0  0  0
   15.2250   -1.4200   -3.8330 C   0  0  0  0  0
   15.2460   -1.9910   -2.5790 C   0  0  0  0  0
   14.8330   -2.1740   -4.8740 F   0  0  0  0  0
   16.3240    1.9290   -3.0570 F   0  0  0  0  0
   15.9790    0.0680   -1.6410 C   0  0  0  0  0
   15.6180   -1.8900   -0.1070 C   0  0  0  0  0
   14.2010   -2.3040    0.3080 C   0  0  0  0  0
   14.1010   -2.9070    1.7060 C   0  0  0  0  0
   14.9600   -4.0490    1.8040 O   0  0  0  0  0
   12.6770   -3.3700    2.0600 C   0  0  0  0  0
   12.6710   -3.9360    3.4170 N   0  3  0  0  0
   11.3620   -4.5010    3.7840 C   0  0  0  0  0
   10.9450   -5.5470    2.7560 C   0  0  0  0  0
   11.9100   -6.5860    2.8110 O   0  0  0  0  0
   11.4820   -7.6960    2.0090 C   0  0  0  0  0
   12.5860   -8.7380    2.0200 C   0  0  0  0  0
   12.0700  -10.0640    1.4730 C   0  0  0  0  0
   13.2020  -11.0850    1.4100 C   0  0  0  0  0
   14.4070  -10.5720    0.6330 C   0  0  0  0  0
   14.9080   -9.2340    1.1830 C   0  0  0  0  0
   13.7770   -8.2170    1.2280 C   0  0  0  0  0
   10.8820   -4.9090    1.4770 O   0  0  0  0  0
   12.1740   -4.4250    1.0710 C   0  0  0  0  0
   13.2830   -1.2070    0.1340 N   0  0  0  0  0
   12.2900   -1.2190   -0.8230 C   0  0  0  0  0
   11.5890    0.0940   -0.9560 C   0  0  0  0  0
   11.9690   -2.1570   -1.5290 O   0  0  0  0  0
   15.5999    0.3429   -5.0053 H   0  0  0  0  0
   14.9659   -3.0377   -2.4608 H   0  0  0  0  0
   16.2622    0.6700   -0.7776 H   0  0  0  0  0
   15.9963   -1.1664    0.6151 H   0  0  0  0  0
   16.2476   -2.7793   -0.1359 H   0  0  0  0  0
   13.9183   -3.1160   -0.3620 H   0  0  0  0  0
   14.3930   -2.1181    2.3992 H   0  0  0  0  0
   14.8928   -4.4239    2.6852 H   0  0  0  0  0
   12.0145   -2.5061    2.0076 H   0  0  0  0  0
   12.8856   -3.1850    4.0730 H   0  0  0  0  0
   13.3592   -4.6882    3.4481 H   0  0  0  0  0
   10.6192   -3.7036    3.8088 H   0  0  0  0  0
   11.4337   -4.9689    4.7658 H   0  0  0  0  0
    9.9633   -5.9785    2.9514 H   0  0  0  0  0
   11.2843   -7.3684    0.9884 H   0  0  0  0  0
   10.5619   -8.1188    2.4124 H   0  0  0  0  0
   12.9131   -8.9213    3.0435 H   0  0  0  0  0
   11.6758   -9.9064    0.4691 H   0  0  0  0  0
   11.2866  -10.4404    2.1308 H   0  0  0  0  0
   12.8265  -11.9726    0.9009 H   0  0  0  0  0
   13.5237  -11.2940    2.4303 H   0  0  0  0  0
   14.1093  -10.4265   -0.4054 H   0  0  0  0  0
   15.2105  -11.3029    0.7237 H   0  0  0  0  0
   15.6965   -8.8571    0.5316 H   0  0  0  0  0
   15.2864   -9.3868    2.1937 H   0  0  0  0  0
   14.1453   -7.3137    1.7143 H   0  0  0  0  0
   13.4513   -8.0188    0.2069 H   0  0  0  0  0
   12.8767   -5.2579    1.0492 H   0  0  0  0  0
   12.0924   -3.9763    0.0810 H   0  0  0  0  0
   13.3708   -0.3918    0.7408 H   0  0  0  0  0
   11.7178    0.4721   -1.9702 H   0  0  0  0  0
   10.5273   -0.0398   -0.7488 H   0  0  0  0  0
   12.0124    0.8041   -0.2457 H   0  0  0  0  0
  1  3  4  0  0  0
  1  7  1  0  0  0
  8  1  4  0  0  0
  2  5  4  0  0  0
  2  8  4  0  0  0
  2  9  1  0  0  0
  3  4  4  0  0  0
  4  5  4  0  0  0
  4  6  1  0  0  0
  9 10  1  0  0  0
 10 11  1  0  0  0
 10 27  1  0  0  0
 11 12  1  0  0  0
 11 13  1  0  0  0
 13 14  1  0  0  0
 13 26  1  0  0  0
 14 15  1  0  0  0
 15 16  1  0  0  0
 16 17  1  0  0  0
 16 25  1  0  0  0
 17 18  1  0  0  0
 18 19  1  0  0  0
 19 20  1  0  0  0
 19 24  1  0  0  0
 20 21  1  0  0  0
 21 22  1  0  0  0
 22 23  1  0  0  0
 23 24  1  0  0  0
 25 26  1  0  0  0
 27 28  1  0  0  0
 28 29  1  0  0  0
 28 30  2  0  0  0
  3 31  1  0  0  0
  5 32  1  0  0  0
  8 33  1  0  0  0
  9 34  1  0  0  0
  9 35  1  0  0  0
 10 36  1  0  0  0
 11 37  1  0  0  0
 12 38  1  0  0  0
 13 39  1  0  0  0
 14 40  1  0  0  0
 14 41  1  0  0  0
 15 42  1  0  0  0
 15 43  1  0  0  0
 16 44  1  0  0  0
 18 45  1  0  0  0
 18 46  1  0  0  0
 19 47  1  0  0  0
 20 48  1  0  0  0
 20 49  1  0  0  0
 21 50  1  0  0  0
 21 51  1  0  0  0
 22 52  1  0  0  0
 22 53  1  0  0  0
 23 54  1  0  0  0
 23 55  1  0  0  0
 24 56  1  0  0  0
 24 57  1  0  0  0
 26 58  1  0  0  0
 26 59  1  0  0  0
 27 60  1  0  0  0
 29 61  1  0  0  0
 29 62  1  0  0  0
 29 63  1  0  0  0
M  END
$$$$
