3pd8_ligand
  -I-interpret- 

 22 23  0  0  0  0  0  0  0  0999 V2000
   45.0650   27.2480   40.7940 C   0  0  0  0  0
   45.0290   28.4860   41.2780 N   0  0  0  0  0
   45.8960   28.5100   42.4220 O   0  0  0  0  0
   45.9020   26.4610   41.5590 C   0  0  0  0  0
   47.8050   25.2590   43.2220 N   0  3  0  0  0
   45.8670   27.4050   45.2540 O   0  0  0  0  0
   46.2170   24.9930   41.3660 C   0  0  0  0  0
   47.4810   26.0150   45.8960 O   0  0  0  0  0
   46.6830   24.4470   42.7190 C   0  0  0  0  0
   44.4490   26.8460   39.8120 O   0  0  0  0  0
   47.4060   26.6370   43.5940 C   0  0  0  0  0
   46.4150   27.2500   42.5780 C   0  0  0  0  0
   46.8580   26.6780   45.0370 C   0  0  0  0  0
   44.4892   29.2682   40.9077 H   0  0  0  0  0
   48.4964   25.3279   42.4753 H   0  0  0  0  0
   48.1649   24.8038   44.0609 H   0  0  0  0  0
   46.9935   24.8633   40.6121 H   0  0  0  0  0
   45.3357   24.4542   41.0180 H   0  0  0  0  0
   48.2011   25.5417   45.4729 H   0  0  0  0  0
   45.8579   24.4907   43.4300 H   0  0  0  0  0
   47.0097   23.4141   42.5988 H   0  0  0  0  0
   48.2997   27.2602   43.5616 H   0  0  0  0  0
  1  2  1  0  0  0
  4  1  1  0  0  0
  1 10  2  0  0  0
  3  2  1  0  0  0
 12  3  1  0  0  0
  4  7  1  0  0  0
 12  4  2  0  0  0
  5  9  1  0  0  0
 11  5  1  0  0  0
 13  6  2  0  0  0
  9  7  1  0  0  0
 13  8  1  0  0  0
 11 12  1  0  0  0
 11 13  1  0  0  0
  2 14  1  0  0  0
  5 15  1  0  0  0
  5 16  1  0  0  0
  7 17  1  0  0  0
  7 18  1  0  0  0
  8 19  1  0  0  0
  9 20  1  0  0  0
  9 21  1  0  0  0
 11 22  1  0  0  0
M  END
$$$$
