4i6q_ligand
  -I-interpret- 

 41 44  0  0  0  0  0  0  0  0999 V2000
    0.5090  -13.2080   -4.1710 C   0  0  0  0  0
    0.0160  -11.9270   -3.8610 C   0  0  0  0  0
   -1.2630  -12.0820   -3.4430 N   0  0  0  0  0
   -0.5380  -14.1740   -3.8890 C   0  0  0  0  0
   -1.6410  -13.3940   -3.4540 C   0  0  0  0  0
   -2.8020  -13.9700   -3.1100 N   0  0  0  0  0
   -2.9150  -15.2870   -3.1930 C   0  0  0  0  0
   -1.8490  -16.0740   -3.6720 C   0  0  0  0  0
   -0.6730  -15.5440   -3.9710 N   0  0  0  0  0
    1.8040  -13.5650   -4.6850 C   0  0  0  0  0
    2.0280  -14.8860   -4.8890 N   0  0  0  0  0
    2.6720  -12.7520   -4.9000 O   0  0  0  0  0
    3.2620  -15.5060   -5.4140 C   0  0  0  0  0
    3.2850  -15.6750   -6.9440 C   0  0  0  0  0
    3.4490  -16.8740   -4.6640 C   0  0  0  0  0
    2.0070  -16.1400   -7.6250 C   0  0  0  0  0
    2.5270  -14.7340   -7.8900 C   0  0  0  0  0
   -2.0730  -17.4230   -3.6550 O   0  0  0  0  0
   -1.0910  -18.2510   -4.2050 C   0  0  0  0  0
   -0.4840  -18.0130   -5.4340 C   0  0  0  0  0
    0.4340  -18.9510   -5.9860 C   0  0  0  0  0
    0.7160  -20.1480   -5.3320 C   0  0  0  0  0
    0.0720  -20.4190   -4.1210 C   0  0  0  0  0
   -0.8450  -19.5100   -3.5670 C   0  0  0  0  0
    0.5611  -10.9866   -3.9420 H   0  0  0  0  0
   -3.8441  -15.7679   -2.8870 H   0  0  0  0  0
    1.2634  -15.5194   -4.6553 H   0  0  0  0  0
    4.0999  -14.8360   -5.2214 H   0  0  0  0  0
    4.3250  -15.9966   -6.8898 H   0  0  0  0  0
    3.5366  -16.6908   -3.5931 H   0  0  0  0  0
    2.5866  -17.5126   -4.8553 H   0  0  0  0  0
    4.3530  -17.3643   -5.0252 H   0  0  0  0  0
    1.0683  -16.6211   -7.3503 H   0  0  0  0  0
    1.6575  -16.9988   -8.1980 H   0  0  0  0  0
    2.7346  -14.0828   -8.7391 H   0  0  0  0  0
    2.1533  -13.7101   -7.9026 H   0  0  0  0  0
   -0.7138  -17.0983   -5.9804 H   0  0  0  0  0
    0.9233  -18.7291   -6.9344 H   0  0  0  0  0
    1.4247  -20.8594   -5.7559 H   0  0  0  0  0
    0.2849  -21.3512   -3.5978 H   0  0  0  0  0
   -1.3719  -19.7639   -2.6472 H   0  0  0  0  0
  1  2  4  0  0  0
  1  4  4  0  0  0
  1 10  1  0  0  0
  2  3  4  0  0  0
  3  5  4  0  0  0
  4  5  4  0  0  0
  4  9  4  0  0  0
  5  6  4  0  0  0
  6  7  4  0  0  0
  7  8  4  0  0  0
  8  9  4  0  0  0
  8 18  1  0  0  0
 10 11  1  0  0  0
 10 12  2  0  0  0
 11 13  1  0  0  0
 13 14  1  0  0  0
 13 15  1  0  0  0
 14 16  1  0  0  0
 14 17  1  0  0  0
 16 17  1  0  0  0
 18 19  1  0  0  0
 19 20  4  0  0  0
 19 24  4  0  0  0
 20 21  4  0  0  0
 21 22  4  0  0  0
 22 23  4  0  0  0
 23 24  4  0  0  0
  2 25  1  0  0  0
  7 26  1  0  0  0
 11 27  1  0  0  0
 13 28  1  0  0  0
 14 29  1  0  0  0
 15 30  1  0  0  0
 15 31  1  0  0  0
 15 32  1  0  0  0
 16 33  1  0  0  0
 16 34  1  0  0  0
 17 35  1  0  0  0
 17 36  1  0  0  0
 20 37  1  0  0  0
 21 38  1  0  0  0
 22 39  1  0  0  0
 23 40  1  0  0  0
 24 41  1  0  0  0
M  END
$$$$
