3zzh_ligand
  -I-interpret- 

 27 26  0  0  0  0  0  0  0  0999 V2000
  -29.5550   47.8070  -67.8570 N   0  3  0  0  0
  -30.8490   48.3810  -68.3280 C   0  0  0  0  0
  -31.5870   47.3650  -69.1780 C   0  0  0  0  0
  -32.7750   47.5220  -69.4520 O   0  0  0  0  0
  -30.6190   49.6610  -69.1430 C   0  0  0  0  0
  -29.6950   49.4870  -70.3420 C   0  0  0  0  0
  -29.5850   50.7620  -71.1760 C   0  0  0  0  0
  -28.8030   50.5440  -72.3930 N   0  0  0  0  0
  -28.4480   51.5010  -73.2510 C   0  0  0  0  0
  -28.8050   52.7670  -73.0470 N   0  0  0  0  0
  -27.7270   51.1880  -74.3240 N   0  0  0  0  0
  -30.9960   46.3790  -69.6170 O   0  0  0  0  0
  -29.7361   46.9593  -67.3194 H   0  0  0  0  0
  -28.9710   47.5820  -68.6624 H   0  0  0  0  0
  -29.0763   48.4886  -67.2683 H   0  0  0  0  0
  -31.4479   48.6302  -67.4521 H   0  0  0  0  0
  -30.1463   50.3832  -68.4773 H   0  0  0  0  0
  -31.5893   49.9724  -69.5298 H   0  0  0  0  0
  -30.1066   48.7017  -70.9760 H   0  0  0  0  0
  -28.7009   49.2380  -69.9706 H   0  0  0  0  0
  -29.0848   51.5231  -70.5771 H   0  0  0  0  0
  -30.5894   51.0732  -71.4633 H   0  0  0  0  0
  -28.5077   49.5900  -72.6004 H   0  0  0  0  0
  -28.5257   53.4890  -73.7111 H   0  0  0  0  0
  -29.3579   53.0151  -72.2265 H   0  0  0  0  0
  -27.4487   50.2203  -74.4869 H   0  0  0  0  0
  -30.0834   46.3956  -69.3196 H   0  0  0  0  0
  1  2  1  0  0  0
  2  3  1  0  0  0
  2  5  1  0  0  0
  3  4  2  0  0  0
  3 12  1  0  0  0
  5  6  1  0  0  0
  6  7  1  0  0  0
  7  8  1  0  0  0
  8  9  1  0  0  0
  9 10  1  0  0  0
  9 11  2  0  0  0
  1 13  1  0  0  0
  1 14  1  0  0  0
  1 15  1  0  0  0
  2 16  1  0  0  0
  5 17  1  0  0  0
  5 18  1  0  0  0
  6 19  1  0  0  0
  6 20  1  0  0  0
  7 21  1  0  0  0
  7 22  1  0  0  0
  8 23  1  0  0  0
 10 24  1  0  0  0
 10 25  1  0  0  0
 11 26  1  0  0  0
 12 27  1  0  0  0
M  END
$$$$
