6hvs_ligand
  -I-interpret- 

 84 85  0  0  0  0  0  0  0  0999 V2000
   54.2630 -133.8190   35.5630 C   0  0  0  0  0
   52.9580 -133.3930   35.2560 C   0  0  0  0  0
   52.5950 -133.0810   33.9390 C   0  0  0  0  0
   56.5480 -134.3830   34.8960 C   0  0  0  0  0
   57.6820 -134.0370   33.8800 C   0  0  0  0  0
   61.1080 -134.4150   35.5230 C   0  0  0  0  0
   62.9040 -133.2280   34.2110 C   0  0  0  0  0
   61.0740 -135.5310   39.1110 C   0  0  0  0  0
   64.7010 -132.9580   41.2040 C   0  0  0  0  0
   65.2150 -131.8010   40.6390 C   0  0  0  0  0
   64.8840 -130.5530   41.1450 C   0  0  0  0  0
   65.4500 -129.4290   40.5270 C   0  0  0  0  0
   64.5860 -128.2360   40.4790 N   0  3  0  0  0
   64.0290 -130.4940   42.2550 C   0  0  0  0  0
   63.5090 -131.6610   42.8230 C   0  0  0  0  0
   63.8310 -132.9190   42.3090 C   0  0  0  0  0
   63.2810 -134.0230   42.9490 C   0  0  0  0  0
   63.3320 -135.3080   42.0650 C   0  0  0  0  0
   63.0830 -136.6140   42.8390 C   0  0  0  0  0
   61.6220 -136.6910   43.3020 C   0  0  0  0  0
   60.9740 -138.3900   43.4570 S   0  0  0  0  0
   59.6900 -138.3160   44.2700 O   0  0  0  0  0
   61.9460 -139.2630   44.2080 O   0  0  0  0  0
   60.6450 -139.1810   41.9020 C   0  0  0  0  0
   62.3070 -135.1600   41.0470 N   0  0  0  0  0
   62.3070 -135.8200   39.8950 C   0  0  0  0  0
   63.1740 -136.6020   39.5110 O   0  0  0  0  0
   61.4350 -135.3260   37.7130 N   0  0  0  0  0
   60.6650 -134.5550   36.9500 C   0  0  0  0  0
   59.6850 -133.9260   37.3580 O   0  0  0  0  0
   62.2700 -133.4340   35.5720 C   0  0  0  0  0
   63.4860 -134.5350   33.6670 C   0  0  0  0  0
   63.9970 -132.1550   34.3550 C   0  0  0  0  0
   59.9050 -133.8970   34.8740 N   0  0  0  0  0
   58.9730 -134.7230   34.3700 C   0  0  0  0  0
   59.1010 -135.9430   34.3230 O   0  0  0  0  0
   57.3340 -134.3830   32.4790 N   0  0  0  0  0
   57.6540 -135.5640   31.8950 N   0  0  0  0  0
   57.9530 -136.7390   31.2750 N   0  0  0  0  0
   55.2360 -133.9360   34.5570 C   0  0  0  0  0
   53.5440 -133.1960   32.9290 C   0  0  0  0  0
   54.8370 -133.6230   33.2500 C   0  0  0  0  0
   54.5221 -134.0611   36.5937 H   0  0  0  0  0
   52.2196 -133.3044   36.0529 H   0  0  0  0  0
   51.5815 -132.7523   33.7091 H   0  0  0  0  0
   56.8095 -133.8779   35.8258 H   0  0  0  0  0
   56.4970 -135.4711   34.9344 H   0  0  0  0  0
   57.8301 -132.9575   33.8503 H   0  0  0  0  0
   61.4554 -135.3028   34.9946 H   0  0  0  0  0
   62.1490 -132.8997   33.4966 H   0  0  0  0  0
   60.5932 -134.6339   39.5010 H   0  0  0  0  0
   60.3827 -136.3698   39.1921 H   0  0  0  0  0
   64.9783 -133.9235   40.7809 H   0  0  0  0  0
   65.8887 -131.8733   39.7852 H   0  0  0  0  0
   65.6529 -129.7097   39.4935 H   0  0  0  0  0
   66.3261 -129.1568   41.1156 H   0  0  0  0  0
   65.0829 -127.4763   40.0138 H   0  0  0  0  0
   63.7350 -128.4546   39.9610 H   0  0  0  0  0
   64.3443 -127.9543   41.4291 H   0  0  0  0  0
   63.7663 -129.5255   42.6806 H   0  0  0  0  0
   62.8411 -131.5877   43.6813 H   0  0  0  0  0
   62.2355 -133.8024   43.1642 H   0  0  0  0  0
   63.8595 -134.2120   43.8533 H   0  0  0  0  0
   64.3377 -135.3934   41.6533 H   0  0  0  0  0
   63.7341 -136.6386   43.7128 H   0  0  0  0  0
   63.2932 -137.4601   42.1847 H   0  0  0  0  0
   61.0190 -136.1846   42.5483 H   0  0  0  0  0
   61.5743 -136.2373   44.2920 H   0  0  0  0  0
   60.2687 -140.1883   42.0806 H   0  0  0  0  0
   59.8995 -138.6052   41.3535 H   0  0  0  0  0
   61.5655 -139.2334   41.3205 H   0  0  0  0  0
   61.5416 -134.5104   41.2277 H   0  0  0  0  0
   62.2680 -135.7685   37.3249 H   0  0  0  0  0
   63.0285 -133.8402   36.2412 H   0  0  0  0  0
   61.8880 -132.4731   35.9168 H   0  0  0  0  0
   64.2475 -134.9055   34.3532 H   0  0  0  0  0
   62.6902 -135.2738   33.5720 H   0  0  0  0  0
   63.9332 -134.3531   32.6897 H   0  0  0  0  0
   63.5483 -131.2261   34.7070 H   0  0  0  0  0
   64.7445 -132.4936   35.0724 H   0  0  0  0  0
   64.4699 -131.9877   33.3873 H   0  0  0  0  0
   59.7705 -132.8884   34.8024 H   0  0  0  0  0
   53.2832 -132.9560   31.8982 H   0  0  0  0  0
   55.5679 -133.7167   32.4468 H   0  0  0  0  0
  1  2  4  0  0  0
 40  1  4  0  0  0
  2  3  4  0  0  0
  3 41  4  0  0  0
  5  4  1  0  0  0
  4 40  1  0  0  0
 35  5  1  0  0  0
  5 37  1  0  0  0
  6 29  1  0  0  0
  6 31  1  0  0  0
 34  6  1  0  0  0
 31  7  1  0  0  0
  7 32  1  0  0  0
  7 33  1  0  0  0
  8 26  1  0  0  0
 28  8  1  0  0  0
  9 10  4  0  0  0
 16  9  4  0  0  0
 10 11  4  0  0  0
 11 12  1  0  0  0
 14 11  4  0  0  0
 12 13  1  0  0  0
 15 14  4  0  0  0
 16 15  4  0  0  0
 17 16  1  0  0  0
 18 17  1  0  0  0
 18 19  1  0  0  0
 25 18  1  0  0  0
 19 20  1  0  0  0
 20 21  1  0  0  0
 21 22  2  0  0  0
 21 23  2  0  0  0
 21 24  1  0  0  0
 26 25  1  0  0  0
 26 27  2  0  0  0
 29 28  1  0  0  0
 29 30  2  0  0  0
 34 35  1  0  0  0
 35 36  2  0  0  0
 37 38  2  0  0  0
 38 39  3  0  0  0
 40 42  4  0  0  0
 41 42  4  0  0  0
  1 43  1  0  0  0
  2 44  1  0  0  0
  3 45  1  0  0  0
  4 46  1  0  0  0
  4 47  1  0  0  0
  5 48  1  0  0  0
  6 49  1  0  0  0
  7 50  1  0  0  0
  8 51  1  0  0  0
  8 52  1  0  0  0
  9 53  1  0  0  0
 10 54  1  0  0  0
 12 55  1  0  0  0
 12 56  1  0  0  0
 13 57  1  0  0  0
 13 58  1  0  0  0
 13 59  1  0  0  0
 14 60  1  0  0  0
 15 61  1  0  0  0
 17 62  1  0  0  0
 17 63  1  0  0  0
 18 64  1  0  0  0
 19 65  1  0  0  0
 19 66  1  0  0  0
 20 67  1  0  0  0
 20 68  1  0  0  0
 24 69  1  0  0  0
 24 70  1  0  0  0
 24 71  1  0  0  0
 25 72  1  0  0  0
 28 73  1  0  0  0
 31 74  1  0  0  0
 31 75  1  0  0  0
 32 76  1  0  0  0
 32 77  1  0  0  0
 32 78  1  0  0  0
 33 79  1  0  0  0
 33 80  1  0  0  0
 33 81  1  0  0  0
 34 82  1  0  0  0
 41 83  1  0  0  0
 42 84  1  0  0  0
M  END
$$$$
