4y2y_ligand
  -I-interpret- 

 34 35  0  0  0  0  0  0  0  0999 V2000
  -17.2030  -13.4440   68.5860 C   0  0  0  0  0
  -17.1350  -13.0410   69.9040 C   0  0  0  0  0
  -17.7260  -12.6300   67.6080 C   0  0  0  0  0
  -17.5980  -11.8020   70.2790 C   0  0  0  0  0
  -16.5140   -6.9280   61.4350 C   0  0  0  0  0
  -16.2420   -7.4590   62.7050 C   0  0  0  0  0
  -18.1980  -11.3830   67.9590 C   0  0  0  0  0
  -18.1300  -10.9950   69.2890 C   0  0  0  0  0
  -17.6850   -6.2200   61.4240 C   0  0  0  0  0
  -17.1950   -7.1810   63.6630 C   0  0  0  0  0
  -18.3020   -5.5330   60.2950 C   0  0  0  0  0
  -18.7720  -10.4720   66.9230 C   0  0  0  0  0
  -17.2210   -7.5790   65.0860 C   0  0  0  0  0
  -17.8160   -9.3240   66.6390 C   0  0  0  0  0
  -17.9230   -8.8420   65.2650 N   0  3  0  0  0
  -18.5850   -9.7820   69.6470 F   0  0  0  0  0
  -18.4310   -6.2060   62.9730 S   0  0  0  0  0
  -16.8330  -14.4322   68.3129 H   0  0  0  0  0
  -16.7112  -13.7098   70.6531 H   0  0  0  0  0
  -17.7666  -12.9657   66.5718 H   0  0  0  0  0
  -17.5479  -11.4685   71.3155 H   0  0  0  0  0
  -15.8718   -7.0628   60.5646 H   0  0  0  0  0
  -15.3480   -8.0451   62.9179 H   0  0  0  0  0
  -17.6207   -4.7696   59.9195 H   0  0  0  0  0
  -18.5138   -6.2532   59.5048 H   0  0  0  0  0
  -19.2310   -5.0646   60.6200 H   0  0  0  0  0
  -19.7150  -10.0665   67.2897 H   0  0  0  0  0
  -18.9330  -11.0358   66.0041 H   0  0  0  0  0
  -17.7409   -6.8077   65.6542 H   0  0  0  0  0
  -16.1947   -7.6984   65.4333 H   0  0  0  0  0
  -16.7989   -9.6845   66.7930 H   0  0  0  0  0
  -18.0679   -8.5005   67.3072 H   0  0  0  0  0
  -17.5032   -9.5354   64.6459 H   0  0  0  0  0
  -18.9093   -8.6966   65.0496 H   0  0  0  0  0
  1  2  4  0  0  0
  3  1  4  0  0  0
  4  2  4  0  0  0
  7  3  4  0  0  0
  8  4  4  0  0  0
  6  5  4  0  0  0
  9  5  4  0  0  0
 10  6  4  0  0  0
  7  8  4  0  0  0
 12  7  1  0  0  0
  8 16  1  0  0  0
  9 11  1  0  0  0
 17  9  4  0  0  0
 13 10  1  0  0  0
 10 17  4  0  0  0
 14 12  1  0  0  0
 15 13  1  0  0  0
 14 15  1  0  0  0
  1 18  1  0  0  0
  2 19  1  0  0  0
  3 20  1  0  0  0
  4 21  1  0  0  0
  5 22  1  0  0  0
  6 23  1  0  0  0
 11 24  1  0  0  0
 11 25  1  0  0  0
 11 26  1  0  0  0
 12 27  1  0  0  0
 12 28  1  0  0  0
 13 29  1  0  0  0
 13 30  1  0  0  0
 14 31  1  0  0  0
 14 32  1  0  0  0
 15 33  1  0  0  0
 15 34  1  0  0  0
M  END
$$$$
