4d2p_ligand
  -I-interpret- 

 53 56  0  0  0  0  0  0  0  0999 V2000
   -8.1870  -34.0530  -12.7340 C   0  0  0  0  0
   -8.5420  -35.0510  -13.6880 O   0  0  0  0  0
   -9.1320  -34.6430  -14.8540 C   0  0  0  0  0
   -9.3430  -33.3520  -15.3020 C   0  0  0  0  0
   -9.9890  -33.1350  -16.5090 C   0  0  0  0  0
  -10.1750  -31.8690  -16.9770 O   0  0  0  0  0
  -10.4430  -34.2110  -17.2570 C   0  0  0  0  0
  -10.2400  -35.5160  -16.8130 C   0  0  0  0  0
  -10.7130  -36.5850  -17.6120 N   0  0  0  0  0
  -10.3660  -37.9560  -17.7290 C   0  0  0  0  0
   -9.2760  -38.5400  -17.0870 C   0  0  0  0  0
   -9.0080  -39.8890  -17.2460 C   0  0  0  0  0
   -9.8240  -40.6850  -18.0460 C   0  0  0  0  0
  -10.9080  -40.1010  -18.6930 C   0  0  0  0  0
  -11.1740  -38.7510  -18.5380 C   0  0  0  0  0
   -9.5040  -42.1410  -18.2100 C   0  0  0  0  0
   -8.4160  -42.5880  -17.8500 O   0  0  0  0  0
  -10.4700  -42.9220  -18.7650 N   0  0  0  0  0
  -10.3490  -44.2140  -19.3420 C   0  0  0  0  0
   -9.1390  -44.8910  -19.4720 C   0  0  0  0  0
   -9.0970  -46.1460  -20.0490 C   0  0  0  0  0
  -10.2560  -46.7520  -20.5200 C   0  0  0  0  0
  -10.1350  -48.1150  -21.1550 C   0  0  0  0  0
  -11.4620  -48.6870  -21.6420 C   0  0  0  0  0
  -12.3820  -47.5960  -22.0600 N   0  3  0  0  0
  -12.7380  -46.7180  -20.9130 C   0  0  0  0  0
  -11.4740  -46.0820  -20.3960 C   0  0  0  0  0
  -11.5090  -44.8160  -19.8110 C   0  0  0  0  0
   -9.5900  -35.7150  -15.5980 C   0  0  0  0  0
   -7.4777  -33.3582  -13.1837 H   0  0  0  0  0
   -9.0818  -33.5121  -12.4259 H   0  0  0  0  0
   -7.7311  -34.5283  -11.8655 H   0  0  0  0  0
   -9.0015  -32.5054  -14.7063 H   0  0  0  0  0
  -10.6356  -31.9046  -17.8185 H   0  0  0  0  0
  -10.9623  -34.0345  -18.1989 H   0  0  0  0  0
  -11.4677  -36.3096  -18.2405 H   0  0  0  0  0
   -8.6298  -37.9306  -16.4552 H   0  0  0  0  0
   -8.1502  -40.3322  -16.7402 H   0  0  0  0  0
  -11.5526  -40.7103  -19.3265 H   0  0  0  0  0
  -12.0245  -38.3060  -19.0545 H   0  0  0  0  0
  -11.4097  -42.5253  -18.7669 H   0  0  0  0  0
   -8.2187  -44.4278  -19.1162 H   0  0  0  0  0
   -8.1435  -46.6670  -20.1358 H   0  0  0  0  0
   -9.7474  -48.7941  -20.3956 H   0  0  0  0  0
   -9.4866  -48.0118  -22.0251 H   0  0  0  0  0
  -11.9246  -49.2462  -20.8288 H   0  0  0  0  0
  -11.2736  -49.3363  -22.4970 H   0  0  0  0  0
  -13.2372  -48.0152  -22.4251 H   0  0  0  0  0
  -11.9137  -47.0305  -22.7680 H   0  0  0  0  0
  -13.2114  -47.3043  -20.1254 H   0  0  0  0  0
  -13.4400  -45.9485  -21.2342 H   0  0  0  0  0
  -12.4605  -44.2920  -19.7208 H   0  0  0  0  0
   -9.4401  -36.7293  -15.2282 H   0  0  0  0  0
  1  2  1  0  0  0
  2  3  1  0  0  0
  3  4  4  0  0  0
  3 29  4  0  0  0
  4  5  4  0  0  0
  5  6  1  0  0  0
  5  7  4  0  0  0
  7  8  4  0  0  0
  8  9  1  0  0  0
  8 29  4  0  0  0
  9 10  1  0  0  0
 10 11  4  0  0  0
 10 15  4  0  0  0
 11 12  4  0  0  0
 12 13  4  0  0  0
 13 14  4  0  0  0
 13 16  1  0  0  0
 14 15  4  0  0  0
 16 17  2  0  0  0
 16 18  1  0  0  0
 18 19  1  0  0  0
 19 20  4  0  0  0
 19 28  4  0  0  0
 20 21  4  0  0  0
 21 22  4  0  0  0
 22 23  1  0  0  0
 22 27  4  0  0  0
 23 24  1  0  0  0
 24 25  1  0  0  0
 25 26  1  0  0  0
 26 27  1  0  0  0
 27 28  4  0  0  0
  1 30  1  0  0  0
  1 31  1  0  0  0
  1 32  1  0  0  0
  4 33  1  0  0  0
  6 34  1  0  0  0
  7 35  1  0  0  0
  9 36  1  0  0  0
 11 37  1  0  0  0
 12 38  1  0  0  0
 14 39  1  0  0  0
 15 40  1  0  0  0
 18 41  1  0  0  0
 20 42  1  0  0  0
 21 43  1  0  0  0
 23 44  1  0  0  0
 23 45  1  0  0  0
 24 46  1  0  0  0
 24 47  1  0  0  0
 25 48  1  0  0  0
 25 49  1  0  0  0
 26 50  1  0  0  0
 26 51  1  0  0  0
 28 52  1  0  0  0
 29 53  1  0  0  0
M  END
$$$$
