3inf_ligand
  -I-interpret- 

 51 54  0  0  0  0  0  0  0  0999 V2000
   15.9340  -11.0450   19.3700 C   0  0  0  0  0
   15.4270   -5.5280   16.6520 N   0  0  0  0  0
   16.6360  -12.6110   17.1770 O   0  0  0  0  0
   15.7030  -10.5920   17.9530 C   0  0  0  0  0
   14.8120   -6.8510   14.9570 N   0  0  0  0  0
   14.3490   -6.5030   18.4430 O   0  0  0  0  0
   15.1160   -9.3370   17.7260 C   0  0  0  0  0
   16.3280   -5.1020   14.4830 N   0  0  0  0  0
   14.8770   -8.8640   16.4280 C   0  0  0  0  0
   10.0820   -3.1160   13.6120 N   0  0  0  0  0
   15.2430   -9.6880   15.3550 C   0  0  0  0  0
   15.8290  -10.9440   15.5650 C   0  0  0  0  0
   16.0630  -11.4050   16.8620 C   0  0  0  0  0
   17.3890  -13.2800   16.1700 C   0  0  0  0  0
   14.2410   -7.4860   16.1880 C   0  0  0  0  0
   14.6700   -6.4780   17.2670 C   0  0  0  0  0
   15.5380   -5.8370   15.3300 C   0  0  0  0  0
   16.0120   -4.3860   17.3490 C   0  0  0  0  0
   12.7050   -7.5400   16.1110 C   0  0  0  0  0
   11.9170   -8.6580   16.4350 C   0  0  0  0  0
   10.5180   -8.5940   16.3280 C   0  0  0  0  0
    9.8750   -7.4250   15.9100 C   0  0  0  0  0
   10.6400   -6.2910   15.5810 C   0  0  0  0  0
   12.0400   -6.3760   15.6940 C   0  0  0  0  0
   10.0500   -5.0160   15.1400 C   0  0  0  0  0
    8.9330   -4.4530   15.7750 C   0  0  0  0  0
    8.3990   -3.2400   15.3330 C   0  0  0  0  0
    9.0040   -2.6120   14.2550 C   0  0  0  0  0
   10.5810   -4.2950   14.0660 C   0  0  0  0  0
   16.5948  -10.3388   19.8727 H   0  0  0  0  0
   14.9803  -11.0897   19.8958 H   0  0  0  0  0
   16.3936  -12.0333   19.3638 H   0  0  0  0  0
   14.6590   -7.1588   13.9967 H   0  0  0  0  0
   14.8398   -8.7162   18.5783 H   0  0  0  0  0
   16.8507   -4.3017   14.8390 H   0  0  0  0  0
   15.0682   -9.3448   14.3353 H   0  0  0  0  0
   16.1034  -11.5639   14.7114 H   0  0  0  0  0
   16.7458  -13.4874   15.3148 H   0  0  0  0  0
   18.2186  -12.6460   15.8571 H   0  0  0  0  0
   17.7768  -14.2168   16.5702 H   0  0  0  0  0
   17.0973   -4.4215   17.2547 H   0  0  0  0  0
   15.6377   -3.4622   16.9079 H   0  0  0  0  0
   15.7361   -4.4249   18.4028 H   0  0  0  0  0
   12.3938   -9.5788   16.7708 H   0  0  0  0  0
    9.9222   -9.4725   16.5756 H   0  0  0  0  0
    8.7878   -7.3924   15.8394 H   0  0  0  0  0
   12.6358   -5.4975   15.4463 H   0  0  0  0  0
    8.4773   -4.9669   16.6214 H   0  0  0  0  0
    7.5304   -2.7993   15.8223 H   0  0  0  0  0
    8.5903   -1.6650   13.9084 H   0  0  0  0  0
   11.4538   -4.7066   13.5592 H   0  0  0  0  0
  4  1  1  0  0  0
 16  2  1  0  0  0
  2 17  4  0  0  0
  2 18  1  0  0  0
 13  3  1  0  0  0
  3 14  1  0  0  0
  7  4  4  0  0  0
  4 13  4  0  0  0
 15  5  1  0  0  0
  5 17  1  0  0  0
 16  6  2  0  0  0
  9  7  4  0  0  0
 17  8  2  0  0  0
  9 11  4  0  0  0
 15  9  1  0  0  0
 10 28  4  0  0  0
 29 10  4  0  0  0
 11 12  4  0  0  0
 12 13  4  0  0  0
 15 16  1  0  0  0
 19 15  1  0  0  0
 19 20  4  0  0  0
 24 19  4  0  0  0
 21 20  4  0  0  0
 22 21  4  0  0  0
 23 22  4  0  0  0
 23 24  4  0  0  0
 25 23  1  0  0  0
 25 26  4  0  0  0
 25 29  4  0  0  0
 26 27  4  0  0  0
 27 28  4  0  0  0
  1 30  1  0  0  0
  1 31  1  0  0  0
  1 32  1  0  0  0
  5 33  1  0  0  0
  7 34  1  0  0  0
  8 35  1  0  0  0
 11 36  1  0  0  0
 12 37  1  0  0  0
 14 38  1  0  0  0
 14 39  1  0  0  0
 14 40  1  0  0  0
 18 41  1  0  0  0
 18 42  1  0  0  0
 18 43  1  0  0  0
 20 44  1  0  0  0
 21 45  1  0  0  0
 22 46  1  0  0  0
 24 47  1  0  0  0
 26 48  1  0  0  0
 27 49  1  0  0  0
 28 50  1  0  0  0
 29 51  1  0  0  0
M  END
$$$$
