3orn_ligand
  -I-interpret- 

 51 53  0  0  0  0  0  0  0  0999 V2000
   63.2020  -10.3750   12.1980 C   0  0  0  0  0
   62.7070   -9.2750   12.9850 C   0  0  0  0  0
   63.5440   -8.6020   13.9300 C   0  0  0  0  0
   63.0220   -7.4480   14.7550 C   0  0  0  0  0
   66.2710  -13.4810   13.1570 C   0  0  0  0  0
   66.9860  -15.6560   12.3360 C   0  0  0  0  0
   66.4540  -15.3600   11.0560 C   0  0  0  0  0
   60.6750   -7.3690   15.6480 C   0  0  0  0  0
   59.7150   -7.8790   16.7060 C   0  0  0  0  0
   61.4480   -9.5670   17.2880 C   0  0  0  0  0
   62.2880  -11.0650   11.2070 C   0  0  0  0  0
   64.5840  -10.8160   12.3620 C   0  0  0  0  0
   65.0870  -11.9010   11.5980 N   0  0  0  0  0
   65.7210  -13.1330   11.8830 C   0  0  0  0  0
   61.9780   -7.8370   15.6940 N   0  0  0  0  0
   64.8810   -9.0390   14.0760 C   0  0  0  0  0
   65.6960   -8.4330   14.9530 F   0  0  0  0  0
   65.3850  -10.1090   13.3150 C   0  0  0  0  0
   66.6600  -10.4470   13.5200 F   0  0  0  0  0
   66.8960  -14.7220   13.3860 C   0  0  0  0  0
   67.9160  -17.4640   12.6920 I   0  0  0  0  0
   65.8290  -14.1020   10.8500 C   0  0  0  0  0
   65.3270  -13.8240    9.6360 F   0  0  0  0  0
   60.2670   -6.5740   14.8050 O   0  0  0  0  0
   60.3800   -8.6290   17.8460 C   0  0  0  0  0
   62.4770   -8.7610   16.6730 O   0  0  0  0  0
   62.7720  -11.6680   10.2430 O   0  0  0  0  0
   60.9300  -10.9680   11.4230 N   0  0  0  0  0
   60.0980  -11.4020   10.3500 O   0  0  0  0  0
   59.3170  -10.3010    9.8520 C   0  0  0  0  0
   59.7110  -10.0420    8.4060 C   0  0  0  0  0
   59.2250  -11.0970    7.5950 O   0  0  0  0  0
   61.6747   -8.9490   12.8581 H   0  0  0  0  0
   62.5922   -6.7194   14.0676 H   0  0  0  0  0
   63.8564   -7.0535   15.3348 H   0  0  0  0  0
   66.2043  -12.7639   13.9752 H   0  0  0  0  0
   66.5234  -16.0848   10.2448 H   0  0  0  0  0
   59.0387   -8.5782   16.2142 H   0  0  0  0  0
   59.2240   -7.0077   17.1394 H   0  0  0  0  0
   61.0088  -10.2406   16.5522 H   0  0  0  0  0
   61.8731  -10.1711   18.0895 H   0  0  0  0  0
   64.9601  -11.7570   10.5962 H   0  0  0  0  0
   67.3067  -14.9576   14.3678 H   0  0  0  0  0
   59.6307   -9.2114   18.3822 H   0  0  0  0  0
   60.8444   -7.9155   18.5267 H   0  0  0  0  0
   60.5446  -10.6081   12.2961 H   0  0  0  0  0
   59.5043   -9.4111   10.4529 H   0  0  0  0  0
   58.2557  -10.5424    9.9101 H   0  0  0  0  0
   60.7968   -9.9896    8.3264 H   0  0  0  0  0
   59.2815   -9.0970    8.0733 H   0  0  0  0  0
   59.4720  -10.9366    6.6813 H   0  0  0  0  0
  1  2  4  0  0  0
  1 11  1  0  0  0
 12  1  4  0  0  0
  2  3  4  0  0  0
  3  4  1  0  0  0
  3 16  4  0  0  0
  4 15  1  0  0  0
 14  5  4  0  0  0
  5 20  4  0  0  0
  6  7  4  0  0  0
 20  6  4  0  0  0
  6 21  1  0  0  0
  7 22  4  0  0  0
  8  9  1  0  0  0
 15  8  1  0  0  0
  8 24  2  0  0  0
  9 25  1  0  0  0
 25 10  1  0  0  0
 10 26  1  0  0  0
 11 27  2  0  0  0
 11 28  1  0  0  0
 13 12  1  0  0  0
 12 18  4  0  0  0
 13 14  1  0  0  0
 14 22  4  0  0  0
 15 26  1  0  0  0
 16 17  1  0  0  0
 16 18  4  0  0  0
 18 19  1  0  0  0
 22 23  1  0  0  0
 28 29  1  0  0  0
 29 30  1  0  0  0
 30 31  1  0  0  0
 31 32  1  0  0  0
  2 33  1  0  0  0
  4 34  1  0  0  0
  4 35  1  0  0  0
  5 36  1  0  0  0
  7 37  1  0  0  0
  9 38  1  0  0  0
  9 39  1  0  0  0
 10 40  1  0  0  0
 10 41  1  0  0  0
 13 42  1  0  0  0
 20 43  1  0  0  0
 25 44  1  0  0  0
 25 45  1  0  0  0
 28 46  1  0  0  0
 30 47  1  0  0  0
 30 48  1  0  0  0
 31 49  1  0  0  0
 31 50  1  0  0  0
 32 51  1  0  0  0
M  END
$$$$
