3mct_ligand
  -I-interpret- 

 16 16  0  0  0  0  0  0  0  0999 V2000
   16.7470   14.5230   21.6720 N   0  0  0  0  0
   15.7990   15.2070   22.5510 C   0  0  0  0  0
   18.3400   14.6020   19.8470 N   0  0  0  0  0
   17.4520   15.1290   20.7050 C   0  0  0  0  0
   17.2440   16.4950   20.5610 O   0  0  0  0  0
   16.8810   13.2020   21.9170 C   0  0  0  0  0
   16.2020   12.6210   22.8990 N   0  0  0  0  0
   17.7830   12.5170   21.0840 C   0  0  0  0  0
   18.4620   13.2880   20.0830 C   0  0  0  0  0
   16.3199   15.9839   23.1107 H   0  0  0  0  0
   15.0089   15.6578   21.9505 H   0  0  0  0  0
   15.3642   14.4873   23.2446 H   0  0  0  0  0
   16.3215   11.6246   23.0817 H   0  0  0  0  0
   15.5609   13.1710   23.4707 H   0  0  0  0  0
   17.9586   11.4469   21.1940 H   0  0  0  0  0
   19.1555   12.7440   19.4418 H   0  0  0  0  0
  6  1  1  0  0  0
  1  4  1  0  0  0
  1  2  1  0  0  0
  4  3  1  0  0  0
  4  5  2  0  0  0
  3  9  2  0  0  0
  9  8  1  0  0  0
  6  8  2  0  0  0
  6  7  1  0  0  0
  2 10  1  0  0  0
  2 11  1  0  0  0
  2 12  1  0  0  0
  7 13  1  0  0  0
  7 14  1  0  0  0
  8 15  1  0  0  0
  9 16  1  0  0  0
M  END
$$$$
