3g6h_ligand
  -I-interpret- 

 74 78  0  0  0  0  0  0  0  0999 V2000
   -5.1300  -39.2600  -27.4970 C   0  0  0  0  0
   -3.9640  -40.0300  -27.1470 O   0  0  0  0  0
   -2.7750  -39.5030  -27.5970 C   0  0  0  0  0
   -2.7560  -38.3830  -28.4490 C   0  0  0  0  0
   -1.5710  -40.1080  -27.1790 C   0  0  0  0  0
   -1.6250  -41.1880  -26.3340 O   0  0  0  0  0
   -2.1110  -40.8130  -24.9710 C   0  0  0  0  0
   -0.3410  -39.5860  -27.6070 C   0  0  0  0  0
    0.8930  -40.1230  -27.2520 O   0  0  0  0  0
    1.1580  -40.6590  -25.9040 C   0  0  0  0  0
   -0.3600  -38.4700  -28.4680 C   0  0  0  0  0
   -1.5450  -37.8480  -28.8950 C   0  0  0  0  0
   -1.4840  -36.7870  -29.7370 N   0  0  0  0  0
   -2.5120  -36.2160  -30.4050 C   0  0  0  0  0
   -3.7360  -36.7930  -30.5080 N   0  0  0  0  0
   -2.3320  -35.0230  -30.9900 N   0  0  0  0  0
   -3.3290  -34.4200  -31.6350 C   0  0  0  0  0
   -4.5330  -34.9850  -31.7420 N   0  0  0  0  0
   -4.7620  -36.2010  -31.1790 C   0  0  0  0  0
   -6.0230  -36.8520  -31.2220 C   0  0  0  0  0
   -6.1370  -38.0650  -30.5390 C   0  0  0  0  0
   -7.3480  -38.7710  -30.5160 C   0  0  0  0  0
   -8.4580  -38.2390  -31.1750 C   0  0  0  0  0
   -8.3440  -37.0790  -31.8150 N   0  0  0  0  0
   -7.1920  -36.3630  -31.8650 C   0  0  0  0  0
   -7.2260  -35.1950  -32.5410 N   0  0  0  0  0
   -8.3060  -34.8060  -33.2840 C   0  0  0  0  0
   -9.2640  -33.8950  -32.7680 C   0  0  0  0  0
   -8.4820  -35.2910  -34.5980 C   0  0  0  0  0
   -7.5090  -36.2760  -35.2740 C   0  0  0  0  0
   -9.5730  -34.8750  -35.3490 C   0  0  0  0  0
  -10.5120  -33.9960  -34.8270 C   0  0  0  0  0
  -10.3850  -33.4980  -33.5390 C   0  0  0  0  0
  -11.3450  -32.6300  -33.1780 N   0  0  0  0  0
  -11.4990  -31.9970  -32.0140 C   0  0  0  0  0
  -10.8300  -32.2120  -31.0110 O   0  0  0  0  0
  -12.6630  -30.9910  -31.9410 C   0  0  0  0  0
  -12.5520  -29.8780  -31.1070 C   0  0  0  0  0
  -13.8260  -31.1640  -32.6870 C   0  0  0  0  0
  -14.8650  -30.2310  -32.5970 C   0  0  0  0  0
  -14.7420  -29.1290  -31.7510 C   0  0  0  0  0
  -13.5840  -28.9470  -30.9990 C   0  0  0  0  0
  -13.4240  -27.7320  -30.0530 C   0  0  0  0  0
  -13.4520  -28.1260  -28.7880 F   0  0  0  0  0
  -14.4160  -26.8710  -30.1790 F   0  0  0  0  0
  -12.2680  -27.1190  -30.3070 F   0  0  0  0  0
   -5.0448  -38.2602  -27.0714 H   0  0  0  0  0
   -5.2048  -39.1892  -28.5821 H   0  0  0  0  0
   -6.0196  -39.7501  -27.1014 H   0  0  0  0  0
   -3.6953  -37.9285  -28.7640 H   0  0  0  0  0
   -1.4367  -40.0750  -24.5365 H   0  0  0  0  0
   -3.1131  -40.3909  -25.0473 H   0  0  0  0  0
   -2.1364  -41.7006  -24.3388 H   0  0  0  0  0
    1.0162  -39.8694  -25.1661 H   0  0  0  0  0
    0.4691  -41.4783  -25.6983 H   0  0  0  0  0
    2.1839  -41.0241  -25.8548 H   0  0  0  0  0
    0.5911  -38.0702  -28.8196 H   0  0  0  0  0
   -0.5625  -36.3746  -29.8824 H   0  0  0  0  0
   -3.1575  -33.4425  -32.0858 H   0  0  0  0  0
   -5.2706  -38.4692  -30.0155 H   0  0  0  0  0
   -7.4220  -39.7230  -29.9904 H   0  0  0  0  0
   -9.4099  -38.7700  -31.1649 H   0  0  0  0  0
   -6.4145  -34.5787  -32.4958 H   0  0  0  0  0
   -9.1356  -33.4942  -31.7625 H   0  0  0  0  0
   -6.5168  -35.8275  -35.3246 H   0  0  0  0  0
   -7.4637  -37.1967  -34.6924 H   0  0  0  0  0
   -7.8605  -36.4981  -36.2816 H   0  0  0  0  0
   -9.6944  -35.2453  -36.3670 H   0  0  0  0  0
  -11.3618  -33.6927  -35.4386 H   0  0  0  0  0
  -12.0491  -32.4285  -33.8879 H   0  0  0  0  0
  -11.6398  -29.7335  -30.5281 H   0  0  0  0  0
  -13.9273  -32.0286  -33.3429 H   0  0  0  0  0
  -15.7708  -30.3655  -33.1883 H   0  0  0  0  0
  -15.5555  -28.4072  -31.6781 H   0  0  0  0  0
  1  2  1  0  0  0
  2  3  1  0  0  0
  3  4  4  0  0  0
  3  5  4  0  0  0
  4 12  4  0  0  0
  5  6  1  0  0  0
  5  8  4  0  0  0
  6  7  1  0  0  0
  8  9  1  0  0  0
  8 11  4  0  0  0
  9 10  1  0  0  0
 11 12  4  0  0  0
 12 13  1  0  0  0
 13 14  1  0  0  0
 14 15  4  0  0  0
 14 16  4  0  0  0
 15 19  4  0  0  0
 16 17  4  0  0  0
 17 18  4  0  0  0
 18 19  4  0  0  0
 19 20  1  0  0  0
 20 21  4  0  0  0
 20 25  4  0  0  0
 21 22  4  0  0  0
 22 23  4  0  0  0
 23 24  4  0  0  0
 24 25  4  0  0  0
 25 26  1  0  0  0
 26 27  1  0  0  0
 27 28  4  0  0  0
 27 29  4  0  0  0
 28 33  4  0  0  0
 29 30  1  0  0  0
 29 31  4  0  0  0
 31 32  4  0  0  0
 32 33  4  0  0  0
 33 34  1  0  0  0
 34 35  1  0  0  0
 35 36  2  0  0  0
 35 37  1  0  0  0
 37 38  4  0  0  0
 37 39  4  0  0  0
 38 42  4  0  0  0
 39 40  4  0  0  0
 40 41  4  0  0  0
 41 42  4  0  0  0
 42 43  1  0  0  0
 43 44  1  0  0  0
 43 45  1  0  0  0
 43 46  1  0  0  0
  1 47  1  0  0  0
  1 48  1  0  0  0
  1 49  1  0  0  0
  4 50  1  0  0  0
  7 51  1  0  0  0
  7 52  1  0  0  0
  7 53  1  0  0  0
 10 54  1  0  0  0
 10 55  1  0  0  0
 10 56  1  0  0  0
 11 57  1  0  0  0
 13 58  1  0  0  0
 17 59  1  0  0  0
 21 60  1  0  0  0
 22 61  1  0  0  0
 23 62  1  0  0  0
 26 63  1  0  0  0
 28 64  1  0  0  0
 30 65  1  0  0  0
 30 66  1  0  0  0
 30 67  1  0  0  0
 31 68  1  0  0  0
 32 69  1  0  0  0
 34 70  1  0  0  0
 38 71  1  0  0  0
 39 72  1  0  0  0
 40 73  1  0  0  0
 41 74  1  0  0  0
M  END
$$$$
