6c91_ligand
  -I-interpret- 

 40 42  0  0  0  0  0  0  0  0999 V2000
   18.5960   -9.3440   19.3810 C   0  0  0  0  0
   19.7910   -8.9680   20.0100 C   0  0  0  0  0
   20.3560   -9.8250   20.9930 C   0  0  0  0  0
   20.0450   -9.4390   22.4260 C   0  0  0  0  0
   21.0460  -10.0800   23.4190 C   0  0  0  0  0
   22.6280  -10.2430   24.8470 C   0  0  0  0  0
   22.1230  -11.4720   24.6680 C   0  0  0  0  0
   20.3470  -12.5320   23.3390 C   0  0  0  0  0
   20.9200  -13.3280   22.3500 C   0  0  0  0  0
   22.2900  -13.4950   22.2320 C   0  0  0  0  0
   22.7900  -14.3200   21.2230 C   0  0  0  0  0
   21.9460  -14.9880   20.3400 C   0  0  0  0  0
   20.5760  -14.8210   20.4610 C   0  0  0  0  0
   20.0790  -14.0000   21.4650 C   0  0  0  0  0
   20.4180   -7.7750   19.5970 C   0  0  0  0  0
   19.8300   -7.0050   18.6070 C   0  0  0  0  0
   18.6450   -7.3650   18.0070 C   0  0  0  0  0
   18.0460   -8.5410   18.3970 C   0  0  0  0  0
   21.9620   -9.3690   24.0850 N   0  0  0  0  0
   21.1470  -11.3790   23.7650 N   0  0  0  0  0
   20.4750   -5.8630   18.2720 O   0  0  0  0  0
   16.8820   -8.9570   17.8440 O   0  0  0  0  0
   17.7710  -10.8030   19.8220 Cl  0  0  0  0  0
   21.9380   -7.1790   20.3020 Cl  0  0  0  0  0
   21.4384   -9.7692   20.8776 H   0  0  0  0  0
   19.9304  -10.8155   20.8322 H   0  0  0  0  0
   19.0436   -9.7943   22.6689 H   0  0  0  0  0
   20.1184   -8.3551   22.5144 H   0  0  0  0  0
   23.4550   -9.9943   25.5120 H   0  0  0  0  0
   22.4511  -12.3822   25.1699 H   0  0  0  0  0
   20.2263  -13.1669   24.2167 H   0  0  0  0  0
   19.4247  -12.1311   22.9186 H   0  0  0  0  0
   22.9689  -12.9887   22.9182 H   0  0  0  0  0
   23.8684  -14.4443   21.1240 H   0  0  0  0  0
   22.3574  -15.6336   19.5641 H   0  0  0  0  0
   19.8961  -15.3280   19.7763 H   0  0  0  0  0
   19.0004  -13.8778   21.5635 H   0  0  0  0  0
   18.1921   -6.7344   17.2419 H   0  0  0  0  0
   19.9845   -5.4104   17.5819 H   0  0  0  0  0
   16.6004   -8.3238   17.1796 H   0  0  0  0  0
  2  1  4  0  0  0
  1 18  4  0  0  0
  1 23  1  0  0  0
  3  2  1  0  0  0
  2 15  4  0  0  0
  4  3  1  0  0  0
  5  4  1  0  0  0
  5 19  4  0  0  0
 20  5  4  0  0  0
  7  6  4  0  0  0
  6 19  4  0  0  0
 20  7  4  0  0  0
  8  9  1  0  0  0
  8 20  1  0  0  0
  9 10  4  0  0  0
  9 14  4  0  0  0
 10 11  4  0  0  0
 11 12  4  0  0  0
 12 13  4  0  0  0
 13 14  4  0  0  0
 15 16  4  0  0  0
 15 24  1  0  0  0
 16 17  4  0  0  0
 16 21  1  0  0  0
 17 18  4  0  0  0
 18 22  1  0  0  0
  3 25  1  0  0  0
  3 26  1  0  0  0
  4 27  1  0  0  0
  4 28  1  0  0  0
  6 29  1  0  0  0
  7 30  1  0  0  0
  8 31  1  0  0  0
  8 32  1  0  0  0
 10 33  1  0  0  0
 11 34  1  0  0  0
 12 35  1  0  0  0
 13 36  1  0  0  0
 14 37  1  0  0  0
 17 38  1  0  0  0
 21 39  1  0  0  0
 22 40  1  0  0  0
M  END
$$$$
