5tc0_ligand
  -I-interpret- 

 47 50  0  0  0  0  0  0  0  0999 V2000
   10.5960   13.8070   18.7640 C   0  0  0  0  0
   10.3390   13.6460   17.2600 C   0  0  0  0  0
   14.1910   13.2310   15.6090 C   0  0  0  0  0
   15.4850   15.1390   14.6730 C   0  0  0  0  0
   16.4420   16.0590   14.0230 C   0  0  0  0  0
   18.2780   17.7560   12.7840 C   0  0  0  0  0
   17.4220   18.2460   13.7740 C   0  0  0  0  0
   16.4810   17.4140   14.4060 C   0  0  0  0  0
   15.6210   18.9590   16.1640 C   0  0  0  0  0
   14.6590   19.1070   17.2580 C   0  0  0  0  0
   13.0380   18.7190   18.6290 C   0  0  0  0  0
   13.1160   13.9660   21.3170 C   0  0  0  0  0
   11.9990   15.2030   20.6230 S   0  0  0  0  0
   10.7320   15.1500   21.2660 O   0  0  0  0  0
   12.7220   16.4210   20.5450 O   0  0  0  0  0
   11.7980   14.6180   19.0800 N   0  0  0  0  0
   11.5820   13.5440   16.5420 O   0  0  0  0  0
   12.4460   14.6840   16.6280 C   0  0  0  0  0
   12.8670   14.8930   18.0860 C   0  0  0  0  0
   13.7050   14.4560   15.8340 C   0  0  0  0  0
   15.6860   13.3980   14.6780 S   0  0  0  0  0
   14.4020   15.4540   15.3370 N   0  0  0  0  0
   17.3090   15.5700   13.0270 C   0  0  0  0  0
   18.2190   16.4130   12.4130 C   0  0  0  0  0
   15.6120   17.8110   15.4440 N   0  0  0  0  0
   16.3800   19.8810   15.9520 O   0  0  0  0  0
   13.6890   18.2660   17.5570 N   0  0  0  0  0
   13.6210   19.8800   19.0260 C   0  0  0  0  0
   14.6590   20.1250   18.1760 N   0  0  0  0  0
   10.7574   12.8107   19.1757 H   0  0  0  0  0
    9.7343   14.3220   19.1887 H   0  0  0  0  0
    9.7934   14.5180   16.8995 H   0  0  0  0  0
    9.7606   12.7368   17.0958 H   0  0  0  0  0
   13.7444   12.2937   15.9410 H   0  0  0  0  0
   18.9919   18.4237   12.3017 H   0  0  0  0  0
   17.4851   19.2953   14.0623 H   0  0  0  0  0
   12.1832   18.2392   19.1057 H   0  0  0  0  0
   13.2513   14.1570   22.3816 H   0  0  0  0  0
   12.6891   12.9730   21.1761 H   0  0  0  0  0
   14.0796   14.0237   20.8108 H   0  0  0  0  0
   11.9051   15.5471   16.2399 H   0  0  0  0  0
   13.6783   14.1935   18.2876 H   0  0  0  0  0
   13.1397   15.9430   18.1924 H   0  0  0  0  0
   17.2632   14.5201   12.7375 H   0  0  0  0  0
   18.8871   16.0286   11.6423 H   0  0  0  0  0
   14.8784   17.1445   15.6849 H   0  0  0  0  0
   13.3156   20.5009   19.8682 H   0  0  0  0  0
  2  1  1  0  0  0
 16  1  1  0  0  0
 17  2  1  0  0  0
 20  3  4  0  0  0
  3 21  4  0  0  0
  4  5  1  0  0  0
 21  4  4  0  0  0
  4 22  4  0  0  0
  5  8  4  0  0  0
  5 23  4  0  0  0
  7  6  4  0  0  0
  6 24  4  0  0  0
  8  7  4  0  0  0
  8 25  1  0  0  0
  9 10  1  0  0  0
 25  9  1  0  0  0
  9 26  2  0  0  0
 10 27  4  0  0  0
 10 29  4  0  0  0
 27 11  4  0  0  0
 11 28  4  0  0  0
 13 12  1  0  0  0
 13 14  2  0  0  0
 13 15  2  0  0  0
 16 13  1  0  0  0
 19 16  1  0  0  0
 18 17  1  0  0  0
 18 19  1  0  0  0
 18 20  1  0  0  0
 20 22  4  0  0  0
 23 24  4  0  0  0
 28 29  4  0  0  0
  1 30  1  0  0  0
  1 31  1  0  0  0
  2 32  1  0  0  0
  2 33  1  0  0  0
  3 34  1  0  0  0
  6 35  1  0  0  0
  7 36  1  0  0  0
 11 37  1  0  0  0
 12 38  1  0  0  0
 12 39  1  0  0  0
 12 40  1  0  0  0
 18 41  1  0  0  0
 19 42  1  0  0  0
 19 43  1  0  0  0
 23 44  1  0  0  0
 24 45  1  0  0  0
 25 46  1  0  0  0
 28 47  1  0  0  0
M  END
$$$$
