2fwz_ligand
  -I-interpret- 

 50 53  0  0  0  0  0  0  0  0999 V2000
    2.3670    5.2300   28.4990 C   0  0  0  0  0
    1.8480    4.9660   27.0850 C   0  0  0  0  0
    0.3730    5.3590   26.9650 C   0  0  0  0  0
    2.6460    5.7280   26.1140 N   0  3  0  0  0
    2.4460    7.1690   26.3230 C   0  0  0  0  0
    3.5090    7.9660   25.5650 C   0  0  0  0  0
    3.3810    9.4550   25.8880 C   0  0  0  0  0
    2.1650   10.0230   25.2820 N   0  0  0  0  0
    0.9500   10.0700   25.8350 C   0  0  0  0  0
    0.4310    9.6260   26.9860 N   0  0  0  0  0
   -0.8470    9.8180   27.2610 C   0  0  0  0  0
   -1.6490   10.4480   26.4220 N   0  0  0  0  0
   -1.1930   10.9170   25.2500 C   0  0  0  0  0
   -2.0210   11.5340   24.4120 N   0  0  0  0  0
    0.1440   10.7340   24.9260 C   0  0  0  0  0
    0.8870   11.0630   23.8630 N   0  0  0  0  0
    2.1170   10.6170   24.1040 C   0  0  0  0  0
    3.4950   10.7990   23.0330 S   0  0  0  0  0
    4.3930   12.0430   23.8670 C   0  0  0  0  0
    3.7310   13.1550   24.3640 C   0  0  0  0  0
    4.4350   14.1620   25.0020 C   0  0  0  0  0
    4.0540   15.3480   25.5500 O   0  0  0  0  0
    5.2370   16.1460   25.4200 C   0  0  0  0  0
    6.2530   15.1930   25.7630 O   0  0  0  0  0
    5.8220   14.0610   25.1460 C   0  0  0  0  0
    6.4870   12.9460   24.6520 C   0  0  0  0  0
    5.7840   11.9360   24.0150 C   0  0  0  0  0
    6.8040   10.2360   23.3020 I   0  0  0  0  0
    3.4100    4.9205   28.5655 H   0  0  0  0  0
    2.2876    6.2942   28.7210 H   0  0  0  0  0
    1.7720    4.6628   29.2148 H   0  0  0  0  0
    1.9391    3.9001   26.8762 H   0  0  0  0  0
    0.2648    6.4249   27.1656 H   0  0  0  0  0
    0.0209    5.1402   25.9569 H   0  0  0  0  0
   -0.2130    4.7907   27.6873 H   0  0  0  0  0
    2.3516    5.4811   25.1691 H   0  0  0  0  0
    3.6330    5.5037   26.2400 H   0  0  0  0  0
    2.5267    7.3895   27.3874 H   0  0  0  0  0
    1.4595    7.4493   25.9537 H   0  0  0  0  0
    3.3692    7.8195   24.4940 H   0  0  0  0  0
    4.4976    7.6190   25.8656 H   0  0  0  0  0
    4.2492    9.9764   25.4850 H   0  0  0  0  0
    3.3216    9.5746   26.9698 H   0  0  0  0  0
   -1.2493    9.4472   28.2037 H   0  0  0  0  0
   -3.0035   11.6511   24.6597 H   0  0  0  0  0
   -1.6736   11.8901   23.5216 H   0  0  0  0  0
    2.6499   13.2370   24.2518 H   0  0  0  0  0
    5.2384   17.0360   26.0492 H   0  0  0  0  0
    5.3635   16.5871   24.4313 H   0  0  0  0  0
    7.5680   12.8651   24.7661 H   0  0  0  0  0
  1  2  1  0  0  0
  2  3  1  0  0  0
  2  4  1  0  0  0
  4  5  1  0  0  0
  5  6  1  0  0  0
  6  7  1  0  0  0
  7  8  1  0  0  0
  8  9  4  0  0  0
  8 17  4  0  0  0
  9 10  4  0  0  0
  9 15  4  0  0  0
 10 11  4  0  0  0
 11 12  4  0  0  0
 12 13  4  0  0  0
 13 14  1  0  0  0
 13 15  4  0  0  0
 15 16  4  0  0  0
 16 17  4  0  0  0
 17 18  1  0  0  0
 18 19  1  0  0  0
 19 20  4  0  0  0
 19 27  4  0  0  0
 20 21  4  0  0  0
 21 22  1  0  0  0
 21 25  4  0  0  0
 22 23  1  0  0  0
 23 24  1  0  0  0
 24 25  1  0  0  0
 25 26  4  0  0  0
 26 27  4  0  0  0
 27 28  1  0  0  0
  1 29  1  0  0  0
  1 30  1  0  0  0
  1 31  1  0  0  0
  2 32  1  0  0  0
  3 33  1  0  0  0
  3 34  1  0  0  0
  3 35  1  0  0  0
  4 36  1  0  0  0
  4 37  1  0  0  0
  5 38  1  0  0  0
  5 39  1  0  0  0
  6 40  1  0  0  0
  6 41  1  0  0  0
  7 42  1  0  0  0
  7 43  1  0  0  0
 11 44  1  0  0  0
 14 45  1  0  0  0
 14 46  1  0  0  0
 20 47  1  0  0  0
 23 48  1  0  0  0
 23 49  1  0  0  0
 26 50  1  0  0  0
M  END
$$$$
