6h7f_ligand
  -I-interpret- 

 42 44  0  0  0  0  0  0  0  0999 V2000
  -69.0480   36.8680    1.0570 C   0  0  0  0  0
  -69.9180   37.6130    0.3860 N   0  0  0  0  0
  -71.1690   37.2890    0.8470 C   0  0  0  0  0
  -71.0830   36.3330    1.8310 N   0  0  0  0  0
  -69.7680   36.1060    1.9400 C   0  0  0  0  0
  -69.1230   35.1280    2.9000 C   0  0  0  0  0
  -69.4080   33.6810    2.4670 C   0  0  0  0  0
  -70.8510   33.4640    2.4910 N   0  0  0  0  0
  -71.5990   34.1650    3.4010 O   0  0  0  0  0
  -71.4480   32.5960    1.7010 C   0  0  0  0  0
  -70.7990   31.9060    0.8660 O   0  0  0  0  0
  -72.8600   32.6020    1.8490 C   0  0  0  0  0
  -73.3910   33.9680    1.5420 N   0  0  0  0  0
  -73.5800   31.7160    0.8520 C   0  0  0  0  0
  -74.5780   30.7490    1.5360 C   0  0  0  0  0
  -74.3780   32.5960    0.0530 O   0  0  0  0  0
  -74.2750   33.8700    0.5280 C   0  0  0  0  0
  -74.8940   34.9120   -0.0790 C   0  0  0  0  0
  -75.6850   34.6690   -1.2080 C   0  0  0  0  0
  -76.3360   35.7220   -1.8740 C   0  0  0  0  0
  -76.1760   37.0490   -1.4320 C   0  0  0  0  0
  -75.3690   37.2920   -0.3170 C   0  0  0  0  0
  -75.1590   38.5440    0.1920 O   0  0  0  0  0
  -74.7340   36.2220    0.3240 C   0  0  0  0  0
  -73.9760   36.4700    1.4070 O   0  0  0  0  0
  -67.9655   36.8632    0.9298 H   0  0  0  0  0
  -72.0988   37.7273    0.4845 H   0  0  0  0  0
  -69.5344   35.2868    3.8968 H   0  0  0  0  0
  -68.0453   35.2915    2.9011 H   0  0  0  0  0
  -68.9166   32.9860    3.1479 H   0  0  0  0  0
  -69.0238   33.5119    1.4611 H   0  0  0  0  0
  -72.5238   33.9256    3.3056 H   0  0  0  0  0
  -73.0340   32.2606    2.8694 H   0  0  0  0  0
  -72.8419   31.1321    0.3022 H   0  0  0  0  0
  -74.0396   30.1058    2.2320 H   0  0  0  0  0
  -75.3275   31.3259    2.0779 H   0  0  0  0  0
  -75.0668   30.1372    0.7778 H   0  0  0  0  0
  -75.7977   33.6492   -1.5758 H   0  0  0  0  0
  -76.9676   35.5100   -2.7367 H   0  0  0  0  0
  -76.6716   37.8706   -1.9491 H   0  0  0  0  0
  -74.5769   38.4853    0.9531 H   0  0  0  0  0
  -73.9528   37.4157    1.5702 H   0  0  0  0  0
  1  2  4  0  0  0
  1  5  4  0  0  0
  2  3  4  0  0  0
  3  4  4  0  0  0
  4  5  4  0  0  0
  5  6  1  0  0  0
  6  7  1  0  0  0
  7  8  1  0  0  0
  8  9  1  0  0  0
  8 10  1  0  0  0
 10 11  2  0  0  0
 10 12  1  0  0  0
 12 13  1  0  0  0
 12 14  1  0  0  0
 13 17  2  0  0  0
 14 15  1  0  0  0
 14 16  1  0  0  0
 16 17  1  0  0  0
 17 18  1  0  0  0
 18 19  4  0  0  0
 18 24  4  0  0  0
 19 20  4  0  0  0
 20 21  4  0  0  0
 21 22  4  0  0  0
 22 23  1  0  0  0
 22 24  4  0  0  0
 24 25  1  0  0  0
  1 26  1  0  0  0
  3 27  1  0  0  0
  6 28  1  0  0  0
  6 29  1  0  0  0
  7 30  1  0  0  0
  7 31  1  0  0  0
  9 32  1  0  0  0
 12 33  1  0  0  0
 14 34  1  0  0  0
 15 35  1  0  0  0
 15 36  1  0  0  0
 15 37  1  0  0  0
 19 38  1  0  0  0
 20 39  1  0  0  0
 21 40  1  0  0  0
 23 41  1  0  0  0
 25 42  1  0  0  0
M  END
$$$$
