3hxf_ligand
  -I-interpret- 

107110  0  0  0  0  0  0  0  0999 V2000
    2.8970   26.9640   18.8130 C   0  0  0  0  0
    3.6960   27.9520   17.9640 C   0  0  0  0  0
    5.2210   27.7460   17.8900 C   0  0  0  0  0
    5.9090   26.9850   19.0190 C   0  0  0  0  0
    7.0470   26.1560   18.4470 C   0  0  0  0  0
    8.1550   25.8360   19.4540 C   0  0  0  0  0
    8.3420   24.3310   19.6690 C   0  0  0  0  0
    7.1730   23.4610   19.2500 C   0  0  0  0  0
    7.4760   22.0300   19.5710 C   0  0  0  0  0
    6.7990   21.0000   18.6930 C   0  0  0  0  0
    6.4830   19.8710   19.6820 C   0  0  0  0  0
    7.4220   19.3920   20.3200 O   0  0  0  0  0
    5.2080   19.4950   19.7660 N   0  0  0  0  0
    4.6480   18.5100   20.6890 C   0  0  0  0  0
    5.0300   17.0380   20.5230 C   0  0  0  0  0
    4.3120   16.0890   21.5210 C   0  0  0  0  0
    3.0030   15.9700   21.7050 C   0  0  0  0  0
    2.7980   15.0560   22.6460 N   0  0  0  0  0
    3.9600   14.6010   23.0810 C   0  0  0  0  0
    4.9010   15.2380   22.3870 N   0  0  0  0  0
    4.7710   19.2120   22.0920 C   0  0  0  0  0
    4.6590   20.4310   22.0510 O   0  0  0  0  0
    4.9860   18.5690   23.2620 N   0  0  0  0  0
    4.9870   19.3410   24.5450 C   0  0  0  0  0
    4.7640   18.3880   25.7240 C   0  0  0  0  0
    3.4210   17.6440   25.5500 C   0  0  0  0  0
    2.4760   17.8340   24.6350 C   0  0  0  0  0
    1.4720   16.9400   24.8370 N   0  0  0  0  0
    1.7780   16.2080   25.8820 C   0  0  0  0  0
    2.9770   16.6310   26.3070 N   0  0  0  0  0
    6.2630   20.1650   24.7620 C   0  0  0  0  0
    7.3520   19.5960   24.6350 O   0  0  0  0  0
    6.0540   21.4650   25.0400 N   0  0  0  0  0
    7.1460   22.4270   25.3000 C   0  0  0  0  0
    7.5200   23.1910   24.0220 C   0  0  0  0  0
    6.6350   24.3710   23.5600 C   0  0  0  0  0
    5.5280   24.1130   22.7630 C   0  0  0  0  0
    4.7300   25.1650   22.3150 C   0  0  0  0  0
    5.0490   26.4870   22.6370 C   0  0  0  0  0
    4.2680   27.4980   22.1840 O   0  0  0  0  0
    6.1800   26.7440   23.4250 C   0  0  0  0  0
    6.9660   25.6920   23.8770 C   0  0  0  0  0
    6.6710   23.4820   26.2640 C   0  0  0  0  0
    5.4790   23.6710   26.2690 O   0  0  0  0  0
    7.5480   24.1490   27.0470 N   0  0  0  0  0
    6.9560   25.1650   27.9560 C   0  0  0  0  0
    9.0040   23.8820   27.0950 C   0  0  0  0  0
    9.3750   23.2370   28.4820 C   0  0  0  0  0
    8.6160   21.9370   28.6570 C   0  0  0  0  0
    8.9020   20.8830   27.8420 C   0  0  0  0  0
    8.1870   19.6780   27.9700 C   0  0  0  0  0
    7.1560   19.6280   28.9240 C   0  0  0  0  0
    6.9010   20.7240   29.7340 C   0  0  0  0  0
    7.6140   21.8400   29.5720 N   0  0  0  0  0
    3.0362   25.9559   18.4225 H   0  0  0  0  0
    3.2471   27.0071   19.8443 H   0  0  0  0  0
    1.8398   27.2268   18.7756 H   0  0  0  0  0
    3.5517   28.9265   18.4304 H   0  0  0  0  0
    3.3312   27.8279   16.9444 H   0  0  0  0  0
    5.6458   28.7493   17.9227 H   0  0  0  0  0
    5.3836   27.1407   16.9982 H   0  0  0  0  0
    5.1892   26.3281   19.5073 H   0  0  0  0  0
    6.3042   27.6928   19.7477 H   0  0  0  0  0
    7.4991   26.7391   17.6447 H   0  0  0  0  0
    6.6224   25.2061   18.1222 H   0  0  0  0  0
    7.8761   26.2785   20.4103 H   0  0  0  0  0
    9.0897   26.2366   19.0616 H   0  0  0  0  0
    8.4690   24.1843   20.7416 H   0  0  0  0  0
    9.1884   24.0321   19.0506 H   0  0  0  0  0
    7.0078   23.5659   18.1777 H   0  0  0  0  0
    6.2773   23.7723   19.7874 H   0  0  0  0  0
    7.1117   21.8581   20.5838 H   0  0  0  0  0
    8.5485   21.9022   19.4242 H   0  0  0  0  0
    7.4227   20.6744   17.8605 H   0  0  0  0  0
    5.9122   21.3860   18.1903 H   0  0  0  0  0
    4.5559   19.9400   19.1202 H   0  0  0  0  0
    3.6062   18.2787   20.4671 H   0  0  0  0  0
    6.1008   16.9566   20.7095 H   0  0  0  0  0
    4.7352   16.7366   19.5178 H   0  0  0  0  0
    2.2299   16.5264   21.1752 H   0  0  0  0  0
    4.1173   13.8510   23.8562 H   0  0  0  0  0
    5.1469   17.5618   23.2705 H   0  0  0  0  0
    4.1686   20.0580   24.4805 H   0  0  0  0  0
    4.7407   18.9612   26.6509 H   0  0  0  0  0
    5.5761   17.6618   25.7586 H   0  0  0  0  0
    2.5019   18.5872   23.8475 H   0  0  0  0  0
    1.1753   15.4118   26.3190 H   0  0  0  0  0
    5.0926   21.8041   25.0730 H   0  0  0  0  0
    7.9913   21.8560   25.6840 H   0  0  0  0  0
    7.4398   22.4536   23.2233 H   0  0  0  0  0
    8.4898   23.6387   24.2391 H   0  0  0  0  0
    5.2825   23.0874   22.4873 H   0  0  0  0  0
    3.8494   24.9544   21.7081 H   0  0  0  0  0
    4.6213   28.3361   22.4912 H   0  0  0  0  0
    6.4424   27.7700   23.6829 H   0  0  0  0  0
    7.8479   25.8978   24.4837 H   0  0  0  0  0
    6.4364   25.9199   27.3659 H   0  0  0  0  0
    6.2503   24.6800   28.6304 H   0  0  0  0  0
    7.7487   25.6376   28.5360 H   0  0  0  0  0
    9.5488   24.8181   26.9728 H   0  0  0  0  0
    9.2738   23.1960   26.2920 H   0  0  0  0  0
    9.1066   23.9241   29.2845 H   0  0  0  0  0
   10.4462   23.0382   28.5142 H   0  0  0  0  0
    9.6857   20.9736   27.0899 H   0  0  0  0  0
    8.4244   18.8130   27.3507 H   0  0  0  0  0
    6.5549   18.7246   29.0274 H   0  0  0  0  0
    6.1242   20.6743   30.4971 H   0  0  0  0  0
  1  2  1  0  0  0
  2  3  1  0  0  0
  3  4  1  0  0  0
  4  5  1  0  0  0
  5  6  1  0  0  0
  6  7  1  0  0  0
  7  8  1  0  0  0
  8  9  1  0  0  0
  9 10  1  0  0  0
 10 11  1  0  0  0
 11 12  2  0  0  0
 11 13  1  0  0  0
 13 14  1  0  0  0
 14 15  1  0  0  0
 14 21  1  0  0  0
 15 16  1  0  0  0
 16 17  4  0  0  0
 16 20  4  0  0  0
 17 18  4  0  0  0
 18 19  4  0  0  0
 19 20  4  0  0  0
 21 22  2  0  0  0
 21 23  1  0  0  0
 23 24  1  0  0  0
 24 25  1  0  0  0
 24 31  1  0  0  0
 25 26  1  0  0  0
 26 27  4  0  0  0
 26 30  4  0  0  0
 27 28  4  0  0  0
 28 29  4  0  0  0
 29 30  4  0  0  0
 31 32  2  0  0  0
 31 33  1  0  0  0
 33 34  1  0  0  0
 34 35  1  0  0  0
 34 43  1  0  0  0
 35 36  1  0  0  0
 36 37  4  0  0  0
 36 42  4  0  0  0
 37 38  4  0  0  0
 38 39  4  0  0  0
 39 40  1  0  0  0
 39 41  4  0  0  0
 41 42  4  0  0  0
 43 44  2  0  0  0
 43 45  1  0  0  0
 45 46  1  0  0  0
 45 47  1  0  0  0
 47 48  1  0  0  0
 48 49  1  0  0  0
 49 50  4  0  0  0
 49 54  4  0  0  0
 50 51  4  0  0  0
 51 52  4  0  0  0
 52 53  4  0  0  0
 53 54  4  0  0  0
  1 55  1  0  0  0
  1 56  1  0  0  0
  1 57  1  0  0  0
  2 58  1  0  0  0
  2 59  1  0  0  0
  3 60  1  0  0  0
  3 61  1  0  0  0
  4 62  1  0  0  0
  4 63  1  0  0  0
  5 64  1  0  0  0
  5 65  1  0  0  0
  6 66  1  0  0  0
  6 67  1  0  0  0
  7 68  1  0  0  0
  7 69  1  0  0  0
  8 70  1  0  0  0
  8 71  1  0  0  0
  9 72  1  0  0  0
  9 73  1  0  0  0
 10 74  1  0  0  0
 10 75  1  0  0  0
 13 76  1  0  0  0
 14 77  1  0  0  0
 15 78  1  0  0  0
 15 79  1  0  0  0
 17 80  1  0  0  0
 19 81  1  0  0  0
 23 82  1  0  0  0
 24 83  1  0  0  0
 25 84  1  0  0  0
 25 85  1  0  0  0
 27 86  1  0  0  0
 29 87  1  0  0  0
 33 88  1  0  0  0
 34 89  1  0  0  0
 35 90  1  0  0  0
 35 91  1  0  0  0
 37 92  1  0  0  0
 38 93  1  0  0  0
 40 94  1  0  0  0
 41 95  1  0  0  0
 42 96  1  0  0  0
 46 97  1  0  0  0
 46 98  1  0  0  0
 46 99  1  0  0  0
 47100  1  0  0  0
 47101  1  0  0  0
 48102  1  0  0  0
 48103  1  0  0  0
 50104  1  0  0  0
 51105  1  0  0  0
 52106  1  0  0  0
 53107  1  0  0  0
M  END
$$$$
