### 
### Created by X-TOOL on Mon Sep 10 21:12:59 2018
### 

@<TRIPOS>MOLECULE
3hxf_ligand
  109   112     1     0     0
SMALL
GAST_HUCK


@<TRIPOS>ATOM
      1 C11         2.8970   26.9640   18.8130 C.3       1 BD9        -0.0653
      2 C10         3.6960   27.9520   17.9640 C.3       1 BD9        -0.0559
      3 C9          5.2210   27.7460   17.8900 C.3       1 BD9        -0.0533
      4 C1          5.9090   26.9850   19.0190 C.3       1 BD9        -0.0531
      5 C2          7.0470   26.1560   18.4470 C.3       1 BD9        -0.0531
      6 C3          8.1550   25.8360   19.4540 C.3       1 BD9        -0.0531
      7 C4          8.3420   24.3310   19.6690 C.3       1 BD9        -0.0529
      8 C5          7.1730   23.4610   19.2500 C.3       1 BD9        -0.0510
      9 C6          7.4760   22.0300   19.5710 C.3       1 BD9        -0.0361
     10 C7          6.7990   21.0000   18.6930 C.3       1 BD9         0.0374
     11 C8          6.4830   19.8710   19.6820 C.2       1 BD9         0.1783
     12 O1          7.4220   19.3920   20.3200 O.2       1 BD9        -0.3969
     13 N1          5.2080   19.4950   19.7660 N.am      1 BD9        -0.2638
     14 C12         4.6480   18.5100   20.6890 C.3       1 BD9         0.1420
     15 C27         5.0300   17.0380   20.5230 C.3       1 BD9         0.0427
     16 C28         4.3120   16.0890   21.5210 C.2       1 BD9         0.0561
     17 C29         3.0030   15.9700   21.7050 C.2       1 BD9        -0.0276
     18 N6          2.7980   15.0560   22.6460 N.2       1 BD9        -0.3437
     19 C30         3.9600   14.6010   23.0810 C.2       1 BD9         0.0875
     20 N7          4.9010   15.2380   22.3870 N.pl3     1 BD9        -0.2623
     21 C13         4.7710   19.2120   22.0920 C.2       1 BD9         0.2061
     22 O2          4.6590   20.4310   22.0510 O.2       1 BD9        -0.3942
     23 N2          4.9860   18.5690   23.2620 N.am      1 BD9        -0.2623
     24 C14         4.9870   19.3410   24.5450 C.3       1 BD9         0.1369
     25 C31         4.7640   18.3880   25.7240 C.3       1 BD9         0.0145
     26 C32         3.4210   17.6440   25.5500 C.2       1 BD9        -0.0027
     27 C33         2.4760   17.8340   24.6350 C.2       1 BD9         0.0291
     28 N8          1.4720   16.9400   24.8370 N.pl3     1 BD9        -0.2752
     29 C34         1.7780   16.2080   25.8820 C.2       1 BD9         0.0907
     30 N9          2.9770   16.6310   26.3070 N.2       1 BD9        -0.3252
     31 C15         6.2630   20.1650   24.7620 C.2       1 BD9         0.2055
     32 O3          7.3520   19.5960   24.6350 O.2       1 BD9        -0.3942
     33 N3          6.0540   21.4650   25.0400 N.am      1 BD9        -0.2620
     34 C16         7.1460   22.4270   25.3000 C.3       1 BD9         0.1391
     35 C17         7.5200   23.1910   24.0220 C.3       1 BD9         0.0164
     36 C38         6.6350   24.3710   23.5600 C.ar      1 BD9        -0.0493
     37 C37         5.5280   24.1130   22.7630 C.ar      1 BD9        -0.0685
     38 C36         4.7300   25.1650   22.3150 C.ar      1 BD9        -0.0398
     39 C35         5.0490   26.4870   22.6370 C.ar      1 BD9         0.0805
     40 O5          4.2680   27.4980   22.1840 O.3       1 BD9        -0.3376
     41 C40         6.1800   26.7440   23.4250 C.ar      1 BD9        -0.0398
     42 C39         6.9660   25.6920   23.8770 C.ar      1 BD9        -0.0685
     43 C18         6.6710   23.4820   26.2640 C.2       1 BD9         0.2059
     44 O4          5.4790   23.6710   26.2690 O.2       1 BD9        -0.3942
     45 N4          7.5480   24.1490   27.0470 N.am      1 BD9        -0.2720
     46 C19         6.9560   25.1650   27.9560 C.3       1 BD9         0.0228
     47 C20         9.0040   23.8820   27.0950 C.3       1 BD9         0.0453
     48 C21         9.3750   23.2370   28.4820 C.3       1 BD9         0.0169
     49 C24         8.6160   21.9370   28.6570 C.ar      1 BD9         0.0300
     50 C25         8.9020   20.8830   27.8420 C.ar      1 BD9        -0.0323
     51 C26         8.1870   19.6780   27.9700 C.ar      1 BD9        -0.0489
     52 C22         7.1560   19.6280   28.9240 C.ar      1 BD9        -0.0410
     53 C23         6.9010   20.7240   29.7340 C.ar      1 BD9         0.0028
     54 N5          7.6140   21.8400   29.5720 N.ar      1 BD9        -0.2980
     55 H1          1.8298   27.2282   18.7760 H         1 BD9         0.0230
     56 H2          3.2494   27.0065   19.8542 H         1 BD9         0.0230
     57 H3          3.0365   25.9462   18.4199 H         1 BD9         0.0230
     58 H4          3.5177   28.9580   18.3716 H         1 BD9         0.0263
     59 H5          3.3048   27.8976   16.9374 H         1 BD9         0.0263
     60 H6          5.6815   28.7439   17.8435 H         1 BD9         0.0265
     61 H7          5.4302   27.2018   16.9572 H         1 BD9         0.0265
     62 H8          5.1824   26.3214   19.5107 H         1 BD9         0.0265
     63 H9          6.3085   27.6997   19.7535 H         1 BD9         0.0265
     64 H10         7.4922   26.7122   17.6088 H         1 BD9         0.0265
     65 H11         6.6313   25.2069   18.0777 H         1 BD9         0.0265
     66 H12         7.8992   26.3000   20.4180 H         1 BD9         0.0265
     67 H13         9.1004   26.2586   19.0831 H         1 BD9         0.0265
     68 H14         8.5232   24.1618   20.7407 H         1 BD9         0.0265
     69 H15         9.2240   24.0135   19.0934 H         1 BD9         0.0265
     70 H16         7.0065   23.5667   18.1678 H         1 BD9         0.0267
     71 H17         6.2691   23.7750   19.7925 H         1 BD9         0.0267
     72 H18         7.1656   21.8442   20.6098 H         1 BD9         0.0290
     73 H19         8.5630   21.8871   19.4819 H         1 BD9         0.0290
     74 H20         7.4734   20.6526   17.8965 H         1 BD9         0.0502
     75 H21         5.8793   21.4037   18.2446 H         1 BD9         0.0502
     76 H22         4.5686   19.9313   19.1328 H         1 BD9         0.1884
     77 H23         3.5693   18.4928   20.4741 H         1 BD9         0.0824
     78 H24         6.1155   16.9421   20.6728 H         1 BD9         0.0491
     79 H25         4.7719   16.7257   19.5003 H         1 BD9         0.0491
     80 H26         2.2306   16.5259   21.1757 H         1 BD9         0.0324
     81 H27         4.1171   13.8517   23.8555 H         1 BD9         0.1149
     82 H28         5.9165   15.1028   22.4940 H         1 BD9         0.2386
     83 H29         5.1437   17.5816   23.2704 H         1 BD9         0.1885
     84 H30         4.1425   20.0449   24.5086 H         1 BD9         0.0817
     85 H31         4.7431   18.9646   26.6605 H         1 BD9         0.0420
     86 H32         5.5844   17.6562   25.7621 H         1 BD9         0.0420
     87 H33         2.5019   18.5865   23.8482 H         1 BD9         0.0729
     88 H34         0.6181   16.8524   24.2677 H         1 BD9         0.2361
     89 H35         1.1759   15.4126   26.3186 H         1 BD9         0.1199
     90 H36         5.1114   21.7974   25.0724 H         1 BD9         0.1885
     91 H37         8.0207   21.8948   25.7021 H         1 BD9         0.0821
     92 H38         7.5315   22.4582   23.2017 H         1 BD9         0.0453
     93 H39         8.5341   23.5899   24.1717 H         1 BD9         0.0453
     94 H40         5.2838   23.0931   22.4888 H         1 BD9         0.0530
     95 H41         3.8542   24.9555   21.7115 H         1 BD9         0.0525
     96 H42         4.6176   28.3274   22.4880 H         1 BD9         0.2458
     97 H43         6.4410   27.7644   23.6815 H         1 BD9         0.0525
     98 H44         7.8430   25.8966   24.4803 H         1 BD9         0.0530
     99 H45         7.7551   25.6427   28.5419 H         1 BD9         0.0486
    100 H46         6.2436   24.6768   28.6373 H         1 BD9         0.0486
    101 H47         6.4313   25.9275   27.3616 H         1 BD9         0.0486
    102 H48         9.5541   24.8265   26.9713 H         1 BD9         0.0548
    103 H49         9.2766   23.1901   26.2845 H         1 BD9         0.0548
    104 H50         9.1051   23.9304   29.2922 H         1 BD9         0.0475
    105 H51        10.4561   23.0370   28.5154 H         1 BD9         0.0475
    106 H52         9.6814   20.9731   27.0940 H         1 BD9         0.0651
    107 H53         8.4231   18.8178   27.3541 H         1 BD9         0.0719
    108 H54         6.5582   18.7296   29.0268 H         1 BD9         0.0652
    109 H55         6.1285   20.6746   30.4929 H         1 BD9         0.0803
@<TRIPOS>BOND
     1    1    2 1  
     2    2    3 1  
     3    3    4 1  
     4    4    5 1  
     5    5    6 1  
     6    6    7 1  
     7    7    8 1  
     8    8    9 1  
     9    9   10 1  
    10   10   11 1  
    11   11   12 2  
    12   11   13 am 
    13   13   14 1  
    14   14   15 1  
    15   14   21 1  
    16   15   16 1  
    17   16   17 2  
    18   16   20 1  
    19   17   18 1  
    20   18   19 2  
    21   19   20 1  
    22   21   22 2  
    23   21   23 am 
    24   23   24 1  
    25   24   25 1  
    26   24   31 1  
    27   25   26 1  
    28   26   27 2  
    29   26   30 1  
    30   27   28 1  
    31   28   29 1  
    32   29   30 2  
    33   31   32 2  
    34   31   33 am 
    35   33   34 1  
    36   34   35 1  
    37   34   43 1  
    38   35   36 1  
    39   36   37 ar 
    40   36   42 ar 
    41   37   38 ar 
    42   38   39 ar 
    43   39   40 1  
    44   39   41 ar 
    45   41   42 ar 
    46   43   44 2  
    47   43   45 am 
    48   45   46 1  
    49   45   47 1  
    50   47   48 1  
    51   48   49 1  
    52   49   50 ar 
    53   49   54 ar 
    54   50   51 ar 
    55   51   52 ar 
    56   52   53 ar 
    57   53   54 ar 
    58    1   55 1  
    59    1   56 1  
    60    1   57 1  
    61    2   58 1  
    62    2   59 1  
    63    3   60 1  
    64    3   61 1  
    65    4   62 1  
    66    4   63 1  
    67    5   64 1  
    68    5   65 1  
    69    6   66 1  
    70    6   67 1  
    71    7   68 1  
    72    7   69 1  
    73    8   70 1  
    74    8   71 1  
    75    9   72 1  
    76    9   73 1  
    77   10   74 1  
    78   10   75 1  
    79   13   76 1  
    80   14   77 1  
    81   15   78 1  
    82   15   79 1  
    83   17   80 1  
    84   19   81 1  
    85   20   82 1  
    86   23   83 1  
    87   24   84 1  
    88   25   85 1  
    89   25   86 1  
    90   27   87 1  
    91   28   88 1  
    92   29   89 1  
    93   33   90 1  
    94   34   91 1  
    95   35   92 1  
    96   35   93 1  
    97   37   94 1  
    98   38   95 1  
    99   40   96 1  
   100   41   97 1  
   101   42   98 1  
   102   46   99 1  
   103   46  100 1  
   104   46  101 1  
   105   47  102 1  
   106   47  103 1  
   107   48  104 1  
   108   48  105 1  
   109   50  106 1  
   110   51  107 1  
   111   52  108 1  
   112   53  109 1  
@<TRIPOS>SUBSTRUCTURE
     1 BD9         1

