1o4r_ligand
  -I-interpret- 

 25 25  0  0  0  0  0  0  0  0999 V2000
   17.7510   24.3380   19.0420 C   0  0  0  0  0
   16.8780   24.5730   17.9680 C   0  0  0  0  0
   16.7790   25.8440   17.3440 C   0  0  0  0  0
   17.5680   26.9100   17.9400 C   0  0  0  0  0
   18.5390   26.6550   18.9480 C   0  0  0  0  0
   18.5760   25.3540   19.5640 C   0  0  0  0  0
   17.3880   28.1970   17.4250 C   0  0  0  0  0
   15.7620   28.8800   17.5740 P   0  0  0  0  0
   18.1680   28.5460   15.7620 P   0  0  0  0  0
   17.5620   29.8300   15.2340 O   0  0  0  0  0
   17.7690   27.4930   14.8120 O   0  0  0  0  0
   19.6030   28.5850   15.9500 O   0  0  0  0  0
   16.0020   30.5080   17.3520 O   0  0  0  0  0
   15.2820   28.6420   18.9650 O   0  0  0  0  0
   14.8300   28.4360   16.5890 O   0  0  0  0  0
   17.7917   23.3425   19.4841 H   0  0  0  0  0
   16.2576   23.7548   17.6023 H   0  0  0  0  0
   16.1491   26.0109   16.4702 H   0  0  0  0  0
   19.2428   27.4311   19.2488 H   0  0  0  0  0
   19.2280   25.1594   20.4155 H   0  0  0  0  0
   17.9930   28.7621   18.1340 H   0  0  0  0  0
   16.6131   29.7193   15.1390 H   0  0  0  0  0
   16.8141   27.4977   14.7133 H   0  0  0  0  0
   16.6273   30.8301   18.0053 H   0  0  0  0  0
   15.9412   28.9564   19.5880 H   0  0  0  0  0
  1  2  4  0  0  0
  1  6  4  0  0  0
  2  3  4  0  0  0
  3  4  4  0  0  0
  4  5  4  0  0  0
  4  7  1  0  0  0
  5  6  4  0  0  0
  7  8  1  0  0  0
  7  9  1  0  0  0
  8 13  1  0  0  0
  8 14  1  0  0  0
  8 15  2  0  0  0
  9 10  1  0  0  0
  9 11  1  0  0  0
  9 12  2  0  0  0
  1 16  1  0  0  0
  2 17  1  0  0  0
  3 18  1  0  0  0
  5 19  1  0  0  0
  6 20  1  0  0  0
  7 21  1  0  0  0
 10 22  1  0  0  0
 11 23  1  0  0  0
 13 24  1  0  0  0
 14 25  1  0  0  0
M  END
$$$$
