### 
### Created by X-TOOL on Mon Sep 10 21:12:51 2018
### 

@<TRIPOS>MOLECULE
1o4r_ligand
   21    21     1     0     0
SMALL
GAST_HUCK


@<TRIPOS>ATOM
      1 C1         17.7510   24.3380   19.0420 C.ar      1 787        -0.0687
      2 C2         16.8780   24.5730   17.9680 C.ar      1 787        -0.0685
      3 C3         16.7790   25.8440   17.3440 C.ar      1 787        -0.0574
      4 C4         17.5680   26.9100   17.9400 C.ar      1 787        -0.0075
      5 C5         18.5390   26.6550   18.9480 C.ar      1 787        -0.0574
      6 C6         18.5760   25.3540   19.5640 C.ar      1 787        -0.0685
      7 C7         17.3880   28.1970   17.4250 C.3       1 787         0.1336
      8 P8         15.7620   28.8800   17.5740 P.3       1 787         0.0904
      9 P9         18.1680   28.5460   15.7620 P.3       1 787         0.0904
     10 O11        17.5620   29.8300   15.2340 O.co2     1 787        -0.5597
     11 O12        17.7690   27.4930   14.8120 O.co2     1 787        -0.5597
     12 O13        19.6030   28.5850   15.9500 O.co2     1 787        -0.5597
     13 O14        16.0020   30.5080   17.3520 O.co2     1 787        -0.5597
     14 O15        15.2820   28.6420   18.9650 O.co2     1 787        -0.5597
     15 O16        14.8300   28.4360   16.5890 O.co2     1 787        -0.5597
     16 H1         17.7915   23.3480   19.4817 H         1 787         0.0559
     17 H2         16.2610   23.7593   17.6043 H         1 787         0.0599
     18 H3         16.1526   26.0100   16.4750 H         1 787         0.0558
     19 H4         19.2389   27.4268   19.2472 H         1 787         0.0558
     20 H5         19.2244   25.1604   20.4109 H         1 787         0.0599
     21 H6         17.9831   28.8138   18.1145 H         1 787         0.0842
@<TRIPOS>BOND
     1    1    2 ar 
     2    1    6 ar 
     3    2    3 ar 
     4    3    4 ar 
     5    4    5 ar 
     6    4    7 1  
     7    5    6 ar 
     8    7    8 1  
     9    7    9 1  
    10    8   13 ar 
    11    8   14 ar 
    12    8   15 ar 
    13    9   10 ar 
    14    9   11 ar 
    15    9   12 ar 
    16    1   16 1  
    17    2   17 1  
    18    3   18 1  
    19    5   19 1  
    20    6   20 1  
    21    7   21 1  
@<TRIPOS>SUBSTRUCTURE
     1 787         1

