### 
### Created by X-TOOL on Mon Sep 10 21:13:04 2018
### 

@<TRIPOS>MOLECULE
3lp2_ligand
   53    55     1     0     0
SMALL
GAST_HUCK


@<TRIPOS>ATOM
      1 C           9.1360    8.3570   25.2210 C.ar      1 LP9         0.0480
      2 N          10.6280    9.5030   27.1800 N.ar      1 LP9        -0.2590
      3 O           7.1270    6.5730   26.0080 O.3       1 LP9        -0.2960
      4 C1         10.1390    9.2610   24.8700 C.ar      1 LP9         0.2087
      5 C2         10.8970    9.8290   25.8940 C.ar      1 LP9         0.0815
      6 C3          9.6550    8.6320   27.5390 C.ar      1 LP9         0.1549
      7 C4          8.8680    8.0290   26.5540 C.ar      1 LP9         0.1015
      8 N5          9.4170    8.3290   28.8380 N.ar      1 LP9        -0.1069
      9 C6          8.4670    7.4770   29.2980 C.ar      1 LP9         0.2222
     10 C7          7.6650    6.8560   28.3270 C.ar      1 LP9         0.1729
     11 C8          7.8680    7.1390   26.9630 C.ar      1 LP9         0.1703
     12 C9          6.5810    5.8980   28.7420 C.2       1 LP9         0.2639
     13 O10         5.7460    6.1670   29.5950 O.2       1 LP9        -0.3668
     14 O11         8.3010    7.2370   30.5980 O.3       1 LP9        -0.2977
     15 O12        10.2340    8.9650   29.7690 O.2       1 LP9        -0.1945
     16 O13        10.4050    9.5750   23.5960 O.3       1 LP9        -0.1927
     17 C14        10.8350   10.7820   23.2190 C.ar      1 LP9         0.1756
     18 C15         9.8740   11.7570   22.9740 C.ar      1 LP9         0.0084
     19 C16        10.2700   13.0310   22.5710 C.ar      1 LP9        -0.0071
     20 C17        11.6010   13.4030   22.3740 C.ar      1 LP9         0.0835
     21 C18        12.5380   12.3930   22.6260 C.ar      1 LP9        -0.0071
     22 C19        12.1810   11.1050   23.0310 C.ar      1 LP9         0.0084
     23 N20        11.9240   14.6600   21.9940 N.pl3     1 LP9        -0.2857
     24 C21        11.0620   15.4580   21.1120 C.3       1 LP9         0.0352
     25 C22        11.3480   15.2760   19.6210 C.3       1 LP9        -0.0426
     26 C23        13.1160   15.3540   22.5070 C.3       1 LP9         0.0352
     27 C24        14.4000   15.1080   21.7120 C.3       1 LP9        -0.0426
     28 O25         6.6790    4.7470   28.0640 O.3       1 LP9        -0.2803
     29 C26         5.0820    4.0420   26.3600 C.3       1 LP9        -0.0373
     30 C27         5.4510    3.9960   27.8480 C.3       1 LP9         0.0724
     31 H1          8.5468    7.8950   24.4372 H         1 LP9         0.0985
     32 H2          6.4878    5.9939   26.4062 H         1 LP9         0.2704
     33 H3         11.6946   10.5255   25.6620 H         1 LP9         0.0957
     34 H4          7.5910    6.6171   30.7163 H         1 LP9         0.2638
     35 H5          8.8217   11.5271   23.0959 H         1 LP9         0.0725
     36 H6          9.5007   13.7755   22.4008 H         1 LP9         0.0669
     37 H7         13.5901   12.6219   22.5008 H         1 LP9         0.0669
     38 H8         12.9473   10.3570   23.1992 H         1 LP9         0.0725
     39 H9         11.2015   16.5200   21.3625 H         1 LP9         0.0545
     40 H10        10.0168   15.1711   21.2999 H         1 LP9         0.0545
     41 H11        10.6615   15.9061   19.0364 H         1 LP9         0.0251
     42 H12        11.2018   14.2211   19.3457 H         1 LP9         0.0251
     43 H13        12.3864   15.5700   19.4082 H         1 LP9         0.0251
     44 H14        13.2861   15.0208   23.5414 H         1 LP9         0.0545
     45 H15        12.9115   16.4348   22.4989 H         1 LP9         0.0545
     46 H16        15.2286   15.6665   22.1718 H         1 LP9         0.0251
     47 H17        14.2600   15.4474   20.6751 H         1 LP9         0.0251
     48 H18        14.6346   14.0333   21.7176 H         1 LP9         0.0251
     49 H19         4.1541    3.4749   26.1947 H         1 LP9         0.0255
     50 H20         5.8944    3.5968   25.7668 H         1 LP9         0.0255
     51 H21         4.9328    5.0872   26.0513 H         1 LP9         0.0255
     52 H22         4.6390    4.4413   28.4415 H         1 LP9         0.0608
     53 H23         5.6005    2.9510   28.1570 H         1 LP9         0.0608
@<TRIPOS>BOND
     1    1    4 ar 
     2    7    1 ar 
     3    2    5 ar 
     4    6    2 ar 
     5   11    3 1  
     6    4    5 ar 
     7    4   16 1  
     8    7    6 ar 
     9    6    8 ar 
    10    7   11 ar 
    11    8    9 ar 
    12    8   15 2  
    13    9   10 ar 
    14    9   14 1  
    15   10   11 ar 
    16   10   12 1  
    17   12   13 2  
    18   12   28 1  
    19   16   17 1  
    20   17   18 ar 
    21   17   22 ar 
    22   18   19 ar 
    23   19   20 ar 
    24   20   21 ar 
    25   20   23 1  
    26   21   22 ar 
    27   23   24 1  
    28   23   26 1  
    29   24   25 1  
    30   26   27 1  
    31   28   30 1  
    32   30   29 1  
    33    1   31 1  
    34    3   32 1  
    35    5   33 1  
    36   14   34 1  
    37   18   35 1  
    38   19   36 1  
    39   21   37 1  
    40   22   38 1  
    41   24   39 1  
    42   24   40 1  
    43   25   41 1  
    44   25   42 1  
    45   25   43 1  
    46   26   44 1  
    47   26   45 1  
    48   27   46 1  
    49   27   47 1  
    50   27   48 1  
    51   29   49 1  
    52   29   50 1  
    53   29   51 1  
    54   30   52 1  
    55   30   53 1  
@<TRIPOS>SUBSTRUCTURE
     1 LP9         1

