3lp2_ligand
  -I-interpret- 

 53 55  0  0  0  0  0  0  0  0999 V2000
    9.1360    8.3570   25.2210 C   0  0  0  0  0
   10.6280    9.5030   27.1800 N   0  0  0  0  0
    7.1270    6.5730   26.0080 O   0  0  0  0  0
   10.1390    9.2610   24.8700 C   0  0  0  0  0
   10.8970    9.8290   25.8940 C   0  0  0  0  0
    9.6550    8.6320   27.5390 C   0  0  0  0  0
    8.8680    8.0290   26.5540 C   0  0  0  0  0
    9.4170    8.3290   28.8380 N   0  0  0  0  0
    8.4670    7.4770   29.2980 C   0  0  0  0  0
    7.6650    6.8560   28.3270 C   0  0  0  0  0
    7.8680    7.1390   26.9630 C   0  0  0  0  0
    6.5810    5.8980   28.7420 C   0  0  0  0  0
    5.7460    6.1670   29.5950 O   0  0  0  0  0
    8.3010    7.2370   30.5980 O   0  0  0  0  0
   10.2340    8.9650   29.7690 O   0  0  0  0  0
   10.4050    9.5750   23.5960 O   0  0  0  0  0
   10.8350   10.7820   23.2190 C   0  0  0  0  0
    9.8740   11.7570   22.9740 C   0  0  0  0  0
   10.2700   13.0310   22.5710 C   0  0  0  0  0
   11.6010   13.4030   22.3740 C   0  0  0  0  0
   12.5380   12.3930   22.6260 C   0  0  0  0  0
   12.1810   11.1050   23.0310 C   0  0  0  0  0
   11.9240   14.6600   21.9940 N   0  0  0  0  0
   11.0620   15.4580   21.1120 C   0  0  0  0  0
   11.3480   15.2760   19.6210 C   0  0  0  0  0
   13.1160   15.3540   22.5070 C   0  0  0  0  0
   14.4000   15.1080   21.7120 C   0  0  0  0  0
    6.6790    4.7470   28.0640 O   0  0  0  0  0
    5.0820    4.0420   26.3600 C   0  0  0  0  0
    5.4510    3.9960   27.8480 C   0  0  0  0  0
    8.5435    7.8924   24.4328 H   0  0  0  0  0
    6.4810    5.9878   26.4104 H   0  0  0  0  0
   11.6990   10.5293   25.6607 H   0  0  0  0  0
    7.5835    6.6105   30.7175 H   0  0  0  0  0
    8.8159   11.5258   23.0966 H   0  0  0  0  0
    9.4964   13.7796   22.3999 H   0  0  0  0  0
   13.5960   12.6231   22.5001 H   0  0  0  0  0
   12.9515   10.3528   23.2002 H   0  0  0  0  0
   11.2441   16.5064   21.3481 H   0  0  0  0  0
   10.0364   15.1314   21.2843 H   0  0  0  0  0
   12.3772   15.5676   19.4115 H   0  0  0  0  0
   11.2028   14.2304   19.3495 H   0  0  0  0  0
   10.6672   15.9008   19.0428 H   0  0  0  0  0
   13.2918   14.9749   23.5137 H   0  0  0  0  0
   12.9084   16.4223   22.4466 H   0  0  0  0  0
   14.6313   14.0428   21.7183 H   0  0  0  0  0
   14.2599   15.4446   20.6848 H   0  0  0  0  0
   15.2203   15.6619   22.1686 H   0  0  0  0  0
    4.9345    5.0781   26.0554 H   0  0  0  0  0
    5.8877    3.6007   25.7734 H   0  0  0  0  0
    4.1624    3.4798   26.1975 H   0  0  0  0  0
    4.6463    4.4364   28.4367 H   0  0  0  0  0
    5.5984    2.9606   28.1550 H   0  0  0  0  0
  1  4  4  0  0  0
  7  1  4  0  0  0
  2  5  4  0  0  0
  6  2  4  0  0  0
 11  3  1  0  0  0
  4  5  4  0  0  0
  4 16  1  0  0  0
  7  6  4  0  0  0
  6  8  4  0  0  0
  7 11  4  0  0  0
  8  9  4  0  0  0
  8 15  2  0  0  0
  9 10  4  0  0  0
  9 14  1  0  0  0
 10 11  4  0  0  0
 10 12  1  0  0  0
 12 13  2  0  0  0
 12 28  1  0  0  0
 16 17  1  0  0  0
 17 18  4  0  0  0
 17 22  4  0  0  0
 18 19  4  0  0  0
 19 20  4  0  0  0
 20 21  4  0  0  0
 20 23  1  0  0  0
 21 22  4  0  0  0
 23 24  1  0  0  0
 23 26  1  0  0  0
 24 25  1  0  0  0
 26 27  1  0  0  0
 28 30  1  0  0  0
 30 29  1  0  0  0
  1 31  1  0  0  0
  3 32  1  0  0  0
  5 33  1  0  0  0
 14 34  1  0  0  0
 18 35  1  0  0  0
 19 36  1  0  0  0
 21 37  1  0  0  0
 22 38  1  0  0  0
 24 39  1  0  0  0
 24 40  1  0  0  0
 25 41  1  0  0  0
 25 42  1  0  0  0
 25 43  1  0  0  0
 26 44  1  0  0  0
 26 45  1  0  0  0
 27 46  1  0  0  0
 27 47  1  0  0  0
 27 48  1  0  0  0
 29 49  1  0  0  0
 29 50  1  0  0  0
 29 51  1  0  0  0
 30 52  1  0  0  0
 30 53  1  0  0  0
M  END
$$$$
