5web_ligand
  -I-interpret- 

 63 66  0  0  0  0  0  0  0  0999 V2000
  194.8500 -311.5580  692.4210 C   0  0  0  0  0
  194.7060 -315.8740  695.0870 C   0  0  0  0  0
  193.7020 -314.9370  695.1860 C   0  0  0  0  0
  192.6950 -314.9050  694.2490 C   0  0  0  0  0
  192.6850 -315.8060  693.1990 C   0  0  0  0  0
  193.6210 -310.7570  692.0420 C   0  0  0  0  0
  192.6910 -310.4470  693.2240 C   0  0  0  0  0
  191.9580 -311.7700  693.3860 C   0  0  0  0  0
  191.6060 -312.1220  691.9550 C   0  0  0  0  0
  192.8390 -311.5710  689.8420 C   0  0  0  0  0
  191.9990 -312.5590  689.0580 C   0  0  0  0  0
  196.1110 -313.4760  692.1450 C   0  0  0  0  0
  193.9090 -312.9880  686.9480 C   0  0  0  0  0
  194.5820 -313.8110  687.8520 C   0  0  0  0  0
  195.8780 -314.2180  687.5820 C   0  0  0  0  0
  196.5110 -313.8140  686.4280 C   0  0  0  0  0
  195.8610 -313.0040  685.5250 C   0  0  0  0  0
  194.5670 -312.5960  685.7850 C   0  0  0  0  0
  197.0370 -313.0490  693.0480 C   0  0  0  0  0
  196.8780 -311.8180  693.6780 C   0  0  0  0  0
  196.2790 -314.8070  691.4580 C   0  0  0  0  0
  195.2370 -316.4730  690.0120 C   0  0  0  0  0
  195.2380 -317.6770  690.9320 C   0  0  0  0  0
  193.6980 -316.7440  693.0990 C   0  0  0  0  0
  194.7100 -316.7830  694.0430 C   0  0  0  0  0
  195.7560 -311.0910  693.3380 N   0  0  0  0  0
  195.0280 -312.7460  691.8350 N   0  0  0  0  0
  195.2450 -315.2030  690.7190 N   0  0  0  0  0
  192.6900 -311.5060  691.1770 N   0  0  0  0  0
  197.6780 -311.3610  694.5080 O   0  0  0  0  0
  198.1240 -313.7530  693.3890 O   0  0  0  0  0
  197.3200 -315.4550  691.5710 O   0  0  0  0  0
  193.6410 -310.8450  689.2650 O   0  0  0  0  0
  193.6890 -319.2220  692.3490 O   0  0  0  0  0
  192.6320 -317.5570  690.8690 O   0  0  0  0  0
  193.6910 -317.9090  691.7710 S   0  0  0  0  0
  192.2520 -312.4580  687.2600 S   0  0  0  0  0
  193.7770 -311.5750  684.6310 Cl  0  0  0  0  0
  195.5002 -315.9001  695.8331 H   0  0  0  0  0
  193.7050 -314.2202  696.0071 H   0  0  0  0  0
  191.8996 -314.1647  694.3345 H   0  0  0  0  0
  191.8867 -315.7774  692.4573 H   0  0  0  0  0
  194.0704 -309.8758  691.5843 H   0  0  0  0  0
  192.0288 -309.5992  693.0483 H   0  0  0  0  0
  193.2183 -310.1267  694.1226 H   0  0  0  0  0
  191.0866 -311.7004  694.0371 H   0  0  0  0  0
  192.5574 -312.5344  693.8805 H   0  0  0  0  0
  190.6213 -311.7565  691.6637 H   0  0  0  0  0
  191.5335 -313.1976  691.7938 H   0  0  0  0  0
  190.9521 -312.3286  689.2554 H   0  0  0  0  0
  192.2901 -313.5606  689.3744 H   0  0  0  0  0
  194.0885 -314.1330  688.7690 H   0  0  0  0  0
  196.4007 -314.8629  688.2883 H   0  0  0  0  0
  197.5326 -314.1375  686.2285 H   0  0  0  0  0
  196.3635 -312.6867  684.6113 H   0  0  0  0  0
  194.3221 -316.5131  689.4209 H   0  0  0  0  0
  196.1452 -316.5191  689.4111 H   0  0  0  0  0
  196.0057 -317.5162  691.6889 H   0  0  0  0  0
  195.4210 -318.5614  690.3217 H   0  0  0  0  0
  195.5048 -317.5247  693.9646 H   0  0  0  0  0
  195.5967 -310.1851  693.7790 H   0  0  0  0  0
  194.4300 -314.5940  690.6464 H   0  0  0  0  0
  198.6319 -313.2609  694.0382 H   0  0  0  0  0
  1  6  1  0  0  0
  1 26  1  0  0  0
 27  1  2  0  0  0
  2  3  4  0  0  0
 25  2  4  0  0  0
  4  3  4  0  0  0
  5  4  4  0  0  0
 24  5  4  0  0  0
  6  7  1  0  0  0
  6 29  1  0  0  0
  7  8  1  0  0  0
  9  8  1  0  0  0
 29  9  1  0  0  0
 10 11  1  0  0  0
 29 10  1  0  0  0
 10 33  2  0  0  0
 11 37  1  0  0  0
 12 19  2  0  0  0
 21 12  1  0  0  0
 12 27  1  0  0  0
 13 14  4  0  0  0
 13 18  4  0  0  0
 37 13  1  0  0  0
 14 15  4  0  0  0
 15 16  4  0  0  0
 17 16  4  0  0  0
 18 17  4  0  0  0
 18 38  1  0  0  0
 19 20  1  0  0  0
 19 31  1  0  0  0
 20 26  1  0  0  0
 20 30  2  0  0  0
 28 21  1  0  0  0
 21 32  2  0  0  0
 23 22  1  0  0  0
 22 28  1  0  0  0
 36 23  1  0  0  0
 24 25  4  0  0  0
 24 36  1  0  0  0
 36 34  2  0  0  0
 36 35  2  0  0  0
  2 39  1  0  0  0
  3 40  1  0  0  0
  4 41  1  0  0  0
  5 42  1  0  0  0
  6 43  1  0  0  0
  7 44  1  0  0  0
  7 45  1  0  0  0
  8 46  1  0  0  0
  8 47  1  0  0  0
  9 48  1  0  0  0
  9 49  1  0  0  0
 11 50  1  0  0  0
 11 51  1  0  0  0
 14 52  1  0  0  0
 15 53  1  0  0  0
 16 54  1  0  0  0
 17 55  1  0  0  0
 22 56  1  0  0  0
 22 57  1  0  0  0
 23 58  1  0  0  0
 23 59  1  0  0  0
 25 60  1  0  0  0
 26 61  1  0  0  0
 28 62  1  0  0  0
 31 63  1  0  0  0
M  END
$$$$
