4e3n_ligand
  -I-interpret- 

 31 32  0  0  0  0  0  0  0  0999 V2000
   25.9170    4.8680   16.1450 B   0  0  0  0  0
   24.8560    3.8840   16.3720 O   0  0  0  0  0
   26.0710    5.6610   17.3690 O   0  0  0  0  0
   25.5570    5.8110   14.9260 C   0  0  0  0  0
   24.3580    6.6190   15.1560 N   0  0  0  0  0
   23.6920    7.5400   13.9990 S   0  0  0  0  0
   22.8930    8.5910   14.5840 O   0  0  0  0  0
   24.7060    8.1390   13.1560 O   0  0  0  0  0
   22.6250    6.5180   12.9440 C   0  0  0  0  0
   23.1380    6.1730   11.6830 C   0  0  0  0  0
   22.3950    5.4480   10.8180 C   0  0  0  0  0
   21.1180    5.0290   11.1890 C   0  0  0  0  0
   20.3280    4.2870   10.3220 C   0  0  0  0  0
   19.2210    3.6270   10.6780 N   0  0  0  0  0
   18.6800    3.0410    9.5760 N   0  0  0  0  0
   19.4810    3.3580    8.4990 N   0  0  0  0  0
   20.5000    4.1280    8.9630 N   0  0  0  0  0
   20.6270    5.3680   12.4530 C   0  0  0  0  0
   21.3490    6.1070   13.3330 C   0  0  0  0  0
   20.7410    6.4050   14.6890 C   0  0  0  0  0
   19.7500    5.4760   14.9300 F   0  0  0  0  0
   20.1680    7.6000   14.6980 F   0  0  0  0  0
   21.5760    6.3050   15.6730 F   0  0  0  0  0
   25.0943    3.3236   17.1141 H   0  0  0  0  0
   26.2890    5.0790   18.1007 H   0  0  0  0  0
   25.3658    5.1749   14.0617 H   0  0  0  0  0
   26.3930    6.4949   14.7795 H   0  0  0  0  0
   23.9249    6.6021   16.0793 H   0  0  0  0  0
   24.1413    6.4919   11.4004 H   0  0  0  0  0
   22.7918    5.1921    9.8356 H   0  0  0  0  0
   19.6323    5.0279   12.7412 H   0  0  0  0  0
  1  2  1  0  0  0
  1  3  1  0  0  0
  1  4  1  0  0  0
  4  5  1  0  0  0
  5  6  1  0  0  0
  6  7  2  0  0  0
  6  8  2  0  0  0
  6  9  1  0  0  0
  9 10  4  0  0  0
  9 19  4  0  0  0
 10 11  4  0  0  0
 11 12  4  0  0  0
 12 13  1  0  0  0
 12 18  4  0  0  0
 13 14  4  0  0  0
 13 17  4  0  0  0
 14 15  4  0  0  0
 15 16  4  0  0  0
 16 17  4  0  0  0
 18 19  4  0  0  0
 19 20  1  0  0  0
 20 21  1  0  0  0
 20 22  1  0  0  0
 20 23  1  0  0  0
  2 24  1  0  0  0
  3 25  1  0  0  0
  4 26  1  0  0  0
  4 27  1  0  0  0
  5 28  1  0  0  0
 10 29  1  0  0  0
 11 30  1  0  0  0
 18 31  1  0  0  0
M  END
$$$$
