### 
### Created by X-TOOL on Mon Sep 10 21:13:08 2018
### 

@<TRIPOS>MOLECULE
4e3n_ligand
   32    33     1     0     0
SMALL
GAST_HUCK


@<TRIPOS>ATOM
      1 B03        25.9170    4.8680   16.1450 B         1 0NE         1.0000
      2 O04        24.8560    3.8840   16.3720 O.3       1 0NE        -0.8710
      3 O05        26.0710    5.6610   17.3690 O.3       1 0NE        -0.8710
      4 C06        25.5570    5.8110   14.9260 C.3       1 0NE        -0.2497
      5 N07        24.3580    6.6190   15.1560 N.am      1 0NE        -0.3961
      6 S08        23.6920    7.5400   13.9990 S.o2      1 0NE         0.0541
      7 O09        22.8930    8.5910   14.5840 O.2       1 0NE        -0.1490
      8 O10        24.7060    8.1390   13.1560 O.2       1 0NE        -0.1490
      9 C11        22.6250    6.5180   12.9440 C.ar      1 0NE         0.1360
     10 C12        23.1380    6.1730   11.6830 C.ar      1 0NE        -0.0048
     11 C13        22.3950    5.4480   10.8180 C.ar      1 0NE        -0.0223
     12 C14        21.1180    5.0290   11.1890 C.ar      1 0NE         0.0390
     13 C15        20.3280    4.2870   10.3220 C.2       1 0NE         0.1556
     14 N16        19.2210    3.6270   10.6780 N.2       1 0NE        -0.1747
     15 N17        18.6800    3.0410    9.5760 N.2       1 0NE        -0.0518
     16 N18        19.4810    3.3580    8.4990 N.pl3     1 0NE        -0.1036
     17 N19        20.5000    4.1280    8.9630 N.2       1 0NE        -0.1429
     18 C20        20.6270    5.3680   12.4530 C.ar      1 0NE        -0.0198
     19 C21        21.3490    6.1070   13.3330 C.ar      1 0NE         0.0754
     20 C22        20.7410    6.4050   14.6890 C.3       1 0NE         0.3790
     21 F23        19.7500    5.4760   14.9300 F         1 0NE        -0.2199
     22 F24        20.1680    7.6000   14.6980 F         1 0NE        -0.2199
     23 F25        21.5760    6.3050   15.6730 F         1 0NE        -0.2199
     24 H          24.7389    3.3531   15.5808 H         1 0NE        -0.1290
     25 H          26.3066    5.0813   18.0970 H         1 0NE        -0.1290
     26 H          25.3658    5.1749   14.0617 H         1 0NE        -0.1900
     27 H          26.3930    6.4949   14.7795 H         1 0NE        -0.1900
     28 H          23.9249    6.6021   16.0793 H         1 0NE         0.1259
     29 H          24.1413    6.4919   11.4004 H         1 0NE         0.0718
     30 H          22.7918    5.1921    9.8356 H         1 0NE         0.0863
     31 H          19.3353    3.0679    7.5320 H         1 0NE         0.2946
     32 H          19.6323    5.0279   12.7412 H         1 0NE         0.0860
@<TRIPOS>BOND
     1    1    2 1  
     2    1    3 1  
     3    1    4 1  
     4    4    5 1  
     5    5    6 am 
     6    6    7 2  
     7    6    8 2  
     8    6    9 1  
     9    9   10 ar 
    10    9   19 ar 
    11   10   11 ar 
    12   11   12 ar 
    13   12   13 1  
    14   12   18 ar 
    15   13   14 1  
    16   13   17 2  
    17   14   15 2  
    18   15   16 1  
    19   16   17 1  
    20   18   19 ar 
    21   19   20 1  
    22   20   21 1  
    23   20   22 1  
    24   20   23 1  
    25    2   24 1  
    26    3   25 1  
    27    4   26 1  
    28    4   27 1  
    29    5   28 1  
    30   10   29 1  
    31   11   30 1  
    32   16   31 1  
    33   18   32 1  
@<TRIPOS>SUBSTRUCTURE
     1 0NE         1

