6esm_ligand
  -I-interpret- 

 52 54  0  0  0  0  0  0  0  0999 V2000
    2.6430   46.2560   25.1390 C   0  0  0  0  0
    3.4620   45.8650   24.0870 C   0  0  0  0  0
    3.5110   46.6330   22.9340 C   0  0  0  0  0
    2.3540   49.9650   21.5450 C   0  0  0  0  0
    2.8960   50.1420   19.2180 C   0  0  0  0  0
    1.7620   54.9740   17.7860 C   0  0  0  0  0
    1.7820   53.6110   17.5100 C   0  0  0  0  0
    0.6330   52.9930   16.7020 C   0  0  0  0  0
    2.7600   47.8030   22.8200 C   0  0  0  0  0
    3.2990   48.0900   20.3910 C   0  0  0  0  0
    2.7870   55.5690   18.5080 C   0  0  0  0  0
   -0.1610   52.0180   17.5560 C   0  0  0  0  0
    1.8920   47.4180   25.0160 C   0  0  0  0  0
    1.9420   48.1840   23.8730 C   0  0  0  0  0
    3.3410   48.8310   19.2300 C   0  0  0  0  0
    3.3140   44.3520   26.3880 C   0  0  0  0  0
    2.8460   52.8510   17.9690 C   0  0  0  0  0
    3.8700   53.4450   18.6890 C   0  0  0  0  0
    3.8460   54.8050   18.9590 C   0  0  0  0  0
   -0.3690   54.0590   16.2510 C   0  0  0  0  0
   -0.1980   54.5460   14.8130 C   0  0  0  0  0
   -1.2230   55.6110   14.4360 C   0  0  0  0  0
    2.8040   48.6500   21.5570 C   0  0  0  0  0
    2.3980   50.7170   20.3840 C   0  0  0  0  0
    2.5470   45.5250   26.3270 O   0  0  0  0  0
   -0.5320   50.9290   17.0570 O   0  0  0  0  0
   -0.4400   52.3260   18.7440 O   0  0  0  0  0
   -1.0090   56.3700   13.4540 O   0  0  0  0  0
   -2.2830   55.7210   15.1080 O   0  0  0  0  0
    2.9660   51.0590   17.6550 S   0  0  0  0  0
    4.0628   44.9591   24.1679 H   0  0  0  0  0
    4.1450   46.3183   22.1051 H   0  0  0  0  0
    1.9621   50.4089   22.4601 H   0  0  0  0  0
    0.9306   55.5827   17.4307 H   0  0  0  0  0
    1.0945   52.4998   15.8465 H   0  0  0  0  0
    3.6563   47.0602   20.3917 H   0  0  0  0  0
    2.7566   56.6379   18.7190 H   0  0  0  0  0
    1.2506   47.7295   25.8404 H   0  0  0  0  0
    1.3393   49.0889   23.7959 H   0  0  0  0  0
    3.7272   48.3820   18.3149 H   0  0  0  0  0
    3.0069   43.6767   25.5894 H   0  0  0  0  0
    4.3682   44.6021   26.2688 H   0  0  0  0  0
    3.1607   43.8690   27.3530 H   0  0  0  0  0
    4.7018   52.8379   19.0464 H   0  0  0  0  0
    4.6563   55.2675   19.5226 H   0  0  0  0  0
   -0.2155   54.9250   16.8949 H   0  0  0  0  0
   -1.3579   53.6046   16.3119 H   0  0  0  0  0
   -0.3369   53.6931   14.1486 H   0  0  0  0  0
    0.7953   54.9853   14.7209 H   0  0  0  0  0
    2.0464   51.7487   20.3825 H   0  0  0  0  0
   -0.0735   53.1905   18.9438 H   0  0  0  0  0
   -2.2825   55.0697   15.8132 H   0  0  0  0  0
  2  1  4  0  0  0
 13  1  4  0  0  0
  1 25  1  0  0  0
  3  2  4  0  0  0
  9  3  4  0  0  0
  4 23  4  0  0  0
 24  4  4  0  0  0
  5 15  4  0  0  0
  5 24  4  0  0  0
 30  5  1  0  0  0
  7  6  4  0  0  0
  6 11  4  0  0  0
  7  8  1  0  0  0
 17  7  4  0  0  0
  8 12  1  0  0  0
  8 20  1  0  0  0
  9 14  4  0  0  0
 23  9  1  0  0  0
 15 10  4  0  0  0
 10 23  4  0  0  0
 11 19  4  0  0  0
 12 26  2  0  0  0
 12 27  1  0  0  0
 14 13  4  0  0  0
 25 16  1  0  0  0
 17 18  4  0  0  0
 17 30  1  0  0  0
 18 19  4  0  0  0
 20 21  1  0  0  0
 21 22  1  0  0  0
 22 28  2  0  0  0
 22 29  1  0  0  0
  2 31  1  0  0  0
  3 32  1  0  0  0
  4 33  1  0  0  0
  6 34  1  0  0  0
  8 35  1  0  0  0
 10 36  1  0  0  0
 11 37  1  0  0  0
 13 38  1  0  0  0
 14 39  1  0  0  0
 15 40  1  0  0  0
 16 41  1  0  0  0
 16 42  1  0  0  0
 16 43  1  0  0  0
 18 44  1  0  0  0
 19 45  1  0  0  0
 20 46  1  0  0  0
 20 47  1  0  0  0
 21 48  1  0  0  0
 21 49  1  0  0  0
 24 50  1  0  0  0
 27 51  1  0  0  0
 29 52  1  0  0  0
M  END
$$$$
