### 
### Created by X-TOOL on Mon Sep 10 21:12:55 2018
### 

@<TRIPOS>MOLECULE
2q8y_ligand
  151   153     1     0     0
SMALL
GAST_HUCK


@<TRIPOS>ATOM
      1 N          -1.5220   -3.6150   -0.2810 N.4       1 GLN         0.2380
      2 CA         -0.5670   -4.3340    0.6070 C.3       1 GLN         0.0671
      3 C           0.0040   -5.5800   -0.0800 C.2       1 GLN         0.2270
      4 O           1.2170   -5.7910   -0.0670 O.2       1 GLN        -0.3907
      5 CB         -1.2590   -4.7050    1.9240 C.3       1 GLN         0.0247
      6 CG         -0.3430   -5.2690    3.0140 C.3       1 GLN         0.0443
      7 CD         -1.1240   -5.9110    4.1540 C.2       1 GLN         0.1738
      8 OE1        -0.5720   -6.6720    4.9560 O.2       1 GLN        -0.3973
      9 NE2        -2.4160   -5.6160    4.2250 N.am      1 GLN        -0.3009
     10 N          -0.8690   -6.3920   -0.6770 N.am      1 TYR        -0.2594
     11 CA         -0.4760   -7.6840   -1.2620 C.3       1 TYR         0.1391
     12 C          -0.1180   -7.6460   -2.7560 C.2       1 TYR         0.2059
     13 O           0.4740   -8.5960   -3.2800 O.2       1 TYR        -0.3942
     14 CB         -1.5870   -8.7250   -1.0490 C.3       1 TYR         0.0164
     15 CG         -1.8650   -9.0990    0.3970 C.ar      1 TYR        -0.0493
     16 CD1        -0.8470   -9.5680    1.2300 C.ar      1 TYR        -0.0685
     17 CD2        -3.1560   -9.0170    0.9220 C.ar      1 TYR        -0.0685
     18 CE1        -1.1030   -9.9220    2.5530 C.ar      1 TYR        -0.0398
     19 CE2        -3.4220   -9.3730    2.2490 C.ar      1 TYR        -0.0398
     20 CZ         -2.3930   -9.8230    3.0550 C.ar      1 TYR         0.0805
     21 OH         -2.6420  -10.1790    4.3640 O.3       1 TYR        -0.3376
     22 N          -0.4670   -6.5570   -3.4390 N.am      1 PHE        -0.2618
     23 CA         -0.4580   -6.5460   -4.9070 C.3       1 PHE         0.1404
     24 C           0.5400   -5.5790   -5.5450 C.2       1 PHE         0.2060
     25 O           0.5200   -5.3700   -6.7620 O.2       1 PHE        -0.3942
     26 CB         -1.8750   -6.2840   -5.4360 C.3       1 PHE         0.0214
     27 CG         -2.9340   -7.0890   -4.7400 C.ar      1 PHE        -0.0386
     28 CD1        -3.6460   -6.5460   -3.6700 C.ar      1 PHE        -0.0601
     29 CD2        -3.2090   -8.3910   -5.1420 C.ar      1 PHE        -0.0601
     30 CE1        -4.6190   -7.2880   -3.0130 C.ar      1 PHE        -0.0686
     31 CE2        -4.1820   -9.1400   -4.4960 C.ar      1 PHE        -0.0686
     32 CZ         -4.8930   -8.5900   -3.4290 C.ar      1 PHE        -0.0687
     33 N           1.4070   -5.0020   -4.7180 N.am      1 MET        -0.2636
     34 CA          2.3790   -4.0140   -5.1670 C.3       1 MET         0.1317
     35 C           3.5990   -4.6860   -5.7880 C.2       1 MET         0.2040
     36 O           4.1930   -5.5840   -5.1920 O.2       1 MET        -0.3944
     37 CB          2.8020   -3.1090   -4.0030 C.3       1 MET        -0.0034
     38 CG          1.6430   -2.3310   -3.3580 C.3       1 MET        -0.0024
     39 SD          2.1590   -1.2230   -2.0270 S.3       1 MET        -0.1639
     40 CE          2.6220   -2.3900   -0.7420 C.3       1 MET        -0.0181
     41 N           3.9680   -4.2400   -6.9870 N.am      1 TPO        -0.2611
     42 CA          5.2020   -4.7060   -7.6380 C.3       1 TPO         0.1612
     43 CB          5.0690   -4.8080   -9.1720 C.3       1 TPO         0.1262
     44 CG2         3.8540   -5.6310   -9.6160 C.3       1 TPO        -0.0298
     45 OG1         5.1350   -3.5470   -9.8670 O.3       1 TPO        -0.2685
     46 P           4.2920   -2.1880   -9.5910 P.3       1 TPO         0.2014
     47 O1P         5.1340   -1.3990   -8.6220 O.co2     1 TPO        -0.5537
     48 O2P         4.1760   -1.5620  -10.9530 O.co2     1 TPO        -0.5537
     49 O3P         2.9530   -2.5940   -9.0080 O.co2     1 TPO        -0.5537
     50 C           6.4020   -3.8860   -7.2220 C.2       1 TPO         0.2068
     51 O           7.4420   -3.9110   -7.8790 O.2       1 TPO        -0.3943
     52 N           6.2630   -3.1580   -6.1150 N.am      1 GLU        -0.2635
     53 CA          7.3340   -2.3110   -5.5880 C.3       1 GLU         0.1325
     54 C           8.5730   -3.1340   -5.2190 C.2       1 GLU         0.2042
     55 O           8.4610   -4.2640   -4.7330 O.2       1 GLU        -0.3944
     56 CB          6.8340   -1.5230   -4.3670 C.3       1 GLU        -0.0008
     57 CG          7.6500   -0.2720   -4.0270 C.3       1 GLU         0.0044
     58 CD          7.1230    1.0150   -4.6730 C.2       1 GLU         0.0350
     59 OE1         7.4760    2.1060   -4.1720 O.co2     1 GLU        -0.5690
     60 OE2         6.3630    0.9520   -5.6660 O.co2     1 GLU        -0.5690
     61 N           9.7540   -2.6000   -5.4800 N.am      1 PTR        -0.2607
     62 CA         11.0310   -3.2050   -5.0740 C.3       1 PTR         0.1468
     63 C          11.0970   -3.2410   -3.5570 C.2       1 PTR         0.2072
     64 O          11.0620   -2.2530   -2.9370 O.2       1 PTR        -0.3941
     65 CB         12.1680   -2.3100   -5.5340 C.3       1 PTR         0.0400
     66 CG         13.5590   -2.8030   -5.2970 C.ar      1 PTR        -0.0004
     67 CD1        14.2090   -3.5180   -6.2560 C.ar      1 PTR        -0.0239
     68 CD2        14.2510   -2.5220   -4.1340 C.ar      1 PTR        -0.0239
     69 CE1        15.4780   -3.9860   -6.0630 C.ar      1 PTR         0.0115
     70 CE2        15.5460   -2.9560   -3.9500 C.ar      1 PTR         0.0115
     71 CZ         16.1630   -3.7130   -4.9190 C.ar      1 PTR         0.1728
     72 OH         17.3170   -4.1320   -4.8580 O.3       1 PTR        -0.2040
     73 P          18.1250   -4.7110   -3.6260 P.3       1 PTR         0.1348
     74 O1P        18.2270   -3.7250   -2.6960 O.co2     1 PTR        -0.6653
     75 O2P        17.3840   -5.7710   -2.9990 O.co2     1 PTR        -0.6653
     76 O3P        19.4200   -5.2130   -4.0480 O.co2     1 PTR        -0.6653
     77 N          11.1770   -4.3920   -2.9690 N.am      1 VAL        -0.2662
     78 CA         11.4110   -4.4680   -1.5480 C.3       1 VAL         0.1201
     79 C          12.8040   -4.9990   -1.2540 C.2       1 VAL         0.2008
     80 O          13.2080   -5.9850   -1.8190 O.2       1 VAL        -0.3947
     81 N          13.5140   -4.3530   -0.3470 N.am      1 ALA        -0.2655
     82 CA         14.8800   -4.7320   -0.0120 C.3       1 ALA         0.1100
     83 C          15.1020   -6.0380    0.6850 C.2       1 ALA         0.1242
     84 O          14.2140   -6.6480    1.1950 O.2       1 ALA        -0.3725
     85 CB         15.5830   -3.6630    0.6720 C.3       1 ALA        -0.0257
     86 H1         -1.8793   -2.8029    0.1974 H         1 GLN         0.2015
     87 H2         -2.2860   -4.2279   -0.5190 H         1 GLN         0.2015
     88 H3         -1.0472   -3.3275   -1.1224 H         1 GLN         0.2015
     89 H4          0.2693   -3.6565    0.8341 H         1 GLN         0.1100
     90 H5         -2.0269   -5.4607    1.7022 H         1 GLN         0.0370
     91 H6         -1.7401   -3.7990    2.3210 H         1 GLN         0.0370
     92 H7          0.2673   -4.4496    3.4215 H         1 GLN         0.0506
     93 H8          0.3147   -6.0279    2.5650 H         1 GLN         0.0506
     94 H9         -2.9792   -6.0081    4.9524 H         1 GLN         0.1814
     95 H10        -2.8263   -5.0016    3.5511 H         1 GLN         0.1814
     96 H11        -1.8277   -6.1123   -0.7293 H         1 TYR         0.1886
     97 H12         0.4202   -8.0213   -0.7206 H         1 TYR         0.0821
     98 H13        -1.3008   -9.6409   -1.5868 H         1 TYR         0.0453
     99 H14        -2.5158   -8.3222   -1.4793 H         1 TYR         0.0453
    100 H15         0.1605   -9.6583    0.8403 H         1 TYR         0.0530
    101 H16        -3.9666   -8.6715    0.2907 H         1 TYR         0.0530
    102 H17        -0.2976  -10.2734    3.1878 H         1 TYR         0.0525
    103 H18        -4.4291   -9.2963    2.6426 H         1 TYR         0.0525
    104 H19        -1.8331  -10.4633    4.7730 H         1 TYR         0.2458
    105 H20        -0.7399   -5.7326   -2.9432 H         1 PHE         0.1885
    106 H21        -0.1645   -7.5562   -5.2283 H         1 PHE         0.0823
    107 H22        -1.8977   -6.5318   -6.5075 H         1 PHE         0.0474
    108 H23        -2.1048   -5.2167   -5.3015 H         1 PHE         0.0474
    109 H24        -3.4372   -5.5324   -3.3475 H         1 PHE         0.0557
    110 H25        -2.6579   -8.8253   -5.9682 H         1 PHE         0.0557
    111 H26        -5.1629   -6.8566   -2.1805 H         1 PHE         0.0599
    112 H27        -4.3899  -10.1532   -4.8205 H         1 PHE         0.0599
    113 H28        -5.6556   -9.1729   -2.9253 H         1 PHE         0.0559
    114 H29         1.3912   -5.2560   -3.7509 H         1 MET         0.1883
    115 H30         1.9025   -3.3884   -5.9361 H         1 MET         0.0800
    116 H31         3.5376   -2.3831   -4.3797 H         1 MET         0.0320
    117 H32         3.2690   -3.7366   -3.2297 H         1 MET         0.0320
    118 H33         0.9251   -3.0560   -2.9468 H         1 MET         0.0378
    119 H34         1.1519   -1.7307   -4.1380 H         1 MET         0.0378
    120 H35         2.9637   -1.8398    0.1471 H         1 MET         0.0340
    121 H36         3.4339   -3.0356   -1.1081 H         1 MET         0.0340
    122 H37         1.7519   -3.0091   -0.4781 H         1 MET         0.0340
    123 H38         3.3917   -3.5713   -7.4568 H         1 TPO         0.1884
    124 H39         5.3792   -5.7286   -7.2735 H         1 TPO         0.0830
    125 H40         5.9527   -5.3736   -9.5023 H         1 TPO         0.0695
    126 H41         3.8161   -5.6653  -10.7148 H         1 TPO         0.0260
    127 H42         2.9349   -5.1645   -9.2319 H         1 TPO         0.0260
    128 H43         3.9393   -6.6537   -9.2200 H         1 TPO         0.0260
    129 H44         5.3922   -3.1916   -5.6245 H         1 GLU         0.1883
    130 H45         7.6204   -1.5934   -6.3710 H         1 GLU         0.0801
    131 H46         6.8573   -2.1932   -3.4951 H         1 GLU         0.0330
    132 H47         5.7973   -1.2117   -4.5626 H         1 GLU         0.0330
    133 H48         8.6838   -0.4310   -4.3676 H         1 GLU         0.0433
    134 H49         7.6399   -0.1394   -2.9351 H         1 GLU         0.0433
    135 H50         9.7802   -1.7356   -5.9820 H         1 PTR         0.1886
    136 H51        11.1300   -4.2157   -5.4966 H         1 PTR         0.0840
    137 H52        12.0640   -1.3471   -5.0125 H         1 PTR         0.0584
    138 H53        12.0510   -2.1551   -6.6167 H         1 PTR         0.0584
    139 H54        13.7076   -3.7209   -7.1954 H         1 PTR         0.0703
    140 H55        13.7659   -1.9494   -3.3518 H         1 PTR         0.0703
    141 H56        15.9476   -4.5853   -6.8346 H         1 PTR         0.0736
    142 H57        16.0788   -2.7007   -3.0411 H         1 PTR         0.0736
    143 H58        11.0761   -5.2317   -3.5026 H         1 VAL         0.1881
    144 H59        10.6668   -5.1404   -1.0962 H         1 VAL         0.0763
    145 H60        11.3096   -3.4631   -1.1123 H         1 VAL         0.0763
    146 H61        13.0991   -3.5761    0.1266 H         1 ALA         0.1884
    147 H62        15.3791   -4.8475   -0.9854 H         1 ALA         0.0787
    148 H63        16.1110   -6.4454    0.7276 H         1 ALA         0.1373
    149 H64        16.6072   -3.9889    0.9063 H         1 ALA         0.0278
    150 H65        15.0549   -3.4147    1.6044 H         1 ALA         0.0278
    151 H66        15.6200   -2.7750    0.0239 H         1 ALA         0.0278
@<TRIPOS>BOND
     1    1    2 1  
     2    2    3 1  
     3    2    5 1  
     4    3    4 2  
     5    3   10 am 
     6    5    6 1  
     7    6    7 1  
     8    7    8 2  
     9    7    9 am 
    10   10   11 1  
    11   11   12 1  
    12   11   14 1  
    13   12   13 2  
    14   12   22 am 
    15   14   15 1  
    16   15   16 ar 
    17   15   17 ar 
    18   16   18 ar 
    19   17   19 ar 
    20   18   20 ar 
    21   19   20 ar 
    22   20   21 1  
    23   22   23 1  
    24   23   24 1  
    25   23   26 1  
    26   24   25 2  
    27   24   33 am 
    28   26   27 1  
    29   27   28 ar 
    30   27   29 ar 
    31   28   30 ar 
    32   29   31 ar 
    33   30   32 ar 
    34   31   32 ar 
    35   33   34 1  
    36   34   35 1  
    37   34   37 1  
    38   35   36 2  
    39   35   41 am 
    40   37   38 1  
    41   38   39 1  
    42   39   40 1  
    43   41   42 1  
    44   42   43 1  
    45   42   50 1  
    46   43   44 1  
    47   43   45 1  
    48   45   46 1  
    49   46   47 ar 
    50   46   48 ar 
    51   46   49 ar 
    52   50   51 2  
    53   50   52 am 
    54   52   53 1  
    55   53   54 1  
    56   53   56 1  
    57   54   55 2  
    58   54   61 am 
    59   56   57 1  
    60   57   58 1  
    61   58   59 ar 
    62   58   60 ar 
    63   61   62 1  
    64   62   63 1  
    65   62   65 1  
    66   63   64 2  
    67   63   77 am 
    68   65   66 1  
    69   66   67 ar 
    70   66   68 ar 
    71   67   69 ar 
    72   68   70 ar 
    73   69   71 ar 
    74   70   71 ar 
    75   71   72 1  
    76   72   73 1  
    77   73   74 ar 
    78   73   75 ar 
    79   73   76 ar 
    80   77   78 1  
    81   78   79 1  
    82   79   80 2  
    83   79   81 am 
    84   81   82 1  
    85   82   83 1  
    86   82   85 1  
    87   83   84 2  
    88    1   86 1  
    89    1   87 1  
    90    1   88 1  
    91    2   89 1  
    92    5   90 1  
    93    5   91 1  
    94    6   92 1  
    95    6   93 1  
    96    9   94 1  
    97    9   95 1  
    98   10   96 1  
    99   11   97 1  
   100   14   98 1  
   101   14   99 1  
   102   16  100 1  
   103   17  101 1  
   104   18  102 1  
   105   19  103 1  
   106   21  104 1  
   107   22  105 1  
   108   23  106 1  
   109   26  107 1  
   110   26  108 1  
   111   28  109 1  
   112   29  110 1  
   113   30  111 1  
   114   31  112 1  
   115   32  113 1  
   116   33  114 1  
   117   34  115 1  
   118   37  116 1  
   119   37  117 1  
   120   38  118 1  
   121   38  119 1  
   122   40  120 1  
   123   40  121 1  
   124   40  122 1  
   125   41  123 1  
   126   42  124 1  
   127   43  125 1  
   128   44  126 1  
   129   44  127 1  
   130   44  128 1  
   131   52  129 1  
   132   53  130 1  
   133   56  131 1  
   134   56  132 1  
   135   57  133 1  
   136   57  134 1  
   137   61  135 1  
   138   62  136 1  
   139   65  137 1  
   140   65  138 1  
   141   67  139 1  
   142   68  140 1  
   143   69  141 1  
   144   70  142 1  
   145   77  143 1  
   146   78  144 1  
   147   78  145 1  
   148   81  146 1  
   149   82  147 1  
   150   83  148 1  
   151   85  149 1  
   152   85  150 1  
   153   85  151 1  
@<TRIPOS>SUBSTRUCTURE
     1 GLN         1

