2q8y_ligand
  -I-interpret- 

156158  0  0  0  0  0  0  0  0999 V2000
   -1.5220   -3.6150   -0.2810 N   0  3  0  0  0
   -0.5670   -4.3340    0.6070 C   0  0  0  0  0
    0.0040   -5.5800   -0.0800 C   0  0  0  0  0
    1.2170   -5.7910   -0.0670 O   0  0  0  0  0
   -1.2590   -4.7050    1.9240 C   0  0  0  0  0
   -0.3430   -5.2690    3.0140 C   0  0  0  0  0
   -1.1240   -5.9110    4.1540 C   0  0  0  0  0
   -0.5720   -6.6720    4.9560 O   0  0  0  0  0
   -2.4160   -5.6160    4.2250 N   0  0  0  0  0
   -0.8690   -6.3920   -0.6770 N   0  0  0  0  0
   -0.4760   -7.6840   -1.2620 C   0  0  0  0  0
   -0.1180   -7.6460   -2.7560 C   0  0  0  0  0
    0.4740   -8.5960   -3.2800 O   0  0  0  0  0
   -1.5870   -8.7250   -1.0490 C   0  0  0  0  0
   -1.8650   -9.0990    0.3970 C   0  0  0  0  0
   -0.8470   -9.5680    1.2300 C   0  0  0  0  0
   -3.1560   -9.0170    0.9220 C   0  0  0  0  0
   -1.1030   -9.9220    2.5530 C   0  0  0  0  0
   -3.4220   -9.3730    2.2490 C   0  0  0  0  0
   -2.3930   -9.8230    3.0550 C   0  0  0  0  0
   -2.6420  -10.1790    4.3640 O   0  0  0  0  0
   -0.4670   -6.5570   -3.4390 N   0  0  0  0  0
   -0.4580   -6.5460   -4.9070 C   0  0  0  0  0
    0.5400   -5.5790   -5.5450 C   0  0  0  0  0
    0.5200   -5.3700   -6.7620 O   0  0  0  0  0
   -1.8750   -6.2840   -5.4360 C   0  0  0  0  0
   -2.9340   -7.0890   -4.7400 C   0  0  0  0  0
   -3.6460   -6.5460   -3.6700 C   0  0  0  0  0
   -3.2090   -8.3910   -5.1420 C   0  0  0  0  0
   -4.6190   -7.2880   -3.0130 C   0  0  0  0  0
   -4.1820   -9.1400   -4.4960 C   0  0  0  0  0
   -4.8930   -8.5900   -3.4290 C   0  0  0  0  0
    1.4070   -5.0020   -4.7180 N   0  0  0  0  0
    2.3790   -4.0140   -5.1670 C   0  0  0  0  0
    3.5990   -4.6860   -5.7880 C   0  0  0  0  0
    4.1930   -5.5840   -5.1920 O   0  0  0  0  0
    2.8020   -3.1090   -4.0030 C   0  0  0  0  0
    1.6430   -2.3310   -3.3580 C   0  0  0  0  0
    2.1590   -1.2230   -2.0270 S   0  0  0  0  0
    2.6220   -2.3900   -0.7420 C   0  0  0  0  0
    3.9680   -4.2400   -6.9870 N   0  0  0  0  0
    5.2020   -4.7060   -7.6380 C   0  0  0  0  0
    5.0690   -4.8080   -9.1720 C   0  0  0  0  0
    3.8540   -5.6310   -9.6160 C   0  0  0  0  0
    5.1350   -3.5470   -9.8670 O   0  0  0  0  0
    4.2920   -2.1880   -9.5910 P   0  0  0  0  0
    5.1340   -1.3990   -8.6220 O   0  0  0  0  0
    4.1760   -1.5620  -10.9530 O   0  0  0  0  0
    2.9530   -2.5940   -9.0080 O   0  0  0  0  0
    6.4020   -3.8860   -7.2220 C   0  0  0  0  0
    7.4420   -3.9110   -7.8790 O   0  0  0  0  0
    6.2630   -3.1580   -6.1150 N   0  0  0  0  0
    7.3340   -2.3110   -5.5880 C   0  0  0  0  0
    8.5730   -3.1340   -5.2190 C   0  0  0  0  0
    8.4610   -4.2640   -4.7330 O   0  0  0  0  0
    6.8340   -1.5230   -4.3670 C   0  0  0  0  0
    7.6500   -0.2720   -4.0270 C   0  0  0  0  0
    7.1230    1.0150   -4.6730 C   0  0  0  0  0
    7.4760    2.1060   -4.1720 O   0  0  0  0  0
    6.3630    0.9520   -5.6660 O   0  0  0  0  0
    9.7540   -2.6000   -5.4800 N   0  0  0  0  0
   11.0310   -3.2050   -5.0740 C   0  0  0  0  0
   11.0970   -3.2410   -3.5570 C   0  0  0  0  0
   11.0620   -2.2530   -2.9370 O   0  0  0  0  0
   12.1680   -2.3100   -5.5340 C   0  0  0  0  0
   13.5590   -2.8030   -5.2970 C   0  0  0  0  0
   14.2090   -3.5180   -6.2560 C   0  0  0  0  0
   14.2510   -2.5220   -4.1340 C   0  0  0  0  0
   15.4780   -3.9860   -6.0630 C   0  0  0  0  0
   15.5460   -2.9560   -3.9500 C   0  0  0  0  0
   16.1630   -3.7130   -4.9190 C   0  0  0  0  0
   17.3170   -4.1320   -4.8580 O   0  0  0  0  0
   18.1250   -4.7110   -3.6260 P   0  0  0  0  0
   18.2270   -3.7250   -2.6960 O   0  0  0  0  0
   17.3840   -5.7710   -2.9990 O   0  0  0  0  0
   19.4200   -5.2130   -4.0480 O   0  0  0  0  0
   11.1770   -4.3920   -2.9690 N   0  0  0  0  0
   11.4110   -4.4680   -1.5480 C   0  0  0  0  0
   12.8040   -4.9990   -1.2540 C   0  0  0  0  0
   13.2080   -5.9850   -1.8190 O   0  0  0  0  0
   13.5140   -4.3530   -0.3470 N   0  0  0  0  0
   14.8800   -4.7320   -0.0120 C   0  0  0  0  0
   15.1020   -6.0380    0.6850 C   0  0  0  0  0
   14.2140   -6.6480    1.1950 O   0  0  0  0  0
   15.5830   -3.6630    0.6720 C   0  0  0  0  0
   -1.0549   -3.3716   -1.1545 H   0  0  0  0  0
   -2.3210   -4.2177   -0.4778 H   0  0  0  0  0
   -1.8419   -2.7649    0.1832 H   0  0  0  0  0
    0.2698   -3.6696    0.8225 H   0  0  0  0  0
   -1.9781   -5.4890    1.6866 H   0  0  0  0  0
   -1.6838   -3.7833    2.3218 H   0  0  0  0  0
    0.2385   -4.4442    3.4260 H   0  0  0  0  0
    0.2862   -6.0359    2.5623 H   0  0  0  0  0
   -2.9922   -6.0225    4.9620 H   0  0  0  0  0
   -2.8328   -4.9828    3.5426 H   0  0  0  0  0
   -1.8468   -6.1067   -0.7303 H   0  0  0  0  0
    0.4384   -7.9564   -0.7350 H   0  0  0  0  0
   -1.2575   -9.6367   -1.5474 H   0  0  0  0  0
   -2.5047   -8.2831   -1.4371 H   0  0  0  0  0
    0.1661   -9.6588    0.8381 H   0  0  0  0  0
   -3.9711   -8.6696    0.2872 H   0  0  0  0  0
   -0.2932  -10.2754    3.1913 H   0  0  0  0  0
   -4.4347   -9.2959    2.6448 H   0  0  0  0  0
   -3.5743  -10.0547    4.5564 H   0  0  0  0  0
   -0.7454   -5.7161   -2.9333 H   0  0  0  0  0
   -0.1136   -7.5367   -5.2035 H   0  0  0  0  0
   -1.8885   -6.5664   -6.4887 H   0  0  0  0  0
   -2.0988   -5.2311   -5.2642 H   0  0  0  0  0
   -3.4360   -5.5268   -3.3457 H   0  0  0  0  0
   -2.6548   -8.8277   -5.9728 H   0  0  0  0  0
   -5.1659   -6.8542   -2.1759 H   0  0  0  0  0
   -4.3911  -10.1588   -4.8223 H   0  0  0  0  0
   -5.6598   -9.1761   -2.9226 H   0  0  0  0  0
    1.3908   -5.2611   -3.7316 H   0  0  0  0  0
    1.9048   -3.4002   -5.9328 H   0  0  0  0  0
    3.4999   -2.3738   -4.4037 H   0  0  0  0  0
    3.2263   -3.7526   -3.2323 H   0  0  0  0  0
    0.9613   -3.0632   -2.9252 H   0  0  0  0  0
    1.1919   -1.7156   -4.1364 H   0  0  0  0  0
    1.7591   -3.0028   -0.4815 H   0  0  0  0  0
    3.4265   -3.0291   -1.1061 H   0  0  0  0  0
    2.9604   -1.8437    0.1384 H   0  0  0  0  0
    3.3802   -3.5580   -7.4662 H   0  0  0  0  0
    5.3704   -5.7230   -7.2837 H   0  0  0  0  0
    5.9626   -5.3549   -9.4728 H   0  0  0  0  0
    3.9397   -6.6440   -9.2229 H   0  0  0  0  0
    2.9440   -5.1677   -9.2347 H   0  0  0  0  0
    3.8176   -5.6643  -10.7049 H   0  0  0  0  0
    5.1628   -1.8566   -7.7786 H   0  0  0  0  0
    3.0879   -2.9859   -8.1421 H   0  0  0  0  0
    5.3748   -3.1922   -5.6147 H   0  0  0  0  0
    7.6227   -1.6109   -6.3720 H   0  0  0  0  0
    6.9087   -2.1908   -3.5088 H   0  0  0  0  0
    5.8240   -1.1865   -4.6011 H   0  0  0  0  0
    8.6593   -0.4328   -4.4060 H   0  0  0  0  0
    7.5960   -0.1358   -2.9469 H   0  0  0  0  0
    6.2135    0.0318   -5.8953 H   0  0  0  0  0
    9.7807   -1.7183   -5.9921 H   0  0  0  0  0
   11.1090   -4.2040   -5.5030 H   0  0  0  0  0
   12.0757   -1.3909   -4.9554 H   0  0  0  0  0
   12.0622   -2.2271   -6.6157 H   0  0  0  0  0
   13.7048   -3.7220   -7.2006 H   0  0  0  0  0
   13.7632   -1.9462   -3.3475 H   0  0  0  0  0
   15.9502   -4.5886   -6.8389 H   0  0  0  0  0
   16.0818   -2.6993   -3.0361 H   0  0  0  0  0
   17.2826   -6.4982   -3.6174 H   0  0  0  0  0
   19.2962   -5.9045   -4.7023 H   0  0  0  0  0
   11.0741   -5.2485   -3.5132 H   0  0  0  0  0
   10.6784   -5.1449   -1.1084 H   0  0  0  0  0
   11.3212   -3.4677   -1.1245 H   0  0  0  0  0
   13.0908   -3.5606    0.1361 H   0  0  0  0  0
   15.3061   -4.9060   -1.0001 H   0  0  0  0  0
   16.1119   -6.4458    0.7277 H   0  0  0  0  0
   15.6190   -2.7837    0.0288 H   0  0  0  0  0
   15.0587   -3.4179    1.5957 H   0  0  0  0  0
   16.5976   -3.9871    0.9036 H   0  0  0  0  0
  1  2  1  0  0  0
  2  3  1  0  0  0
  2  5  1  0  0  0
  3  4  2  0  0  0
  3 10  1  0  0  0
  5  6  1  0  0  0
  6  7  1  0  0  0
  7  8  2  0  0  0
  7  9  1  0  0  0
 10 11  1  0  0  0
 11 12  1  0  0  0
 11 14  1  0  0  0
 12 13  2  0  0  0
 12 22  1  0  0  0
 14 15  1  0  0  0
 15 16  4  0  0  0
 15 17  4  0  0  0
 16 18  4  0  0  0
 17 19  4  0  0  0
 18 20  4  0  0  0
 19 20  4  0  0  0
 20 21  1  0  0  0
 22 23  1  0  0  0
 23 24  1  0  0  0
 23 26  1  0  0  0
 24 25  2  0  0  0
 24 33  1  0  0  0
 26 27  1  0  0  0
 27 28  4  0  0  0
 27 29  4  0  0  0
 28 30  4  0  0  0
 29 31  4  0  0  0
 30 32  4  0  0  0
 31 32  4  0  0  0
 33 34  1  0  0  0
 34 35  1  0  0  0
 34 37  1  0  0  0
 35 36  2  0  0  0
 35 41  1  0  0  0
 37 38  1  0  0  0
 38 39  1  0  0  0
 39 40  1  0  0  0
 41 42  1  0  0  0
 42 43  1  0  0  0
 42 50  1  0  0  0
 43 44  1  0  0  0
 43 45  1  0  0  0
 45 46  1  0  0  0
 46 47  1  0  0  0
 46 48  2  0  0  0
 46 49  1  0  0  0
 50 51  2  0  0  0
 50 52  1  0  0  0
 52 53  1  0  0  0
 53 54  1  0  0  0
 53 56  1  0  0  0
 54 55  2  0  0  0
 54 61  1  0  0  0
 56 57  1  0  0  0
 57 58  1  0  0  0
 58 59  2  0  0  0
 58 60  1  0  0  0
 61 62  1  0  0  0
 62 63  1  0  0  0
 62 65  1  0  0  0
 63 64  2  0  0  0
 63 77  1  0  0  0
 65 66  1  0  0  0
 66 67  4  0  0  0
 66 68  4  0  0  0
 67 69  4  0  0  0
 68 70  4  0  0  0
 69 71  4  0  0  0
 70 71  4  0  0  0
 71 72  1  0  0  0
 72 73  1  0  0  0
 73 74  2  0  0  0
 73 75  1  0  0  0
 73 76  1  0  0  0
 77 78  1  0  0  0
 78 79  1  0  0  0
 79 80  2  0  0  0
 79 81  1  0  0  0
 81 82  1  0  0  0
 82 83  1  0  0  0
 82 85  1  0  0  0
 83 84  2  0  0  0
  1 86  1  0  0  0
  1 87  1  0  0  0
  1 88  1  0  0  0
  2 89  1  0  0  0
  5 90  1  0  0  0
  5 91  1  0  0  0
  6 92  1  0  0  0
  6 93  1  0  0  0
  9 94  1  0  0  0
  9 95  1  0  0  0
 10 96  1  0  0  0
 11 97  1  0  0  0
 14 98  1  0  0  0
 14 99  1  0  0  0
 16100  1  0  0  0
 17101  1  0  0  0
 18102  1  0  0  0
 19103  1  0  0  0
 21104  1  0  0  0
 22105  1  0  0  0
 23106  1  0  0  0
 26107  1  0  0  0
 26108  1  0  0  0
 28109  1  0  0  0
 29110  1  0  0  0
 30111  1  0  0  0
 31112  1  0  0  0
 32113  1  0  0  0
 33114  1  0  0  0
 34115  1  0  0  0
 37116  1  0  0  0
 37117  1  0  0  0
 38118  1  0  0  0
 38119  1  0  0  0
 40120  1  0  0  0
 40121  1  0  0  0
 40122  1  0  0  0
 41123  1  0  0  0
 42124  1  0  0  0
 43125  1  0  0  0
 44126  1  0  0  0
 44127  1  0  0  0
 44128  1  0  0  0
 47129  1  0  0  0
 49130  1  0  0  0
 52131  1  0  0  0
 53132  1  0  0  0
 56133  1  0  0  0
 56134  1  0  0  0
 57135  1  0  0  0
 57136  1  0  0  0
 60137  1  0  0  0
 61138  1  0  0  0
 62139  1  0  0  0
 65140  1  0  0  0
 65141  1  0  0  0
 67142  1  0  0  0
 68143  1  0  0  0
 69144  1  0  0  0
 70145  1  0  0  0
 75146  1  0  0  0
 76147  1  0  0  0
 77148  1  0  0  0
 78149  1  0  0  0
 78150  1  0  0  0
 81151  1  0  0  0
 82152  1  0  0  0
 83153  1  0  0  0
 85154  1  0  0  0
 85155  1  0  0  0
 85156  1  0  0  0
M  END
$$$$
