6ht8_ligand
  -I-interpret- 

 33 34  0  0  0  0  0  0  0  0999 V2000
   45.1500   37.5900   86.7220 O   0  0  0  0  0
   44.3220   37.1090   87.4810 C   0  0  0  0  0
   43.9830   37.8490   88.7370 C   0  0  0  0  0
   44.8860   38.8120   89.1840 C   0  0  0  0  0
   44.6500   39.4860   90.3720 C   0  0  0  0  0
   43.5300   39.1730   91.1310 C   0  0  0  0  0
   42.6510   38.1890   90.7080 C   0  0  0  0  0
   42.8740   37.5200   89.5150 C   0  0  0  0  0
   43.7630   35.8130   87.2180 N   0  0  0  0  0
   44.2070   35.0610   86.0820 C   0  0  0  0  0
   43.8150   35.2290   84.7690 C   0  0  0  0  0
   42.8920   36.1820   84.4120 O   0  0  0  0  0
   42.3820   36.1150   83.1290 C   0  0  0  0  0
   45.1630   34.0850   86.3970 C   0  0  0  0  0
   45.7270   33.2540   85.4350 C   0  0  0  0  0
   45.3130   33.4270   84.1170 C   0  0  0  0  0
   44.3680   34.4050   83.7960 C   0  0  0  0  0
   46.7390   32.2090   85.8380 C   0  0  0  0  0
   47.3030   32.2700   86.9250 O   0  0  0  0  0
   47.0640   31.0900   84.9990 N   0  0  0  0  0
   47.9340   30.1980   85.3990 O   0  0  0  0  0
   45.7783   39.0352   88.5991 H   0  0  0  0  0
   45.3409   40.2587   90.7092 H   0  0  0  0  0
   43.3415   39.7040   92.0641 H   0  0  0  0  0
   41.7810   37.9402   91.3157 H   0  0  0  0  0
   42.1860   36.7408   89.1868 H   0  0  0  0  0
   43.0510   35.4282   87.8388 H   0  0  0  0  0
   43.1958   36.2119   82.4104 H   0  0  0  0  0
   41.8828   35.1564   82.9874 H   0  0  0  0  0
   41.6666   36.9240   82.9810 H   0  0  0  0  0
   45.4760   33.9733   87.4351 H   0  0  0  0  0
   45.7283   32.7960   83.3312 H   0  0  0  0  0
   44.0573   34.5244   82.7581 H   0  0  0  0  0
  1  2  2  0  0  0
  2  3  1  0  0  0
  2  9  1  0  0  0
  3  4  4  0  0  0
  3  8  4  0  0  0
  4  5  4  0  0  0
  5  6  4  0  0  0
  6  7  4  0  0  0
  7  8  4  0  0  0
  9 10  1  0  0  0
 10 11  4  0  0  0
 10 14  4  0  0  0
 11 12  1  0  0  0
 11 17  4  0  0  0
 12 13  1  0  0  0
 14 15  4  0  0  0
 15 16  4  0  0  0
 15 18  1  0  0  0
 16 17  4  0  0  0
 18 19  2  0  0  0
 18 20  1  0  0  0
 20 21  2  0  0  0
  4 22  1  0  0  0
  5 23  1  0  0  0
  6 24  1  0  0  0
  7 25  1  0  0  0
  8 26  1  0  0  0
  9 27  1  0  0  0
 13 28  1  0  0  0
 13 29  1  0  0  0
 13 30  1  0  0  0
 14 31  1  0  0  0
 16 32  1  0  0  0
 17 33  1  0  0  0
M  END
$$$$
