1jfh_ligand
  -I-interpret- 

 51 52  0  0  0  0  0  0  0  0999 V2000
   -7.7630   41.7280   20.9390 C   0  0  0  0  0
   -8.7000   40.5230   20.8400 C   0  0  0  0  0
   -9.9900   40.9060   20.1030 C   0  0  0  0  0
  -10.6350   42.1250   20.7640 C   0  0  0  0  0
   -9.6030   43.2570   20.8020 C   0  0  0  0  0
  -10.1120   44.5210   21.4700 C   0  0  0  0  0
  -11.7110   42.8030   18.2010 C   0  0  0  0  0
   -8.0500   39.4700   20.1440 O   0  0  0  0  0
  -10.8980   39.8140   20.1240 O   0  0  0  0  0
  -12.2020   42.6460   19.9550 S   0  0  0  0  0
   -8.4440   42.8240   21.5340 O   0  0  0  0  0
  -10.5330   44.2630   22.8010 O   0  0  0  0  0
   -2.5600   43.0970   18.8850 C   0  0  0  0  0
   -3.0190   41.6780   18.5080 C   0  0  0  0  0
   -4.5380   41.6070   18.3430 C   0  0  0  0  0
   -5.2450   42.1520   19.5860 C   0  0  0  0  0
   -4.7040   43.5570   19.8750 C   0  0  0  0  0
   -5.2770   44.2090   21.1200 C   0  0  0  0  0
   -2.5540   45.3920   18.0990 C   0  0  0  0  0
   -2.8460   43.9980   17.8150 O   0  0  0  0  0
   -2.3920   41.2530   17.3060 O   0  0  0  0  0
   -4.9340   40.2600   18.1230 O   0  0  0  0  0
   -7.0590   42.1610   19.3180 S   0  0  0  0  0
   -3.2750   43.5090   20.0410 O   0  0  0  0  0
   -4.9180   43.4960   22.2900 O   0  0  0  0  0
   -6.9217   41.4636   21.5797 H   0  0  0  0  0
   -8.9553   40.1941   21.8474 H   0  0  0  0  0
   -9.7447   41.1526   19.0700 H   0  0  0  0  0
  -10.9262   41.8554   21.7792 H   0  0  0  0  0
   -9.3750   43.4899   19.7619 H   0  0  0  0  0
  -10.9631   44.8967   20.9020 H   0  0  0  0  0
   -9.3032   45.2513   21.4958 H   0  0  0  0  0
  -10.9207   43.5483   18.1116 H   0  0  0  0  0
  -11.3477   41.8411   17.8392 H   0  0  0  0  0
  -12.5729   43.1129   17.6101 H   0  0  0  0  0
   -7.2433   39.2321   20.6069 H   0  0  0  0  0
  -10.4892   39.0513   19.7083 H   0  0  0  0  0
  -10.8493   45.0774   23.1989 H   0  0  0  0  0
   -1.4873   43.0984   19.0783 H   0  0  0  0  0
   -2.7278   41.0150   19.3227 H   0  0  0  0  0
   -4.8208   42.2178   17.4857 H   0  0  0  0  0
   -5.0492   41.5174   20.4503 H   0  0  0  0  0
   -5.0058   44.1555   19.0155 H   0  0  0  0  0
   -6.3639   44.2145   21.0383 H   0  0  0  0  0
   -4.8779   45.2205   21.1954 H   0  0  0  0  0
   -3.1465   45.7192   18.9534 H   0  0  0  0  0
   -1.4938   45.5006   18.3275 H   0  0  0  0  0
   -2.8034   45.9988   17.2285 H   0  0  0  0  0
   -2.6900   40.3671   17.0869 H   0  0  0  0  0
   -5.8877   40.2207   18.0201 H   0  0  0  0  0
   -5.2946   43.9325   23.0576 H   0  0  0  0  0
  1  2  1  0  0  0
  1 11  1  0  0  0
 23  1  1  0  0  0
  2  3  1  0  0  0
  2  8  1  0  0  0
  3  4  1  0  0  0
  3  9  1  0  0  0
  5  4  1  0  0  0
  4 10  1  0  0  0
  5  6  1  0  0  0
 11  5  1  0  0  0
  6 12  1  0  0  0
 10  7  1  0  0  0
 14 13  1  0  0  0
 13 20  1  0  0  0
 13 24  1  0  0  0
 15 14  1  0  0  0
 14 21  1  0  0  0
 16 15  1  0  0  0
 15 22  1  0  0  0
 16 17  1  0  0  0
 16 23  1  0  0  0
 17 18  1  0  0  0
 17 24  1  0  0  0
 18 25  1  0  0  0
 20 19  1  0  0  0
  1 26  1  0  0  0
  2 27  1  0  0  0
  3 28  1  0  0  0
  4 29  1  0  0  0
  5 30  1  0  0  0
  6 31  1  0  0  0
  6 32  1  0  0  0
  7 33  1  0  0  0
  7 34  1  0  0  0
  7 35  1  0  0  0
  8 36  1  0  0  0
  9 37  1  0  0  0
 12 38  1  0  0  0
 13 39  1  0  0  0
 14 40  1  0  0  0
 15 41  1  0  0  0
 16 42  1  0  0  0
 17 43  1  0  0  0
 18 44  1  0  0  0
 18 45  1  0  0  0
 19 46  1  0  0  0
 19 47  1  0  0  0
 19 48  1  0  0  0
 21 49  1  0  0  0
 22 50  1  0  0  0
 25 51  1  0  0  0
M  END
$$$$
