6fex_ligand
  -I-interpret- 

 55 59  0  0  0  0  0  0  0  0999 V2000
  -15.4460   -8.9410  -11.3760 C   0  0  0  0  0
  -15.0500   -8.6430  -12.6670 C   0  0  0  0  0
  -15.2370   -7.3550  -13.1410 C   0  0  0  0  0
  -14.3150   -7.6100  -15.4780 C   0  0  0  0  0
   -9.9670   -8.1910  -17.3230 C   0  0  0  0  0
  -15.2410   -5.5310  -14.4980 C   0  0  0  0  0
  -15.1780   -3.8840  -12.5460 C   0  0  0  0  0
  -15.5280   -2.5800  -13.2390 C   0  0  0  0  0
  -17.3840   -4.7750  -13.4780 C   0  0  0  0  0
  -17.0270   -0.5600  -11.7160 C   0  0  0  0  0
  -16.6470    1.5770  -10.7530 C   0  0  0  0  0
  -10.6850   -8.5430  -16.0670 C   0  0  0  0  0
  -15.8950   -5.1000  -13.1790 C   0  0  0  0  0
  -16.1640   -6.6800  -11.0600 C   0  0  0  0  0
  -17.5670   -3.4400  -14.1840 C   0  0  0  0  0
  -17.7150   -1.4750  -12.6920 C   0  0  0  0  0
  -17.2770    0.8050  -11.7080 C   0  0  0  0  0
  -15.8180    0.9310   -9.8390 C   0  0  0  0  0
  -16.0020   -7.9670  -10.5670 C   0  0  0  0  0
  -15.6150   -0.4520   -9.8620 C   0  0  0  0  0
  -14.7440   -0.7590   -8.7920 C   0  0  0  0  0
  -15.7950   -6.3570  -12.3500 C   0  0  0  0  0
  -12.8010   -7.5400  -15.3740 C   0  0  0  0  0
  -10.0640   -6.9170  -17.6050 F   0  0  0  0  0
   -8.6600   -8.4470  -17.2430 F   0  0  0  0  0
  -10.4610   -8.8390  -18.3850 F   0  0  0  0  0
  -12.1240   -8.3700  -16.1650 N   0  0  0  0  0
  -16.9850   -2.4020  -13.3360 N   0  0  0  0  0
  -16.2510   -1.1720  -10.8070 N   0  0  0  0  0
  -14.4030    0.3560   -8.1620 N   0  0  0  0  0
  -15.0590    1.3680   -8.7930 N   0  0  0  0  0
  -14.9380   -6.8550  -14.4030 N   0  0  0  0  0
  -12.2560   -6.7710  -14.5830 O   0  0  0  0  0
  -15.0440   -4.8230  -15.4720 O   0  0  0  0  0
  -18.9200   -1.3810  -12.8260 O   0  0  0  0  0
  -16.9540   -5.3990   -9.8910 Br  0  0  0  0  0
  -15.3187   -9.9533  -10.9924 H   0  0  0  0  0
  -14.5991   -9.4074  -13.2998 H   0  0  0  0  0
  -14.6260   -8.6520  -15.4037 H   0  0  0  0  0
  -14.6232   -7.1842  -16.4329 H   0  0  0  0  0
  -15.4961   -3.8090  -11.5062 H   0  0  0  0  0
  -14.1033   -4.0389  -12.6421 H   0  0  0  0  0
  -15.1125   -2.5996  -14.2465 H   0  0  0  0  0
  -15.1152   -1.7557  -12.6573 H   0  0  0  0  0
  -17.9117   -4.7236  -12.5257 H   0  0  0  0  0
  -17.7702   -5.5549  -14.1343 H   0  0  0  0  0
  -16.7934    2.6565  -10.7153 H   0  0  0  0  0
  -10.3244   -7.8782  -15.2821 H   0  0  0  0  0
  -10.4915   -9.5953  -15.8589 H   0  0  0  0  0
  -18.6259   -3.2424  -14.3507 H   0  0  0  0  0
  -17.0734   -3.4553  -15.1557 H   0  0  0  0  0
  -17.9522    1.2550  -12.4358 H   0  0  0  0  0
  -16.3106   -8.2083   -9.5499 H   0  0  0  0  0
  -14.4046   -1.7600   -8.5257 H   0  0  0  0  0
  -12.6355   -8.9050  -16.8668 H   0  0  0  0  0
  2  1  4  0  0  0
  1 19  4  0  0  0
  3  2  4  0  0  0
  3 22  4  0  0  0
 32  3  1  0  0  0
 23  4  1  0  0  0
  4 32  1  0  0  0
 12  5  1  0  0  0
  5 24  1  0  0  0
  5 25  1  0  0  0
  5 26  1  0  0  0
  6 13  1  0  0  0
 32  6  1  0  0  0
  6 34  2  0  0  0
  7  8  1  0  0  0
 13  7  1  0  0  0
  8 28  1  0  0  0
 13  9  1  0  0  0
  9 15  1  0  0  0
 16 10  1  0  0  0
 10 17  4  0  0  0
 10 29  4  0  0  0
 17 11  4  0  0  0
 11 18  4  0  0  0
 27 12  1  0  0  0
 13 22  1  0  0  0
 14 19  4  0  0  0
 22 14  4  0  0  0
 14 36  1  0  0  0
 15 28  1  0  0  0
 28 16  1  0  0  0
 16 35  2  0  0  0
 20 18  4  0  0  0
 18 31  4  0  0  0
 20 21  4  0  0  0
 29 20  4  0  0  0
 21 30  4  0  0  0
 23 27  1  0  0  0
 23 33  2  0  0  0
 30 31  4  0  0  0
  1 37  1  0  0  0
  2 38  1  0  0  0
  4 39  1  0  0  0
  4 40  1  0  0  0
  7 41  1  0  0  0
  7 42  1  0  0  0
  8 43  1  0  0  0
  8 44  1  0  0  0
  9 45  1  0  0  0
  9 46  1  0  0  0
 11 47  1  0  0  0
 12 48  1  0  0  0
 12 49  1  0  0  0
 15 50  1  0  0  0
 15 51  1  0  0  0
 17 52  1  0  0  0
 19 53  1  0  0  0
 21 54  1  0  0  0
 27 55  1  0  0  0
M  END
$$$$
