### 
### Created by X-TOOL on Mon Sep 10 21:13:29 2018
### 

@<TRIPOS>MOLECULE
5hjc_ligand
  159   159     1     0     0
SMALL
GAST_HUCK


@<TRIPOS>ATOM
      1 N         -40.1430  -42.8370   13.8390 N.4       1 ALA         0.2377
      2 CA        -38.9190  -42.4510   13.1480 C.3       1 ALA         0.0623
      3 C         -38.6330  -40.9650   13.3330 C.2       1 ALA         0.2289
      4 O         -39.5130  -40.1290   13.1280 O.2       1 ALA        -0.3905
      5 CB        -39.0150  -42.7940   11.6720 C.3       1 ALA        -0.0040
      6 N         -37.3930  -40.6350   13.7250 N.am      1 PRO        -0.2471
      7 CA        -36.9710  -39.2570   14.0010 C.3       1 PRO         0.1339
      8 C         -37.0140  -38.3490   12.7740 C.2       1 PRO         0.2041
      9 O         -36.4880  -38.7040   11.7180 O.2       1 PRO        -0.3944
     10 CB        -35.5280  -39.4240   14.4930 C.3       1 PRO        -0.0104
     11 CG        -35.4320  -40.8410   14.9400 C.3       1 PRO        -0.0281
     12 CD        -36.3200  -41.6020   14.0090 C.3       1 PRO         0.0371
     13 N         -37.6350  -37.1840   12.9250 N.am      1 ARG        -0.2637
     14 CA        -37.6650  -36.1770   11.8710 C.3       1 ARG         0.1311
     15 C         -37.0850  -34.8700   12.3990 C.2       1 ARG         0.2039
     16 O         -37.4890  -34.3910   13.4590 O.2       1 ARG        -0.3944
     17 CB        -39.0930  -35.9610   11.3650 C.3       1 ARG        -0.0092
     18 CG        -39.2320  -34.8580   10.3280 C.3       1 ARG        -0.0156
     19 CD        -40.6950  -34.5970   10.0020 C.3       1 ARG         0.0627
     20 NE        -41.0460  -35.0050    8.6450 N.pl3     1 ARG        -0.2723
     21 CZ        -41.2010  -34.1630    7.6270 C.cat     1 ARG         0.2882
     22 NH1       -41.0430  -32.8600    7.8140 N.pl3     1 ARG        -0.2849
     23 NH2       -41.5200  -34.6230    6.4250 N.pl3     1 ARG        -0.2849
     24 OH        -29.9960  -32.5750    7.3200 O.2       1 ALY        -0.3974
     25 CH        -29.8980  -31.4460    7.8410 C.2       1 ALY         0.1729
     26 CH3       -28.8800  -30.4440    7.3500 C.3       1 ALY         0.0256
     27 NZ        -30.7130  -31.0520    8.8900 N.am      1 ALY        -0.2872
     28 CE        -31.7330  -31.8770    9.4760 C.3       1 ALY         0.0309
     29 CD        -32.8760  -31.0860   10.1200 C.3       1 ALY        -0.0325
     30 CG        -34.1270  -31.9340   10.2500 C.3       1 ALY        -0.0470
     31 CB        -34.0990  -32.7280   11.5360 C.3       1 ALY        -0.0123
     32 CA        -35.4870  -33.0810   12.1210 C.3       1 ALY         0.1310
     33 N         -36.1320  -34.2970   11.6700 N.am      1 ALY        -0.2637
     34 C         -36.4440  -31.9020   11.9870 C.2       1 ALY         0.2039
     35 O         -37.1460  -31.6740   10.9980 O.2       1 ALY        -0.3944
     36 N         -36.4830  -31.1240   13.0650 N.am      1 GLN        -0.2636
     37 CA        -37.4100  -30.0040   13.1760 C.3       1 GLN         0.1330
     38 C         -36.6760  -28.6660   13.1550 C.2       1 GLN         0.2040
     39 O         -35.9700  -28.3180   14.1030 O.2       1 GLN        -0.3944
     40 CB        -38.2410  -30.1280   14.4560 C.3       1 GLN         0.0045
     41 CG        -38.9670  -31.4550   14.6140 C.3       1 GLN         0.0412
     42 CD        -40.1240  -31.6150   13.6470 C.2       1 GLN         0.1737
     43 OE1       -40.5590  -30.6530   13.0120 O.2       1 GLN        -0.3973
     44 NE2       -40.6310  -32.8360   13.5310 N.am      1 GLN        -0.3009
     45 N         -36.8510  -27.9190   12.0700 N.am      1 LEU        -0.2637
     46 CA        -36.1710  -26.6400   11.8970 C.3       1 LEU         0.1312
     47 C         -36.8200  -25.5300   12.7150 C.2       1 LEU         0.2039
     48 O         -36.2050  -24.4910   12.9560 O.2       1 LEU        -0.3944
     49 CB        -36.1530  -26.2440   10.4200 C.3       1 LEU        -0.0101
     50 CG        -35.5310  -27.2360    9.4360 C.3       1 LEU        -0.0425
     51 CD1       -35.6100  -26.6930    8.0170 C.3       1 LEU        -0.0625
     52 CD2       -34.0930  -27.5450    9.8140 C.3       1 LEU        -0.0625
     53 N         -38.0640  -25.7540   13.1310 N.am      1 ALA        -0.2640
     54 CA        -38.8360  -24.7490   13.8570 C.3       1 ALA         0.1282
     55 C         -38.1000  -24.2510   15.0970 C.2       1 ALA         0.2037
     56 O         -37.4780  -25.0310   15.8180 O.2       1 ALA        -0.3944
     57 CB        -40.1970  -25.3060   14.2400 C.3       1 ALA        -0.0244
     58 N         -38.1750  -22.9450   15.3300 N.am      1 THR        -0.2613
     59 CA        -37.4450  -22.3060   16.4190 C.3       1 THR         0.1564
     60 C         -37.9650  -22.6980   17.7990 C.2       1 THR         0.2059
     61 O         -39.1150  -23.1100   17.9530 O.2       1 THR        -0.3943
     62 CB        -37.4930  -20.7730   16.2930 C.3       1 THR         0.0924
     63 OG1       -37.4820  -20.1880   17.6010 O.3       1 THR        -0.3874
     64 CG2       -38.7570  -20.3390   15.5730 C.3       1 THR        -0.0346
     65 N         -37.1030  -22.5520   18.8000 N.am      1 LYS        -0.2694
     66 CA        -37.4290  -22.9350   20.1680 C.3       1 LYS         0.0944
     67 C         -37.3990  -21.7270   21.1000 C.2       1 LYS         0.0601
     68 O         -38.4460  -21.2080   21.4920 O.co2     1 LYS        -0.5666
     69 CB        -36.4560  -24.0050   20.6600 C.3       1 LYS        -0.0177
     70 CG        -36.3020  -25.1740   19.6980 C.3       1 LYS        -0.0446
     71 CD        -35.0930  -26.0420   20.0250 C.3       1 LYS        -0.0125
     72 CE        -35.3720  -27.0310   21.1490 C.3       1 LYS        -0.0354
     73 NZ        -35.4060  -26.4020   22.4960 N.4       1 LYS         0.2185
     74 OXT       -36.3270  -21.2490   21.4770 O.co2     1 LYS        -0.5666
     75 H1        -40.3100  -43.8216   13.7019 H         1 ALA         0.2015
     76 H2        -40.9184  -42.3100   13.4687 H         1 ALA         0.2015
     77 H3        -40.0471  -42.6464   14.8242 H         1 ALA         0.2015
     78 H4        -38.0835  -43.0194   13.5825 H         1 ALA         0.1095
     79 H5        -38.0849  -42.4969   11.1653 H         1 ALA         0.0310
     80 H6        -39.8640  -42.2560   11.2250 H         1 ALA         0.0310
     81 H7        -39.1655  -43.8775   11.5564 H         1 ALA         0.0310
     82 H8        -37.6028  -38.8181   14.7873 H         1 PRO         0.0802
     83 H9        -35.3239  -38.7404   15.3302 H         1 PRO         0.0313
     84 H10       -34.8167  -39.2274   13.6773 H         1 PRO         0.0313
     85 H11       -35.7818  -40.9435   15.9779 H         1 PRO         0.0287
     86 H12       -34.3951  -41.2005   14.8653 H         1 PRO         0.0287
     87 H13       -35.7845  -41.8820   13.0899 H         1 PRO         0.0524
     88 H14       -36.7184  -42.5067   14.4913 H         1 PRO         0.0524
     89 H15       -38.0973  -36.9915   13.7906 H         1 ARG         0.1883
     90 H16       -37.0457  -36.5261   11.0316 H         1 ARG         0.0800
     91 H17       -39.7281  -35.7056   12.2260 H         1 ARG         0.0313
     92 H18       -39.4448  -36.9015   10.9160 H         1 ARG         0.0313
     93 H19       -38.7072  -35.1596    9.4095 H         1 ARG         0.0301
     94 H20       -38.7811  -33.9352   10.7218 H         1 ARG         0.0301
     95 H21       -40.8939  -33.5205   10.1094 H         1 ARG         0.0689
     96 H22       -41.3203  -35.1581   10.7120 H         1 ARG         0.0689
     97 H23       -41.1824  -36.0098    8.4642 H         1 ARG         0.2642
     98 H24       -41.1631  -32.2083    7.0255 H         1 ARG         0.2615
     99 H25       -40.8002  -32.4994    8.7478 H         1 ARG         0.2615
    100 H26       -41.6434  -35.6348    6.2768 H         1 ARG         0.2615
    101 H27       -41.6444  -33.9685    5.6394 H         1 ARG         0.2615
    102 H28       -28.9606  -29.5198    7.9411 H         1 ALY         0.0467
    103 H29       -29.0688  -30.2188    6.2900 H         1 ALY         0.0467
    104 H30       -27.8693  -30.8635    7.4614 H         1 ALY         0.0467
    105 H31       -30.5828  -30.1336    9.2636 H         1 ALY         0.1850
    106 H32       -31.2681  -32.5059   10.2495 H         1 ALY         0.0520
    107 H33       -32.1559  -32.5174    8.6880 H         1 ALY         0.0520
    108 H34       -33.1010  -30.2086    9.4959 H         1 ALY         0.0285
    109 H35       -32.5627  -30.7536   11.1207 H         1 ALY         0.0285
    110 H36       -34.1841  -32.6274    9.3980 H         1 ALY         0.0268
    111 H37       -35.0102  -31.2783   10.2490 H         1 ALY         0.0268
    112 H38       -33.5523  -32.1397   12.2877 H         1 ALY         0.0312
    113 H39       -33.5612  -33.6682   11.3441 H         1 ALY         0.0312
    114 H40       -35.3149  -33.2278   13.1975 H         1 ALY         0.0800
    115 H41       -35.8577  -34.7098   10.8014 H         1 ALY         0.1883
    116 H42       -35.8577  -31.3128   13.8222 H         1 GLN         0.1883
    117 H43       -38.0919  -30.0359   12.3135 H         1 GLN         0.0801
    118 H44       -38.9918  -29.3241   14.4568 H         1 GLN         0.0337
    119 H45       -37.5671  -30.0012   15.3161 H         1 GLN         0.0337
    120 H46       -39.3562  -31.5218   15.6407 H         1 GLN         0.0504
    121 H47       -38.2494  -32.2703   14.4401 H         1 GLN         0.0504
    122 H48       -41.3955  -33.0029   12.9084 H         1 GLN         0.1814
    123 H49       -40.2485  -33.5892   14.0662 H         1 GLN         0.1814
    124 H50       -37.4665  -28.2429   11.3515 H         1 LEU         0.1883
    125 H51       -35.1326  -26.7572   12.2404 H         1 LEU         0.0800
    126 H52       -35.5926  -25.3011   10.3374 H         1 LEU         0.0315
    127 H53       -37.1953  -26.0796   10.1091 H         1 LEU         0.0315
    128 H54       -36.1065  -28.1724    9.4802 H         1 LEU         0.0298
    129 H55       -35.1593  -27.4167    7.3219 H         1 LEU         0.0232
    130 H56       -35.0645  -25.7396    7.9583 H         1 LEU         0.0232
    131 H57       -36.6633  -26.5302    7.7448 H         1 LEU         0.0232
    132 H58       -34.0599  -27.9355   10.8418 H         1 LEU         0.0232
    133 H59       -33.4918  -26.6260    9.7515 H         1 LEU         0.0232
    134 H60       -33.6857  -28.2974    9.1226 H         1 LEU         0.0232
    135 H61       -38.4847  -26.6409   12.9400 H         1 ALA         0.1883
    136 H62       -38.9906  -23.8906   13.1868 H         1 ALA         0.0797
    137 H63       -40.7667  -24.5392   14.7854 H         1 ALA         0.0277
    138 H64       -40.0643  -26.1896   14.8815 H         1 ALA         0.0277
    139 H65       -40.7453  -25.5922   13.3304 H         1 ALA         0.0277
    140 H66       -38.7515  -22.3811   14.7386 H         1 THR         0.1884
    141 H67       -36.3955  -22.6274   16.3474 H         1 THR         0.0826
    142 H68       -36.6148  -20.4280   15.7276 H         1 THR         0.0639
    143 H69       -37.5116  -19.2416   17.5237 H         1 THR         0.2101
    144 H70       -38.7746  -19.2421   15.4920 H         1 THR         0.0257
    145 H71       -39.6367  -20.6790   16.1392 H         1 THR         0.0257
    146 H72       -38.7757  -20.7813   14.5660 H         1 THR         0.0257
    147 H73       -36.2005  -22.1664   18.6082 H         1 LYS         0.1875
    148 H74       -38.4456  -23.3550   20.1777 H         1 LYS         0.0726
    149 H75       -36.8217  -24.3921   21.6225 H         1 LYS         0.0305
    150 H76       -35.4697  -23.5395   20.8029 H         1 LYS         0.0305
    151 H77       -36.1872  -24.7789   18.6779 H         1 LYS         0.0269
    152 H78       -37.2077  -25.7961   19.7506 H         1 LYS         0.0269
    153 H79       -34.2614  -25.3889   20.3282 H         1 LYS         0.0317
    154 H80       -34.8080  -26.6040   19.1234 H         1 LYS         0.0317
    155 H81       -34.5832  -27.7976   21.1423 H         1 LYS         0.0813
    156 H82       -36.3464  -27.5057   20.9615 H         1 LYS         0.0813
    157 H83       -35.5940  -27.1071   23.1914 H         1 LYS         0.1994
    158 H84       -36.1314  -25.7026   22.5220 H         1 LYS         0.1994
    159 H85       -34.5157  -25.9701   22.6877 H         1 LYS         0.1994
@<TRIPOS>BOND
     1    2    1 1  
     2    3    2 1  
     3    2    5 1  
     4    3    4 2  
     5    6    3 am 
     6    7    6 1  
     7    6   12 1  
     8    8    7 1  
     9    7   10 1  
    10    8    9 2  
    11   13    8 am 
    12   10   11 1  
    13   11   12 1  
    14   14   13 1  
    15   15   14 1  
    16   14   17 1  
    17   15   16 2  
    18   33   15 am 
    19   17   18 1  
    20   18   19 1  
    21   19   20 1  
    22   20   21 ar 
    23   21   22 ar 
    24   21   23 ar 
    25   25   24 2  
    26   25   26 1  
    27   27   25 am 
    28   28   27 1  
    29   29   28 1  
    30   30   29 1  
    31   31   30 1  
    32   32   31 1  
    33   32   33 1  
    34   32   34 1  
    35   34   35 2  
    36   34   36 am 
    37   36   37 1  
    38   37   38 1  
    39   37   40 1  
    40   38   39 2  
    41   38   45 am 
    42   40   41 1  
    43   41   42 1  
    44   42   43 2  
    45   42   44 am 
    46   45   46 1  
    47   46   47 1  
    48   46   49 1  
    49   47   48 2  
    50   47   53 am 
    51   49   50 1  
    52   50   51 1  
    53   50   52 1  
    54   53   54 1  
    55   54   55 1  
    56   54   57 1  
    57   55   56 2  
    58   55   58 am 
    59   58   59 1  
    60   59   60 1  
    61   59   62 1  
    62   60   61 2  
    63   60   65 am 
    64   62   63 1  
    65   62   64 1  
    66   65   66 1  
    67   66   67 1  
    68   66   69 1  
    69   67   68 ar 
    70   67   74 ar 
    71   69   70 1  
    72   70   71 1  
    73   71   72 1  
    74   72   73 1  
    75    1   75 1  
    76    1   76 1  
    77    1   77 1  
    78    2   78 1  
    79    5   79 1  
    80    5   80 1  
    81    5   81 1  
    82    7   82 1  
    83   10   83 1  
    84   10   84 1  
    85   11   85 1  
    86   11   86 1  
    87   12   87 1  
    88   12   88 1  
    89   13   89 1  
    90   14   90 1  
    91   17   91 1  
    92   17   92 1  
    93   18   93 1  
    94   18   94 1  
    95   19   95 1  
    96   19   96 1  
    97   20   97 1  
    98   22   98 1  
    99   22   99 1  
   100   23  100 1  
   101   23  101 1  
   102   26  102 1  
   103   26  103 1  
   104   26  104 1  
   105   27  105 1  
   106   28  106 1  
   107   28  107 1  
   108   29  108 1  
   109   29  109 1  
   110   30  110 1  
   111   30  111 1  
   112   31  112 1  
   113   31  113 1  
   114   32  114 1  
   115   33  115 1  
   116   36  116 1  
   117   37  117 1  
   118   40  118 1  
   119   40  119 1  
   120   41  120 1  
   121   41  121 1  
   122   44  122 1  
   123   44  123 1  
   124   45  124 1  
   125   46  125 1  
   126   49  126 1  
   127   49  127 1  
   128   50  128 1  
   129   51  129 1  
   130   51  130 1  
   131   51  131 1  
   132   52  132 1  
   133   52  133 1  
   134   52  134 1  
   135   53  135 1  
   136   54  136 1  
   137   57  137 1  
   138   57  138 1  
   139   57  139 1  
   140   58  140 1  
   141   59  141 1  
   142   62  142 1  
   143   63  143 1  
   144   64  144 1  
   145   64  145 1  
   146   64  146 1  
   147   65  147 1  
   148   66  148 1  
   149   69  149 1  
   150   69  150 1  
   151   70  151 1  
   152   70  152 1  
   153   71  153 1  
   154   71  154 1  
   155   72  155 1  
   156   72  156 1  
   157   73  157 1  
   158   73  158 1  
   159   73  159 1  
@<TRIPOS>SUBSTRUCTURE
     1 ALA         1

