5hjc_ligand
  -I-interpret- 

159159  0  0  0  0  0  0  0  0999 V2000
  -40.1430  -42.8370   13.8390 N   0  3  0  0  0
  -38.9190  -42.4510   13.1480 C   0  0  0  0  0
  -38.6330  -40.9650   13.3330 C   0  0  0  0  0
  -39.5130  -40.1290   13.1280 O   0  0  0  0  0
  -39.0150  -42.7940   11.6720 C   0  0  0  0  0
  -37.3930  -40.6350   13.7250 N   0  0  0  0  0
  -36.9710  -39.2570   14.0010 C   0  0  0  0  0
  -37.0140  -38.3490   12.7740 C   0  0  0  0  0
  -36.4880  -38.7040   11.7180 O   0  0  0  0  0
  -35.5280  -39.4240   14.4930 C   0  0  0  0  0
  -35.4320  -40.8410   14.9400 C   0  0  0  0  0
  -36.3200  -41.6020   14.0090 C   0  0  0  0  0
  -37.6350  -37.1840   12.9250 N   0  0  0  0  0
  -37.6650  -36.1770   11.8710 C   0  0  0  0  0
  -37.0850  -34.8700   12.3990 C   0  0  0  0  0
  -37.4890  -34.3910   13.4590 O   0  0  0  0  0
  -39.0930  -35.9610   11.3650 C   0  0  0  0  0
  -39.2320  -34.8580   10.3280 C   0  0  0  0  0
  -40.6950  -34.5970   10.0020 C   0  0  0  0  0
  -41.0460  -35.0050    8.6450 N   0  0  0  0  0
  -41.2010  -34.1630    7.6270 C   0  0  0  0  0
  -41.0430  -32.8600    7.8140 N   0  0  0  0  0
  -41.5200  -34.6230    6.4250 N   0  0  0  0  0
  -29.9960  -32.5750    7.3200 O   0  0  0  0  0
  -29.8980  -31.4460    7.8410 C   0  0  0  0  0
  -28.8800  -30.4440    7.3500 C   0  0  0  0  0
  -30.7130  -31.0520    8.8900 N   0  0  0  0  0
  -31.7330  -31.8770    9.4760 C   0  0  0  0  0
  -32.8760  -31.0860   10.1200 C   0  0  0  0  0
  -34.1270  -31.9340   10.2500 C   0  0  0  0  0
  -34.0990  -32.7280   11.5360 C   0  0  0  0  0
  -35.4870  -33.0810   12.1210 C   0  0  0  0  0
  -36.1320  -34.2970   11.6700 N   0  0  0  0  0
  -36.4440  -31.9020   11.9870 C   0  0  0  0  0
  -37.1460  -31.6740   10.9980 O   0  0  0  0  0
  -36.4830  -31.1240   13.0650 N   0  0  0  0  0
  -37.4100  -30.0040   13.1760 C   0  0  0  0  0
  -36.6760  -28.6660   13.1550 C   0  0  0  0  0
  -35.9700  -28.3180   14.1030 O   0  0  0  0  0
  -38.2410  -30.1280   14.4560 C   0  0  0  0  0
  -38.9670  -31.4550   14.6140 C   0  0  0  0  0
  -40.1240  -31.6150   13.6470 C   0  0  0  0  0
  -40.5590  -30.6530   13.0120 O   0  0  0  0  0
  -40.6310  -32.8360   13.5310 N   0  0  0  0  0
  -36.8510  -27.9190   12.0700 N   0  0  0  0  0
  -36.1710  -26.6400   11.8970 C   0  0  0  0  0
  -36.8200  -25.5300   12.7150 C   0  0  0  0  0
  -36.2050  -24.4910   12.9560 O   0  0  0  0  0
  -36.1530  -26.2440   10.4200 C   0  0  0  0  0
  -35.5310  -27.2360    9.4360 C   0  0  0  0  0
  -35.6100  -26.6930    8.0170 C   0  0  0  0  0
  -34.0930  -27.5450    9.8140 C   0  0  0  0  0
  -38.0640  -25.7540   13.1310 N   0  0  0  0  0
  -38.8360  -24.7490   13.8570 C   0  0  0  0  0
  -38.1000  -24.2510   15.0970 C   0  0  0  0  0
  -37.4780  -25.0310   15.8180 O   0  0  0  0  0
  -40.1970  -25.3060   14.2400 C   0  0  0  0  0
  -38.1750  -22.9450   15.3300 N   0  0  0  0  0
  -37.4450  -22.3060   16.4190 C   0  0  0  0  0
  -37.9650  -22.6980   17.7990 C   0  0  0  0  0
  -39.1150  -23.1100   17.9530 O   0  0  0  0  0
  -37.4930  -20.7730   16.2930 C   0  0  0  0  0
  -37.4820  -20.1880   17.6010 O   0  0  0  0  0
  -38.7570  -20.3390   15.5730 C   0  0  0  0  0
  -37.1030  -22.5520   18.8000 N   0  0  0  0  0
  -37.4290  -22.9350   20.1680 C   0  0  0  0  0
  -37.3990  -21.7270   21.1000 C   0  0  0  0  0
  -38.4460  -21.2080   21.4920 O   0  0  0  0  0
  -36.4560  -24.0050   20.6600 C   0  0  0  0  0
  -36.3020  -25.1740   19.6980 C   0  0  0  0  0
  -35.0930  -26.0420   20.0250 C   0  0  0  0  0
  -35.3720  -27.0310   21.1490 C   0  0  0  0  0
  -35.4060  -26.4020   22.4960 N   0  3  0  0  0
  -36.3270  -21.2490   21.4770 O   0  0  0  0  0
  -40.0628  -42.6004   14.8279 H   0  0  0  0  0
  -40.9338  -42.3378   13.4318 H   0  0  0  0  0
  -40.2859  -43.8420   13.7392 H   0  0  0  0  0
  -38.0915  -43.0109   13.5837 H   0  0  0  0  0
  -39.8216  -42.2182   11.2182 H   0  0  0  0  0
  -38.0725  -42.5503   11.1816 H   0  0  0  0  0
  -39.2195  -43.8588   11.5603 H   0  0  0  0  0
  -37.6371  -38.7739   14.7158 H   0  0  0  0  0
  -35.2947  -38.7300   15.3005 H   0  0  0  0  0
  -34.8060  -39.1993   13.7079 H   0  0  0  0  0
  -35.7408  -40.9585   15.9787 H   0  0  0  0  0
  -34.4054  -41.2060   14.9074 H   0  0  0  0  0
  -35.8041  -41.9415   13.1108 H   0  0  0  0  0
  -36.6889  -42.5334   14.4386 H   0  0  0  0  0
  -38.1065  -36.9876   13.8079 H   0  0  0  0  0
  -37.0615  -36.5263   11.0332 H   0  0  0  0  0
  -39.6962  -35.6695   12.2248 H   0  0  0  0  0
  -39.4072  -36.8895   10.8883 H   0  0  0  0  0
  -38.7208  -35.1684    9.4168 H   0  0  0  0  0
  -38.7948  -33.9437   10.7293 H   0  0  0  0  0
  -40.8729  -33.5250   10.0878 H   0  0  0  0  0
  -41.3032  -35.1773   10.6959 H   0  0  0  0  0
  -41.1811  -36.0000    8.4659 H   0  0  0  0  0
  -40.8025  -32.5029    8.7387 H   0  0  0  0  0
  -41.6432  -33.9749    5.6471 H   0  0  0  0  0
  -41.6422  -35.6250    6.2783 H   0  0  0  0  0
  -27.8790  -30.8609    7.4609 H   0  0  0  0  0
  -29.0681  -30.2218    6.2996 H   0  0  0  0  0
  -28.9608  -29.5288    7.9364 H   0  0  0  0  0
  -30.5802  -30.1152    9.2711 H   0  0  0  0  0
  -31.2618  -32.4655   10.2633 H   0  0  0  0  0
  -32.1647  -32.4772    8.6751 H   0  0  0  0  0
  -33.1028  -30.2269    9.4886 H   0  0  0  0  0
  -32.5636  -30.7729   11.1162 H   0  0  0  0  0
  -34.1745  -32.6253    9.4086 H   0  0  0  0  0
  -34.9986  -31.2795   10.2575 H   0  0  0  0  0
  -33.5954  -32.1070   12.2768 H   0  0  0  0  0
  -33.6045  -33.6728   11.3103 H   0  0  0  0  0
  -35.2513  -33.2982   13.1628 H   0  0  0  0  0
  -35.8523  -34.7181   10.7841 H   0  0  0  0  0
  -35.8452  -31.3166   13.8374 H   0  0  0  0  0
  -38.0743  -30.0359   12.3124 H   0  0  0  0  0
  -39.0042  -29.3508   14.4161 H   0  0  0  0  0
  -37.5491  -30.0424   15.2938 H   0  0  0  0  0
  -39.3713  -31.4944   15.6255 H   0  0  0  0  0
  -38.2514  -32.2517   14.4109 H   0  0  0  0  0
  -41.4116  -33.0060   12.8968 H   0  0  0  0  0
  -40.2401  -33.6044   14.0760 H   0  0  0  0  0
  -37.4788  -28.2494   11.3371 H   0  0  0  0  0
  -35.1502  -26.7682   12.2570 H   0  0  0  0  0
  -35.5378  -25.3460   10.3625 H   0  0  0  0  0
  -37.1986  -26.1527   10.1260 H   0  0  0  0  0
  -36.0973  -28.1662    9.4829 H   0  0  0  0  0
  -36.6541  -26.5321    7.7485 H   0  0  0  0  0
  -35.0692  -25.7483    7.9602 H   0  0  0  0  0
  -35.1631  -27.4109    7.3292 H   0  0  0  0  0
  -33.5093  -26.6245    9.8005 H   0  0  0  0  0
  -34.0666  -27.9789   10.8136 H   0  0  0  0  0
  -33.6745  -28.2526    9.0982 H   0  0  0  0  0
  -38.4931  -26.6586   12.9362 H   0  0  0  0  0
  -38.9712  -23.8960   13.1920 H   0  0  0  0  0
  -40.7392  -25.5893   13.3378 H   0  0  0  0  0
  -40.0641  -26.1815   14.8756 H   0  0  0  0  0
  -40.7605  -24.5453   14.7804 H   0  0  0  0  0
  -38.7630  -22.3699   14.7268 H   0  0  0  0  0
  -36.4181  -22.6604   16.3298 H   0  0  0  0  0
  -36.6243  -20.4425   15.7235 H   0  0  0  0  0
  -37.5119  -19.2317   17.5229 H   0  0  0  0  0
  -38.7743  -20.7779   14.5754 H   0  0  0  0  0
  -39.6278  -20.6765   16.1350 H   0  0  0  0  0
  -38.7733  -19.2520   15.4934 H   0  0  0  0  0
  -36.1824  -22.1587   18.6043 H   0  0  0  0  0
  -38.4403  -23.3416   20.1746 H   0  0  0  0  0
  -36.8502  -24.4008   21.5960 H   0  0  0  0  0
  -35.4779  -23.5354   20.7641 H   0  0  0  0  0
  -36.1645  -24.7691   18.6954 H   0  0  0  0  0
  -37.1940  -25.7953   19.7777 H   0  0  0  0  0
  -34.2850  -25.3854   20.3476 H   0  0  0  0  0
  -34.8365  -26.6116   19.1318 H   0  0  0  0  0
  -34.5649  -27.7635   21.1493 H   0  0  0  0  0
  -36.3539  -27.4674   20.9658 H   0  0  0  0  0
  -35.5963  -27.1163   23.1988 H   0  0  0  0  0
  -34.5046  -25.9653   22.6888 H   0  0  0  0  0
  -36.1403  -25.6945   22.5211 H   0  0  0  0  0
  -35.6026  -21.7506   21.0959 H   0  0  0  0  0
  2  1  1  0  0  0
  3  2  1  0  0  0
  2  5  1  0  0  0
  3  4  2  0  0  0
  6  3  1  0  0  0
  7  6  1  0  0  0
  6 12  1  0  0  0
  8  7  1  0  0  0
  7 10  1  0  0  0
  8  9  2  0  0  0
 13  8  1  0  0  0
 10 11  1  0  0  0
 11 12  1  0  0  0
 14 13  1  0  0  0
 15 14  1  0  0  0
 14 17  1  0  0  0
 15 16  2  0  0  0
 33 15  1  0  0  0
 17 18  1  0  0  0
 18 19  1  0  0  0
 19 20  1  0  0  0
 20 21  1  0  0  0
 21 22  2  0  0  0
 21 23  1  0  0  0
 25 24  2  0  0  0
 25 26  1  0  0  0
 27 25  1  0  0  0
 28 27  1  0  0  0
 29 28  1  0  0  0
 30 29  1  0  0  0
 31 30  1  0  0  0
 32 31  1  0  0  0
 32 33  1  0  0  0
 32 34  1  0  0  0
 34 35  2  0  0  0
 34 36  1  0  0  0
 36 37  1  0  0  0
 37 38  1  0  0  0
 37 40  1  0  0  0
 38 39  2  0  0  0
 38 45  1  0  0  0
 40 41  1  0  0  0
 41 42  1  0  0  0
 42 43  2  0  0  0
 42 44  1  0  0  0
 45 46  1  0  0  0
 46 47  1  0  0  0
 46 49  1  0  0  0
 47 48  2  0  0  0
 47 53  1  0  0  0
 49 50  1  0  0  0
 50 51  1  0  0  0
 50 52  1  0  0  0
 53 54  1  0  0  0
 54 55  1  0  0  0
 54 57  1  0  0  0
 55 56  2  0  0  0
 55 58  1  0  0  0
 58 59  1  0  0  0
 59 60  1  0  0  0
 59 62  1  0  0  0
 60 61  2  0  0  0
 60 65  1  0  0  0
 62 63  1  0  0  0
 62 64  1  0  0  0
 65 66  1  0  0  0
 66 67  1  0  0  0
 66 69  1  0  0  0
 67 68  2  0  0  0
 67 74  1  0  0  0
 69 70  1  0  0  0
 70 71  1  0  0  0
 71 72  1  0  0  0
 72 73  1  0  0  0
  1 75  1  0  0  0
  1 76  1  0  0  0
  1 77  1  0  0  0
  2 78  1  0  0  0
  5 79  1  0  0  0
  5 80  1  0  0  0
  5 81  1  0  0  0
  7 82  1  0  0  0
 10 83  1  0  0  0
 10 84  1  0  0  0
 11 85  1  0  0  0
 11 86  1  0  0  0
 12 87  1  0  0  0
 12 88  1  0  0  0
 13 89  1  0  0  0
 14 90  1  0  0  0
 17 91  1  0  0  0
 17 92  1  0  0  0
 18 93  1  0  0  0
 18 94  1  0  0  0
 19 95  1  0  0  0
 19 96  1  0  0  0
 20 97  1  0  0  0
 22 98  1  0  0  0
 23 99  1  0  0  0
 23100  1  0  0  0
 26101  1  0  0  0
 26102  1  0  0  0
 26103  1  0  0  0
 27104  1  0  0  0
 28105  1  0  0  0
 28106  1  0  0  0
 29107  1  0  0  0
 29108  1  0  0  0
 30109  1  0  0  0
 30110  1  0  0  0
 31111  1  0  0  0
 31112  1  0  0  0
 32113  1  0  0  0
 33114  1  0  0  0
 36115  1  0  0  0
 37116  1  0  0  0
 40117  1  0  0  0
 40118  1  0  0  0
 41119  1  0  0  0
 41120  1  0  0  0
 44121  1  0  0  0
 44122  1  0  0  0
 45123  1  0  0  0
 46124  1  0  0  0
 49125  1  0  0  0
 49126  1  0  0  0
 50127  1  0  0  0
 51128  1  0  0  0
 51129  1  0  0  0
 51130  1  0  0  0
 52131  1  0  0  0
 52132  1  0  0  0
 52133  1  0  0  0
 53134  1  0  0  0
 54135  1  0  0  0
 57136  1  0  0  0
 57137  1  0  0  0
 57138  1  0  0  0
 58139  1  0  0  0
 59140  1  0  0  0
 62141  1  0  0  0
 63142  1  0  0  0
 64143  1  0  0  0
 64144  1  0  0  0
 64145  1  0  0  0
 65146  1  0  0  0
 66147  1  0  0  0
 69148  1  0  0  0
 69149  1  0  0  0
 70150  1  0  0  0
 70151  1  0  0  0
 71152  1  0  0  0
 71153  1  0  0  0
 72154  1  0  0  0
 72155  1  0  0  0
 73156  1  0  0  0
 73157  1  0  0  0
 73158  1  0  0  0
 74159  1  0  0  0
M  END
$$$$
