1d4h_ligand
  -I-interpret- 

 83 87  0  0  0  0  0  0  0  0999 V2000
   13.8830   22.9830    5.0040 C   0  0  0  0  0
   14.3650   22.6670    3.6600 O   0  0  0  0  0
   14.9600   22.7210    6.0280 C   0  0  0  0  0
   14.5170   23.0660    7.3690 O   0  0  0  0  0
   15.6190   23.4100    8.2480 C   0  0  0  0  0
   16.3260   22.2030    8.8480 C   0  0  0  0  0
   15.5640   21.2040    9.5830 C   0  0  0  0  0
   16.2100   20.0020   10.0420 C   0  0  0  0  0
   17.6090   19.7970    9.7840 C   0  0  0  0  0
   18.3730   20.7890    9.0700 C   0  0  0  0  0
   17.7390   21.9900    8.6030 C   0  0  0  0  0
   15.1550   21.2440    5.9140 C   0  0  0  0  0
   14.2250   20.4730    6.1690 O   0  0  0  0  0
   16.3950   20.7770    5.5250 N   0  0  0  0  0
   16.6620   19.3630    5.3800 C   0  0  0  0  0
   16.5800   18.8980    3.9460 C   0  0  0  0  0
   15.7100   19.3340    2.8860 C   0  0  0  0  0
   15.8260   18.7360    1.5760 C   0  0  0  0  0
   16.8120   17.7130    1.3370 C   0  0  0  0  0
   17.6910   17.2750    2.3880 C   0  0  0  0  0
   17.5630   17.8790    3.6860 C   0  0  0  0  0
   18.3590   17.6050    4.9160 C   0  0  0  0  0
   18.0710   18.8740    5.7570 C   0  0  0  0  0
   19.0070   19.9050    5.4410 O   0  0  0  0  0
   13.3530   24.3940    5.0200 C   0  0  0  0  0
   14.3870   25.2310    4.4320 O   0  0  0  0  0
   12.0260   24.5700    4.2790 C   0  0  0  0  0
   11.8090   23.5440    3.2680 O   0  0  0  0  0
   11.1600   24.0600    2.0790 C   0  0  0  0  0
    9.6430   24.1590    2.1710 C   0  0  0  0  0
    8.9720   25.3820    1.7890 C   0  0  0  0  0
    7.5430   25.5030    1.9360 C   0  0  0  0  0
    6.7800   24.4030    2.4590 C   0  0  0  0  0
    7.4370   23.1770    2.8360 C   0  0  0  0  0
    8.8640   23.0480    2.6930 C   0  0  0  0  0
   10.9120   24.5110    5.3070 C   0  0  0  0  0
   10.7420   23.5120    6.0230 O   0  0  0  0  0
   10.0410   25.5750    5.3910 N   0  0  0  0  0
    8.9490   25.5690    6.3440 C   0  0  0  0  0
    8.9270   26.5240    7.4150 C   0  0  0  0  0
    7.7390   27.3260    7.6450 C   0  0  0  0  0
    7.7190   28.2790    8.7250 C   0  0  0  0  0
    8.8720   28.4340    9.5710 C   0  0  0  0  0
   10.0540   27.6410    9.3460 C   0  0  0  0  0
   10.0840   26.6870    8.2700 C   0  0  0  0  0
   13.0553   22.3292    5.2790 H   0  0  0  0  0
   14.7035   21.7688    3.6456 H   0  0  0  0  0
   15.8625   23.3081    5.8577 H   0  0  0  0  0
   15.2071   23.9894    9.0743 H   0  0  0  0  0
   16.3525   23.9534    7.6523 H   0  0  0  0  0
   14.5053   21.3658    9.7857 H   0  0  0  0  0
   15.6389   19.2485   10.5844 H   0  0  0  0  0
   18.0955   18.8852   10.1306 H   0  0  0  0  0
   19.4348   20.6272    8.8840 H   0  0  0  0  0
   18.3191   22.7400    8.0653 H   0  0  0  0  0
   17.1412   21.4460    5.3352 H   0  0  0  0  0
   15.9039   18.9690    6.0569 H   0  0  0  0  0
   14.9679   20.1108    3.0703 H   0  0  0  0  0
   15.1681   19.0585    0.7690 H   0  0  0  0  0
   16.8929   17.2650    0.3466 H   0  0  0  0  0
   18.4375   16.5023    2.2042 H   0  0  0  0  0
   19.4190   17.4400    4.7229 H   0  0  0  0  0
   18.0837   16.6769    5.4170 H   0  0  0  0  0
   18.1494   18.6416    6.8190 H   0  0  0  0  0
   19.8922   19.6135    5.6713 H   0  0  0  0  0
   13.1296   24.6751    6.0492 H   0  0  0  0  0
   15.2095   25.1055    4.9109 H   0  0  0  0  0
   12.0439   25.5269    3.7573 H   0  0  0  0  0
   11.3831   23.3647    1.2698 H   0  0  0  0  0
   11.5345   25.0725    1.9283 H   0  0  0  0  0
    9.5490   26.2155    1.3884 H   0  0  0  0  0
    7.0417   26.4279    1.6508 H   0  0  0  0  0
    5.6998   24.4965    2.5710 H   0  0  0  0  0
    6.8525   22.3457    3.2302 H   0  0  0  0  0
    9.3593   22.1191    2.9756 H   0  0  0  0  0
   10.1663   26.3777    4.7743 H   0  0  0  0  0
    9.0268   24.6025    6.8419 H   0  0  0  0  0
    8.0667   25.8057    5.7493 H   0  0  0  0  0
    6.8659   27.2076    7.0033 H   0  0  0  0  0
    6.8292   28.8833    8.9014 H   0  0  0  0  0
    8.8515   29.1559   10.3874 H   0  0  0  0  0
   10.9244   27.7640    9.9905 H   0  0  0  0  0
   10.9776   26.0869    8.0983 H   0  0  0  0  0
  1  2  1  0  0  0
  1  3  1  0  0  0
  1 25  1  0  0  0
  3  4  1  0  0  0
  3 12  1  0  0  0
  4  5  1  0  0  0
  5  6  1  0  0  0
  6  7  4  0  0  0
  6 11  4  0  0  0
  7  8  4  0  0  0
  8  9  4  0  0  0
  9 10  4  0  0  0
 10 11  4  0  0  0
 12 13  2  0  0  0
 12 14  1  0  0  0
 14 15  1  0  0  0
 15 16  1  0  0  0
 15 23  1  0  0  0
 16 17  4  0  0  0
 16 21  4  0  0  0
 17 18  4  0  0  0
 18 19  4  0  0  0
 19 20  4  0  0  0
 20 21  4  0  0  0
 21 22  1  0  0  0
 22 23  1  0  0  0
 23 24  1  0  0  0
 25 26  1  0  0  0
 25 27  1  0  0  0
 27 28  1  0  0  0
 27 36  1  0  0  0
 28 29  1  0  0  0
 29 30  1  0  0  0
 30 31  4  0  0  0
 30 35  4  0  0  0
 31 32  4  0  0  0
 32 33  4  0  0  0
 33 34  4  0  0  0
 34 35  4  0  0  0
 36 37  2  0  0  0
 36 38  1  0  0  0
 38 39  1  0  0  0
 39 40  1  0  0  0
 40 41  4  0  0  0
 40 45  4  0  0  0
 41 42  4  0  0  0
 42 43  4  0  0  0
 43 44  4  0  0  0
 44 45  4  0  0  0
  1 46  1  0  0  0
  2 47  1  0  0  0
  3 48  1  0  0  0
  5 49  1  0  0  0
  5 50  1  0  0  0
  7 51  1  0  0  0
  8 52  1  0  0  0
  9 53  1  0  0  0
 10 54  1  0  0  0
 11 55  1  0  0  0
 14 56  1  0  0  0
 15 57  1  0  0  0
 17 58  1  0  0  0
 18 59  1  0  0  0
 19 60  1  0  0  0
 20 61  1  0  0  0
 22 62  1  0  0  0
 22 63  1  0  0  0
 23 64  1  0  0  0
 24 65  1  0  0  0
 25 66  1  0  0  0
 26 67  1  0  0  0
 27 68  1  0  0  0
 29 69  1  0  0  0
 29 70  1  0  0  0
 31 71  1  0  0  0
 32 72  1  0  0  0
 33 73  1  0  0  0
 34 74  1  0  0  0
 35 75  1  0  0  0
 38 76  1  0  0  0
 39 77  1  0  0  0
 39 78  1  0  0  0
 41 79  1  0  0  0
 42 80  1  0  0  0
 43 81  1  0  0  0
 44 82  1  0  0  0
 45 83  1  0  0  0
M  END
$$$$
