### 
### Created by X-TOOL on Mon Aug  2 16:11:36 2021
### 

@<TRIPOS>MOLECULE
6rmm_ligand
  125   126     1     0     0
SMALL
GAST_HUCK


@<TRIPOS>ATOM
      1 N          89.9120  -46.4540   26.4970 N.4       1 SER         0.2396
      2 CA         89.1950  -47.0780   25.3930 C.3       1 SER         0.0885
      3 C          90.0650  -48.0250   24.5550 C.2       1 SER         0.2291
      4 O          91.0030  -48.7070   25.0410 O.2       1 SER        -0.3906
      5 CB         88.5780  -45.9720   24.5420 C.3       1 SER         0.1041
      6 OG         89.4610  -44.8610   24.5580 O.3       1 SER        -0.3870
      7 N          89.6860  -48.1060   23.2890 N.am      1 SER        -0.2594
      8 CA         90.3590  -48.9630   22.3190 C.3       1 SER         0.1424
      9 C          90.4470  -48.2490   20.9830 C.2       1 SER         0.2056
     10 O          90.5450  -48.8750   19.9080 O.2       1 SER        -0.3943
     11 CB         89.6470  -50.3210   22.1540 C.3       1 SER         0.0406
     12 CG         90.3910  -51.4630   22.8890 C.2       1 SER         0.0393
     13 OD1        89.9580  -52.6600   22.7190 O.co2     1 SER        -0.5688
     14 OD2        91.4080  -51.1250   23.6280 O.co2     1 SER        -0.5688
     15 N          90.4720  -46.9340   21.0560 N.am      1 SER        -0.2636
     16 CA         89.9720  -46.1350   19.9700 C.3       1 SER         0.1312
     17 C          90.3290  -44.6850   20.2580 C.2       1 SER         0.2039
     18 O          89.7620  -44.0960   21.1810 O.2       1 SER        -0.3944
     19 CB         88.4790  -46.3780   19.9080 C.3       1 SER        -0.0101
     20 CG         87.5130  -45.6660   19.0040 C.3       1 SER        -0.0425
     21 CD1        86.2510  -46.5290   18.9720 C.3       1 SER        -0.0625
     22 CD2        87.2250  -44.2850   19.4990 C.3       1 SER        -0.0625
     23 N          91.2890  -44.1200   19.5100 N.am      1 SER        -0.2635
     24 CA         91.7870  -42.7540   19.6930 C.3       1 SER         0.1332
     25 C          91.1720  -41.8230   18.6690 C.2       1 SER         0.2041
     26 O          91.2740  -42.0600   17.4520 O.2       1 SER        -0.3944
     27 CB         93.3040  -42.6800   19.5470 C.3       1 SER        -0.0063
     28 CG1        93.7570  -41.2030   19.5450 C.3       1 SER        -0.0584
     29 CG2        93.9230  -43.4820   20.5870 C.3       1 SER        -0.0584
     30 N          90.6700  -40.7040   19.1550 N.am      1 SER        -0.2640
     31 CA         89.8270  -39.8040   18.4010 C.3       1 SER         0.1284
     32 C          90.6630  -38.8630   17.5450 C.2       1 SER         0.2061
     33 O          91.8620  -38.6860   17.8110 O.2       1 SER        -0.3942
     34 CB         88.9520  -39.0110   19.3660 C.3       1 SER        -0.0244
     35 N          90.0430  -38.2420   16.4870 N.am      1 SER        -0.2498
     36 CA         90.5010  -37.1800   15.5700 C.3       1 SER         0.1338
     37 C          91.4190  -36.0420   16.0910 C.2       1 SER         0.2042
     38 O          91.8170  -35.8980   17.2800 O.2       1 SER        -0.3944
     39 CB         89.1860  -36.5720   15.1020 C.3       1 SER        -0.0104
     40 CG         88.3130  -37.7350   15.0000 C.3       1 SER        -0.0281
     41 CD         88.7230  -38.7240   16.0460 C.3       1 SER         0.0369
     42 N          91.7660  -35.2070   15.1130 N.am      1 SER        -0.2613
     43 CA         92.7750  -34.1550   15.2560 C.3       1 SER         0.1588
     44 CB         93.8270  -34.2750   14.0890 C.3       1 SER         0.1184
     45 OG         95.2200  -34.2860   14.4910 O.3       1 SER        -0.2714
     46 C          92.0420  -32.7770   15.2680 C.2       1 SER         0.2090
     47 O          92.5590  -31.7970   14.6880 O.2       1 SER        -0.3941
     48 P          95.6740  -35.3170   15.6840 P.3       1 SER         0.2010
     49 O1P        95.2100  -36.8660   15.1970 O.co2     1 SER        -0.5537
     50 O2P        95.1100  -34.7170   17.1240 O.co2     1 SER        -0.5537
     51 O3P        97.2790  -35.3040   15.8030 O.co2     1 SER        -0.5537
     52 N          90.8760  -32.6880   15.9890 N.am      1 SER        -0.2498
     53 CA         89.7130  -31.8520   15.5770 C.3       1 SER         0.1337
     54 C          90.0570  -30.4270   15.0380 C.2       1 SER         0.2036
     55 O          90.4160  -29.5330   15.8360 O.2       1 SER        -0.3944
     56 CB         88.8490  -31.7630   16.8670 C.3       1 SER        -0.0104
     57 CG         89.3610  -32.8420   17.7990 C.3       1 SER        -0.0281
     58 CD         90.8190  -33.0590   17.4260 C.3       1 SER         0.0369
     59 N          89.9570  -30.2400   13.7040 N.am      1 SER        -0.2679
     60 CA         90.2190  -28.9380   13.0250 C.3       1 SER         0.1057
     61 C          90.0220  -29.0290   11.4840 C.2       1 SER         0.0618
     62 O          88.9010  -29.2510   10.9770 O.co2     1 SER        -0.5665
     63 CB         91.6410  -28.4230   13.3930 C.3       1 SER         0.0351
     64 CG         92.0760  -27.2030   12.5990 C.2       1 SER         0.0387
     65 OD1        91.2100  -26.4170   12.1080 O.co2     1 SER        -0.5688
     66 OD2        93.3160  -27.0150   12.5340 O.co2     1 SER        -0.5688
     67 OXT        90.9770  -28.8840   10.6900 O.co2     1 SER        -0.5665
     68 H1         89.2863  -45.8478   27.0040 H         1 SER         0.2016
     69 H2         90.6826  -45.9145   26.1350 H         1 SER         0.2016
     70 H3         90.2631  -47.1679   27.1159 H         1 SER         0.2016
     71 H4         88.3784  -47.6797   25.8185 H         1 SER         0.1122
     72 H5         87.6031  -45.6798   24.9594 H         1 SER         0.0640
     73 H6         88.4433  -46.3267   23.5095 H         1 SER         0.0640
     74 H7         89.0948  -44.1592   24.0327 H         1 SER         0.2099
     75 H8         88.9069  -47.5575   22.9854 H         1 SER         0.1886
     76 H9         91.3799  -49.1552   22.6807 H         1 SER         0.0819
     77 H10        89.5928  -50.5651   21.0828 H         1 SER         0.0478
     78 H11        88.6293  -50.2398   22.5635 H         1 SER         0.0478
     79 H12        90.8410  -46.4886   21.8717 H         1 SER         0.1883
     80 H13        90.4338  -46.4409   19.0197 H         1 SER         0.0800
     81 H14        88.1122  -46.1923   20.9283 H         1 SER         0.0315
     82 H15        88.3686  -47.4456   19.6672 H         1 SER         0.0315
     83 H16        87.9368  -45.5941   17.9915 H         1 SER         0.0298
     84 H17        85.5003  -46.0567   18.3214 H         1 SER         0.0232
     85 H18        85.8459  -46.6241   19.9902 H         1 SER         0.0232
     86 H19        86.4990  -47.5269   18.5813 H         1 SER         0.0232
     87 H20        88.1547  -43.6972   19.5073 H         1 SER         0.0232
     88 H21        86.8161  -44.3388   20.5188 H         1 SER         0.0232
     89 H22        86.4923  -43.8029   18.8351 H         1 SER         0.0232
     90 H23        91.6922  -44.6686   18.7776 H         1 SER         0.1883
     91 H24        91.5092  -42.4151   20.7019 H         1 SER         0.0802
     92 H25        93.5840  -43.1157   18.5765 H         1 SER         0.0343
     93 H26        94.8509  -41.1552   19.4396 H         1 SER         0.0234
     94 H27        93.4586  -40.7267   20.4905 H         1 SER         0.0234
     95 H28        93.2841  -40.6756   18.7035 H         1 SER         0.0234
     96 H29        93.5516  -44.5154   20.5230 H         1 SER         0.0234
     97 H30        93.6715  -43.0624   21.5722 H         1 SER         0.0234
     98 H31        95.0149  -43.4759   20.4537 H         1 SER         0.0234
     99 H32        90.8856  -40.4641   20.1016 H         1 SER         0.1883
    100 H33        89.1794  -40.3969   17.7384 H         1 SER         0.0797
    101 H34        88.3081  -38.3241   18.7971 H         1 SER         0.0277
    102 H35        89.5909  -38.4329   20.0498 H         1 SER         0.0277
    103 H36        88.3258  -39.7039   19.9471 H         1 SER         0.0277
    104 H37        91.0269  -37.6564   14.7295 H         1 SER         0.0802
    105 H38        89.3028  -36.0771   14.1266 H         1 SER         0.0313
    106 H39        88.7997  -35.8494   15.8359 H         1 SER         0.0313
    107 H40        88.4109  -38.1871   14.0020 H         1 SER         0.0287
    108 H41        87.2685  -37.4316   15.1642 H         1 SER         0.0287
    109 H42        88.0082  -38.7290   16.8821 H         1 SER         0.0524
    110 H43        88.7972  -39.7358   15.6209 H         1 SER         0.0524
    111 H44        91.3104  -35.3042   14.2282 H         1 SER         0.1884
    112 H45        93.3014  -34.2825   16.2134 H         1 SER         0.0827
    113 H46        93.6783  -33.4209   13.4120 H         1 SER         0.0662
    114 H47        93.6250  -35.2112   13.5480 H         1 SER         0.0662
    115 H48        89.1563  -32.3793   14.7883 H         1 SER         0.0802
    116 H49        87.7895  -31.9377   16.6283 H         1 SER         0.0313
    117 H50        88.9615  -30.7729   17.3329 H         1 SER         0.0313
    118 H51        88.7884  -33.7708   17.6599 H         1 SER         0.0287
    119 H52        89.2788  -32.5139   18.8457 H         1 SER         0.0287
    120 H53        91.4770  -32.4117   18.0243 H         1 SER         0.0524
    121 H54        91.1083  -34.1103   17.5711 H         1 SER         0.0524
    122 H55        89.6916  -31.0206   13.1381 H         1 SER         0.1876
    123 H56        89.4887  -28.2093   13.4066 H         1 SER         0.0745
    124 H57        92.3619  -29.2327   13.2072 H         1 SER         0.0471
    125 H58        91.6497  -28.1624   14.4616 H         1 SER         0.0471
@<TRIPOS>BOND
     1    1    2 1  
     2    2    3 1  
     3    2    5 1  
     4    3    4 2  
     5    3    7 am 
     6    5    6 1  
     7    7    8 1  
     8    8    9 1  
     9    8   11 1  
    10    9   10 2  
    11    9   15 am 
    12   11   12 1  
    13   12   13 ar 
    14   12   14 ar 
    15   15   16 1  
    16   16   17 1  
    17   16   19 1  
    18   17   18 2  
    19   17   23 am 
    20   19   20 1  
    21   20   21 1  
    22   20   22 1  
    23   23   24 1  
    24   24   25 1  
    25   24   27 1  
    26   25   26 2  
    27   25   30 am 
    28   27   28 1  
    29   27   29 1  
    30   30   31 1  
    31   31   32 1  
    32   31   34 1  
    33   32   33 2  
    34   32   35 am 
    35   35   36 1  
    36   35   41 1  
    37   36   37 1  
    38   36   39 1  
    39   37   38 2  
    40   37   42 am 
    41   39   40 1  
    42   40   41 1  
    43   42   43 1  
    44   43   44 1  
    45   43   46 1  
    46   44   45 1  
    47   45   48 1  
    48   46   47 2  
    49   46   52 am 
    50   48   49 ar 
    51   48   50 ar 
    52   48   51 ar 
    53   52   53 1  
    54   52   58 1  
    55   53   54 1  
    56   53   56 1  
    57   54   55 2  
    58   54   59 am 
    59   56   57 1  
    60   57   58 1  
    61   59   60 1  
    62   60   61 1  
    63   60   63 1  
    64   61   62 ar 
    65   61   67 ar 
    66   63   64 1  
    67   64   65 ar 
    68   64   66 ar 
    69    1   68 1  
    70    1   69 1  
    71    1   70 1  
    72    2   71 1  
    73    5   72 1  
    74    5   73 1  
    75    6   74 1  
    76    7   75 1  
    77    8   76 1  
    78   11   77 1  
    79   11   78 1  
    80   15   79 1  
    81   16   80 1  
    82   19   81 1  
    83   19   82 1  
    84   20   83 1  
    85   21   84 1  
    86   21   85 1  
    87   21   86 1  
    88   22   87 1  
    89   22   88 1  
    90   22   89 1  
    91   23   90 1  
    92   24   91 1  
    93   27   92 1  
    94   28   93 1  
    95   28   94 1  
    96   28   95 1  
    97   29   96 1  
    98   29   97 1  
    99   29   98 1  
   100   30   99 1  
   101   31  100 1  
   102   34  101 1  
   103   34  102 1  
   104   34  103 1  
   105   36  104 1  
   106   39  105 1  
   107   39  106 1  
   108   40  107 1  
   109   40  108 1  
   110   41  109 1  
   111   41  110 1  
   112   42  111 1  
   113   43  112 1  
   114   44  113 1  
   115   44  114 1  
   116   53  115 1  
   117   56  116 1  
   118   56  117 1  
   119   57  118 1  
   120   57  119 1  
   121   58  120 1  
   122   58  121 1  
   123   59  122 1  
   124   60  123 1  
   125   63  124 1  
   126   63  125 1  
@<TRIPOS>SUBSTRUCTURE
     1 SER         1

