6rmm_ligand
  -I-interpret- 

130131  0  0  0  0  0  0  0  0999 V2000
   89.9120  -46.4540   26.4970 N   0  3  0  0  0
   89.1950  -47.0780   25.3930 C   0  0  0  0  0
   90.0650  -48.0250   24.5550 C   0  0  0  0  0
   91.0030  -48.7070   25.0410 O   0  0  0  0  0
   88.5780  -45.9720   24.5420 C   0  0  0  0  0
   89.4610  -44.8610   24.5580 O   0  0  0  0  0
   89.6860  -48.1060   23.2890 N   0  0  0  0  0
   90.3590  -48.9630   22.3190 C   0  0  0  0  0
   90.4470  -48.2490   20.9830 C   0  0  0  0  0
   90.5450  -48.8750   19.9080 O   0  0  0  0  0
   89.6470  -50.3210   22.1540 C   0  0  0  0  0
   90.3910  -51.4630   22.8890 C   0  0  0  0  0
   89.9580  -52.6600   22.7190 O   0  0  0  0  0
   91.4080  -51.1250   23.6280 O   0  0  0  0  0
   90.4720  -46.9340   21.0560 N   0  0  0  0  0
   89.9720  -46.1350   19.9700 C   0  0  0  0  0
   90.3290  -44.6850   20.2580 C   0  0  0  0  0
   89.7620  -44.0960   21.1810 O   0  0  0  0  0
   88.4790  -46.3780   19.9080 C   0  0  0  0  0
   87.5130  -45.6660   19.0040 C   0  0  0  0  0
   86.2510  -46.5290   18.9720 C   0  0  0  0  0
   87.2250  -44.2850   19.4990 C   0  0  0  0  0
   91.2890  -44.1200   19.5100 N   0  0  0  0  0
   91.7870  -42.7540   19.6930 C   0  0  0  0  0
   91.1720  -41.8230   18.6690 C   0  0  0  0  0
   91.2740  -42.0600   17.4520 O   0  0  0  0  0
   93.3040  -42.6800   19.5470 C   0  0  0  0  0
   93.7570  -41.2030   19.5450 C   0  0  0  0  0
   93.9230  -43.4820   20.5870 C   0  0  0  0  0
   90.6700  -40.7040   19.1550 N   0  0  0  0  0
   89.8270  -39.8040   18.4010 C   0  0  0  0  0
   90.6630  -38.8630   17.5450 C   0  0  0  0  0
   91.8620  -38.6860   17.8110 O   0  0  0  0  0
   88.9520  -39.0110   19.3660 C   0  0  0  0  0
   90.0430  -38.2420   16.4870 N   0  0  0  0  0
   90.5010  -37.1800   15.5700 C   0  0  0  0  0
   91.4190  -36.0420   16.0910 C   0  0  0  0  0
   91.8170  -35.8980   17.2800 O   0  0  0  0  0
   89.1860  -36.5720   15.1020 C   0  0  0  0  0
   88.3130  -37.7350   15.0000 C   0  0  0  0  0
   88.7230  -38.7240   16.0460 C   0  0  0  0  0
   91.7660  -35.2070   15.1130 N   0  0  0  0  0
   92.7750  -34.1550   15.2560 C   0  0  0  0  0
   93.8270  -34.2750   14.0890 C   0  0  0  0  0
   95.2200  -34.2860   14.4910 O   0  0  0  0  0
   92.0420  -32.7770   15.2680 C   0  0  0  0  0
   92.5590  -31.7970   14.6880 O   0  0  0  0  0
   95.6740  -35.3170   15.6840 P   0  0  0  0  0
   95.2100  -36.8660   15.1970 O   0  0  0  0  0
   95.1100  -34.7170   17.1240 O   0  0  0  0  0
   97.2790  -35.3040   15.8030 O   0  0  0  0  0
   90.8760  -32.6880   15.9890 N   0  0  0  0  0
   89.7130  -31.8520   15.5770 C   0  0  0  0  0
   90.0570  -30.4270   15.0380 C   0  0  0  0  0
   90.4160  -29.5330   15.8360 O   0  0  0  0  0
   88.8490  -31.7630   16.8670 C   0  0  0  0  0
   89.3610  -32.8420   17.7990 C   0  0  0  0  0
   90.8190  -33.0590   17.4260 C   0  0  0  0  0
   89.9570  -30.2400   13.7040 N   0  0  0  0  0
   90.2190  -28.9380   13.0250 C   0  0  0  0  0
   90.0220  -29.0290   11.4840 C   0  0  0  0  0
   88.9010  -29.2510   10.9770 O   0  0  0  0  0
   91.6410  -28.4230   13.3930 C   0  0  0  0  0
   92.0760  -27.2030   12.5990 C   0  0  0  0  0
   91.2100  -26.4170   12.1080 O   0  0  0  0  0
   93.3160  -27.0150   12.5340 O   0  0  0  0  0
   90.9770  -28.8840   10.6900 O   0  0  0  0  0
   90.3331  -47.1776   27.0796 H   0  0  0  0  0
   90.6426  -45.8465   26.1262 H   0  0  0  0  0
   89.2606  -45.9025   27.0554 H   0  0  0  0  0
   88.4145  -47.7174   25.8054 H   0  0  0  0  0
   87.6060  -45.6859   24.9438 H   0  0  0  0  0
   88.4311  -46.3212   23.5200 H   0  0  0  0  0
   89.0909  -44.1519   24.0272 H   0  0  0  0  0
   88.8913  -47.5466   22.9793 H   0  0  0  0  0
   91.3620  -49.1687   22.6930 H   0  0  0  0  0
   89.6186  -50.5627   21.0915 H   0  0  0  0  0
   88.6484  -50.2352   22.5825 H   0  0  0  0  0
   91.5277  -50.1733   23.5897 H   0  0  0  0  0
   90.8484  -46.4797   21.8881 H   0  0  0  0  0
   90.4044  -46.3891   19.0022 H   0  0  0  0  0
   88.1536  -46.0472   20.8943 H   0  0  0  0  0
   88.4303  -47.4003   19.5329 H   0  0  0  0  0
   87.9248  -45.5402   18.0026 H   0  0  0  0  0
   86.4981  -47.5175   18.5847 H   0  0  0  0  0
   85.8506  -46.6225   19.9815 H   0  0  0  0  0
   85.5079  -46.0600   18.3270 H   0  0  0  0  0
   86.7905  -44.3414   20.4971 H   0  0  0  0  0
   88.1522  -43.7132   19.5368 H   0  0  0  0  0
   86.5230  -43.7971   18.8228 H   0  0  0  0  0
   91.7003  -44.6796   18.7629 H   0  0  0  0  0
   91.5076  -42.4514   20.7022 H   0  0  0  0  0
   93.6271  -43.0977   18.5935 H   0  0  0  0  0
   93.2878  -40.6815   18.7108 H   0  0  0  0  0
   93.4607  -40.7322   20.4824 H   0  0  0  0  0
   94.8410  -41.1569   19.4405 H   0  0  0  0  0
   93.6295  -43.0973   21.5637 H   0  0  0  0  0
   93.5954  -44.5170   20.4893 H   0  0  0  0  0
   95.0071  -43.4316   20.4860 H   0  0  0  0  0
   90.8899  -40.4593   20.1205 H   0  0  0  0  0
   89.1950  -40.3872   17.7312 H   0  0  0  0  0
   88.3321  -39.6987   19.9412 H   0  0  0  0  0
   89.5863  -38.4387   20.0430 H   0  0  0  0  0
   88.3145  -38.3308   18.8012 H   0  0  0  0  0
   91.1588  -37.6463   14.8366 H   0  0  0  0  0
   89.2801  -36.0275   14.1625 H   0  0  0  0  0
   88.8032  -35.8116   15.7828 H   0  0  0  0  0
   88.3993  -38.1814   14.0093 H   0  0  0  0  0
   87.2754  -37.4380   15.1527 H   0  0  0  0  0
   88.0071  -38.7817   16.8659 H   0  0  0  0  0
   88.7606  -39.7432   15.6615 H   0  0  0  0  0
   91.3012  -35.3061   14.2105 H   0  0  0  0  0
   93.3273  -34.2545   16.1904 H   0  0  0  0  0
   93.6947  -33.3916   13.4643 H   0  0  0  0  0
   93.6398  -35.2331   13.6042 H   0  0  0  0  0
   94.2540  -36.9023   15.1177 H   0  0  0  0  0
   94.1502  -34.7018   17.1091 H   0  0  0  0  0
   89.2137  -32.3105   14.7234 H   0  0  0  0  0
   87.7927  -31.9094   16.6415 H   0  0  0  0  0
   88.9314  -30.7778   17.3261 H   0  0  0  0  0
   88.7850  -33.7613   17.6935 H   0  0  0  0  0
   89.2602  -32.5434   18.8425 H   0  0  0  0  0
   91.4968  -32.4618   18.0360 H   0  0  0  0  0
   91.1446  -34.0840   17.6032 H   0  0  0  0  0
   89.6863  -31.0362   13.1268 H   0  0  0  0  0
   89.4847  -28.2167   13.3837 H   0  0  0  0  0
   92.3450  -29.2245   13.1690 H   0  0  0  0  0
   91.6207  -28.1362   14.4444 H   0  0  0  0  0
   90.3313  -26.7638   12.2789 H   0  0  0  0  0
   91.7822  -28.7198   11.1863 H   0  0  0  0  0
  1  2  1  0  0  0
  2  3  1  0  0  0
  2  5  1  0  0  0
  3  4  2  0  0  0
  3  7  1  0  0  0
  5  6  1  0  0  0
  7  8  1  0  0  0
  8  9  1  0  0  0
  8 11  1  0  0  0
  9 10  2  0  0  0
  9 15  1  0  0  0
 11 12  1  0  0  0
 12 13  2  0  0  0
 12 14  1  0  0  0
 15 16  1  0  0  0
 16 17  1  0  0  0
 16 19  1  0  0  0
 17 18  2  0  0  0
 17 23  1  0  0  0
 19 20  1  0  0  0
 20 21  1  0  0  0
 20 22  1  0  0  0
 23 24  1  0  0  0
 24 25  1  0  0  0
 24 27  1  0  0  0
 25 26  2  0  0  0
 25 30  1  0  0  0
 27 28  1  0  0  0
 27 29  1  0  0  0
 30 31  1  0  0  0
 31 32  1  0  0  0
 31 34  1  0  0  0
 32 33  2  0  0  0
 32 35  1  0  0  0
 35 36  1  0  0  0
 35 41  1  0  0  0
 36 37  1  0  0  0
 36 39  1  0  0  0
 37 38  2  0  0  0
 37 42  1  0  0  0
 39 40  1  0  0  0
 40 41  1  0  0  0
 42 43  1  0  0  0
 43 44  1  0  0  0
 43 46  1  0  0  0
 44 45  1  0  0  0
 45 48  1  0  0  0
 46 47  2  0  0  0
 46 52  1  0  0  0
 48 49  1  0  0  0
 48 50  1  0  0  0
 48 51  2  0  0  0
 52 53  1  0  0  0
 52 58  1  0  0  0
 53 54  1  0  0  0
 53 56  1  0  0  0
 54 55  2  0  0  0
 54 59  1  0  0  0
 56 57  1  0  0  0
 57 58  1  0  0  0
 59 60  1  0  0  0
 60 61  1  0  0  0
 60 63  1  0  0  0
 61 62  2  0  0  0
 61 67  1  0  0  0
 63 64  1  0  0  0
 64 65  1  0  0  0
 64 66  2  0  0  0
  1 68  1  0  0  0
  1 69  1  0  0  0
  1 70  1  0  0  0
  2 71  1  0  0  0
  5 72  1  0  0  0
  5 73  1  0  0  0
  6 74  1  0  0  0
  7 75  1  0  0  0
  8 76  1  0  0  0
 11 77  1  0  0  0
 11 78  1  0  0  0
 14 79  1  0  0  0
 15 80  1  0  0  0
 16 81  1  0  0  0
 19 82  1  0  0  0
 19 83  1  0  0  0
 20 84  1  0  0  0
 21 85  1  0  0  0
 21 86  1  0  0  0
 21 87  1  0  0  0
 22 88  1  0  0  0
 22 89  1  0  0  0
 22 90  1  0  0  0
 23 91  1  0  0  0
 24 92  1  0  0  0
 27 93  1  0  0  0
 28 94  1  0  0  0
 28 95  1  0  0  0
 28 96  1  0  0  0
 29 97  1  0  0  0
 29 98  1  0  0  0
 29 99  1  0  0  0
 30100  1  0  0  0
 31101  1  0  0  0
 34102  1  0  0  0
 34103  1  0  0  0
 34104  1  0  0  0
 36105  1  0  0  0
 39106  1  0  0  0
 39107  1  0  0  0
 40108  1  0  0  0
 40109  1  0  0  0
 41110  1  0  0  0
 41111  1  0  0  0
 42112  1  0  0  0
 43113  1  0  0  0
 44114  1  0  0  0
 44115  1  0  0  0
 49116  1  0  0  0
 50117  1  0  0  0
 53118  1  0  0  0
 56119  1  0  0  0
 56120  1  0  0  0
 57121  1  0  0  0
 57122  1  0  0  0
 58123  1  0  0  0
 58124  1  0  0  0
 59125  1  0  0  0
 60126  1  0  0  0
 63127  1  0  0  0
 63128  1  0  0  0
 65129  1  0  0  0
 67130  1  0  0  0
M  END
$$$$
