5v0n_ligand
  -I-interpret- 

 91 96  0  0  0  0  0  0  0  0999 V2000
   -3.6360  -15.3930   30.9500 C   0  0  0  0  0
   -2.2960  -13.3870   30.9280 C   0  0  0  0  0
   -2.7820  -21.9960   36.9530 C   0  0  0  0  0
   -2.6650  -22.4100   35.5100 C   0  0  0  0  0
   -2.5970  -20.1980   34.6960 C   0  0  0  0  0
    0.1650  -14.8360   28.1770 C   0  0  0  0  0
   -0.9830  -15.5660   27.5030 C   0  0  0  0  0
   -0.5680  -17.9200   32.7790 C   0  0  0  0  0
    0.3190  -17.7340   31.7600 C   0  0  0  0  0
    1.0760  -16.5220   29.7900 C   0  0  0  0  0
    2.3480  -17.1580   29.8940 C   0  0  0  0  0
   -3.3980  -15.6360   32.3210 C   0  0  0  0  0
   -3.9810  -16.8340   33.0020 C   0  0  0  0  0
   -2.8900  -17.8340   33.5440 C   0  0  0  0  0
   -2.0370  -13.5950   32.3020 C   0  0  0  0  0
   -3.4760  -19.2350   33.9220 C   0  0  0  0  0
    3.3350  -19.8450   28.6700 O   0  0  0  0  0
    4.4350  -19.4650   29.5380 S   0  0  0  0  0
    5.2780  -18.1730   28.6580 C   0  0  0  0  0
    5.6680  -18.5700   27.2440 C   0  0  0  0  0
    6.6130  -17.8570   29.2990 C   0  0  0  0  0
    4.5210  -16.9200   28.4850 C   0  0  0  0  0
    3.1530  -16.6890   28.8000 N   0  0  0  0  0
    2.3980  -15.7630   28.0840 C   0  0  0  0  0
    1.1470  -15.6300   28.6320 C   0  0  0  0  0
    0.0960  -16.7940   30.7590 C   0  0  0  0  0
   -1.8670  -17.8750   32.5510 N   0  0  0  0  0
   -3.1060  -14.2990   30.2790 C   0  0  0  0  0
   -2.6090  -14.7140   32.9710 C   0  0  0  0  0
   -4.6120  -19.0370   34.7140 O   0  0  0  0  0
   -3.3350  -21.4240   34.6820 N   0  3  0  0  0
   -2.4520  -20.5570   37.1260 N   0  0  0  0  0
   -2.2210  -20.0990   38.5500 C   0  0  0  0  0
   -3.5360  -20.0710   39.2550 C   0  0  0  0  0
   -4.4690  -19.0770   38.9600 C   0  0  0  0  0
   -5.6880  -19.0600   39.5930 C   0  0  0  0  0
   -6.0600  -20.0360   40.4630 C   0  0  0  0  0
   -5.1530  -21.0440   40.7320 C   0  0  0  0  0
   -3.9070  -21.0480   40.1370 C   0  0  0  0  0
   -2.3230  -19.6550   36.0960 C   0  0  0  0  0
   -2.0290  -18.4830   36.3060 O   0  0  0  0  0
   -0.1030  -17.8840   33.9440 O   0  0  0  0  0
    1.5880  -18.3290   31.8710 C   0  0  0  0  0
    2.6010  -18.0530   30.9630 C   0  0  0  0  0
    3.7830  -18.7360   30.9520 N   0  0  0  0  0
    4.5730  -19.0070   32.1760 C   0  0  0  0  0
    5.3140  -20.4720   29.8010 O   0  0  0  0  0
   -4.2614  -16.0931   30.3960 H   0  0  0  0  0
   -1.8706  -12.5349   30.3978 H   0  0  0  0  0
   -2.0821  -22.5875   37.5432 H   0  0  0  0  0
   -3.8086  -22.1600   37.2805 H   0  0  0  0  0
   -3.1284  -23.3863   35.3681 H   0  0  0  0  0
   -1.6137  -22.4738   35.2291 H   0  0  0  0  0
   -1.6058  -20.3432   34.2664 H   0  0  0  0  0
   -0.2520  -14.3208   29.0423 H   0  0  0  0  0
    0.6088  -14.1823   27.4261 H   0  0  0  0  0
   -0.6047  -16.1220   26.6452 H   0  0  0  0  0
   -1.4394  -16.2563   28.2124 H   0  0  0  0  0
   -1.7262  -14.8420   27.1692 H   0  0  0  0  0
   -4.5839  -17.3694   32.2686 H   0  0  0  0  0
   -4.5573  -16.4797   33.8567 H   0  0  0  0  0
   -2.4753  -17.4904   34.4917 H   0  0  0  0  0
   -1.4001  -12.8995   32.8486 H   0  0  0  0  0
   -3.6412  -19.7020   32.9511 H   0  0  0  0  0
    6.3327  -19.4331   27.2806 H   0  0  0  0  0
    4.7712  -18.8241   26.6789 H   0  0  0  0  0
    6.1789  -17.7366   26.7618 H   0  0  0  0  0
    6.4531  -17.5321   30.3271 H   0  0  0  0  0
    7.2384  -18.7497   29.2918 H   0  0  0  0  0
    7.1050  -17.0625   28.7379 H   0  0  0  0  0
    4.5107  -16.8234   27.3993 H   0  0  0  0  0
    5.0196  -16.2671   29.2014 H   0  0  0  0  0
    2.7523  -15.2187   27.2086 H   0  0  0  0  0
   -0.8538  -16.2603   30.7261 H   0  0  0  0  0
   -2.1667  -17.8690   31.5760 H   0  0  0  0  0
   -3.3328  -14.1573   29.2223 H   0  0  0  0  0
   -2.4153  -14.8453   34.0356 H   0  0  0  0  0
   -4.9848  -19.8881   34.9553 H   0  0  0  0  0
   -4.2727  -21.2576   35.0474 H   0  0  0  0  0
   -3.3942  -21.7713   33.7248 H   0  0  0  0  0
   -1.7743  -19.1047   38.5542 H   0  0  0  0  0
   -1.5408  -20.7839   39.0564 H   0  0  0  0  0
   -4.2296  -18.3099   38.2235 H   0  0  0  0  0
   -6.3772  -18.2399   39.3918 H   0  0  0  0  0
   -7.0430  -20.0242   40.9339 H   0  0  0  0  0
   -5.4243  -21.8439   41.4209 H   0  0  0  0  0
   -3.2044  -21.8466   40.3753 H   0  0  0  0  0
    1.7808  -19.0231   32.6890 H   0  0  0  0  0
    4.6119  -20.0821   32.3512 H   0  0  0  0  0
    5.5845  -18.6218   32.0468 H   0  0  0  0  0
    4.1017  -18.5157   33.0273 H   0  0  0  0  0
 12  1  4  0  0  0
  1 28  4  0  0  0
 15  2  4  0  0  0
 28  2  4  0  0  0
  4  3  1  0  0  0
  3 32  1  0  0  0
 31  4  1  0  0  0
 16  5  1  0  0  0
  5 31  1  0  0  0
  5 40  1  0  0  0
  6  7  1  0  0  0
 25  6  1  0  0  0
  9  8  1  0  0  0
  8 27  1  0  0  0
  8 42  2  0  0  0
 26  9  4  0  0  0
  9 43  4  0  0  0
 11 10  4  0  0  0
 10 25  4  0  0  0
 10 26  4  0  0  0
 23 11  4  0  0  0
 11 44  4  0  0  0
 13 12  1  0  0  0
 12 29  4  0  0  0
 14 13  1  0  0  0
 14 16  1  0  0  0
 27 14  1  0  0  0
 29 15  4  0  0  0
 16 30  1  0  0  0
 18 17  2  0  0  0
 19 18  1  0  0  0
 18 45  1  0  0  0
 18 47  2  0  0  0
 19 20  1  0  0  0
 19 21  1  0  0  0
 22 19  1  0  0  0
 22 23  1  0  0  0
 23 24  4  0  0  0
 24 25  4  0  0  0
 32 33  1  0  0  0
 32 40  1  0  0  0
 33 34  1  0  0  0
 34 35  4  0  0  0
 34 39  4  0  0  0
 35 36  4  0  0  0
 36 37  4  0  0  0
 37 38  4  0  0  0
 38 39  4  0  0  0
 40 41  2  0  0  0
 43 44  4  0  0  0
 44 45  1  0  0  0
 45 46  1  0  0  0
  1 48  1  0  0  0
  2 49  1  0  0  0
  3 50  1  0  0  0
  3 51  1  0  0  0
  4 52  1  0  0  0
  4 53  1  0  0  0
  5 54  1  0  0  0
  6 55  1  0  0  0
  6 56  1  0  0  0
  7 57  1  0  0  0
  7 58  1  0  0  0
  7 59  1  0  0  0
 13 60  1  0  0  0
 13 61  1  0  0  0
 14 62  1  0  0  0
 15 63  1  0  0  0
 16 64  1  0  0  0
 20 65  1  0  0  0
 20 66  1  0  0  0
 20 67  1  0  0  0
 21 68  1  0  0  0
 21 69  1  0  0  0
 21 70  1  0  0  0
 22 71  1  0  0  0
 22 72  1  0  0  0
 24 73  1  0  0  0
 26 74  1  0  0  0
 27 75  1  0  0  0
 28 76  1  0  0  0
 29 77  1  0  0  0
 30 78  1  0  0  0
 31 79  1  0  0  0
 31 80  1  0  0  0
 33 81  1  0  0  0
 33 82  1  0  0  0
 35 83  1  0  0  0
 36 84  1  0  0  0
 37 85  1  0  0  0
 38 86  1  0  0  0
 39 87  1  0  0  0
 43 88  1  0  0  0
 46 89  1  0  0  0
 46 90  1  0  0  0
 46 91  1  0  0  0
M  END
$$$$
