5ald_ligand
  -I-interpret- 

 33 35  0  0  0  0  0  0  0  0999 V2000
  -16.0330   -9.5810   12.2040 C   0  0  0  0  0
  -14.7370   -9.7850   11.7600 C   0  0  0  0  0
  -14.4950   -9.5970   10.4180 C   0  0  0  0  0
  -15.4770   -9.2450    9.5460 C   0  0  0  0  0
  -16.7620   -9.0620    9.9880 C   0  0  0  0  0
  -17.0470   -9.2220   11.3300 C   0  0  0  0  0
  -18.4630   -8.9840   11.7690 C   0  0  0  0  0
  -19.1940  -10.1840   12.3550 C   0  0  0  0  0
  -20.6760   -9.8580   12.4520 C   0  0  0  0  0
  -20.9600   -8.5230   13.1470 C   0  0  0  0  0
  -20.1340   -7.3500   12.6200 C   0  0  0  0  0
  -18.6610   -7.7120   12.5970 C   0  0  0  0  0
  -14.9910   -9.1110    8.1640 C   0  0  0  0  0
  -13.5050   -9.3920    8.3760 C   0  0  0  0  0
  -12.6640   -9.3400    7.4670 O   0  0  0  0  0
  -13.2990   -9.7200    9.7270 N   0  0  0  0  0
  -16.2602   -9.7054   13.2628 H   0  0  0  0  0
  -13.9422  -10.0819   12.4443 H   0  0  0  0  0
  -17.5516   -8.7926    9.2865 H   0  0  0  0  0
  -18.9643   -8.8101   10.8169 H   0  0  0  0  0
  -18.8000  -10.4076   13.3464 H   0  0  0  0  0
  -19.0490  -11.0533   11.7136 H   0  0  0  0  0
  -21.1475  -10.6433   13.0429 H   0  0  0  0  0
  -21.0648   -9.7891   11.4360 H   0  0  0  0  0
  -20.7033   -8.6485   14.1989 H   0  0  0  0  0
  -22.0079   -8.2840   12.9656 H   0  0  0  0  0
  -20.2791   -6.4902   13.2740 H   0  0  0  0  0
  -20.4582   -7.1132   11.6066 H   0  0  0  0  0
  -18.0924   -6.8956   12.1516 H   0  0  0  0  0
  -18.3122   -7.8827   13.6155 H   0  0  0  0  0
  -15.2054   -8.1468    7.7031 H   0  0  0  0  0
  -15.4772   -9.7754    7.4496 H   0  0  0  0  0
  -12.4086  -10.0042   10.1355 H   0  0  0  0  0
  1  2  4  0  0  0
  1  6  4  0  0  0
  2  3  4  0  0  0
  3  4  4  0  0  0
  3 16  1  0  0  0
  4  5  4  0  0  0
  4 13  1  0  0  0
  5  6  4  0  0  0
  6  7  1  0  0  0
  7  8  1  0  0  0
  7 12  1  0  0  0
  8  9  1  0  0  0
  9 10  1  0  0  0
 10 11  1  0  0  0
 11 12  1  0  0  0
 13 14  1  0  0  0
 14 15  2  0  0  0
 14 16  1  0  0  0
  1 17  1  0  0  0
  2 18  1  0  0  0
  5 19  1  0  0  0
  7 20  1  0  0  0
  8 21  1  0  0  0
  8 22  1  0  0  0
  9 23  1  0  0  0
  9 24  1  0  0  0
 10 25  1  0  0  0
 10 26  1  0  0  0
 11 27  1  0  0  0
 11 28  1  0  0  0
 12 29  1  0  0  0
 12 30  1  0  0  0
 13 31  1  0  0  0
 13 32  1  0  0  0
 16 33  1  0  0  0
M  END
$$$$
