1ppc_ligand
  -I-interpret- 

 68 71  0  0  0  0  0  0  0  0999 V2000
   -5.8270    4.7820   25.9170 S   0  0  0  0  0
   -6.8830    5.7670   26.4350 O   0  0  0  0  0
   -6.3850    3.3620   25.9520 O   0  0  0  0  0
   -3.7610    3.9040   27.5800 C   0  0  0  0  0
   -4.3660    4.9560   26.9430 C   0  0  0  0  0
   -3.8740    6.2180   27.1290 C   0  0  0  0  0
   -2.8230    6.4310   27.9910 C   0  0  0  0  0
   -1.1660    5.6080   29.4710 C   0  0  0  0  0
   -0.5380    4.5410   30.0870 C   0  0  0  0  0
   -1.0030    3.2540   29.8900 C   0  0  0  0  0
   -2.0960    3.0180   29.0710 C   0  0  0  0  0
   -2.6860    4.0860   28.4240 C   0  0  0  0  0
   -2.2320    5.3650   28.6300 C   0  0  0  0  0
   -5.5520    5.0200   24.2980 N   0  0  0  0  0
   -4.6090    4.0870   23.7300 C   0  0  0  0  0
   -3.2810    4.7140   23.3230 C   0  0  0  0  0
   -2.9600    5.8630   23.6500 O   0  0  0  0  0
   -0.4280    2.9070   22.1940 C   0  0  0  0  0
   -1.2700    4.1600   21.9520 C   0  0  0  0  0
   -1.3330    4.4800   20.4500 C   0  0  0  0  0
   -2.0020    5.8060   20.1500 C   0  0  0  0  0
   -3.3810    5.9010   20.0920 C   0  0  0  0  0
   -1.2360    6.9410   20.0230 C   0  0  0  0  0
   -3.9930    7.1200   19.8710 C   0  0  0  0  0
   -1.8530    8.1550   19.7970 C   0  0  0  0  0
   -3.2370    8.2680   19.7390 C   0  0  0  0  0
   -3.8330    9.5270   19.5790 C   0  0  0  0  0
   -0.2020    2.1160   21.2720 O   0  0  0  0  0
   -2.5950    3.9030   22.4990 N   0  0  0  0  0
   -5.1270    9.7230   19.8940 N   0  0  0  0  0
   -3.0670   10.5440   19.1670 N   0  0  0  0  0
    0.0740    2.6870   23.4200 N   0  0  0  0  0
    0.0190    3.6720   24.4880 C   0  0  0  0  0
   -0.7040    3.0330   25.6500 C   0  0  0  0  0
    0.1550    1.8800   26.1460 C   0  0  0  0  0
    0.3010    0.9040   24.9820 C   0  0  0  0  0
    0.9050    1.5360   23.7450 C   0  0  0  0  0
   -4.1402    2.8955   27.4148 H   0  0  0  0  0
   -4.3157    7.0579   26.5928 H   0  0  0  0  0
   -2.4588    7.4431   28.1676 H   0  0  0  0  0
   -0.8232    6.6275   29.6477 H   0  0  0  0  0
    0.3254    4.7150   30.7292 H   0  0  0  0  0
   -0.5061    2.4183   30.3827 H   0  0  0  0  0
   -2.4830    2.0075   28.9399 H   0  0  0  0  0
   -6.0060    5.7553   23.7562 H   0  0  0  0  0
   -5.0631    3.6792   22.8269 H   0  0  0  0  0
   -4.3924    3.3415   24.4952 H   0  0  0  0  0
   -0.8289    5.0286   22.4408 H   0  0  0  0  0
   -1.9205    3.6974   19.9698 H   0  0  0  0  0
   -0.3089    4.5356   20.0808 H   0  0  0  0  0
   -3.9901    5.0064   20.2218 H   0  0  0  0  0
   -0.1503    6.8825   20.1002 H   0  0  0  0  0
   -5.0793    7.1758   19.8004 H   0  0  0  0  0
   -1.2402    9.0461   19.6608 H   0  0  0  0  0
   -3.0440    3.0268   22.2323 H   0  0  0  0  0
   -5.5344   10.6552   19.8199 H   0  0  0  0  0
   -5.7001    8.9393   20.2068 H   0  0  0  0  0
   -2.0762   10.3923   18.9780 H   0  0  0  0  0
   -0.5053    4.5682   24.1563 H   0  0  0  0  0
    1.0239    3.9754   24.7818 H   0  0  0  0  0
   -1.6832    2.6710   25.3367 H   0  0  0  0  0
   -0.8621    3.7601   26.4465 H   0  0  0  0  0
   -0.3091    1.3928   27.0035 H   0  0  0  0  0
    1.1304    2.2380   26.4753 H   0  0  0  0  0
   -0.6965    0.5519   24.7193 H   0  0  0  0  0
    0.9682    0.1042   25.3034 H   0  0  0  0  0
    1.9365    1.8383   23.9256 H   0  0  0  0  0
    0.9301    0.8270   22.9175 H   0  0  0  0  0
 15 14  1  0  0  0
 16 15  1  0  0  0
 16 17  2  0  0  0
  1  2  2  0  0  0
  1  3  2  0  0  0
  1  5  1  0  0  0
 14  1  1  0  0  0
  5  6  4  0  0  0
  6  7  4  0  0  0
  7 13  4  0  0  0
  8  9  4  0  0  0
 13  8  4  0  0  0
  9 10  4  0  0  0
 11 10  4  0  0  0
 12 11  4  0  0  0
 13 12  4  0  0  0
 19 18  1  0  0  0
 18 28  2  0  0  0
 18 32  1  0  0  0
 19 20  1  0  0  0
 29 19  1  0  0  0
 20 21  1  0  0  0
 21 22  4  0  0  0
 22 24  4  0  0  0
 21 23  4  0  0  0
 23 25  4  0  0  0
 24 26  4  0  0  0
 25 26  4  0  0  0
 26 27  1  0  0  0
 27 30  1  0  0  0
 27 31  2  0  0  0
 29 16  1  0  0  0
 32 33  1  0  0  0
 32 37  1  0  0  0
 33 34  1  0  0  0
 34 35  1  0  0  0
 35 36  1  0  0  0
 36 37  1  0  0  0
 12  4  4  0  0  0
  5  4  4  0  0  0
  4 38  1  0  0  0
  6 39  1  0  0  0
  7 40  1  0  0  0
  8 41  1  0  0  0
  9 42  1  0  0  0
 10 43  1  0  0  0
 11 44  1  0  0  0
 14 45  1  0  0  0
 15 46  1  0  0  0
 15 47  1  0  0  0
 19 48  1  0  0  0
 20 49  1  0  0  0
 20 50  1  0  0  0
 22 51  1  0  0  0
 23 52  1  0  0  0
 24 53  1  0  0  0
 25 54  1  0  0  0
 29 55  1  0  0  0
 30 56  1  0  0  0
 30 57  1  0  0  0
 31 58  1  0  0  0
 33 59  1  0  0  0
 33 60  1  0  0  0
 34 61  1  0  0  0
 34 62  1  0  0  0
 35 63  1  0  0  0
 35 64  1  0  0  0
 36 65  1  0  0  0
 36 66  1  0  0  0
 37 67  1  0  0  0
 37 68  1  0  0  0
M  END
$$$$
