1q63_ligand
  -I-interpret- 

 31 33  0  0  0  0  0  0  0  0999 V2000
   17.1200   16.9780   18.7150 C   0  0  0  0  0
   16.1100   16.7320   19.6880 C   0  0  0  0  0
   14.6830   16.2780   19.3100 C   0  0  0  0  0
   16.4330   16.9180   21.0770 C   0  0  0  0  0
   15.5010   16.7080   22.0600 N   0  0  0  0  0
   15.7260   16.8550   23.3340 C   0  0  0  0  0
   14.7460   16.6260   24.1880 N   0  0  0  0  0
   16.9230   17.2350   23.7910 N   0  0  0  0  0
   17.9550   17.4860   22.9740 C   0  0  0  0  0
   19.0470   17.8380   23.3850 O   0  0  0  0  0
   17.7530   17.3350   21.4630 C   0  0  0  0  0
   18.7550   17.5760   20.4740 C   0  0  0  0  0
   18.4340   17.4000   19.1020 C   0  0  0  0  0
   19.3640   17.6370   18.1490 N   0  0  0  0  0
   14.6000   14.6760   18.4390 S   0  0  0  0  0
   14.2310   15.2820   16.7880 C   0  0  0  0  0
   15.0760   16.0320   16.0590 N   0  0  0  0  0
   13.1890   15.1010   16.1020 N   0  0  0  0  0
   14.4480   16.2820   14.8890 C   0  0  0  0  0
   13.2320   15.7310   14.8140 C   0  0  0  0  0
   16.8901   16.8431   17.6581 H   0  0  0  0  0
   14.2794   17.0298   18.6318 H   0  0  0  0  0
   14.1290   16.1624   20.2416 H   0  0  0  0  0
   13.8288   16.3384   23.8466 H   0  0  0  0  0
   14.9058   16.7366   25.1893 H   0  0  0  0  0
   17.0557   17.3376   24.7971 H   0  0  0  0  0
   19.7556   17.8917   20.7694 H   0  0  0  0  0
   19.1277   17.5151   17.1643 H   0  0  0  0  0
   20.3017   17.9376   18.4150 H   0  0  0  0  0
   14.8886   16.8737   14.0866 H   0  0  0  0  0
   12.4934   15.7538   14.0128 H   0  0  0  0  0
  1  2  4  0  0  0
  1 13  4  0  0  0
  2  3  1  0  0  0
  2  4  4  0  0  0
  3 15  1  0  0  0
  4  5  1  0  0  0
  4 11  4  0  0  0
  5  6  2  0  0  0
  6  7  1  0  0  0
  6  8  1  0  0  0
  8  9  1  0  0  0
  9 10  2  0  0  0
  9 11  1  0  0  0
 11 12  4  0  0  0
 12 13  4  0  0  0
 13 14  1  0  0  0
 15 16  1  0  0  0
 16 17  4  0  0  0
 16 18  4  0  0  0
 17 19  4  0  0  0
 18 20  4  0  0  0
 19 20  4  0  0  0
  1 21  1  0  0  0
  3 22  1  0  0  0
  3 23  1  0  0  0
  7 24  1  0  0  0
  7 25  1  0  0  0
  8 26  1  0  0  0
 12 27  1  0  0  0
 14 28  1  0  0  0
 14 29  1  0  0  0
 19 30  1  0  0  0
 20 31  1  0  0  0
M  END
$$$$
