2p3c_ligand
  -I-interpret- 

130133  0  0  0  0  0  0  0  0999 V2000
  -10.4620  -15.4670   11.6520 N   0  0  0  0  0
  -10.4590  -15.3080   13.0890 C   0  0  0  0  0
  -10.6500  -13.7320    8.9270 N   0  0  0  0  0
   -9.8850  -16.5460   13.7550 C   0  0  0  0  0
  -11.8870  -15.0520   13.5630 C   0  0  0  0  0
  -12.2070  -13.5980   13.3430 C   0  0  0  0  0
  -13.0210  -13.2240   12.2710 C   0  0  0  0  0
  -10.7170  -17.6220   13.3810 O   0  0  0  0  0
  -13.3020  -11.8730   12.0760 C   0  0  0  0  0
  -12.7720  -10.9140   12.9410 C   0  0  0  0  0
   -8.9370  -13.8740   11.2760 O   0  0  0  0  0
  -11.9720  -11.2970   14.0120 C   0  0  0  0  0
  -11.6910  -12.6440   14.2180 C   0  0  0  0  0
   -9.9200  -14.9030    9.3970 C   0  0  0  0  0
   -9.7140  -14.7090   10.8630 C   0  0  0  0  0
   -8.6040  -15.0860    8.6420 C   0  0  0  0  0
  -11.2170   -8.1330    3.1340 C   0  0  0  0  0
  -11.6840   -6.8380    3.3310 C   0  0  0  0  0
  -12.4990  -12.3820    6.2310 N   0  0  0  0  0
  -12.9880   -6.6340    3.7910 C   0  0  0  0  0
  -13.8200   -7.7300    4.0430 C   0  0  0  0  0
  -13.3480   -9.0340    3.8350 C   0  0  0  0  0
  -11.9560  -14.8200    7.4890 O   0  0  0  0  0
  -12.2500  -12.4720    7.6590 C   0  0  0  0  0
  -11.6120  -13.7830    8.0210 C   0  0  0  0  0
  -13.5470  -12.2970    8.4420 C   0  0  0  0  0
   -3.8480  -14.7170   20.8330 O   0  0  0  0  0
   -4.0890  -15.7890   21.3680 C   0  0  0  0  0
   -3.9850  -15.9170   22.8110 O   0  0  0  0  0
   -3.4950  -14.8330   23.6000 C   0  0  0  0  0
   -1.9830  -14.7630   23.5710 C   0  0  0  0  0
   -1.3570  -13.5350   23.7900 C   0  0  0  0  0
    0.0360  -13.4460   23.7840 C   0  0  0  0  0
    0.8080  -14.5830   23.5600 C   0  0  0  0  0
    0.1790  -15.8120   23.3490 C   0  0  0  0  0
   -1.2160  -15.9100   23.3590 C   0  0  0  0  0
   -4.4250  -16.8840   20.6960 N   0  0  0  0  0
   -4.6030  -16.8670   19.2570 C   0  0  0  0  0
   -3.9200  -18.0950   18.6590 C   0  0  0  0  0
   -6.0690  -16.7580   18.9300 C   0  0  0  0  0
   -6.8610  -17.5630   19.3900 O   0  0  0  0  0
   -6.4280  -15.7080   18.1860 N   0  0  0  0  0
   -7.7440  -15.5150   17.5790 C   0  0  0  0  0
   -8.6460  -14.5300   18.3460 C   0  0  0  0  0
   -8.6160  -14.7410   19.8670 C   0  0  0  0  0
  -10.0840  -14.6370   17.8590 C   0  0  0  0  0
   -7.5540  -15.1130   16.1450 C   0  0  0  0  0
   -7.4890  -13.9360   15.8140 O   0  0  0  0  0
   -7.4340  -16.1420   15.3070 N   0  0  0  0  0
   -7.3580  -16.0730   13.8530 C   0  0  0  0  0
   -6.1070  -16.7490   13.3000 C   0  0  0  0  0
   -4.8150  -16.1800   13.8230 C   0  0  0  0  0
   -4.4190  -16.4080   15.1320 C   0  0  0  0  0
   -3.2240  -15.8820   15.6070 C   0  0  0  0  0
   -2.4410  -15.1300   14.7490 C   0  0  0  0  0
   -2.8360  -14.9170   13.4290 C   0  0  0  0  0
   -4.0260  -15.4460   12.9650 C   0  0  0  0  0
   -8.4860  -16.9260   13.3040 C   0  0  0  0  0
   -8.2600  -18.2620   13.7460 O   0  0  0  0  0
   -8.8390  -15.4600    7.1820 C   0  0  0  0  0
   -7.6350  -16.0840    9.2810 C   0  0  0  0  0
  -11.6970  -11.7070    5.4010 C   0  0  0  0  0
  -10.6620  -11.1610    5.7560 O   0  0  0  0  0
  -12.1000  -11.6040    4.0050 O   0  0  0  0  0
  -11.5180  -10.6300    3.1420 C   0  0  0  0  0
  -12.0500   -9.2340    3.3870 C   0  0  0  0  0
  -11.0564  -16.1826   11.2337 H   0  0  0  0  0
   -9.8321  -14.4595   13.3631 H   0  0  0  0  0
  -10.4052  -12.8226    9.3188 H   0  0  0  0  0
   -9.8355  -16.3349   14.8232 H   0  0  0  0  0
  -11.9786  -15.2982   14.6209 H   0  0  0  0  0
  -12.5834  -15.6761   13.0030 H   0  0  0  0  0
  -13.4300  -13.9772   11.5975 H   0  0  0  0  0
  -11.6206  -17.4330   13.6445 H   0  0  0  0  0
  -13.9373  -11.5643   11.2458 H   0  0  0  0  0
  -12.9866   -9.8582   12.7758 H   0  0  0  0  0
  -11.5663  -10.5443   14.6880 H   0  0  0  0  0
  -11.0703  -12.9515   15.0596 H   0  0  0  0  0
  -10.4810  -15.8188    9.2108 H   0  0  0  0  0
   -8.1238  -14.1092    8.6994 H   0  0  0  0  0
  -10.1983   -8.2939    2.7811 H   0  0  0  0  0
  -11.0358   -5.9856    3.1275 H   0  0  0  0  0
  -13.3181  -12.8523    5.8460 H   0  0  0  0  0
  -13.3566   -5.6211    3.9533 H   0  0  0  0  0
  -14.8368   -7.5701    4.4016 H   0  0  0  0  0
  -13.9986   -9.8877    4.0246 H   0  0  0  0  0
  -11.5613  -11.6694    7.9229 H   0  0  0  0  0
  -13.9758  -11.3201    8.2185 H   0  0  0  0  0
  -14.2510  -13.0784    8.1557 H   0  0  0  0  0
  -13.3379  -12.3679    9.5094 H   0  0  0  0  0
   -3.8134  -14.9856   24.6312 H   0  0  0  0  0
   -3.8911  -13.9030   23.1921 H   0  0  0  0  0
   -1.9577  -12.6427   23.9663 H   0  0  0  0  0
    0.5204  -12.4846   23.9550 H   0  0  0  0  0
    1.8958  -14.5143   23.5494 H   0  0  0  0  0
    0.7813  -16.7036   23.1748 H   0  0  0  0  0
   -1.7004  -16.8739   23.2026 H   0  0  0  0  0
   -4.5611  -17.7579   21.2042 H   0  0  0  0  0
   -4.1295  -15.9945   18.8068 H   0  0  0  0  0
   -2.8571  -18.0712   18.8995 H   0  0  0  0  0
   -4.3680  -18.9972   19.0755 H   0  0  0  0  0
   -4.0491  -18.0900   17.5767 H   0  0  0  0  0
   -5.7279  -14.9830   18.0289 H   0  0  0  0  0
   -8.2823  -16.4614   17.6302 H   0  0  0  0  0
   -8.2475  -13.5358   18.1438 H   0  0  0  0  0
   -8.9569  -15.7499   20.0994 H   0  0  0  0  0
   -7.5973  -14.6074   20.2310 H   0  0  0  0  0
   -9.2726  -14.0149   20.3463 H   0  0  0  0  0
  -10.1245  -14.4016   16.7955 H   0  0  0  0  0
  -10.4469  -15.6518   18.0219 H   0  0  0  0  0
  -10.7068  -13.9339   18.4120 H   0  0  0  0  0
   -7.3910  -17.0714   15.7250 H   0  0  0  0  0
   -7.3823  -15.0182   13.5793 H   0  0  0  0  0
   -6.1108  -16.5984   12.2205 H   0  0  0  0  0
   -6.1448  -17.7945   13.6058 H   0  0  0  0  0
   -5.0491  -17.0036   15.7925 H   0  0  0  0  0
   -2.9094  -16.0583   16.6356 H   0  0  0  0  0
   -1.5062  -14.6999   15.1087 H   0  0  0  0  0
   -2.2046  -14.3315   12.7607 H   0  0  0  0  0
   -4.3362  -15.2842   11.9327 H   0  0  0  0  0
   -8.4644  -16.7868   12.2231 H   0  0  0  0  0
   -8.9592  -18.8302   13.4144 H   0  0  0  0  0
   -9.3964  -16.3954    7.1331 H   0  0  0  0  0
   -9.4089  -14.6699    6.6931 H   0  0  0  0  0
   -7.8790  -15.5810    6.6802 H   0  0  0  0  0
   -7.3791  -15.7476   10.2857 H   0  0  0  0  0
   -8.1081  -17.0645    9.3343 H   0  0  0  0  0
   -6.7303  -16.1480    8.6764 H   0  0  0  0  0
  -11.7632  -10.9048    2.1161 H   0  0  0  0  0
  -10.4447  -10.6156    3.3316 H   0  0  0  0  0
  1  2  1  0  0  0
 15  1  1  0  0  0
  2  4  1  0  0  0
  2  5  1  0  0  0
  3 14  1  0  0  0
 25  3  1  0  0  0
  4  8  1  0  0  0
  4 58  1  0  0  0
  5  6  1  0  0  0
  6  7  4  0  0  0
  6 13  4  0  0  0
  7  9  4  0  0  0
  9 10  4  0  0  0
 12 10  4  0  0  0
 15 11  2  0  0  0
 13 12  4  0  0  0
 14 15  1  0  0  0
 14 16  1  0  0  0
 16 60  1  0  0  0
 16 61  1  0  0  0
 17 18  4  0  0  0
 66 17  4  0  0  0
 18 20  4  0  0  0
 19 24  1  0  0  0
 62 19  1  0  0  0
 21 20  4  0  0  0
 22 21  4  0  0  0
 66 22  4  0  0  0
 25 23  2  0  0  0
 24 25  1  0  0  0
 24 26  1  0  0  0
 28 27  2  0  0  0
 28 29  1  0  0  0
 37 28  1  0  0  0
 29 30  1  0  0  0
 30 31  1  0  0  0
 31 32  4  0  0  0
 31 36  4  0  0  0
 32 33  4  0  0  0
 33 34  4  0  0  0
 35 34  4  0  0  0
 36 35  4  0  0  0
 38 37  1  0  0  0
 38 39  1  0  0  0
 40 38  1  0  0  0
 40 41  2  0  0  0
 42 40  1  0  0  0
 43 42  1  0  0  0
 43 44  1  0  0  0
 47 43  1  0  0  0
 44 45  1  0  0  0
 44 46  1  0  0  0
 47 48  2  0  0  0
 49 47  1  0  0  0
 50 49  1  0  0  0
 50 51  1  0  0  0
 58 50  1  0  0  0
 51 52  1  0  0  0
 52 53  4  0  0  0
 52 57  4  0  0  0
 53 54  4  0  0  0
 54 55  4  0  0  0
 56 55  4  0  0  0
 57 56  4  0  0  0
 58 59  1  0  0  0
 62 63  2  0  0  0
 64 62  1  0  0  0
 65 64  1  0  0  0
 65 66  1  0  0  0
  1 67  1  0  0  0
  2 68  1  0  0  0
  3 69  1  0  0  0
  4 70  1  0  0  0
  5 71  1  0  0  0
  5 72  1  0  0  0
  7 73  1  0  0  0
  8 74  1  0  0  0
  9 75  1  0  0  0
 10 76  1  0  0  0
 12 77  1  0  0  0
 13 78  1  0  0  0
 14 79  1  0  0  0
 16 80  1  0  0  0
 17 81  1  0  0  0
 18 82  1  0  0  0
 19 83  1  0  0  0
 20 84  1  0  0  0
 21 85  1  0  0  0
 22 86  1  0  0  0
 24 87  1  0  0  0
 26 88  1  0  0  0
 26 89  1  0  0  0
 26 90  1  0  0  0
 30 91  1  0  0  0
 30 92  1  0  0  0
 32 93  1  0  0  0
 33 94  1  0  0  0
 34 95  1  0  0  0
 35 96  1  0  0  0
 36 97  1  0  0  0
 37 98  1  0  0  0
 38 99  1  0  0  0
 39100  1  0  0  0
 39101  1  0  0  0
 39102  1  0  0  0
 42103  1  0  0  0
 43104  1  0  0  0
 44105  1  0  0  0
 45106  1  0  0  0
 45107  1  0  0  0
 45108  1  0  0  0
 46109  1  0  0  0
 46110  1  0  0  0
 46111  1  0  0  0
 49112  1  0  0  0
 50113  1  0  0  0
 51114  1  0  0  0
 51115  1  0  0  0
 53116  1  0  0  0
 54117  1  0  0  0
 55118  1  0  0  0
 56119  1  0  0  0
 57120  1  0  0  0
 58121  1  0  0  0
 59122  1  0  0  0
 60123  1  0  0  0
 60124  1  0  0  0
 60125  1  0  0  0
 61126  1  0  0  0
 61127  1  0  0  0
 61128  1  0  0  0
 65129  1  0  0  0
 65130  1  0  0  0
M  END
$$$$
