6epz_ligand
  -I-interpret- 

 45 46  0  0  0  0  0  0  0  0999 V2000
  136.3260    5.9610   76.3830 C   0  0  0  0  0
  135.1730    6.6850   75.9560 O   0  0  0  0  0
  136.5220    6.0880   77.9420 C   0  0  0  0  0
  135.2620    5.8490   78.5710 O   0  0  0  0  0
  136.9650    7.5390   78.2830 C   0  0  0  0  0
  137.3390    7.6520   79.6620 O   0  0  0  0  0
  138.1210    8.0190   77.4410 C   0  0  0  0  0
  139.2890    7.2390   77.7990 O   0  0  0  0  0
  137.8070    7.8370   75.9330 C   0  0  0  0  0
  137.5130    6.4280   75.6940 O   0  0  0  0  0
  138.9970    8.3130   75.0960 C   0  0  0  0  0
  138.7170    8.1380   73.7000 O   0  0  0  0  0
  134.0570    9.3270   72.7640 C   0  0  0  0  0
  134.1130   10.7480   72.9690 O   0  0  0  0  0
  132.8860    8.8780   71.7760 C   0  0  0  0  0
  132.0430    9.9720   71.3710 O   0  0  0  0  0
  132.0200    7.7190   72.3290 C   0  0  0  0  0
  131.3900    7.0950   71.1910 O   0  0  0  0  0
  132.8950    6.6620   73.0270 C   0  0  0  0  0
  132.0980    5.5570   73.4710 O   0  0  0  0  0
  133.6060    7.2480   74.2500 C   0  0  0  0  0
  134.0550    8.6510   74.0850 O   0  0  0  0  0
  134.7400    6.2960   74.6590 C   0  0  0  0  0
  136.1702    4.9109   76.1356 H   0  0  0  0  0
  137.2723    5.3754   78.2845 H   0  0  0  0  0
  134.9705    4.9562   78.3721 H   0  0  0  0  0
  136.0988    8.1646   78.0675 H   0  0  0  0  0
  136.6143    7.3504   80.2147 H   0  0  0  0  0
  138.2983    9.0790   77.6229 H   0  0  0  0  0
  139.4770    7.3566   78.7330 H   0  0  0  0  0
  136.9425    8.4339   75.6424 H   0  0  0  0  0
  139.8781    7.7285   75.3608 H   0  0  0  0  0
  139.1760    9.3694   75.2959 H   0  0  0  0  0
  139.4684    8.4390   73.1839 H   0  0  0  0  0
  134.9513    9.0028   72.2318 H   0  0  0  0  0
  134.8332   10.9555   73.5689 H   0  0  0  0  0
  133.4082    8.5060   70.8945 H   0  0  0  0  0
  131.3596    9.6464   70.7807 H   0  0  0  0  0
  131.3002    8.1054   73.0506 H   0  0  0  0  0
  130.8405    6.3669   71.4902 H   0  0  0  0  0
  133.6318    6.3293   72.2959 H   0  0  0  0  0
  132.6614    4.9105   73.9026 H   0  0  0  0  0
  132.8801    7.3184   75.0601 H   0  0  0  0  0
  134.3891    5.2641   74.6664 H   0  0  0  0  0
  135.5636    6.3542   73.9474 H   0  0  0  0  0
  2  1  1  0  0  0
  1  3  1  0  0  0
  1 10  1  0  0  0
 23  2  1  0  0  0
  3  4  1  0  0  0
  3  5  1  0  0  0
  5  6  1  0  0  0
  5  7  1  0  0  0
  7  8  1  0  0  0
  9  7  1  0  0  0
 10  9  1  0  0  0
  9 11  1  0  0  0
 11 12  1  0  0  0
 13 14  1  0  0  0
 13 15  1  0  0  0
 22 13  1  0  0  0
 15 16  1  0  0  0
 17 15  1  0  0  0
 17 18  1  0  0  0
 19 17  1  0  0  0
 19 20  1  0  0  0
 21 19  1  0  0  0
 21 22  1  0  0  0
 21 23  1  0  0  0
  1 24  1  0  0  0
  3 25  1  0  0  0
  4 26  1  0  0  0
  5 27  1  0  0  0
  6 28  1  0  0  0
  7 29  1  0  0  0
  8 30  1  0  0  0
  9 31  1  0  0  0
 11 32  1  0  0  0
 11 33  1  0  0  0
 12 34  1  0  0  0
 13 35  1  0  0  0
 14 36  1  0  0  0
 15 37  1  0  0  0
 16 38  1  0  0  0
 17 39  1  0  0  0
 18 40  1  0  0  0
 19 41  1  0  0  0
 20 42  1  0  0  0
 21 43  1  0  0  0
 23 44  1  0  0  0
 23 45  1  0  0  0
M  END
$$$$
