6g9s_ligand
  -I-interpret- 

 37 38  0  0  0  0  0  0  0  0999 V2000
    9.0530   37.5820   44.1620 N   0  0  0  0  0
    7.8520   37.0680   43.5260 C   0  0  0  0  0
    8.7710   36.2220   46.1240 C   0  0  0  0  0
    3.8010   39.7810   46.7610 C   0  0  0  0  0
    8.8940   37.6600   45.6080 C   0  0  0  0  0
    7.6120   38.3990   45.9310 C   0  0  0  0  0
    6.6610   38.5630   44.9980 C   0  0  0  0  0
    6.9230   38.2750   43.5530 C   0  0  0  0  0
    5.3160   39.0750   45.3670 C   0  0  0  0  0
    4.1980   39.3860   44.6100 C   0  0  0  0  0
   10.1480   37.9760   43.5030 C   0  0  0  0  0
    9.9850   35.3920   45.8690 N   0  3  0  0  0
    7.5580   39.4440   42.8870 N   0  3  0  0  0
    3.2740   39.8140   45.5060 N   0  0  0  0  0
    6.6890   40.4790   42.7480 O   0  0  0  0  0
    6.9490   41.7570   44.9000 O   0  0  0  0  0
    8.1300   42.4790   42.9370 O   0  0  0  0  0
    5.7330   42.7410   43.0710 O   0  0  0  0  0
    5.1000   39.3110   46.7000 O   0  0  0  0  0
   10.9790   38.7860   43.9050 O   0  0  0  0  0
    6.8770   41.8650   43.4220 S   0  0  0  0  0
    7.4374   36.1983   44.0357 H   0  0  0  0  0
    8.0303   36.6885   42.5199 H   0  0  0  0  0
    7.9385   35.7552   45.5976 H   0  0  0  0  0
    8.6294   36.2723   47.2036 H   0  0  0  0  0
    3.2804   40.0785   47.6713 H   0  0  0  0  0
    9.7367   38.1793   46.0643 H   0  0  0  0  0
    7.4599   38.8021   46.9322 H   0  0  0  0  0
    5.9963   38.0751   43.0150 H   0  0  0  0  0
    4.0854   39.3044   43.5289 H   0  0  0  0  0
   10.3185   37.5383   42.5194 H   0  0  0  0  0
    9.8359   34.4520   46.2358 H   0  0  0  0  0
   10.1571   35.3430   44.8648 H   0  0  0  0  0
   10.7886   35.8157   46.3327 H   0  0  0  0  0
    7.8648   39.1560   41.9578 H   0  0  0  0  0
    8.3390   39.7564   43.4639 H   0  0  0  0  0
    6.1403   41.3590   45.2304 H   0  0  0  0  0
  2  1  1  0  0  0
  5  1  1  0  0  0
  1 11  1  0  0  0
  8  2  1  0  0  0
  5  3  1  0  0  0
  3 12  1  0  0  0
  4 14  4  0  0  0
 19  4  4  0  0  0
  6  5  1  0  0  0
  7  6  2  0  0  0
  7  8  1  0  0  0
  9  7  1  0  0  0
  8 13  1  0  0  0
  9 10  4  0  0  0
  9 19  4  0  0  0
 10 14  4  0  0  0
 11 20  2  0  0  0
 13 15  1  0  0  0
 15 21  1  0  0  0
 21 16  1  0  0  0
 21 17  2  0  0  0
 21 18  2  0  0  0
  2 22  1  0  0  0
  2 23  1  0  0  0
  3 24  1  0  0  0
  3 25  1  0  0  0
  4 26  1  0  0  0
  5 27  1  0  0  0
  6 28  1  0  0  0
  8 29  1  0  0  0
 10 30  1  0  0  0
 11 31  1  0  0  0
 12 32  1  0  0  0
 12 33  1  0  0  0
 12 34  1  0  0  0
 13 35  1  0  0  0
 13 36  1  0  0  0
 16 37  1  0  0  0
M  END
$$$$
