5lo6_ligand
  -I-interpret- 

 69 72  0  0  0  0  0  0  0  0999 V2000
    1.4890    8.3780   26.6840 C   0  0  0  0  0
    0.1340    8.7010   26.4590 C   0  0  0  0  0
   -0.4820    8.2820   25.2730 C   0  0  0  0  0
    2.2320    6.4010   23.4750 C   0  0  0  0  0
   -0.8320    8.7460   28.7150 C   0  0  0  0  0
   -1.2080   10.6330   27.1890 C   0  0  0  0  0
   -1.0620   11.3410   25.8850 C   0  0  0  0  0
    0.2120   11.6930   25.4110 C   0  0  0  0  0
   -2.0820   12.1730   23.8220 C   0  0  0  0  0
   -2.2020   11.5970   25.0750 C   0  0  0  0  0
    1.4780   12.7010   23.3410 C   0  0  0  0  0
    2.9260   12.6630   23.7760 C   0  0  0  0  0
    4.7330   14.0110   25.1720 C   0  0  0  0  0
    3.8660    3.8420   20.6660 C   0  0  0  0  0
    5.8230   13.7670   24.1080 C   0  0  0  0  0
    5.0240   15.4130   25.7290 C   0  0  0  0  0
    4.9090   13.0020   26.3260 C   0  0  0  0  0
    0.2300    7.5690   24.3260 C   0  0  0  0  0
    1.5640    7.2530   24.5400 C   0  0  0  0  0
    2.1930    7.6470   25.7320 C   0  0  0  0  0
   -0.6310    9.4090   27.4180 N   0  0  0  0  0
   -1.8630   11.1510   28.0730 O   0  0  0  0  0
   -3.4450   11.3380   25.5400 O   0  0  0  0  0
   -0.8160   12.4980   23.3250 C   0  0  0  0  0
    0.3340   12.2520   24.1280 C   0  0  0  0  0
    1.0030   13.1440   22.2060 N   0  0  0  0  0
   -0.3890   13.0420   22.1370 N   0  0  0  0  0
    3.2810   13.9320   24.6000 C   0  0  0  0  0
    3.6850    6.7500   23.1160 C   0  0  0  0  0
    4.0790    5.9200   21.8810 C   0  0  0  0  0
    3.7910    4.4620   22.0000 N   0  3  0  0  0
    2.5100    4.0600   22.6300 C   0  0  0  0  0
    2.1690    4.9110   23.8610 C   0  0  0  0  0
    1.9828    8.7001   27.6008 H   0  0  0  0  0
   -1.5308    8.5198   25.0951 H   0  0  0  0  0
    1.6525    6.6244   22.5793 H   0  0  0  0  0
   -0.4419    9.3809   29.5105 H   0  0  0  0  0
   -1.8969    8.5758   28.8735 H   0  0  0  0  0
   -0.3057    7.7915   28.7191 H   0  0  0  0  0
    1.0948   11.5346   26.0305 H   0  0  0  0  0
   -2.9716   12.3726   23.2246 H   0  0  0  0  0
    3.5607   12.6270   22.8906 H   0  0  0  0  0
    3.0859   11.7816   24.3970 H   0  0  0  0  0
    3.1318    4.3077   20.0085 H   0  0  0  0  0
    4.8656    3.9854   20.2558 H   0  0  0  0  0
    3.6558    2.7758   20.7500 H   0  0  0  0  0
    5.7501   14.5304   23.3334 H   0  0  0  0  0
    6.8053   13.8169   24.5779 H   0  0  0  0  0
    5.6811   12.7819   23.6636 H   0  0  0  0  0
    6.0226   15.4290   26.1656 H   0  0  0  0  0
    4.9675   16.1425   24.9211 H   0  0  0  0  0
    4.2876   15.6586   26.4942 H   0  0  0  0  0
    4.8186   11.9878   25.9371 H   0  0  0  0  0
    5.8933   13.1338   26.7752 H   0  0  0  0  0
    4.1390   13.1741   27.0780 H   0  0  0  0  0
   -0.2601    7.2530   23.4051 H   0  0  0  0  0
    3.2343    7.3798   25.9118 H   0  0  0  0  0
   -4.0911   11.5680   24.8682 H   0  0  0  0  0
    2.6169   13.9253   25.4643 H   0  0  0  0  0
    3.1812   14.7737   23.9146 H   0  0  0  0  0
    4.3461    6.5207   23.9518 H   0  0  0  0  0
    3.7755    7.8146   22.9002 H   0  0  0  0  0
    5.1570    6.0236   21.7571 H   0  0  0  0  0
    3.4906    6.2945   21.0434 H   0  0  0  0  0
    4.5066    4.1318   22.6475 H   0  0  0  0  0
    2.6045    3.0233   22.9531 H   0  0  0  0  0
    1.7162    4.1969   21.8957 H   0  0  0  0  0
    1.1668    4.6646   24.2116 H   0  0  0  0  0
    2.8845    4.7075   24.6577 H   0  0  0  0  0
  1  2  4  0  0  0
 20  1  4  0  0  0
  3  2  4  0  0  0
  2 21  1  0  0  0
 18  3  4  0  0  0
  4 19  1  0  0  0
 29  4  1  0  0  0
  4 33  1  0  0  0
 21  5  1  0  0  0
  6  7  1  0  0  0
 21  6  1  0  0  0
  6 22  2  0  0  0
  7  8  4  0  0  0
  7 10  4  0  0  0
  8 25  4  0  0  0
 10  9  4  0  0  0
  9 24  4  0  0  0
 10 23  1  0  0  0
 11 12  1  0  0  0
 25 11  4  0  0  0
 11 26  4  0  0  0
 12 28  1  0  0  0
 13 15  1  0  0  0
 13 16  1  0  0  0
 13 17  1  0  0  0
 28 13  1  0  0  0
 31 14  1  0  0  0
 19 18  4  0  0  0
 19 20  4  0  0  0
 25 24  4  0  0  0
 24 27  4  0  0  0
 27 26  4  0  0  0
 30 29  1  0  0  0
 30 31  1  0  0  0
 31 32  1  0  0  0
 32 33  1  0  0  0
  1 34  1  0  0  0
  3 35  1  0  0  0
  4 36  1  0  0  0
  5 37  1  0  0  0
  5 38  1  0  0  0
  5 39  1  0  0  0
  8 40  1  0  0  0
  9 41  1  0  0  0
 12 42  1  0  0  0
 12 43  1  0  0  0
 14 44  1  0  0  0
 14 45  1  0  0  0
 14 46  1  0  0  0
 15 47  1  0  0  0
 15 48  1  0  0  0
 15 49  1  0  0  0
 16 50  1  0  0  0
 16 51  1  0  0  0
 16 52  1  0  0  0
 17 53  1  0  0  0
 17 54  1  0  0  0
 17 55  1  0  0  0
 18 56  1  0  0  0
 20 57  1  0  0  0
 23 58  1  0  0  0
 28 59  1  0  0  0
 28 60  1  0  0  0
 29 61  1  0  0  0
 29 62  1  0  0  0
 30 63  1  0  0  0
 30 64  1  0  0  0
 31 65  1  0  0  0
 32 66  1  0  0  0
 32 67  1  0  0  0
 33 68  1  0  0  0
 33 69  1  0  0  0
M  END
$$$$
