5dyo_ligand
  -I-interpret- 

 37 40  0  0  0  0  0  0  0  0999 V2000
   24.9750   28.4970   29.5360 C   0  0  0  0  0
   24.7760   27.5580   30.3110 O   0  0  0  0  0
   25.6870   29.6890   29.9570 C   0  0  0  0  0
   25.8450   30.7370   29.1050 C   0  0  0  0  0
   26.4990   31.8390   29.5960 O   0  0  0  0  0
   26.6990   32.9560   28.8060 C   0  0  0  0  0
   27.3660   34.0040   29.4070 C   0  0  0  0  0
   27.5940   35.1590   28.6740 C   0  0  0  0  0
   28.3380   36.1440   29.2550 O   0  0  0  0  0
   27.1170   35.2750   27.3760 C   0  0  0  0  0
   26.4540   34.2100   26.7840 C   0  0  0  0  0
   26.2490   33.0160   27.4780 C   0  0  0  0  0
   25.5700   31.8210   26.9150 C   0  0  0  0  0
   25.3580   30.7140   27.7450 C   0  0  0  0  0
   24.6620   29.5280   27.3300 C   0  0  0  0  0
   24.4650   28.4800   28.1630 C   0  0  0  0  0
   25.2040   31.7730   25.4540 C   0  0  0  0  0
   24.0510   32.4520   25.0500 C   0  0  0  0  0
   23.5120   32.2170   23.7900 C   0  0  0  0  0
   24.1300   31.3390   22.9120 C   0  0  0  0  0
   25.3100   30.7030   23.2720 C   0  0  0  0  0
   25.8630   30.9210   24.5380 C   0  0  0  0  0
   27.1400   30.2460   24.9000 C   0  0  0  0  0
   28.1760   30.8810   25.0750 O   0  0  0  0  0
   27.0450   28.9560   25.0890 O   0  0  0  0  0
   26.0987   29.7449   30.9647 H   0  0  0  0  0
   27.7075   33.9254   30.4391 H   0  0  0  0  0
   28.4202   36.8823   28.6469 H   0  0  0  0  0
   27.2632   36.2023   26.8221 H   0  0  0  0  0
   26.0877   34.3067   25.7620 H   0  0  0  0  0
   24.2800   29.4703   26.3107 H   0  0  0  0  0
   23.9172   27.6079   27.8060 H   0  0  0  0  0
   23.5746   33.1654   25.7224 H   0  0  0  0  0
   22.5965   32.7268   23.4899 H   0  0  0  0  0
   23.6869   31.1476   21.9347 H   0  0  0  0  0
   25.8054   30.0340   22.5684 H   0  0  0  0  0
   26.1495   28.6702   24.8939 H   0  0  0  0  0
  1  2  2  0  0  0
  1  3  1  0  0  0
  1 16  1  0  0  0
  3  4  2  0  0  0
  4  5  1  0  0  0
  4 14  1  0  0  0
  5  6  1  0  0  0
  6  7  4  0  0  0
  6 12  4  0  0  0
  7  8  4  0  0  0
  8  9  1  0  0  0
  8 10  4  0  0  0
 10 11  4  0  0  0
 11 12  4  0  0  0
 12 13  1  0  0  0
 13 14  2  0  0  0
 13 17  1  0  0  0
 14 15  1  0  0  0
 15 16  2  0  0  0
 17 18  4  0  0  0
 17 22  4  0  0  0
 18 19  4  0  0  0
 19 20  4  0  0  0
 20 21  4  0  0  0
 21 22  4  0  0  0
 22 23  1  0  0  0
 23 24  2  0  0  0
 23 25  1  0  0  0
  3 26  1  0  0  0
  7 27  1  0  0  0
  9 28  1  0  0  0
 10 29  1  0  0  0
 11 30  1  0  0  0
 15 31  1  0  0  0
 16 32  1  0  0  0
 18 33  1  0  0  0
 19 34  1  0  0  0
 20 35  1  0  0  0
 21 36  1  0  0  0
 25 37  1  0  0  0
M  END
$$$$
