4cwf_ligand
  -I-interpret- 

 30 32  0  0  0  0  0  0  0  0999 V2000
    6.2510   11.9160   24.0550 C   0  0  0  0  0
    5.2920   11.0910   23.5960 N   0  0  0  0  0
    7.4570   11.3580   23.7830 N   0  0  0  0  0
    5.8160    9.9340   22.9920 N   0  0  0  0  0
    3.9810   11.4080   23.7520 C   0  0  0  0  0
    3.6530   12.5890   24.3690 N   0  0  0  0  0
    7.1400   10.1890   23.1530 C   0  0  0  0  0
    5.9740   13.1280   24.6900 C   0  0  0  0  0
    4.6180   13.4510   24.8380 C   0  0  0  0  0
    8.1050    9.3410   22.7130 N   0  0  0  0  0
    6.9820   13.9860   25.1600 C   0  0  0  0  0
    2.8780   10.4870   23.2620 C   0  0  0  0  0
    4.2790   14.6550   25.4720 C   0  0  0  0  0
    2.7740    9.2490   24.1590 C   0  0  0  0  0
    6.6290   15.1730   25.7870 C   0  0  0  0  0
    5.2870   15.5030   25.9390 C   0  0  0  0  0
    2.2950    9.5740   25.5620 C   0  0  0  0  0
    9.0888    9.5724   22.8508 H   0  0  0  0  0
    7.8461    8.4726   22.2447 H   0  0  0  0  0
    8.0320   13.7220   25.0335 H   0  0  0  0  0
    3.1080   10.1690   22.2451 H   0  0  0  0  0
    1.9301   11.0244   23.2890 H   0  0  0  0  0
    3.2318   14.9288   25.6003 H   0  0  0  0  0
    3.7694    8.8123   24.2401 H   0  0  0  0  0
    2.0486    8.5716   23.7084 H   0  0  0  0  0
    7.4023   15.8449   26.1594 H   0  0  0  0  0
    5.0168   16.4378   26.4301 H   0  0  0  0  0
    2.9932   10.2670   26.0315 H   0  0  0  0  0
    1.3068   10.0311   25.5104 H   0  0  0  0  0
    2.2422    8.6565   26.1482 H   0  0  0  0  0
  1  2  4  0  0  0
  1  3  4  0  0  0
  1  8  4  0  0  0
  2  4  4  0  0  0
  2  5  4  0  0  0
  3  7  4  0  0  0
  4  7  4  0  0  0
  5  6  4  0  0  0
  5 12  1  0  0  0
  6  9  4  0  0  0
  7 10  1  0  0  0
  8  9  4  0  0  0
  8 11  4  0  0  0
  9 13  4  0  0  0
 11 15  4  0  0  0
 12 14  1  0  0  0
 13 16  4  0  0  0
 14 17  1  0  0  0
 15 16  4  0  0  0
 10 18  1  0  0  0
 10 19  1  0  0  0
 11 20  1  0  0  0
 12 21  1  0  0  0
 12 22  1  0  0  0
 13 23  1  0  0  0
 14 24  1  0  0  0
 14 25  1  0  0  0
 15 26  1  0  0  0
 16 27  1  0  0  0
 17 28  1  0  0  0
 17 29  1  0  0  0
 17 30  1  0  0  0
M  END
$$$$
