1a42_ligand
  -I-interpret- 

 45 46  0  0  0  0  0  0  0  0999 V2000
   -5.4450    2.0670   16.0490 C   0  0  0  0  0
   -3.3940    5.2050   13.0190 C   0  0  0  0  0
   -3.0550    3.8670   13.7100 C   0  0  0  0  0
   -3.3490    7.4080   13.9350 C   0  0  0  0  0
   -2.0760    7.4260   14.7640 C   0  0  0  0  0
   -1.9150    9.7690   15.0590 C   0  0  0  0  0
   -0.8780   10.9030   15.1780 C   0  0  0  0  0
   -5.4250    0.9940   18.2870 O   0  0  0  0  0
   -7.3980    0.8170   16.9950 O   0  0  0  0  0
   -5.4860   -0.5450   16.4610 N   0  0  0  0  0
   -5.9660    0.7500   16.9970 S   0  0  0  0  0
   -4.3210    2.1520   15.2920 C   0  0  0  0  0
   -4.1650    3.3450   14.6420 C   0  0  0  0  0
   -5.2160    4.2000   14.9310 C   0  0  0  0  0
   -6.3790    3.5010   15.9790 S   0  0  0  0  0
   -5.2950    5.8270   14.3680 S   0  0  0  0  0
   -6.1600    5.8730   13.2440 O   0  0  0  0  0
   -5.8580    6.6800   15.3730 O   0  0  0  0  0
   -3.8480    6.0650   14.0900 N   0  0  0  0  0
   -2.7760    2.8950   12.6490 N   0  3  0  0  0
   -1.3070    8.5960   14.5330 O   0  0  0  0  0
   -1.5640    3.0110   11.8410 C   0  0  0  0  0
   -1.4630    1.9270   10.7540 C   0  0  0  0  0
   -4.1522    5.0832   12.2454 H   0  0  0  0  0
   -2.5332    5.6237   12.4977 H   0  0  0  0  0
   -2.1942    4.0222   14.3604 H   0  0  0  0  0
   -4.0684    8.1566   14.2669 H   0  0  0  0  0
   -3.1655    7.6623   12.8911 H   0  0  0  0  0
   -1.4742    6.5618   14.4828 H   0  0  0  0  0
   -2.3552    7.4044   15.8174 H   0  0  0  0  0
   -2.3158    9.5485   16.0484 H   0  0  0  0  0
   -2.7137   10.0866   14.3886 H   0  0  0  0  0
   -0.0737   10.5897   15.8437 H   0  0  0  0  0
   -0.4696   11.1251   14.1921 H   0  0  0  0  0
   -1.3598   11.7933   15.5821 H   0  0  0  0  0
   -4.8519   -1.1221   17.0135 H   0  0  0  0  0
   -5.7897   -0.8596   15.5395 H   0  0  0  0  0
   -3.6024    1.3366   15.2092 H   0  0  0  0  0
   -3.5370    3.0242   11.9822 H   0  0  0  0  0
   -2.6669    2.0085   13.1415 H   0  0  0  0  0
   -0.7082    2.8961   12.5062 H   0  0  0  0  0
   -1.5873    3.9804   11.3432 H   0  0  0  0  0
   -1.4570    0.9432   11.2232 H   0  0  0  0  0
   -2.3186    2.0059   10.0834 H   0  0  0  0  0
   -0.5420    2.0666   10.1880 H   0  0  0  0  0
  1 15  4  0  0  0
  1 12  4  0  0  0
  1 11  1  0  0  0
 11  8  2  0  0  0
 11  9  2  0  0  0
 11 10  1  0  0  0
 12 13  4  0  0  0
 13 14  4  0  0  0
 13  3  1  0  0  0
  3 20  1  0  0  0
  3  2  1  0  0  0
  2 19  1  0  0  0
 19  4  1  0  0  0
 19 16  1  0  0  0
 16 18  2  0  0  0
 16 17  2  0  0  0
 16 14  1  0  0  0
 14 15  4  0  0  0
  4  5  1  0  0  0
  5 21  1  0  0  0
 21  6  1  0  0  0
  6  7  1  0  0  0
 20 22  1  0  0  0
 22 23  1  0  0  0
  2 24  1  0  0  0
  2 25  1  0  0  0
  3 26  1  0  0  0
  4 27  1  0  0  0
  4 28  1  0  0  0
  5 29  1  0  0  0
  5 30  1  0  0  0
  6 31  1  0  0  0
  6 32  1  0  0  0
  7 33  1  0  0  0
  7 34  1  0  0  0
  7 35  1  0  0  0
 10 36  1  0  0  0
 10 37  1  0  0  0
 12 38  1  0  0  0
 20 39  1  0  0  0
 20 40  1  0  0  0
 22 41  1  0  0  0
 22 42  1  0  0  0
 23 43  1  0  0  0
 23 44  1  0  0  0
 23 45  1  0  0  0
M  END
$$$$
