1ke7_ligand
  -I-interpret- 

 43 47  0  0  0  0  0  0  0  0999 V2000
  -10.9100   52.3530   11.7630 O   0  0  0  0  0
  -10.1870   51.8690   12.6200 C   0  0  0  0  0
   -9.6420   52.5270   13.6990 N   0  0  0  0  0
   -8.8130   51.6860   14.3930 C   0  0  0  0  0
   -7.9970   51.9080   15.6130 C   0  0  0  0  0
   -7.1340   50.7930   16.1090 C   0  0  0  0  0
   -7.0150   49.4940   15.3550 C   0  0  0  0  0
   -6.1390   48.4270   15.8200 C   0  0  0  0  0
   -5.8340   48.2230   17.1420 O   0  0  0  0  0
   -5.1820   47.0170   17.1810 C   0  0  0  0  0
   -4.8760   46.5750   15.9410 N   0  0  0  0  0
   -5.4640   47.4140   15.0610 C   0  0  0  0  0
   -7.8730   49.3310   14.1390 C   0  0  0  0  0
   -8.7920   50.4060   13.7060 C   0  0  0  0  0
   -9.7530   50.4380   12.6230 C   0  0  0  0  0
  -10.1730   49.4120   11.8460 C   0  0  0  0  0
  -10.9420   49.3820   10.5820 N   0  0  0  0  0
  -11.1170   48.2830    9.7730 C   0  0  0  0  0
  -10.0100   47.3440    9.3940 C   0  0  0  0  0
  -10.2970   46.1970    8.5330 C   0  0  0  0  0
   -9.3360   45.1630    8.0910 C   0  0  0  0  0
   -9.9210   44.4500    6.5620 S   0  0  0  0  0
   -9.6840   43.0320    6.5110 O   0  0  0  0  0
   -9.4570   45.3080    5.5090 O   0  0  0  0  0
  -11.6310   44.8710    6.9850 C   0  0  0  0  0
  -11.6380   45.9950    7.9680 C   0  0  0  0  0
  -12.7620   46.8820    8.3510 C   0  0  0  0  0
  -12.4880   48.0360    9.2410 C   0  0  0  0  0
   -9.8282   53.4990   13.9458 H   0  0  0  0  0
   -8.0265   52.8639   16.1360 H   0  0  0  0  0
   -6.5780   50.9226   17.0375 H   0  0  0  0  0
   -4.9404   46.4811   18.0989 H   0  0  0  0  0
   -5.4316   47.3358   13.9743 H   0  0  0  0  0
   -7.8196   48.4064   13.5642 H   0  0  0  0  0
   -9.8934   48.4271   12.2201 H   0  0  0  0  0
  -11.3811   50.2531   10.2842 H   0  0  0  0  0
   -8.9972   47.5157    9.7584 H   0  0  0  0  0
   -9.2520   44.3872    8.8521 H   0  0  0  0  0
   -8.3547   45.6121    7.9376 H   0  0  0  0  0
  -12.1215   44.0018    7.4233 H   0  0  0  0  0
  -12.1645   45.1730    6.0838 H   0  0  0  0  0
  -13.7707   46.6897    7.9854 H   0  0  0  0  0
  -13.2993   48.7125    9.5098 H   0  0  0  0  0
  1  2  2  0  0  0
  2 15  1  0  0  0
  2  3  1  0  0  0
  3  4  1  0  0  0
  4 14  4  0  0  0
  4  5  4  0  0  0
  5  6  4  0  0  0
  6  7  4  0  0  0
  7 13  4  0  0  0
  7  8  1  0  0  0
  8 12  4  0  0  0
  8  9  4  0  0  0
  9 10  4  0  0  0
 10 11  4  0  0  0
 11 12  4  0  0  0
 13 14  4  0  0  0
 14 15  1  0  0  0
 15 16  2  0  0  0
 16 17  1  0  0  0
 17 18  1  0  0  0
 18 28  4  0  0  0
 18 19  4  0  0  0
 19 20  4  0  0  0
 20 26  4  0  0  0
 20 21  1  0  0  0
 21 22  1  0  0  0
 22 25  1  0  0  0
 22 24  2  0  0  0
 22 23  2  0  0  0
 25 26  1  0  0  0
 26 27  4  0  0  0
 27 28  4  0  0  0
  3 29  1  0  0  0
  5 30  1  0  0  0
  6 31  1  0  0  0
 10 32  1  0  0  0
 12 33  1  0  0  0
 13 34  1  0  0  0
 16 35  1  0  0  0
 17 36  1  0  0  0
 19 37  1  0  0  0
 21 38  1  0  0  0
 21 39  1  0  0  0
 25 40  1  0  0  0
 25 41  1  0  0  0
 27 42  1  0  0  0
 28 43  1  0  0  0
M  END
$$$$
