1gnn_ligand
  -I-interpret- 

 94 94  0  0  0  0  0  0  0  0999 V2000
   -9.7870   15.5500   31.9810 C   0  0  0  0  0
   -9.8910   15.3150   30.4740 C   0  0  0  0  0
  -10.8230   16.2040   28.3790 C   0  0  0  0  0
  -12.3130   16.0210   28.0540 C   0  0  0  0  0
  -12.7500   14.6950   28.6840 C   0  0  0  0  0
  -14.2430   14.7380   29.0180 C   0  0  0  0  0
  -14.6920   13.3870   29.5710 C   0  0  0  0  0
  -14.4220   12.2690   28.5580 C   0  0  0  0  0
  -12.9350   12.2180   28.1880 C   0  0  0  0  0
  -12.4610   13.5790   27.6630 C   0  0  0  0  0
  -10.3670   17.5300   27.7370 C   0  0  0  0  0
   -8.8930   17.8210   27.9520 C   0  0  0  0  0
   -7.9830   18.3160   26.8370 C   0  0  0  0  0
   -6.5880   18.5940   27.3800 C   0  0  0  0  0
   -5.8750   17.3260   27.8570 C   0  0  0  0  0
   -5.6610   19.2260   26.3410 C   0  0  0  0  0
   -7.8460   17.2620   25.7430 C   0  0  0  0  0
   -7.6690   16.9410   23.3400 C   0  0  0  0  0
   -9.0130   16.7130   22.6530 C   0  0  0  0  0
   -8.9090   15.7900   21.4390 C   0  0  0  0  0
   -8.7030   16.5570   20.1350 C   0  0  0  0  0
   -6.7030   17.6570   22.4020 C   0  0  0  0  0
   -4.5390   17.4790   21.2780 C   0  0  0  0  0
   -4.5400   16.7320   19.9440 C   0  0  0  0  0
   -3.1860   17.2780   21.9600 C   0  0  0  0  0
   -2.1630   18.3500   21.5840 C   0  0  0  0  0
   -1.0180   18.4580   22.5920 C   0  0  0  0  0
    0.0430   20.3510   23.7960 C   0  0  0  0  0
  -10.6160   16.2220   29.8360 N   0  0  0  0  0
   -7.8420   17.7610   24.5340 N   0  0  0  0  0
   -7.9470   16.0480   19.1810 N   0  0  0  0  0
   -5.6110   16.9720   22.1400 N   0  0  0  0  0
   -5.2640   17.1750   18.9090 N   0  0  0  0  0
   -1.0510   19.7070   23.3660 N   0  0  0  0  0
    1.2260   19.7230   23.8750 N   0  0  0  0  0
    0.0580   21.6360   24.1740 N   0  0  0  0  0
   -9.3170   14.3540   29.9400 O   0  0  0  0  0
  -11.1130   18.6060   28.2800 O   0  0  0  0  0
   -7.7470   16.0580   26.0180 O   0  0  0  0  0
   -9.2440   17.6510   19.9770 O   0  0  0  0  0
   -6.9620   18.7880   21.9640 O   0  0  0  0  0
   -3.8700   15.7010   19.7910 O   0  0  0  0  0
  -10.1877   14.6857   32.5107 H   0  0  0  0  0
   -8.7414   15.6923   32.2539 H   0  0  0  0  0
  -10.3580   16.4389   32.2491 H   0  0  0  0  0
  -10.2362   15.3762   27.9809 H   0  0  0  0  0
  -12.4734   16.0068   26.9760 H   0  0  0  0  0
  -12.8990   16.8489   28.4531 H   0  0  0  0  0
  -12.2060   14.5120   29.6107 H   0  0  0  0  0
  -14.8074   14.9610   28.1125 H   0  0  0  0  0
  -14.4215   15.5098   29.7667 H   0  0  0  0  0
  -15.7623   13.4276   29.7734 H   0  0  0  0  0
  -14.1342   13.1773   30.4837 H   0  0  0  0  0
  -15.0024   12.4638   27.6562 H   0  0  0  0  0
  -14.7068   11.3153   29.0025 H   0  0  0  0  0
  -12.7909   11.4697   27.4087 H   0  0  0  0  0
  -12.3588   11.9629   29.0774 H   0  0  0  0  0
  -11.3857   13.5323   27.4908 H   0  0  0  0  0
  -12.9949   13.8029   26.7395 H   0  0  0  0  0
  -10.5369   17.4263   26.6653 H   0  0  0  0  0
   -8.4778   16.8442   28.2000 H   0  0  0  0  0
   -8.9014   18.6523   28.6570 H   0  0  0  0  0
   -8.4279   19.2247   26.4315 H   0  0  0  0  0
   -6.7663   19.2782   28.2096 H   0  0  0  0  0
   -6.4568   16.8611   28.6529 H   0  0  0  0  0
   -5.7766   16.6306   27.0234 H   0  0  0  0  0
   -4.8857   17.5866   28.2331 H   0  0  0  0  0
   -5.5589   18.5529   25.4898 H   0  0  0  0  0
   -6.0836   20.1739   26.0077 H   0  0  0  0  0
   -4.6820   19.4002   26.7875 H   0  0  0  0  0
   -7.2650   15.9660   23.6125 H   0  0  0  0  0
   -9.3791   17.6796   22.3069 H   0  0  0  0  0
   -9.6807   16.2418   23.3742 H   0  0  0  0  0
   -9.8438   15.2353   21.3580 H   0  0  0  0  0
   -8.0471   15.1390   21.5852 H   0  0  0  0  0
   -4.7076   18.5411   21.1002 H   0  0  0  0  0
   -2.7913   16.3145   21.6376 H   0  0  0  0  0
   -3.3452   17.3338   23.0369 H   0  0  0  0  0
   -2.6790   19.3099   21.5616 H   0  0  0  0  0
   -1.7337   18.0775   20.6199 H   0  0  0  0  0
   -0.0815   18.4371   22.0346 H   0  0  0  0  0
   -1.1139   17.6295   23.2938 H   0  0  0  0  0
  -11.0509   16.9673   30.3798 H   0  0  0  0  0
   -7.9652   18.7672   24.4211 H   0  0  0  0  0
   -7.8100   16.5614   18.3103 H   0  0  0  0  0
   -7.4996   15.1411   19.3141 H   0  0  0  0  0
   -5.5053   16.0464   22.5553 H   0  0  0  0  0
   -5.2540   16.6666   18.0248 H   0  0  0  0  0
   -5.8257   18.0210   19.0045 H   0  0  0  0  0
   -1.9618   20.1081   23.5895 H   0  0  0  0  0
    2.0497   20.2265   24.2043 H   0  0  0  0  0
    1.3017   18.7421   23.6058 H   0  0  0  0  0
    0.9277   22.0641   24.4915 H   0  0  0  0  0
  -12.0501   18.4402   28.1535 H   0  0  0  0  0
  2  1  1  0  0  0
 29  2  1  0  0  0
  2 37  2  0  0  0
  3  4  1  0  0  0
 11  3  1  0  0  0
  3 29  1  0  0  0
  4  5  1  0  0  0
  5  6  1  0  0  0
  5 10  1  0  0  0
  6  7  1  0  0  0
  7  8  1  0  0  0
  9  8  1  0  0  0
 10  9  1  0  0  0
 12 11  1  0  0  0
 11 38  1  0  0  0
 13 12  1  0  0  0
 13 14  1  0  0  0
 17 13  1  0  0  0
 14 15  1  0  0  0
 14 16  1  0  0  0
 30 17  1  0  0  0
 17 39  2  0  0  0
 18 19  1  0  0  0
 22 18  1  0  0  0
 18 30  1  0  0  0
 19 20  1  0  0  0
 20 21  1  0  0  0
 21 31  1  0  0  0
 21 40  2  0  0  0
 32 22  1  0  0  0
 22 41  2  0  0  0
 23 24  1  0  0  0
 25 23  1  0  0  0
 23 32  1  0  0  0
 24 33  1  0  0  0
 24 42  2  0  0  0
 26 25  1  0  0  0
 27 26  1  0  0  0
 34 27  1  0  0  0
 28 36  2  0  0  0
 28 35  1  0  0  0
 34 28  1  0  0  0
  1 43  1  0  0  0
  1 44  1  0  0  0
  1 45  1  0  0  0
  3 46  1  0  0  0
  4 47  1  0  0  0
  4 48  1  0  0  0
  5 49  1  0  0  0
  6 50  1  0  0  0
  6 51  1  0  0  0
  7 52  1  0  0  0
  7 53  1  0  0  0
  8 54  1  0  0  0
  8 55  1  0  0  0
  9 56  1  0  0  0
  9 57  1  0  0  0
 10 58  1  0  0  0
 10 59  1  0  0  0
 11 60  1  0  0  0
 12 61  1  0  0  0
 12 62  1  0  0  0
 13 63  1  0  0  0
 14 64  1  0  0  0
 15 65  1  0  0  0
 15 66  1  0  0  0
 15 67  1  0  0  0
 16 68  1  0  0  0
 16 69  1  0  0  0
 16 70  1  0  0  0
 18 71  1  0  0  0
 19 72  1  0  0  0
 19 73  1  0  0  0
 20 74  1  0  0  0
 20 75  1  0  0  0
 23 76  1  0  0  0
 25 77  1  0  0  0
 25 78  1  0  0  0
 26 79  1  0  0  0
 26 80  1  0  0  0
 27 81  1  0  0  0
 27 82  1  0  0  0
 29 83  1  0  0  0
 30 84  1  0  0  0
 31 85  1  0  0  0
 31 86  1  0  0  0
 32 87  1  0  0  0
 33 88  1  0  0  0
 33 89  1  0  0  0
 34 90  1  0  0  0
 35 91  1  0  0  0
 35 92  1  0  0  0
 36 93  1  0  0  0
 38 94  1  0  0  0
M  END
$$$$
