2xcn_ligand
  -I-interpret- 

 83 86  0  0  0  0  0  0  0  0999 V2000
    6.5810   33.6180   11.8170 O   0  0  0  0  0
    7.6760   33.5790   11.3440 C   0  0  0  0  0
    8.5120   34.6260   11.3650 O   0  0  0  0  0
    8.2110   35.8660   12.0330 C   0  0  0  0  0
    9.4420   36.7590   11.9570 C   0  0  0  0  0
   10.2020   36.5640   13.2730 C   0  0  0  0  0
    9.1540   36.1830   14.3190 C   0  0  0  0  0
    7.9260   35.6890   13.5370 C   0  0  0  0  0
    8.1920   32.4690   10.7530 N   0  0  0  0  0
    7.3730   31.2430   10.6820 C   0  0  0  0  0
    7.0800   30.7510    9.2100 C   0  0  0  0  0
    6.8940   29.2270    9.0000 C   0  0  0  0  0
    5.8030   31.4870    8.7250 C   0  0  0  0  0
    8.2180   31.1430    8.2690 C   0  0  0  0  0
    8.0420   30.2140   11.6670 C   0  0  0  0  0
    9.2590   30.0310   11.7230 O   0  0  0  0  0
    7.1650   29.5420   12.4670 N   0  0  0  0  0
    7.5670   28.5670   13.5010 C   0  0  0  0  0
    8.1400   27.2510   12.9610 C   0  0  0  0  0
    8.7130   26.4180   13.8770 N   0  0  0  0  0
    9.2880   25.1240   13.4790 C   0  0  0  0  0
   10.8240   25.1660   13.2120 C   0  0  0  0  0
   11.1980   26.4370   12.4030 C   0  0  0  0  0
   10.8740   26.2110   11.0350 O   0  0  0  0  0
    8.9780   23.9860   14.5500 B   0  0  0  0  0
    7.7440   23.4990   14.7180 O   0  0  0  0  0
    9.7250   22.7130   14.1490 O   0  0  0  0  0
    8.0590   27.0200   11.7660 O   0  0  0  0  0
    5.7220   29.7600   12.4040 C   0  0  0  0  0
    5.3280   29.4510   13.8420 C   0  0  0  0  0
    6.2260   28.2290   14.1550 C   0  0  0  0  0
    5.7350   30.5990   14.5540 O   0  0  0  0  0
    5.1320   30.8090   15.7940 C   0  0  0  0  0
    4.1120   30.0100   16.2530 N   0  0  0  0  0
    3.6000   30.1900   17.5040 C   0  0  0  0  0
    4.0690   31.1860   18.3780 C   0  0  0  0  0
    5.1090   32.0310   17.9360 C   0  0  0  0  0
    5.6490   31.8450   16.6300 C   0  0  0  0  0
    5.6050   33.0370   18.7910 C   0  0  0  0  0
    6.6400   33.8630   18.3330 C   0  0  0  0  0
    7.1710   33.6880   17.0380 C   0  0  0  0  0
    6.6950   32.6860   16.1800 C   0  0  0  0  0
    7.3290   36.2785   11.5432 H   0  0  0  0  0
    9.1594   37.8028   11.8203 H   0  0  0  0  0
   10.0651   36.4932   11.1031 H   0  0  0  0  0
   10.7306   37.4731   13.5597 H   0  0  0  0  0
   10.9612   35.7878   13.1768 H   0  0  0  0  0
    8.9010   37.0352   14.9498 H   0  0  0  0  0
    9.5305   35.4095   14.9883 H   0  0  0  0  0
    7.7355   34.6396   13.7617 H   0  0  0  0  0
    7.0442   36.2630   13.8217 H   0  0  0  0  0
    9.1344   32.4831   10.3630 H   0  0  0  0  0
    6.3495   31.4167   11.0143 H   0  0  0  0  0
    7.8003   28.7058    9.3083 H   0  0  0  0  0
    6.0519   28.8792    9.5983 H   0  0  0  0  0
    6.6994   29.0278    7.9462 H   0  0  0  0  0
    4.9708   31.2411    9.3846 H   0  0  0  0  0
    5.9765   32.5630    8.7426 H   0  0  0  0  0
    5.5678   31.1722    7.7083 H   0  0  0  0  0
    8.3249   32.2277    8.2624 H   0  0  0  0  0
    9.1462   30.6872    8.6138 H   0  0  0  0  0
    7.9919   30.7927    7.2619 H   0  0  0  0  0
    8.3492   28.9898   14.1314 H   0  0  0  0  0
    8.7433   26.6981   14.8573 H   0  0  0  0  0
    8.7988   24.8884   12.5339 H   0  0  0  0  0
   11.1090   24.2837   12.6389 H   0  0  0  0  0
   11.3499   25.1852   14.1665 H   0  0  0  0  0
   12.2634   26.6435   12.5046 H   0  0  0  0  0
   10.6432   27.2959   12.7806 H   0  0  0  0  0
   11.1000   26.9896   10.5209 H   0  0  0  0  0
    7.7571   22.8264   15.4028 H   0  0  0  0  0
    9.5435   22.0215   14.7897 H   0  0  0  0  0
    5.2118   29.1461   11.6617 H   0  0  0  0  0
    5.4375   30.7577   12.0699 H   0  0  0  0  0
    4.2816   29.2399   14.0626 H   0  0  0  0  0
    6.3244   28.0562   15.2267 H   0  0  0  0  0
    5.8042   27.3007   13.7696 H   0  0  0  0  0
    2.7953   29.5357   17.8395 H   0  0  0  0  0
    3.6397   31.3028   19.3731 H   0  0  0  0  0
    5.1905   33.1696   19.7904 H   0  0  0  0  0
    7.0368   34.6447   18.9807 H   0  0  0  0  0
    7.9695   34.3466   16.6964 H   0  0  0  0  0
    7.1223   32.5572   15.1856 H   0  0  0  0  0
  1  2  2  0  0  0
  2  3  1  0  0  0
  2  9  1  0  0  0
  3  4  1  0  0  0
  4  5  1  0  0  0
  4  8  1  0  0  0
  5  6  1  0  0  0
  6  7  1  0  0  0
  7  8  1  0  0  0
  9 10  1  0  0  0
 10 11  1  0  0  0
 10 15  1  0  0  0
 11 12  1  0  0  0
 11 13  1  0  0  0
 11 14  1  0  0  0
 15 16  2  0  0  0
 15 17  1  0  0  0
 17 18  1  0  0  0
 17 29  1  0  0  0
 18 19  1  0  0  0
 18 31  1  0  0  0
 19 20  1  0  0  0
 19 28  2  0  0  0
 20 21  1  0  0  0
 21 22  1  0  0  0
 21 25  1  0  0  0
 22 23  1  0  0  0
 23 24  1  0  0  0
 25 26  1  0  0  0
 25 27  1  0  0  0
 29 30  1  0  0  0
 30 31  1  0  0  0
 30 32  1  0  0  0
 32 33  1  0  0  0
 33 34  4  0  0  0
 33 38  4  0  0  0
 34 35  4  0  0  0
 35 36  4  0  0  0
 36 37  4  0  0  0
 37 38  4  0  0  0
 37 39  4  0  0  0
 38 42  4  0  0  0
 39 40  4  0  0  0
 40 41  4  0  0  0
 41 42  4  0  0  0
  4 43  1  0  0  0
  5 44  1  0  0  0
  5 45  1  0  0  0
  6 46  1  0  0  0
  6 47  1  0  0  0
  7 48  1  0  0  0
  7 49  1  0  0  0
  8 50  1  0  0  0
  8 51  1  0  0  0
  9 52  1  0  0  0
 10 53  1  0  0  0
 12 54  1  0  0  0
 12 55  1  0  0  0
 12 56  1  0  0  0
 13 57  1  0  0  0
 13 58  1  0  0  0
 13 59  1  0  0  0
 14 60  1  0  0  0
 14 61  1  0  0  0
 14 62  1  0  0  0
 18 63  1  0  0  0
 20 64  1  0  0  0
 21 65  1  0  0  0
 22 66  1  0  0  0
 22 67  1  0  0  0
 23 68  1  0  0  0
 23 69  1  0  0  0
 24 70  1  0  0  0
 26 71  1  0  0  0
 27 72  1  0  0  0
 29 73  1  0  0  0
 29 74  1  0  0  0
 30 75  1  0  0  0
 31 76  1  0  0  0
 31 77  1  0  0  0
 35 78  1  0  0  0
 36 79  1  0  0  0
 39 80  1  0  0  0
 40 81  1  0  0  0
 41 82  1  0  0  0
 42 83  1  0  0  0
M  END
$$$$
