### 
### Created by X-TOOL on Mon Sep 10 21:13:03 2018
### 

@<TRIPOS>MOLECULE
2xcn_ligand
   83    86     1     0     0
SMALL
GAST_HUCK


@<TRIPOS>ATOM
      1 O1          6.5810   33.6180   11.8170 O.2       1 C8D        -0.3774
      2 C6          7.6760   33.5790   11.3440 C.2       1 C8D         0.3221
      3 O2          8.5120   34.6260   11.3650 O.3       1 C8D        -0.2605
      4 C7          8.2110   35.8660   12.0330 C.3       1 C8D         0.0882
      5 C8          9.4420   36.7590   11.9570 C.3       1 C8D        -0.0223
      6 C9         10.2020   36.5640   13.2730 C.3       1 C8D        -0.0503
      7 C10         9.1540   36.1830   14.3190 C.3       1 C8D        -0.0503
      8 C11         7.9260   35.6890   13.5370 C.3       1 C8D        -0.0223
      9 N1          8.1920   32.4690   10.7530 N.am      1 C8D        -0.2407
     10 C5          7.3730   31.2430   10.6820 C.3       1 C8D         0.1378
     11 C2          7.0800   30.7510    9.2100 C.3       1 C8D         0.0025
     12 C1          6.8940   29.2270    9.0000 C.3       1 C8D        -0.0558
     13 C3          5.8030   31.4870    8.7250 C.3       1 C8D        -0.0558
     14 C4          8.2180   31.1430    8.2690 C.3       1 C8D        -0.0558
     15 C12         8.0420   30.2140   11.6670 C.2       1 C8D         0.2070
     16 O3          9.2590   30.0310   11.7230 O.2       1 C8D        -0.3942
     17 N2          7.1650   29.5420   12.4670 N.am      1 C8D        -0.2469
     18 C16         7.5670   28.5670   13.5010 C.3       1 C8D         0.1341
     19 C17         8.1400   27.2510   12.9610 C.2       1 C8D         0.1738
     20 N3          8.7130   26.4180   13.8770 N.am      1 C8D        -0.4362
     21 C18         9.2880   25.1240   13.4790 C.3       1 C8D        -0.2242
     22 C19        10.8240   25.1660   13.2120 C.3       1 C8D        -0.1374
     23 C20        11.1980   26.4370   12.4030 C.3       1 C8D         0.0189
     24 O5         10.8740   26.2110   11.0350 O.3       1 C8D        -0.3975
     25 B           8.9780   23.9860   14.5500 B         1 C8D         3.0000
     26 O6          7.7440   23.4990   14.7180 O.3       1 C8D        -0.8710
     27 O8          9.7250   22.7130   14.1490 O.3       1 C8D        -0.8710
     28 O4          8.0590   27.0200   11.7660 O.2       1 C8D        -0.3971
     29 C13         5.7220   29.7600   12.4040 C.3       1 C8D         0.0686
     30 C14         5.3280   29.4510   13.8420 C.3       1 C8D         0.1125
     31 C15         6.2260   28.2290   14.1550 C.3       1 C8D         0.0214
     32 O7          5.7350   30.5990   14.5540 O.3       1 C8D        -0.2857
     33 C21         5.1320   30.8090   15.7940 C.ar      1 C8D         0.1786
     34 N4          4.1120   30.0100   16.2530 N.ar      1 C8D        -0.2788
     35 C22         3.6000   30.1900   17.5040 C.ar      1 C8D        -0.0095
     36 C23         4.0690   31.1860   18.3780 C.ar      1 C8D        -0.0466
     37 C24         5.1090   32.0310   17.9360 C.ar      1 C8D        -0.0109
     38 C29         5.6490   31.8450   16.6300 C.ar      1 C8D         0.0447
     39 C25         5.6050   33.0370   18.7910 C.ar      1 C8D        -0.0512
     40 C26         6.6400   33.8630   18.3330 C.ar      1 C8D        -0.0585
     41 C27         7.1710   33.6880   17.0380 C.ar      1 C8D        -0.0577
     42 C28         6.6950   32.6860   16.1800 C.ar      1 C8D        -0.0446
     43 H           7.3290   36.2785   11.5432 H         1 C8D         0.0647
     44 H           9.1594   37.8028   11.8203 H         1 C8D         0.0293
     45 H          10.0651   36.4932   11.1031 H         1 C8D         0.0293
     46 H          10.7306   37.4731   13.5597 H         1 C8D         0.0266
     47 H          10.9612   35.7878   13.1768 H         1 C8D         0.0266
     48 H           8.9010   37.0352   14.9498 H         1 C8D         0.0266
     49 H           9.5305   35.4095   14.9883 H         1 C8D         0.0266
     50 H           7.7355   34.6396   13.7617 H         1 C8D         0.0293
     51 H           7.0442   36.2630   13.8217 H         1 C8D         0.0293
     52 H           9.1344   32.4831   10.3630 H         1 C8D         0.1899
     53 H           6.3495   31.4167   11.0143 H         1 C8D         0.0805
     54 H           7.8003   28.7058    9.3083 H         1 C8D         0.0237
     55 H           6.0519   28.8792    9.5983 H         1 C8D         0.0237
     56 H           6.6994   29.0278    7.9462 H         1 C8D         0.0237
     57 H           4.9708   31.2411    9.3846 H         1 C8D         0.0237
     58 H           5.9765   32.5630    8.7426 H         1 C8D         0.0237
     59 H           5.5678   31.1722    7.7083 H         1 C8D         0.0237
     60 H           8.3249   32.2277    8.2624 H         1 C8D         0.0237
     61 H           9.1462   30.6872    8.6138 H         1 C8D         0.0237
     62 H           7.9919   30.7927    7.2619 H         1 C8D         0.0237
     63 H           8.3492   28.9898   14.1314 H         1 C8D         0.0802
     64 H           8.7433   26.6981   14.8573 H         1 C8D         0.1459
     65 H           8.7988   24.8884   12.5339 H         1 C8D        -0.1821
     66 H          11.1090   24.2837   12.6389 H         1 C8D        -0.0043
     67 H          11.3499   25.1852   14.1665 H         1 C8D        -0.0043
     68 H          12.2634   26.6435   12.5046 H         1 C8D         0.0532
     69 H          10.6432   27.2959   12.7806 H         1 C8D         0.0532
     70 H           9.9337   26.0351   10.9549 H         1 C8D         0.2093
     71 H           7.4384   23.1135   13.8938 H         1 C8D        -0.1290
     72 H           9.6560   22.0668   14.8556 H         1 C8D        -0.1290
     73 H           5.2118   29.1461   11.6617 H         1 C8D         0.0555
     74 H           5.4375   30.7577   12.0699 H         1 C8D         0.0555
     75 H           4.2816   29.2399   14.0626 H         1 C8D         0.0686
     76 H           6.3244   28.0562   15.2267 H         1 C8D         0.0343
     77 H           5.8042   27.3007   13.7696 H         1 C8D         0.0343
     78 H           2.7953   29.5357   17.8395 H         1 C8D         0.0729
     79 H           3.6397   31.3028   19.3731 H         1 C8D         0.0583
     80 H           5.1905   33.1696   19.7904 H         1 C8D         0.0622
     81 H           7.0368   34.6447   18.9807 H         1 C8D         0.0649
     82 H           7.9695   34.3466   16.6964 H         1 C8D         0.0617
     83 H           7.1223   32.5572   15.1856 H         1 C8D         0.0664
@<TRIPOS>BOND
     1    1    2 2  
     2    2    3 1  
     3    2    9 am 
     4    3    4 1  
     5    4    5 1  
     6    4    8 1  
     7    5    6 1  
     8    6    7 1  
     9    7    8 1  
    10    9   10 1  
    11   10   11 1  
    12   10   15 1  
    13   11   12 1  
    14   11   13 1  
    15   11   14 1  
    16   15   16 2  
    17   15   17 am 
    18   17   18 1  
    19   17   29 1  
    20   18   19 1  
    21   18   31 1  
    22   19   20 am 
    23   19   28 2  
    24   20   21 1  
    25   21   22 1  
    26   21   25 1  
    27   22   23 1  
    28   23   24 1  
    29   25   26 1  
    30   25   27 1  
    31   29   30 1  
    32   30   31 1  
    33   30   32 1  
    34   32   33 1  
    35   33   34 ar 
    36   33   38 ar 
    37   34   35 ar 
    38   35   36 ar 
    39   36   37 ar 
    40   37   38 ar 
    41   37   39 ar 
    42   38   42 ar 
    43   39   40 ar 
    44   40   41 ar 
    45   41   42 ar 
    46    4   43 1  
    47    5   44 1  
    48    5   45 1  
    49    6   46 1  
    50    6   47 1  
    51    7   48 1  
    52    7   49 1  
    53    8   50 1  
    54    8   51 1  
    55    9   52 1  
    56   10   53 1  
    57   12   54 1  
    58   12   55 1  
    59   12   56 1  
    60   13   57 1  
    61   13   58 1  
    62   13   59 1  
    63   14   60 1  
    64   14   61 1  
    65   14   62 1  
    66   18   63 1  
    67   20   64 1  
    68   21   65 1  
    69   22   66 1  
    70   22   67 1  
    71   23   68 1  
    72   23   69 1  
    73   24   70 1  
    74   26   71 1  
    75   27   72 1  
    76   29   73 1  
    77   29   74 1  
    78   30   75 1  
    79   31   76 1  
    80   31   77 1  
    81   35   78 1  
    82   36   79 1  
    83   39   80 1  
    84   40   81 1  
    85   41   82 1  
    86   42   83 1  
@<TRIPOS>SUBSTRUCTURE
     1 C8D         1

