### 
### Created by X-TOOL on Mon Sep 10 21:13:28 2018
### 

@<TRIPOS>MOLECULE
5t1i_ligand
  255   258     1     0     0
SMALL
GAST_HUCK


@<TRIPOS>ATOM
      1 C          16.0430   47.0970    2.1280 C.2       1 N7P         0.2042
      2 O          16.1880   48.2000    2.6560 O.2       1 N7P        -0.3944
      3 CA         14.7130   46.7580    1.4800 C.3       1 N7P         0.1337
      4 N          14.7790   45.7500    0.3770 N.am      1 N7P        -0.2520
      5 C1         15.4390   45.9860   -0.7790 C.2       1 N7P         0.1776
      6 O1         16.1050   47.0020   -0.9150 O.2       1 N7P        -0.3970
      7 C2         15.3970   44.9270   -1.8430 C.3       1 N7P         0.0260
      8 CD         14.1730   44.4750    0.7800 C.3       1 N7P         0.0369
      9 CG         13.9930   44.6390    2.2800 C.3       1 N7P        -0.0281
     10 CB         13.7600   46.1180    2.4900 C.3       1 N7P        -0.0104
     11 N          17.0110   46.1850    2.0670 N.am      1 HIS        -0.2625
     12 CA         18.2840   46.4320    2.6830 C.3       1 HIS         0.1369
     13 C          19.3890   46.5910    1.6830 C.2       1 HIS         0.2054
     14 O          20.5290   46.3540    2.0170 O.2       1 HIS        -0.3942
     15 CB         18.5800   45.3480    3.7220 C.3       1 HIS         0.0145
     16 CG         17.7530   45.5030    4.9590 C.2       1 HIS        -0.0027
     17 ND1        17.6580   44.5180    5.9160 N.2       1 HIS        -0.3252
     18 CD2        16.9880   46.5370    5.3970 C.2       1 HIS         0.0291
     19 CE1        16.8560   44.9290    6.8870 C.2       1 HIS         0.0907
     20 NE2        16.4450   46.1520    6.5970 N.pl3     1 HIS        -0.2752
     21 N          19.0490   47.0140    0.4620 N.am      1 ARG        -0.2636
     22 CA         20.0820   47.4650   -0.4840 C.3       1 ARG         0.1311
     23 C          20.8580   48.6570    0.0900 C.2       1 ARG         0.2040
     24 O          20.3350   49.4560    0.8860 O.2       1 ARG        -0.3944
     25 CB         19.4680   47.9110   -1.8150 C.3       1 ARG        -0.0092
     26 CG         19.0400   46.7800   -2.7240 C.3       1 ARG        -0.0156
     27 CD         18.1800   47.3040   -3.8600 C.3       1 ARG         0.0627
     28 NE         16.8570   47.7410   -3.3900 N.pl3     1 ARG        -0.2723
     29 CZ         15.8790   48.1520   -4.1690 C.cat     1 ARG         0.2882
     30 NH1        16.0250   48.1410   -5.4920 N.pl3     1 ARG        -0.2849
     31 NH2        14.7200   48.5160   -3.6210 N.pl3     1 ARG        -0.2849
     32 N          22.1220   48.7740   -0.3100 N.am      1 TYR        -0.2621
     33 CA         22.9070   49.9640    0.0270 C.3       1 TYR         0.1390
     34 C          23.8270   50.2290   -1.1270 C.2       1 TYR         0.2057
     35 O          24.0700   49.3200   -1.9570 O.2       1 TYR        -0.3942
     36 CB         23.7000   49.7830    1.3310 C.3       1 TYR         0.0163
     37 CG         24.3650   48.4280    1.5570 C.ar      1 TYR        -0.0493
     38 CD1        25.6480   48.1630    1.0840 C.ar      1 TYR        -0.0685
     39 CD2        23.7350   47.4230    2.2840 C.ar      1 TYR        -0.0685
     40 CE1        26.2660   46.9440    1.3080 C.ar      1 TYR        -0.0398
     41 CE2        24.3560   46.1830    2.4970 C.ar      1 TYR        -0.0398
     42 CZ         25.6330   45.9660    2.0070 C.ar      1 TYR         0.0805
     43 OH         26.3160   44.7920    2.1670 O.3       1 TYR        -0.3376
     44 N          24.3810   51.4450   -1.1770 N.am      1 ARG        -0.2636
     45 CA         25.0750   51.8500   -2.3710 C.3       1 ARG         0.1316
     46 C          26.6130   51.8500   -2.2090 C.2       1 ARG         0.2096
     47 O          27.1240   51.7310   -1.0610 O.2       1 ARG        -0.3939
     48 CB         24.5720   53.2130   -2.8790 C.3       1 ARG        -0.0092
     49 CG         23.1020   53.5320   -2.7540 C.3       1 ARG        -0.0156
     50 CD         22.9130   55.0100   -3.0450 C.3       1 ARG         0.0627
     51 NE         23.3940   55.3710   -4.3780 N.pl3     1 ARG        -0.2723
     52 CZ         23.2850   56.5850   -4.9010 C.cat     1 ARG         0.2882
     53 NH1        23.7610   56.8170   -6.1150 N.pl3     1 ARG        -0.2849
     54 NH2        22.7000   57.5650   -4.2210 N.pl3     1 ARG        -0.2849
     55 N          27.3580   51.9400   -3.3480 N.am      1 PRO        -0.2340
     56 CA         28.8230   52.0860   -3.3080 C.3       1 PRO         0.1522
     57 C          29.2420   53.5160   -3.0850 C.2       1 PRO         0.2121
     58 O          28.9990   54.3900   -3.9170 O.2       1 PRO        -0.3919
     59 CB         29.3070   51.5820   -4.6700 C.2       1 PRO        -0.0526
     60 CG         28.0990   51.3660   -5.4980 C.2       1 PRO        -0.0712
     61 CD         26.8830   51.6680   -4.7030 C.3       1 PRO         0.0563
     62 N          29.8180   53.7500   -1.9260 N.am      1 GLY        -0.2651
     63 CA         30.1520   55.0680   -1.5210 C.3       1 GLY         0.1202
     64 C          31.5020   55.1020   -0.8490 C.2       1 GLY         0.2008
     65 O          31.7470   54.2900    0.0550 O.2       1 GLY        -0.3947
     66 N          32.2900   56.1140   -1.1880 N.am      1 THR        -0.2616
     67 CA         33.5620   56.3320   -0.4850 C.3       1 THR         0.1565
     68 C          33.7520   57.7530   -0.0270 C.2       1 THR         0.2065
     69 O          33.0350   58.6610   -0.3930 O.2       1 THR        -0.3943
     70 CB         34.7500   55.9820   -1.3450 C.3       1 THR         0.0924
     71 OG1        34.7850   56.8940   -2.4020 O.3       1 THR        -0.3874
     72 CG2        34.6690   54.4970   -1.9300 C.3       1 THR        -0.0346
     73 N          34.7150   57.9280    0.8840 N.am      1 VAL        -0.2634
     74 CA         35.0660   59.2460    1.3500 C.3       1 VAL         0.1333
     75 C          36.1870   59.7250    0.4800 C.2       1 VAL         0.2041
     76 O          37.2610   59.1720    0.5900 O.2       1 VAL        -0.3944
     77 CB         35.5000   59.1910    2.8320 C.3       1 VAL        -0.0063
     78 CG1        35.9710   60.5500    3.3050 C.3       1 VAL        -0.0584
     79 CG2        34.3540   58.6810    3.6650 C.3       1 VAL        -0.0584
     80 N          35.9540   60.7230   -0.3850 N.am      1 ALA        -0.2640
     81 CA         36.9090   61.1210   -1.4030 C.3       1 ALA         0.1282
     82 C          37.8770   62.1940   -0.8680 C.2       1 ALA         0.2036
     83 O          37.5090   63.3580   -0.6620 O.2       1 ALA        -0.3944
     84 CB         36.1520   61.6220   -2.6330 C.3       1 ALA        -0.0244
     85 N          39.0590   61.7530   -0.5040 N.am      1 LEU        -0.2637
     86 CA         40.1090   62.6370    0.0040 C.3       1 LEU         0.1312
     87 C          41.1970   62.9270   -1.0400 C.2       1 LEU         0.2039
     88 O          41.3430   62.2400   -2.0460 O.2       1 LEU        -0.3944
     89 CB         40.7400   62.0390    1.2560 C.3       1 LEU        -0.0101
     90 CG         39.8020   61.5360    2.3790 C.3       1 LEU        -0.0425
     91 CD1        40.6060   61.0160    3.5380 C.3       1 LEU        -0.0625
     92 CD2        38.8320   62.6130    2.7990 C.3       1 LEU        -0.0625
     93 N          41.9870   63.9490   -0.7410 N.am      1 ARG        -0.2640
     94 CA         42.9960   64.4550   -1.6410 C.3       1 ARG         0.1282
     95 C          44.1990   64.5750   -0.7600 C.2       1 ARG         0.2036
     96 O          44.1610   65.3430    0.1570 O.2       1 ARG        -0.3944
     97 CB         42.6160   65.8540   -2.1540 C.3       1 ARG        -0.0244
     98 N          45.2510   63.8380   -1.0180 N.am      1 GLU        -0.2636
     99 CA         46.4780   63.9330   -0.2170 C.3       1 GLU         0.1325
    100 C          47.0850   65.3540   -0.3230 C.2       1 GLU         0.2040
    101 O          47.2340   65.8960   -1.4270 O.2       1 GLU        -0.3944
    102 CB         47.4350   62.8350   -0.6820 C.3       1 GLU        -0.0008
    103 CG         48.7910   62.8180   -0.1210 C.3       1 GLU         0.0044
    104 CD         48.8340   62.7320    1.3840 C.2       1 GLU         0.0350
    105 OE1        48.5630   61.6200    1.9370 O.co2     1 GLU        -0.5690
    106 OE2        49.2190   63.7760    1.9620 O.co2     1 GLU        -0.5690
    107 N          47.4330   65.9540    0.8030 N.am      1 ILE        -0.2635
    108 CA         48.0230   67.2790    0.7880 C.3       1 ILE         0.1335
    109 C          49.4160   67.1900    0.2360 C.2       1 ILE         0.2042
    110 O          49.7670   68.0110   -0.6290 O.2       1 ILE        -0.3944
    111 CB         48.0010   67.9600    2.1620 C.3       1 ILE        -0.0037
    112 CG1        46.5750   68.3050    2.5530 C.3       1 ILE        -0.0491
    113 CG2        48.9140   69.1860    2.1770 C.3       1 ILE        -0.0582
    114 CD1        46.5050   68.5920    4.0670 C.3       1 ILE        -0.0648
    115 N          50.1790   66.1820    0.6500 N.am      1 AAR        -0.2637
    116 CA         51.5600   66.0700    0.2290 C.3       1 AAR         0.1307
    117 CB         52.2990   65.0300    1.1200 C.3       1 AAR        -0.0092
    118 CG         52.3890   65.4530    2.5890 C.3       1 AAR        -0.0156
    119 CD         53.8460   65.4210    3.0720 C.3       1 AAR         0.0627
    120 NE         54.0040   65.5370    4.5190 N.pl3     1 AAR        -0.2723
    121 CZ         55.1540   65.7520    5.1460 C.cat     1 AAR         0.2882
    122 NH1        55.1860   65.8500    6.4620 N.pl3     1 AAR        -0.2849
    123 NH2        56.2770   65.8840    4.4580 N.pl3     1 AAR        -0.2849
    124 C          51.5330   65.7230   -1.3470 C.2       1 AAR         0.1992
    125 O          50.7280   64.8920   -1.8250 O.2       1 AAR        -0.3947
    126 NT         52.3920   66.3870   -2.1030 N.am      1 AAR        -0.2990
    127 H1         14.2809   47.6920    1.0915 H         1 N7P         0.0802
    128 H2         15.9755   45.2619   -2.7166 H         1 N7P         0.0467
    129 H3         14.3534   44.7478   -2.1410 H         1 N7P         0.0467
    130 H4         15.8314   43.9957   -1.4508 H         1 N7P         0.0467
    131 H5         14.8405   43.6309    0.5522 H         1 N7P         0.0524
    132 H6         13.2050   44.3223    0.2804 H         1 N7P         0.0524
    133 H7         14.8960   44.3106    2.8154 H         1 N7P         0.0287
    134 H8         13.1272   44.0582    2.6307 H         1 N7P         0.0287
    135 H9         12.7156   46.3888    2.2759 H         1 N7P         0.0313
    136 H10        14.0130   46.4169    3.5179 H         1 N7P         0.0313
    137 H11        16.8502   45.3217    1.5886 H         1 HIS         0.1885
    138 H12        18.2055   47.3876    3.2221 H         1 HIS         0.0817
    139 H13        19.6432   45.4045    3.9985 H         1 HIS         0.0420
    140 H14        18.3686   44.3646    3.2767 H         1 HIS         0.0420
    141 H15        16.8350   47.4896    4.8920 H         1 HIS         0.0729
    142 H16        16.5820   44.3575    7.7726 H         1 HIS         0.1199
    143 H17        15.8172   46.7245    7.1792 H         1 HIS         0.2361
    144 H18        18.0869   47.0242    0.1895 H         1 ARG         0.1883
    145 H19        20.7767   46.6321   -0.6675 H         1 ARG         0.0800
    146 H20        20.2136   48.5173   -2.3502 H         1 ARG         0.0313
    147 H21        18.5837   48.5272   -1.5951 H         1 ARG         0.0313
    148 H22        18.4624   46.0470   -2.1417 H         1 ARG         0.0301
    149 H23        19.9339   46.2939   -3.1419 H         1 ARG         0.0301
    150 H24        18.0469   46.5042   -4.6033 H         1 ARG         0.0689
    151 H25        18.6910   48.1583   -4.3280 H         1 ARG         0.0689
    152 H26        16.6826   47.7242   -2.3750 H         1 ARG         0.2642
    153 H27        15.2568   48.4636   -6.0976 H         1 ARG         0.2615
    154 H28        16.9061   47.8099   -5.9102 H         1 ARG         0.2615
    155 H29        14.6142   48.5222   -2.5965 H         1 ARG         0.2615
    156 H30        13.9301   48.7912   -4.2220 H         1 ARG         0.2615
    157 H31        22.5405   48.0413   -0.8466 H         1 TYR         0.1885
    158 H32        22.2265   50.8190    0.1525 H         1 TYR         0.0821
    159 H33        23.0067   49.9556    2.1673 H         1 TYR         0.0453
    160 H34        24.4910   50.5472    1.3468 H         1 TYR         0.0453
    161 H35        26.1754   48.9292    0.5273 H         1 TYR         0.0530
    162 H36        22.7471   47.6011    2.6931 H         1 TYR         0.0530
    163 H37        27.2637   46.7686    0.9221 H         1 TYR         0.0525
    164 H38        23.8399   45.4004    3.0412 H         1 TYR         0.0525
    165 H39        27.1683   44.8639    1.7535 H         1 TYR         0.2458
    166 H40        24.3140   52.0648   -0.3951 H         1 ARG         0.1883
    167 H41        24.8358   51.1062   -3.1453 H         1 ARG         0.0800
    168 H42        24.8279   53.2757   -3.9470 H         1 ARG         0.0313
    169 H43        25.1205   53.9885   -2.3243 H         1 ARG         0.0313
    170 H44        22.7569   53.3058   -1.7343 H         1 ARG         0.0301
    171 H45        22.5279   52.9335   -3.4767 H         1 ARG         0.0301
    172 H46        23.4692   55.5935   -2.2966 H         1 ARG         0.0689
    173 H47        21.8421   55.2515   -2.9763 H         1 ARG         0.0689
    174 H48        23.8445   54.6384   -4.9448 H         1 ARG         0.2642
    175 H49        23.6806   57.7568   -6.5288 H         1 ARG         0.2615
    176 H50        24.2116   56.0576   -6.6453 H         1 ARG         0.2615
    177 H51        22.3292   57.3866   -3.2768 H         1 ARG         0.2615
    178 H52        22.6173   58.5032   -4.6380 H         1 ARG         0.2615
    179 H53        29.2408   51.4643   -2.5025 H         1 PRO         0.0924
    180 H54        30.3400   51.4147   -4.9715 H         1 PRO         0.0494
    181 H55        28.1023   51.0350   -6.5355 H         1 PRO         0.0482
    182 H56        26.3652   52.5479   -5.1124 H         1 PRO         0.0653
    183 H57        26.1992   50.8064   -4.7047 H         1 PRO         0.0653
    184 H58        30.0247   52.9834   -1.3180 H         1 GLY         0.1882
    185 H59        29.3901   55.4315   -0.8158 H         1 GLY         0.0763
    186 H60        30.1742   55.7213   -2.4057 H         1 GLY         0.0763
    187 H61        32.0171   56.7316   -1.9256 H         1 THR         0.1884
    188 H62        33.5648   55.6792    0.4003 H         1 THR         0.0826
    189 H63        35.6672   56.0744   -0.7448 H         1 THR         0.0639
    190 H64        33.9805   56.8276   -2.9028 H         1 THR         0.2101
    191 H65        35.5575   54.2970   -2.5469 H         1 THR         0.0257
    192 H66        33.7639   54.3947   -2.5467 H         1 THR         0.0257
    193 H67        34.6299   53.7772   -1.0991 H         1 THR         0.0257
    194 H68        35.1992   57.1322    1.2476 H         1 VAL         0.1883
    195 H69        34.2032   59.9213    1.2522 H         1 VAL         0.0802
    196 H70        36.3392   58.4861    2.9260 H         1 VAL         0.0343
    197 H71        36.2741   60.4861    4.3605 H         1 VAL         0.0234
    198 H72        35.1528   61.2780    3.2020 H         1 VAL         0.0234
    199 H73        36.8283   60.8733    2.6963 H         1 VAL         0.0234
    200 H74        34.0403   57.6947    3.2924 H         1 VAL         0.0234
    201 H75        33.5104   59.3837    3.5975 H         1 VAL         0.0234
    202 H76        34.6740   58.5919    4.7136 H         1 VAL         0.0234
    203 H77        35.0849   61.2141   -0.3261 H         1 ALA         0.1883
    204 H78        37.5004   60.2396   -1.6917 H         1 ALA         0.0797
    205 H79        36.8714   61.9251   -3.4080 H         1 ALA         0.0277
    206 H80        35.5288   62.4844   -2.3539 H         1 ALA         0.0277
    207 H81        35.5112   60.8171   -3.0222 H         1 ALA         0.0277
    208 H82        39.2494   60.7740   -0.5768 H         1 LEU         0.1883
    209 H83        39.6396   63.5939    0.2762 H         1 LEU         0.0800
    210 H84        41.3890   62.8112    1.6948 H         1 LEU         0.0315
    211 H85        41.3529   61.1836    0.9356 H         1 LEU         0.0315
    212 H86        39.2135   60.6978    1.9776 H         1 LEU         0.0298
    213 H87        39.9257   60.6626    4.3269 H         1 LEU         0.0232
    214 H88        41.2406   61.8220    3.9350 H         1 LEU         0.0232
    215 H89        41.2398   60.1829    3.2002 H         1 LEU         0.0232
    216 H90        38.2683   62.9614    1.9210 H         1 LEU         0.0232
    217 H91        39.3869   63.4560    3.2366 H         1 LEU         0.0232
    218 H92        38.1337   62.2067    3.5455 H         1 LEU         0.0232
    219 H93        41.8788   64.3901    0.1499 H         1 ARG         0.1883
    220 H94        43.1682   63.7697   -2.4841 H         1 ARG         0.0797
    221 H95        43.3975   66.2190   -2.8367 H         1 ARG         0.0277
    222 H96        42.5218   66.5438   -1.3023 H         1 ARG         0.0277
    223 H97        41.6570   65.8000   -2.6900 H         1 ARG         0.0277
    224 H98        45.2174   63.1930   -1.7814 H         1 GLU         0.1883
    225 H99        46.2287   63.7503    0.8387 H         1 GLU         0.0801
    226 H100       47.5341   62.9285   -1.7735 H         1 GLU         0.0330
    227 H101       46.9681   61.8695   -0.4376 H         1 GLU         0.0330
    228 H102       49.3038   63.7411   -0.4289 H         1 GLU         0.0433
    229 H103       49.3239   61.9479   -0.5320 H         1 GLU         0.0433
    230 H104       47.2875   65.4883    1.6759 H         1 ILE         0.1883
    231 H105       47.4268   67.9030    0.1060 H         1 ILE         0.0803
    232 H106       48.3894   67.2455    2.9027 H         1 ILE         0.0345
    233 H107       45.9147   67.4593    2.3105 H         1 ILE         0.0267
    234 H108       46.2489   69.1961    1.9967 H         1 ILE         0.0267
    235 H109       49.9327   68.8880    1.8882 H         1 ILE         0.0235
    236 H110       48.9312   69.6180    3.1884 H         1 ILE         0.0235
    237 H111       48.5351   69.9341    1.4651 H         1 ILE         0.0235
    238 H112       45.4705   68.8414    4.3454 H         1 ILE         0.0230
    239 H113       47.1643   69.4381    4.3107 H         1 ILE         0.0230
    240 H114       46.8302   67.7013    4.6245 H         1 ILE         0.0230
    241 H115       49.7930   65.4911    1.2613 H         1 AAR         0.1883
    242 H116       52.0619   67.0399    0.3608 H         1 AAR         0.0800
    243 H117       53.3193   64.8978    0.7308 H         1 AAR         0.0313
    244 H118       51.7582   64.0738    1.0637 H         1 AAR         0.0313
    245 H119       51.7899   64.7630    3.2013 H         1 AAR         0.0301
    246 H120       51.9951   66.4744    2.6959 H         1 AAR         0.0301
    247 H121       54.3837   66.2560    2.5991 H         1 AAR         0.0689
    248 H122       54.2937   64.4685    2.7523 H         1 AAR         0.0689
    249 H123       53.1572   65.4448    5.0982 H         1 AAR         0.2642
    250 H124       56.0806   66.0169    6.9444 H         1 AAR         0.2615
    251 H125       54.3163   65.7596    7.0065 H         1 AAR         0.2615
    252 H126       56.2635   65.8093    3.4308 H         1 AAR         0.2615
    253 H127       57.1645   66.0614    4.9498 H         1 AAR         0.2615
    254 H128       52.4256   66.2182   -3.0881 H         1 AAR         0.1815
    255 H129       53.0077   67.0577   -1.6894 H         1 AAR         0.1815
@<TRIPOS>BOND
     1    1    2 2  
     2    1    3 1  
     3    1   11 am 
     4    3    4 1  
     5    3   10 1  
     6    4    5 am 
     7    4    8 1  
     8    5    6 2  
     9    5    7 1  
    10    8    9 1  
    11    9   10 1  
    12   11   12 1  
    13   12   13 1  
    14   12   15 1  
    15   13   14 2  
    16   13   21 am 
    17   15   16 1  
    18   16   17 1  
    19   16   18 2  
    20   17   19 2  
    21   18   20 1  
    22   19   20 1  
    23   21   22 1  
    24   22   23 1  
    25   22   25 1  
    26   23   24 2  
    27   23   32 am 
    28   25   26 1  
    29   26   27 1  
    30   27   28 1  
    31   28   29 ar 
    32   29   30 ar 
    33   29   31 ar 
    34   32   33 1  
    35   33   34 1  
    36   33   36 1  
    37   34   35 2  
    38   34   44 am 
    39   36   37 1  
    40   37   38 ar 
    41   37   39 ar 
    42   38   40 ar 
    43   39   41 ar 
    44   40   42 ar 
    45   41   42 ar 
    46   42   43 1  
    47   44   45 1  
    48   45   46 1  
    49   45   48 1  
    50   46   47 2  
    51   46   55 am 
    52   48   49 1  
    53   49   50 1  
    54   50   51 1  
    55   51   52 ar 
    56   52   53 ar 
    57   52   54 ar 
    58   55   56 1  
    59   55   61 1  
    60   56   57 1  
    61   56   59 1  
    62   57   58 2  
    63   57   62 am 
    64   59   60 2  
    65   60   61 1  
    66   62   63 1  
    67   63   64 1  
    68   64   65 2  
    69   64   66 am 
    70   66   67 1  
    71   67   68 1  
    72   67   70 1  
    73   68   69 2  
    74   68   73 am 
    75   70   71 1  
    76   70   72 1  
    77   73   74 1  
    78   74   75 1  
    79   74   77 1  
    80   75   76 2  
    81   75   80 am 
    82   77   78 1  
    83   77   79 1  
    84   80   81 1  
    85   81   82 1  
    86   81   84 1  
    87   82   83 2  
    88   82   85 am 
    89   85   86 1  
    90   86   87 1  
    91   86   89 1  
    92   87   88 2  
    93   87   93 am 
    94   89   90 1  
    95   90   91 1  
    96   90   92 1  
    97   93   94 1  
    98   94   95 1  
    99   94   97 1  
   100   95   96 2  
   101   95   98 am 
   102   98   99 1  
   103   99  100 1  
   104   99  102 1  
   105  100  101 2  
   106  100  107 am 
   107  102  103 1  
   108  103  104 1  
   109  104  105 ar 
   110  104  106 ar 
   111  107  108 1  
   112  108  109 1  
   113  108  111 1  
   114  109  110 2  
   115  109  115 am 
   116  111  112 1  
   117  111  113 1  
   118  112  114 1  
   119  115  116 1  
   120  116  117 1  
   121  116  124 1  
   122  117  118 1  
   123  118  119 1  
   124  119  120 1  
   125  120  121 ar 
   126  121  122 ar 
   127  121  123 ar 
   128  124  125 2  
   129  124  126 am 
   130    3  127 1  
   131    7  128 1  
   132    7  129 1  
   133    7  130 1  
   134    8  131 1  
   135    8  132 1  
   136    9  133 1  
   137    9  134 1  
   138   10  135 1  
   139   10  136 1  
   140   11  137 1  
   141   12  138 1  
   142   15  139 1  
   143   15  140 1  
   144   18  141 1  
   145   19  142 1  
   146   20  143 1  
   147   21  144 1  
   148   22  145 1  
   149   25  146 1  
   150   25  147 1  
   151   26  148 1  
   152   26  149 1  
   153   27  150 1  
   154   27  151 1  
   155   28  152 1  
   156   30  153 1  
   157   30  154 1  
   158   31  155 1  
   159   31  156 1  
   160   32  157 1  
   161   33  158 1  
   162   36  159 1  
   163   36  160 1  
   164   38  161 1  
   165   39  162 1  
   166   40  163 1  
   167   41  164 1  
   168   43  165 1  
   169   44  166 1  
   170   45  167 1  
   171   48  168 1  
   172   48  169 1  
   173   49  170 1  
   174   49  171 1  
   175   50  172 1  
   176   50  173 1  
   177   51  174 1  
   178   53  175 1  
   179   53  176 1  
   180   54  177 1  
   181   54  178 1  
   182   56  179 1  
   183   59  180 1  
   184   60  181 1  
   185   61  182 1  
   186   61  183 1  
   187   62  184 1  
   188   63  185 1  
   189   63  186 1  
   190   66  187 1  
   191   67  188 1  
   192   70  189 1  
   193   71  190 1  
   194   72  191 1  
   195   72  192 1  
   196   72  193 1  
   197   73  194 1  
   198   74  195 1  
   199   77  196 1  
   200   78  197 1  
   201   78  198 1  
   202   78  199 1  
   203   79  200 1  
   204   79  201 1  
   205   79  202 1  
   206   80  203 1  
   207   81  204 1  
   208   84  205 1  
   209   84  206 1  
   210   84  207 1  
   211   85  208 1  
   212   86  209 1  
   213   89  210 1  
   214   89  211 1  
   215   90  212 1  
   216   91  213 1  
   217   91  214 1  
   218   91  215 1  
   219   92  216 1  
   220   92  217 1  
   221   92  218 1  
   222   93  219 1  
   223   94  220 1  
   224   97  221 1  
   225   97  222 1  
   226   97  223 1  
   227   98  224 1  
   228   99  225 1  
   229  102  226 1  
   230  102  227 1  
   231  103  228 1  
   232  103  229 1  
   233  107  230 1  
   234  108  231 1  
   235  111  232 1  
   236  112  233 1  
   237  112  234 1  
   238  113  235 1  
   239  113  236 1  
   240  113  237 1  
   241  114  238 1  
   242  114  239 1  
   243  114  240 1  
   244  115  241 1  
   245  116  242 1  
   246  117  243 1  
   247  117  244 1  
   248  118  245 1  
   249  118  246 1  
   250  119  247 1  
   251  119  248 1  
   252  120  249 1  
   253  122  250 1  
   254  122  251 1  
   255  123  252 1  
   256  123  253 1  
   257  126  254 1  
   258  126  255 1  
@<TRIPOS>SUBSTRUCTURE
     1 N7P         1

