5t1i_ligand
  -I-interpret- 

252255  0  0  0  0  0  0  0  0999 V2000
   16.0430   47.0970    2.1280 C   0  0  0  0  0
   16.1880   48.2000    2.6560 O   0  0  0  0  0
   14.7130   46.7580    1.4800 C   0  0  0  0  0
   14.7790   45.7500    0.3770 N   0  0  0  0  0
   15.4390   45.9860   -0.7790 C   0  0  0  0  0
   16.1050   47.0020   -0.9150 O   0  0  0  0  0
   15.3970   44.9270   -1.8430 C   0  0  0  0  0
   14.1730   44.4750    0.7800 C   0  0  0  0  0
   13.9930   44.6390    2.2800 C   0  0  0  0  0
   13.7600   46.1180    2.4900 C   0  0  0  0  0
   17.0110   46.1850    2.0670 N   0  0  0  0  0
   18.2840   46.4320    2.6830 C   0  0  0  0  0
   19.3890   46.5910    1.6830 C   0  0  0  0  0
   20.5290   46.3540    2.0170 O   0  0  0  0  0
   18.5800   45.3480    3.7220 C   0  0  0  0  0
   17.7530   45.5030    4.9590 C   0  0  0  0  0
   17.6580   44.5180    5.9160 N   0  0  0  0  0
   16.9880   46.5370    5.3970 C   0  0  0  0  0
   16.8560   44.9290    6.8870 C   0  0  0  0  0
   16.4450   46.1520    6.5970 N   0  0  0  0  0
   19.0490   47.0140    0.4620 N   0  0  0  0  0
   20.0820   47.4650   -0.4840 C   0  0  0  0  0
   20.8580   48.6570    0.0900 C   0  0  0  0  0
   20.3350   49.4560    0.8860 O   0  0  0  0  0
   19.4680   47.9110   -1.8150 C   0  0  0  0  0
   19.0400   46.7800   -2.7240 C   0  0  0  0  0
   18.1800   47.3040   -3.8600 C   0  0  0  0  0
   16.8570   47.7410   -3.3900 N   0  0  0  0  0
   15.8790   48.1520   -4.1690 C   0  0  0  0  0
   16.0250   48.1410   -5.4920 N   0  0  0  0  0
   14.7200   48.5160   -3.6210 N   0  0  0  0  0
   22.1220   48.7740   -0.3100 N   0  0  0  0  0
   22.9070   49.9640    0.0270 C   0  0  0  0  0
   23.8270   50.2290   -1.1270 C   0  0  0  0  0
   24.0700   49.3200   -1.9570 O   0  0  0  0  0
   23.7000   49.7830    1.3310 C   0  0  0  0  0
   24.3650   48.4280    1.5570 C   0  0  0  0  0
   25.6480   48.1630    1.0840 C   0  0  0  0  0
   23.7350   47.4230    2.2840 C   0  0  0  0  0
   26.2660   46.9440    1.3080 C   0  0  0  0  0
   24.3560   46.1830    2.4970 C   0  0  0  0  0
   25.6330   45.9660    2.0070 C   0  0  0  0  0
   26.3160   44.7920    2.1670 O   0  0  0  0  0
   24.3810   51.4450   -1.1770 N   0  0  0  0  0
   25.0750   51.8500   -2.3710 C   0  0  0  0  0
   26.6130   51.8500   -2.2090 C   0  0  0  0  0
   27.1240   51.7310   -1.0610 O   0  0  0  0  0
   24.5720   53.2130   -2.8790 C   0  0  0  0  0
   23.1020   53.5320   -2.7540 C   0  0  0  0  0
   22.9130   55.0100   -3.0450 C   0  0  0  0  0
   23.3940   55.3710   -4.3780 N   0  0  0  0  0
   23.2850   56.5850   -4.9010 C   0  0  0  0  0
   23.7610   56.8170   -6.1150 N   0  0  0  0  0
   22.7000   57.5650   -4.2210 N   0  0  0  0  0
   27.3580   51.9400   -3.3480 N   0  0  0  0  0
   28.8230   52.0860   -3.3080 C   0  0  0  0  0
   29.2420   53.5160   -3.0850 C   0  0  0  0  0
   28.9990   54.3900   -3.9170 O   0  0  0  0  0
   29.3070   51.5820   -4.6700 C   0  0  0  0  0
   28.0990   51.3660   -5.4980 C   0  0  0  0  0
   26.8830   51.6680   -4.7030 C   0  0  0  0  0
   29.8180   53.7500   -1.9260 N   0  0  0  0  0
   30.1520   55.0680   -1.5210 C   0  0  0  0  0
   31.5020   55.1020   -0.8490 C   0  0  0  0  0
   31.7470   54.2900    0.0550 O   0  0  0  0  0
   32.2900   56.1140   -1.1880 N   0  0  0  0  0
   33.5620   56.3320   -0.4850 C   0  0  0  0  0
   33.7520   57.7530   -0.0270 C   0  0  0  0  0
   33.0350   58.6610   -0.3930 O   0  0  0  0  0
   34.7500   55.9820   -1.3450 C   0  0  0  0  0
   34.7850   56.8940   -2.4020 O   0  0  0  0  0
   34.6690   54.4970   -1.9300 C   0  0  0  0  0
   34.7150   57.9280    0.8840 N   0  0  0  0  0
   35.0660   59.2460    1.3500 C   0  0  0  0  0
   36.1870   59.7250    0.4800 C   0  0  0  0  0
   37.2610   59.1720    0.5900 O   0  0  0  0  0
   35.5000   59.1910    2.8320 C   0  0  0  0  0
   35.9710   60.5500    3.3050 C   0  0  0  0  0
   34.3540   58.6810    3.6650 C   0  0  0  0  0
   35.9540   60.7230   -0.3850 N   0  0  0  0  0
   36.9090   61.1210   -1.4030 C   0  0  0  0  0
   37.8770   62.1940   -0.8680 C   0  0  0  0  0
   37.5090   63.3580   -0.6620 O   0  0  0  0  0
   36.1520   61.6220   -2.6330 C   0  0  0  0  0
   39.0590   61.7530   -0.5040 N   0  0  0  0  0
   40.1090   62.6370    0.0040 C   0  0  0  0  0
   41.1970   62.9270   -1.0400 C   0  0  0  0  0
   41.3430   62.2400   -2.0460 O   0  0  0  0  0
   40.7400   62.0390    1.2560 C   0  0  0  0  0
   39.8020   61.5360    2.3790 C   0  0  0  0  0
   40.6060   61.0160    3.5380 C   0  0  0  0  0
   38.8320   62.6130    2.7990 C   0  0  0  0  0
   41.9870   63.9490   -0.7410 N   0  0  0  0  0
   42.9960   64.4550   -1.6410 C   0  0  0  0  0
   44.1990   64.5750   -0.7600 C   0  0  0  0  0
   44.1610   65.3430    0.1570 O   0  0  0  0  0
   42.6160   65.8540   -2.1540 C   0  0  0  0  0
   45.2510   63.8380   -1.0180 N   0  0  0  0  0
   46.4780   63.9330   -0.2170 C   0  0  0  0  0
   47.0850   65.3540   -0.3230 C   0  0  0  0  0
   47.2340   65.8960   -1.4270 O   0  0  0  0  0
   47.4350   62.8350   -0.6820 C   0  0  0  0  0
   48.7910   62.8180   -0.1210 C   0  0  0  0  0
   48.8340   62.7320    1.3840 C   0  0  0  0  0
   48.5630   61.6200    1.9370 O   0  0  0  0  0
   49.2190   63.7760    1.9620 O   0  0  0  0  0
   47.4330   65.9540    0.8030 N   0  0  0  0  0
   48.0230   67.2790    0.7880 C   0  0  0  0  0
   49.4160   67.1900    0.2360 C   0  0  0  0  0
   49.7670   68.0110   -0.6290 O   0  0  0  0  0
   48.0010   67.9600    2.1620 C   0  0  0  0  0
   46.5750   68.3050    2.5530 C   0  0  0  0  0
   48.9140   69.1860    2.1770 C   0  0  0  0  0
   46.5050   68.5920    4.0670 C   0  0  0  0  0
   50.1790   66.1820    0.6500 N   0  0  0  0  0
   51.5600   66.0700    0.2290 C   0  0  0  0  0
   52.2990   65.0300    1.1200 C   0  0  0  0  0
   52.3890   65.4530    2.5890 C   0  0  0  0  0
   53.8460   65.4210    3.0720 C   0  0  0  0  0
   54.0040   65.5370    4.5190 N   0  0  0  0  0
   55.1540   65.7520    5.1460 C   0  0  0  0  0
   55.1860   65.8500    6.4620 N   0  0  0  0  0
   56.2770   65.8840    4.4580 N   0  0  0  0  0
   51.5330   65.7230   -1.3470 C   0  0  0  0  0
   50.7280   64.8920   -1.8250 O   0  0  0  0  0
   52.3920   66.3870   -2.1030 N   0  0  0  0  0
   14.3835   47.7218    1.0919 H   0  0  0  0  0
   15.0097   45.3570   -2.7667 H   0  0  0  0  0
   16.4034   44.5443   -2.0129 H   0  0  0  0  0
   14.7475   44.1138   -1.5190 H   0  0  0  0  0
   14.7896   43.6144    0.5208 H   0  0  0  0  0
   13.2355   44.2714    0.2625 H   0  0  0  0  0
   14.8647   44.2863    2.8312 H   0  0  0  0  0
   13.1602   44.0430    2.6533 H   0  0  0  0  0
   12.7210   46.4097    2.3367 H   0  0  0  0  0
   13.9516   46.4363    3.5147 H   0  0  0  0  0
   16.8470   45.3044    1.5791 H   0  0  0  0  0
   18.2296   47.3903    3.1996 H   0  0  0  0  0
   19.6293   45.4298    4.0053 H   0  0  0  0  0
   18.3440   44.3812    3.2774 H   0  0  0  0  0
   16.8348   47.4905    4.8916 H   0  0  0  0  0
   16.5818   44.3569    7.7734 H   0  0  0  0  0
   18.0677   47.0244    0.1840 H   0  0  0  0  0
   20.7465   46.6169   -0.6492 H   0  0  0  0  0
   20.2365   48.4721   -2.3468 H   0  0  0  0  0
   18.5711   48.4821   -1.5752 H   0  0  0  0  0
   18.4604   46.0612   -2.1447 H   0  0  0  0  0
   19.9287   46.3076   -3.1426 H   0  0  0  0  0
   18.0377   46.4985   -4.5804 H   0  0  0  0  0
   18.6855   48.1618   -4.3036 H   0  0  0  0  0
   16.6843   47.7244   -2.3849 H   0  0  0  0  0
   16.8976   47.8131   -5.9061 H   0  0  0  0  0
   13.9377   48.7885   -4.2162 H   0  0  0  0  0
   14.6152   48.5221   -2.6064 H   0  0  0  0  0
   22.5489   48.0267   -0.8574 H   0  0  0  0  0
   22.2406   50.8097    0.1967 H   0  0  0  0  0
   22.9755   49.8965    2.1374 H   0  0  0  0  0
   24.5120   50.5089    1.2880 H   0  0  0  0  0
   26.1783   48.9334    0.5242 H   0  0  0  0  0
   22.7416   47.6020    2.6953 H   0  0  0  0  0
   27.2692   46.7677    0.9200 H   0  0  0  0  0
   23.8370   45.3961    3.0443 H   0  0  0  0  0
   25.7790   44.1770    2.6720 H   0  0  0  0  0
   24.3126   52.0772   -0.3795 H   0  0  0  0  0
   24.8438   51.0969   -3.1243 H   0  0  0  0  0
   24.7720   53.2086   -3.9505 H   0  0  0  0  0
   25.0773   53.9523   -2.2575 H   0  0  0  0  0
   22.7516   53.2995   -1.7484 H   0  0  0  0  0
   22.5266   52.9337   -3.4604 H   0  0  0  0  0
   23.4843   55.5780   -2.3108 H   0  0  0  0  0
   21.8475   55.2341   -2.9946 H   0  0  0  0  0
   23.8402   54.6456   -4.9393 H   0  0  0  0  0
   24.2072   56.0650   -6.6402 H   0  0  0  0  0
   22.6181   58.4940   -4.6340 H   0  0  0  0  0
   22.3328   57.3884   -3.2859 H   0  0  0  0  0
   29.2546   51.5248   -2.4793 H   0  0  0  0  0
   30.3409   51.4146   -4.9717 H   0  0  0  0  0
   28.1023   51.0347   -6.5364 H   0  0  0  0  0
   26.3394   52.5190   -5.1134 H   0  0  0  0  0
   26.1791   50.8360   -4.7193 H   0  0  0  0  0
   30.0288   52.9681   -1.3058 H   0  0  0  0  0
   29.4003   55.4171   -0.8130 H   0  0  0  0  0
   30.1847   55.7070   -2.4034 H   0  0  0  0  0
   32.0116   56.7439   -1.9404 H   0  0  0  0  0
   33.5053   55.6749    0.3828 H   0  0  0  0  0
   35.6508   56.0307   -0.7332 H   0  0  0  0  0
   35.5337   56.6960   -2.9693 H   0  0  0  0  0
   34.6303   53.7848   -1.1058 H   0  0  0  0  0
   33.7718   54.3969   -2.5408 H   0  0  0  0  0
   35.5499   54.3000   -2.5410 H   0  0  0  0  0
   35.2088   57.1162    1.2549 H   0  0  0  0  0
   34.2169   59.9269    1.2907 H   0  0  0  0  0
   36.3415   58.5066    2.9396 H   0  0  0  0  0
   36.8204   60.8692    2.7011 H   0  0  0  0  0
   35.1594   61.2704    3.2024 H   0  0  0  0  0
   36.2710   60.4854    4.3509 H   0  0  0  0  0
   33.5016   59.3518    3.5575 H   0  0  0  0  0
   34.0770   57.6824    3.3270 H   0  0  0  0  0
   34.6567   58.6409    4.7114 H   0  0  0  0  0
   35.0675   61.2239   -0.3249 H   0  0  0  0  0
   37.5131   60.2582   -1.6837 H   0  0  0  0  0
   35.5174   60.8236   -3.0177 H   0  0  0  0  0
   35.5348   62.4764   -2.3551 H   0  0  0  0  0
   36.8659   61.9220   -3.4001 H   0  0  0  0  0
   39.2532   60.7544   -0.5782 H   0  0  0  0  0
   39.6324   63.5870    0.2459 H   0  0  0  0  0
   41.3148   62.8499    1.7034 H   0  0  0  0  0
   41.2772   61.1549    0.9128 H   0  0  0  0  0
   39.2069   60.7085    1.9927 H   0  0  0  0  0
   41.2336   60.1906    3.2019 H   0  0  0  0  0
   41.2344   61.8155    3.9304 H   0  0  0  0  0
   39.9309   60.6662    4.3190 H   0  0  0  0  0
   39.3865   63.4761    3.1673 H   0  0  0  0  0
   38.2253   62.9077    1.9428 H   0  0  0  0  0
   38.1860   62.2304    3.5892 H   0  0  0  0  0
   41.8766   64.3989    0.1677 H   0  0  0  0  0
   43.1371   63.8190   -2.5149 H   0  0  0  0  0
   41.6656   65.7992   -2.6849 H   0  0  0  0  0
   42.5229   66.5365   -1.3092 H   0  0  0  0  0
   43.3911   66.2145   -2.8303 H   0  0  0  0  0
   45.2168   63.1801   -1.7967 H   0  0  0  0  0
   46.2680   63.7778    0.8413 H   0  0  0  0  0
   47.5670   63.0010   -1.7512 H   0  0  0  0  0
   46.9781   61.8989   -0.3610 H   0  0  0  0  0
   49.2688   63.7559   -0.4041 H   0  0  0  0  0
   49.2893   61.9296   -0.5090 H   0  0  0  0  0
   48.2919   60.9883    1.2669 H   0  0  0  0  0
   47.2846   65.4790    1.6933 H   0  0  0  0  0
   47.4152   67.9129    0.1424 H   0  0  0  0  0
   48.3895   67.2660    2.9074 H   0  0  0  0  0
   45.9221   67.4655    2.3142 H   0  0  0  0  0
   46.2537   69.1893    2.0027 H   0  0  0  0  0
   49.9357   68.8793    1.9533 H   0  0  0  0  0
   48.5747   69.8993    1.4259 H   0  0  0  0  0
   48.8803   69.6505    3.1625 H   0  0  0  0  0
   46.8275   67.7087    4.6182 H   0  0  0  0  0
   47.1587   69.4305    4.3072 H   0  0  0  0  0
   45.4795   68.8389    4.3417 H   0  0  0  0  0
   49.7853   65.4773    1.2735 H   0  0  0  0  0
   52.1268   66.9920    0.3585 H   0  0  0  0  0
   53.3162   64.9325    0.7407 H   0  0  0  0  0
   51.7354   64.0980    1.0778 H   0  0  0  0  0
   51.8015   64.7611    3.1925 H   0  0  0  0  0
   52.0062   66.4687    2.6882 H   0  0  0  0  0
   54.3501   66.2780    2.6253 H   0  0  0  0  0
   54.2583   64.4547    2.7815 H   0  0  0  0  0
   53.1655   65.4457    5.0925 H   0  0  0  0  0
   54.3248   65.7605    7.0012 H   0  0  0  0  0
   57.1558   66.0597    4.9450 H   0  0  0  0  0
   56.2636   65.8101    3.4408 H   0  0  0  0  0
   52.4129   66.2291   -3.1105 H   0  0  0  0  0
   53.0334   67.0568   -1.6784 H   0  0  0  0  0
  1  2  2  0  0  0
  1  3  1  0  0  0
  1 11  1  0  0  0
  3  4  1  0  0  0
  3 10  1  0  0  0
  4  5  1  0  0  0
  4  8  1  0  0  0
  5  6  2  0  0  0
  5  7  1  0  0  0
  8  9  1  0  0  0
  9 10  1  0  0  0
 11 12  1  0  0  0
 12 13  1  0  0  0
 12 15  1  0  0  0
 13 14  2  0  0  0
 13 21  1  0  0  0
 15 16  1  0  0  0
 16 17  4  0  0  0
 16 18  4  0  0  0
 17 19  4  0  0  0
 18 20  4  0  0  0
 19 20  4  0  0  0
 21 22  1  0  0  0
 22 23  1  0  0  0
 22 25  1  0  0  0
 23 24  2  0  0  0
 23 32  1  0  0  0
 25 26  1  0  0  0
 26 27  1  0  0  0
 27 28  1  0  0  0
 28 29  1  0  0  0
 29 30  2  0  0  0
 29 31  1  0  0  0
 32 33  1  0  0  0
 33 34  1  0  0  0
 33 36  1  0  0  0
 34 35  2  0  0  0
 34 44  1  0  0  0
 36 37  1  0  0  0
 37 38  4  0  0  0
 37 39  4  0  0  0
 38 40  4  0  0  0
 39 41  4  0  0  0
 40 42  4  0  0  0
 41 42  4  0  0  0
 42 43  1  0  0  0
 44 45  1  0  0  0
 45 46  1  0  0  0
 45 48  1  0  0  0
 46 47  2  0  0  0
 46 55  1  0  0  0
 48 49  1  0  0  0
 49 50  1  0  0  0
 50 51  1  0  0  0
 51 52  1  0  0  0
 52 53  2  0  0  0
 52 54  1  0  0  0
 55 56  1  0  0  0
 55 61  1  0  0  0
 56 57  1  0  0  0
 56 59  1  0  0  0
 57 58  2  0  0  0
 57 62  1  0  0  0
 59 60  2  0  0  0
 60 61  1  0  0  0
 62 63  1  0  0  0
 63 64  1  0  0  0
 64 65  2  0  0  0
 64 66  1  0  0  0
 66 67  1  0  0  0
 67 68  1  0  0  0
 67 70  1  0  0  0
 68 69  2  0  0  0
 68 73  1  0  0  0
 70 71  1  0  0  0
 70 72  1  0  0  0
 73 74  1  0  0  0
 74 75  1  0  0  0
 74 77  1  0  0  0
 75 76  2  0  0  0
 75 80  1  0  0  0
 77 78  1  0  0  0
 77 79  1  0  0  0
 80 81  1  0  0  0
 81 82  1  0  0  0
 81 84  1  0  0  0
 82 83  2  0  0  0
 82 85  1  0  0  0
 85 86  1  0  0  0
 86 87  1  0  0  0
 86 89  1  0  0  0
 87 88  2  0  0  0
 87 93  1  0  0  0
 89 90  1  0  0  0
 90 91  1  0  0  0
 90 92  1  0  0  0
 93 94  1  0  0  0
 94 95  1  0  0  0
 94 97  1  0  0  0
 95 96  2  0  0  0
 95 98  1  0  0  0
 98 99  1  0  0  0
 99100  1  0  0  0
 99102  1  0  0  0
100101  2  0  0  0
100107  1  0  0  0
102103  1  0  0  0
103104  1  0  0  0
104105  1  0  0  0
104106  2  0  0  0
107108  1  0  0  0
108109  1  0  0  0
108111  1  0  0  0
109110  2  0  0  0
109115  1  0  0  0
111112  1  0  0  0
111113  1  0  0  0
112114  1  0  0  0
115116  1  0  0  0
116117  1  0  0  0
116124  1  0  0  0
117118  1  0  0  0
118119  1  0  0  0
119120  1  0  0  0
120121  1  0  0  0
121122  2  0  0  0
121123  1  0  0  0
124125  2  0  0  0
124126  1  0  0  0
  3127  1  0  0  0
  7128  1  0  0  0
  7129  1  0  0  0
  7130  1  0  0  0
  8131  1  0  0  0
  8132  1  0  0  0
  9133  1  0  0  0
  9134  1  0  0  0
 10135  1  0  0  0
 10136  1  0  0  0
 11137  1  0  0  0
 12138  1  0  0  0
 15139  1  0  0  0
 15140  1  0  0  0
 18141  1  0  0  0
 19142  1  0  0  0
 21143  1  0  0  0
 22144  1  0  0  0
 25145  1  0  0  0
 25146  1  0  0  0
 26147  1  0  0  0
 26148  1  0  0  0
 27149  1  0  0  0
 27150  1  0  0  0
 28151  1  0  0  0
 30152  1  0  0  0
 31153  1  0  0  0
 31154  1  0  0  0
 32155  1  0  0  0
 33156  1  0  0  0
 36157  1  0  0  0
 36158  1  0  0  0
 38159  1  0  0  0
 39160  1  0  0  0
 40161  1  0  0  0
 41162  1  0  0  0
 43163  1  0  0  0
 44164  1  0  0  0
 45165  1  0  0  0
 48166  1  0  0  0
 48167  1  0  0  0
 49168  1  0  0  0
 49169  1  0  0  0
 50170  1  0  0  0
 50171  1  0  0  0
 51172  1  0  0  0
 53173  1  0  0  0
 54174  1  0  0  0
 54175  1  0  0  0
 56176  1  0  0  0
 59177  1  0  0  0
 60178  1  0  0  0
 61179  1  0  0  0
 61180  1  0  0  0
 62181  1  0  0  0
 63182  1  0  0  0
 63183  1  0  0  0
 66184  1  0  0  0
 67185  1  0  0  0
 70186  1  0  0  0
 71187  1  0  0  0
 72188  1  0  0  0
 72189  1  0  0  0
 72190  1  0  0  0
 73191  1  0  0  0
 74192  1  0  0  0
 77193  1  0  0  0
 78194  1  0  0  0
 78195  1  0  0  0
 78196  1  0  0  0
 79197  1  0  0  0
 79198  1  0  0  0
 79199  1  0  0  0
 80200  1  0  0  0
 81201  1  0  0  0
 84202  1  0  0  0
 84203  1  0  0  0
 84204  1  0  0  0
 85205  1  0  0  0
 86206  1  0  0  0
 89207  1  0  0  0
 89208  1  0  0  0
 90209  1  0  0  0
 91210  1  0  0  0
 91211  1  0  0  0
 91212  1  0  0  0
 92213  1  0  0  0
 92214  1  0  0  0
 92215  1  0  0  0
 93216  1  0  0  0
 94217  1  0  0  0
 97218  1  0  0  0
 97219  1  0  0  0
 97220  1  0  0  0
 98221  1  0  0  0
 99222  1  0  0  0
102223  1  0  0  0
102224  1  0  0  0
103225  1  0  0  0
103226  1  0  0  0
105227  1  0  0  0
107228  1  0  0  0
108229  1  0  0  0
111230  1  0  0  0
112231  1  0  0  0
112232  1  0  0  0
113233  1  0  0  0
113234  1  0  0  0
113235  1  0  0  0
114236  1  0  0  0
114237  1  0  0  0
114238  1  0  0  0
115239  1  0  0  0
116240  1  0  0  0
117241  1  0  0  0
117242  1  0  0  0
118243  1  0  0  0
118244  1  0  0  0
119245  1  0  0  0
119246  1  0  0  0
120247  1  0  0  0
122248  1  0  0  0
123249  1  0  0  0
123250  1  0  0  0
126251  1  0  0  0
126252  1  0  0  0
M  END
$$$$
