4ys7_ligand
  -I-interpret- 

 46 50  0  0  0  0  0  0  0  0999 V2000
   23.1710  -26.6620   41.0550 C   0  0  0  0  0
   22.5230  -25.3200   41.1300 N   0  0  0  0  0
   22.3800  -24.5320   42.1940 C   0  0  0  0  0
   22.7450  -24.6040   43.5590 C   0  0  0  0  0
   22.4120  -23.5350   44.3900 C   0  0  0  0  0
   21.7310  -22.4210   43.8740 C   0  0  0  0  0
   21.4000  -21.3780   44.6700 N   0  0  0  0  0
   20.7270  -20.2960   44.1940 C   0  0  0  0  0
   20.3650  -20.1980   42.8410 C   0  0  0  0  0
   20.6740  -21.2570   41.9770 C   0  0  0  0  0
   21.3570  -22.3660   42.5210 C   0  0  0  0  0
   21.7080  -23.4310   41.7260 C   0  0  0  0  0
   21.4530  -23.5240   40.4220 N   0  0  0  0  0
   21.9790  -24.7160   40.0740 C   0  0  0  0  0
   21.9490  -25.3090   38.6880 C   0  0  0  0  0
   20.5770  -25.1010   38.1020 C   0  0  0  0  0
   20.6180  -25.8160   36.8010 C   0  0  0  0  0
   20.0230  -26.9950   36.5820 N   0  0  0  0  0
   21.2530  -25.4020   35.6900 N   0  0  0  0  0
   20.9750  -26.4140   34.7880 N   0  0  0  0  0
   21.3960  -26.4650   33.5040 C   0  0  0  0  0
   22.2480  -25.3480   32.9160 C   0  0  0  0  0
   20.2320  -27.3610   35.3130 C   0  0  0  0  0
   19.8380  -28.4490   34.5620 C   0  0  0  0  0
   18.9750  -29.4750   35.2540 C   0  0  0  0  0
   20.2430  -28.5230   33.2540 N   0  0  0  0  0
   21.0100  -27.5570   32.7170 C   0  0  0  0  0
   24.2148  -26.5775   41.3575 H   0  0  0  0  0
   22.6530  -27.3519   41.7212 H   0  0  0  0  0
   23.1169  -27.0335   40.0317 H   0  0  0  0  0
   23.2732  -25.4731   43.9511 H   0  0  0  0  0
   22.6818  -23.5644   45.4457 H   0  0  0  0  0
   20.4633  -19.4885   44.8770 H   0  0  0  0  0
   19.8515  -19.3117   42.4684 H   0  0  0  0  0
   20.3970  -21.2255   40.9232 H   0  0  0  0  0
   22.1726  -26.3747   38.7368 H   0  0  0  0  0
   22.6965  -24.8225   38.0613 H   0  0  0  0  0
   20.3398  -24.0441   37.9808 H   0  0  0  0  0
   19.7914  -25.4826   38.7541 H   0  0  0  0  0
   21.6984  -24.4081   32.9675 H   0  0  0  0  0
   23.1736  -25.2608   33.4850 H   0  0  0  0  0
   22.4796  -25.5784   31.8761 H   0  0  0  0  0
   19.5139  -29.8845   36.1084 H   0  0  0  0  0
   18.0544  -29.0023   35.5961 H   0  0  0  0  0
   18.7354  -30.2769   34.5557 H   0  0  0  0  0
   21.3287  -27.6239   31.6768 H   0  0  0  0  0
  1  2  1  0  0  0
  2  3  4  0  0  0
  2 14  4  0  0  0
  3  4  4  0  0  0
  3 12  4  0  0  0
  4  5  4  0  0  0
  5  6  4  0  0  0
  6  7  4  0  0  0
  6 11  4  0  0  0
  7  8  4  0  0  0
  8  9  4  0  0  0
  9 10  4  0  0  0
 10 11  4  0  0  0
 11 12  4  0  0  0
 12 13  4  0  0  0
 13 14  4  0  0  0
 14 15  1  0  0  0
 15 16  1  0  0  0
 16 17  1  0  0  0
 17 18  4  0  0  0
 17 19  4  0  0  0
 18 23  4  0  0  0
 19 20  4  0  0  0
 20 21  4  0  0  0
 20 23  4  0  0  0
 21 22  1  0  0  0
 21 27  4  0  0  0
 23 24  4  0  0  0
 24 25  1  0  0  0
 24 26  4  0  0  0
 26 27  4  0  0  0
  1 28  1  0  0  0
  1 29  1  0  0  0
  1 30  1  0  0  0
  4 31  1  0  0  0
  5 32  1  0  0  0
  8 33  1  0  0  0
  9 34  1  0  0  0
 10 35  1  0  0  0
 15 36  1  0  0  0
 15 37  1  0  0  0
 16 38  1  0  0  0
 16 39  1  0  0  0
 22 40  1  0  0  0
 22 41  1  0  0  0
 22 42  1  0  0  0
 25 43  1  0  0  0
 25 44  1  0  0  0
 25 45  1  0  0  0
 27 46  1  0  0  0
M  END
$$$$
