1yci_ligand
  -I-interpret- 

 28 28  0  0  0  0  0  0  0  0999 V2000
   19.9640   26.2530   33.0160 C   0  0  0  0  0
   21.0920   26.3910   33.8350 C   0  0  0  0  0
   22.1630   25.5290   33.6870 C   0  0  0  0  0
   22.1180   24.5170   32.7170 C   0  0  0  0  0
   21.0040   24.3790   31.9090 C   0  0  0  0  0
   19.9200   25.2540   32.0610 C   0  0  0  0  0
   18.6770   25.0850   31.1830 C   0  0  0  0  0
   18.7960   25.8620   29.8710 C   0  0  0  0  0
   17.5210   25.6550   29.0560 C   0  0  0  0  0
   17.5440   25.0490   27.9890 O   0  0  0  0  0
   16.4440   26.1010   29.4740 O   0  0  0  0  0
   19.9690   25.3670   29.1360 N   0  0  0  0  0
   21.0750   26.0940   28.9940 C   0  0  0  0  0
   21.1840   27.2410   29.4270 O   0  0  0  0  0
   22.2630   25.4980   28.2380 C   0  0  0  0  0
   22.1420   24.4000   27.6740 O   0  0  0  0  0
   23.3320   26.0870   28.1950 O   0  0  0  0  0
   19.1204   26.9335   33.1316 H   0  0  0  0  0
   21.1255   27.1777   34.5887 H   0  0  0  0  0
   23.0413   25.6359   34.3235 H   0  0  0  0  0
   22.9626   23.8380   32.5997 H   0  0  0  0  0
   20.9693   23.5917   31.1560 H   0  0  0  0  0
   17.8166   25.4690   31.7310 H   0  0  0  0  0
   18.5678   24.0269   30.9450 H   0  0  0  0  0
   18.9207   26.9278   30.0621 H   0  0  0  0  0
   16.5870   26.5458   30.3126 H   0  0  0  0  0
   19.9342   24.4358   28.7212 H   0  0  0  0  0
   21.2484   24.0730   27.8011 H   0  0  0  0  0
  1  2  4  0  0  0
  1  6  4  0  0  0
  2  3  4  0  0  0
  3  4  4  0  0  0
  4  5  4  0  0  0
  5  6  4  0  0  0
  6  7  1  0  0  0
  7  8  1  0  0  0
  8  9  1  0  0  0
  8 12  1  0  0  0
  9 10  2  0  0  0
  9 11  1  0  0  0
 12 13  1  0  0  0
 13 14  2  0  0  0
 13 15  1  0  0  0
 15 16  1  0  0  0
 15 17  2  0  0  0
  1 18  1  0  0  0
  2 19  1  0  0  0
  3 20  1  0  0  0
  4 21  1  0  0  0
  5 22  1  0  0  0
  7 23  1  0  0  0
  7 24  1  0  0  0
  8 25  1  0  0  0
 11 26  1  0  0  0
 12 27  1  0  0  0
 16 28  1  0  0  0
M  END
$$$$
