6d4v_ligand
  -I-interpret- 

 55 58  0  0  0  0  0  0  0  0999 V2000
  134.2200   15.4940    4.4800 C   0  0  0  0  0
  129.7350   18.4620    3.8970 C   0  0  0  0  0
  131.0000   19.1230    3.8460 C   0  0  0  0  0
  131.2000   20.1960    2.9490 C   0  0  0  0  0
  128.9610   19.9700    2.1290 C   0  0  0  0  0
  127.4330   18.2260    3.0670 C   0  0  0  0  0
  128.2270   16.7480    4.8220 C   0  0  0  0  0
  134.6870   12.1060    3.6720 O   0  0  0  0  0
  134.8970   13.2740    3.7380 C   0  0  0  0  0
  136.1710   13.9220    3.1150 C   0  0  0  0  0
  136.1710   13.8270    1.6020 C   0  0  0  0  0
  134.8010   14.2060    1.0630 C   0  0  0  0  0
  134.7410   14.3210   -0.4600 C   0  0  0  0  0
  136.1240   14.2260   -1.1230 C   0  0  0  0  0
  137.1400   15.0820   -0.4070 C   0  0  0  0  0
  137.3300   14.6760    1.0520 C   0  0  0  0  0
  133.9790   14.0870    4.4020 N   0  0  0  0  0
  132.8270   13.5230    4.9640 C   0  0  0  0  0
  131.6270   14.4090    5.1060 C   0  0  0  0  0
  131.9020   15.8480    5.0930 N   0  0  0  0  0
  133.2610   16.2140    5.3450 C   0  0  0  0  0
  130.7810   16.8130    5.9360 S   0  0  0  0  0
  131.4910   17.9000    6.5710 O   0  0  0  0  0
  130.1800   16.0880    7.0580 O   0  0  0  0  0
  129.4820   17.3880    4.7980 C   0  0  0  0  0
  130.1970   20.6000    2.1160 N   0  0  0  0  0
  128.7280   18.8870    3.0420 C   0  0  0  0  0
  127.1990   17.1820    3.9330 C   0  0  0  0  0
  134.1181   15.8985    3.4730 H   0  0  0  0  0
  135.2126   15.6315    4.9088 H   0  0  0  0  0
  131.8108   18.7998    4.4989 H   0  0  0  0  0
  132.1632   20.7055    2.9219 H   0  0  0  0  0
  128.1722   20.2951    1.4506 H   0  0  0  0  0
  126.6421   18.5596    2.3953 H   0  0  0  0  0
  128.0428   15.9270    5.5149 H   0  0  0  0  0
  137.0443   13.3891    3.4910 H   0  0  0  0  0
  136.1883   14.9762    3.3913 H   0  0  0  0  0
  136.3457   12.8056    1.2639 H   0  0  0  0  0
  134.5533   15.1860    1.4709 H   0  0  0  0  0
  134.1092   13.4158    1.3547 H   0  0  0  0  0
  134.3219   15.2973   -0.7035 H   0  0  0  0  0
  134.1363   13.4941   -0.8323 H   0  0  0  0  0
  136.0391   14.5777   -2.1512 H   0  0  0  0  0
  136.4561   13.1886   -1.0822 H   0  0  0  0  0
  136.7814   16.1112   -0.4237 H   0  0  0  0  0
  138.0967   14.9610   -0.9151 H   0  0  0  0  0
  138.2369   14.0742    1.1115 H   0  0  0  0  0
  137.3800   15.5894    1.6447 H   0  0  0  0  0
  133.1037   13.2363    5.9786 H   0  0  0  0  0
  132.5265   12.7262    4.2836 H   0  0  0  0  0
  131.1886   14.1851    6.0785 H   0  0  0  0  0
  130.9879   14.2069    4.2465 H   0  0  0  0  0
  133.3625   17.2797    5.1400 H   0  0  0  0  0
  133.4886   15.9581    6.3798 H   0  0  0  0  0
  126.2280   16.6867    3.9396 H   0  0  0  0  0
  1 17  1  0  0  0
 21  1  1  0  0  0
  2  3  4  0  0  0
 25  2  4  0  0  0
  2 27  4  0  0  0
  3  4  4  0  0  0
  4 26  4  0  0  0
  5 26  4  0  0  0
 27  5  4  0  0  0
 27  6  4  0  0  0
 28  6  4  0  0  0
 25  7  4  0  0  0
  7 28  4  0  0  0
  9  8  2  0  0  0
  9 10  1  0  0  0
 17  9  1  0  0  0
 10 11  1  0  0  0
 11 12  1  0  0  0
 11 16  1  0  0  0
 12 13  1  0  0  0
 13 14  1  0  0  0
 15 14  1  0  0  0
 16 15  1  0  0  0
 18 17  1  0  0  0
 19 18  1  0  0  0
 20 19  1  0  0  0
 20 21  1  0  0  0
 22 20  1  0  0  0
 22 23  2  0  0  0
 22 24  2  0  0  0
 22 25  1  0  0  0
  1 29  1  0  0  0
  1 30  1  0  0  0
  3 31  1  0  0  0
  4 32  1  0  0  0
  5 33  1  0  0  0
  6 34  1  0  0  0
  7 35  1  0  0  0
 10 36  1  0  0  0
 10 37  1  0  0  0
 11 38  1  0  0  0
 12 39  1  0  0  0
 12 40  1  0  0  0
 13 41  1  0  0  0
 13 42  1  0  0  0
 14 43  1  0  0  0
 14 44  1  0  0  0
 15 45  1  0  0  0
 15 46  1  0  0  0
 16 47  1  0  0  0
 16 48  1  0  0  0
 18 49  1  0  0  0
 18 50  1  0  0  0
 19 51  1  0  0  0
 19 52  1  0  0  0
 21 53  1  0  0  0
 21 54  1  0  0  0
 28 55  1  0  0  0
M  END
$$$$
