4mk8_ligand
  -I-interpret- 

 62 64  0  0  0  0  0  0  0  0999 V2000
  -51.1180   -8.9210  -13.5710 C   0  0  0  0  0
  -50.0030   -9.4860  -12.9490 C   0  0  0  0  0
  -49.9720   -9.4410  -11.5230 C   0  0  0  0  0
  -50.9900   -8.8280  -10.7750 C   0  0  0  0  0
  -52.0670   -8.2690  -11.4590 C   0  0  0  0  0
  -52.1380   -8.3100  -12.8500 C   0  0  0  0  0
  -53.3100   -7.7320  -13.5600 C   0  0  0  0  0
  -53.9260   -8.4060  -14.5930 C   0  0  0  0  0
  -55.0130   -7.8350  -15.3080 C   0  0  0  0  0
  -55.4490   -6.6020  -14.9540 C   0  0  0  0  0
  -54.8720   -5.9320  -13.9190 N   0  0  0  0  0
  -53.7900   -6.4120  -13.1550 C   0  0  0  0  0
  -53.3310   -5.7360  -12.2300 O   0  0  0  0  0
  -50.9460   -8.7070   -9.2570 C   0  0  0  0  0
  -52.1880   -9.3810   -8.5810 C   0  0  0  0  0
  -52.1880   -9.3100   -7.0750 C   0  0  0  0  0
  -51.6440  -10.3380   -6.3130 C   0  0  0  0  0
  -51.7550  -10.3420   -4.9340 C   0  0  0  0  0
  -52.4170   -9.3060   -4.2840 C   0  0  0  0  0
  -52.9330   -8.2570   -5.0370 C   0  0  0  0  0
  -52.8170   -8.2650   -6.4160 C   0  0  0  0  0
  -52.5950   -9.3740   -2.8700 N   0  0  0  0  0
  -53.1620   -8.2170   -1.8810 S   0  0  0  0  0
  -52.8860   -8.6590   -0.5490 O   0  0  0  0  0
  -52.6110   -6.9700   -2.3180 O   0  0  0  0  0
  -54.8970   -8.1750   -2.0950 C   0  0  0  0  0
  -48.8600   -9.9330  -10.8620 O   0  0  0  0  0
  -49.0120  -11.1810  -10.1850 C   0  0  0  0  0
  -48.8270   -9.9340  -13.8610 C   0  0  0  0  0
  -49.1930   -9.8630  -15.3550 C   0  0  0  0  0
  -47.6010   -9.0160  -13.6650 C   0  0  0  0  0
  -48.4030  -11.3850  -13.5980 C   0  0  0  0  0
  -51.1914   -8.9602  -14.6578 H   0  0  0  0  0
  -52.8686   -7.7909  -10.8960 H   0  0  0  0  0
  -53.5711   -9.3994  -14.8674 H   0  0  0  0  0
  -55.4869   -8.3784  -16.1255 H   0  0  0  0  0
  -56.2702   -6.1418  -15.5036 H   0  0  0  0  0
  -55.2506   -5.0157  -13.6791 H   0  0  0  0  0
  -50.9488   -7.6481   -8.9983 H   0  0  0  0  0
  -50.0475   -9.2103   -8.8999 H   0  0  0  0  0
  -52.1681  -10.4364   -8.8527 H   0  0  0  0  0
  -53.0721   -8.8459   -8.9277 H   0  0  0  0  0
  -51.1211  -11.1547   -6.8107 H   0  0  0  0  0
  -51.3228  -11.1587   -4.3559 H   0  0  0  0  0
  -53.4309   -7.4250   -4.5390 H   0  0  0  0  0
  -53.2268   -7.4363   -6.9934 H   0  0  0  0  0
  -52.3349  -10.2552   -2.4269 H   0  0  0  0  0
  -55.3053   -9.1735   -1.9391 H   0  0  0  0  0
  -55.3343   -7.4854   -1.3729 H   0  0  0  0  0
  -55.1291   -7.8399   -3.1059 H   0  0  0  0  0
  -49.7895  -11.0892   -9.4266 H   0  0  0  0  0
  -49.2928  -11.9509  -10.9037 H   0  0  0  0  0
  -48.0693  -11.4522   -9.7097 H   0  0  0  0  0
  -49.4307   -8.8330  -15.6210 H   0  0  0  0  0
  -48.3484  -10.2079  -15.9515 H   0  0  0  0  0
  -50.0580  -10.4980  -15.5464 H   0  0  0  0  0
  -46.7787   -9.3728  -14.2852 H   0  0  0  0  0
  -47.8610   -7.9979  -13.9547 H   0  0  0  0  0
  -47.3009   -9.0316  -12.6173 H   0  0  0  0  0
  -49.2319  -12.0527  -13.8331 H   0  0  0  0  0
  -47.5468  -11.6315  -14.2259 H   0  0  0  0  0
  -48.1302  -11.4980  -12.5488 H   0  0  0  0  0
  1  2  4  0  0  0
  1  6  4  0  0  0
  2  3  4  0  0  0
  2 29  1  0  0  0
  3  4  4  0  0  0
  3 27  1  0  0  0
  4  5  4  0  0  0
  4 14  1  0  0  0
  5  6  4  0  0  0
  6  7  1  0  0  0
  7  8  2  0  0  0
  7 12  1  0  0  0
  8  9  1  0  0  0
  9 10  2  0  0  0
 10 11  1  0  0  0
 11 12  1  0  0  0
 12 13  2  0  0  0
 14 15  1  0  0  0
 15 16  1  0  0  0
 16 17  4  0  0  0
 16 21  4  0  0  0
 17 18  4  0  0  0
 18 19  4  0  0  0
 19 20  4  0  0  0
 19 22  1  0  0  0
 20 21  4  0  0  0
 22 23  1  0  0  0
 23 24  2  0  0  0
 23 25  2  0  0  0
 23 26  1  0  0  0
 27 28  1  0  0  0
 29 30  1  0  0  0
 29 31  1  0  0  0
 29 32  1  0  0  0
  1 33  1  0  0  0
  5 34  1  0  0  0
  8 35  1  0  0  0
  9 36  1  0  0  0
 10 37  1  0  0  0
 11 38  1  0  0  0
 14 39  1  0  0  0
 14 40  1  0  0  0
 15 41  1  0  0  0
 15 42  1  0  0  0
 17 43  1  0  0  0
 18 44  1  0  0  0
 20 45  1  0  0  0
 21 46  1  0  0  0
 22 47  1  0  0  0
 26 48  1  0  0  0
 26 49  1  0  0  0
 26 50  1  0  0  0
 28 51  1  0  0  0
 28 52  1  0  0  0
 28 53  1  0  0  0
 30 54  1  0  0  0
 30 55  1  0  0  0
 30 56  1  0  0  0
 31 57  1  0  0  0
 31 58  1  0  0  0
 31 59  1  0  0  0
 32 60  1  0  0  0
 32 61  1  0  0  0
 32 62  1  0  0  0
M  END
$$$$
