### 
### Created by X-TOOL on Mon Sep 10 21:13:30 2018
### 

@<TRIPOS>MOLECULE
5lvd_ligand
   39    39     1     0     0
SMALL
GAST_HUCK


@<TRIPOS>ATOM
      1 C2         16.2490   41.4250  -10.5700 C.ar      1 79F        -0.0578
      2 C3         17.5270   41.0880  -11.0260 C.ar      1 79F        -0.0685
      3 C8         15.1020   41.1860  -11.3440 C.ar      1 79F        -0.0130
      4 C9         13.6980   41.5800  -10.8530 C.3       1 79F         0.1113
      5 C13        12.7330   40.8360   -8.8740 C.2       1 79F         0.3229
      6 C24         8.8910   39.5380   -3.7730 C.2       1 79F         0.1975
      7 N25         9.1860   40.8040   -4.1040 N.am      1 79F        -0.2992
      8 C4         17.6790   40.5040  -12.2940 C.ar      1 79F        -0.0687
      9 C5         16.5350   40.2770  -13.0720 C.ar      1 79F        -0.0685
     10 C6         15.2580   40.6240  -12.6040 C.ar      1 79F        -0.0578
     11 C17        12.0640   40.2030   -6.6150 C.3       1 79F         0.1132
     12 P18        11.5320   38.6290   -5.8990 P.3       1 79F         0.0871
     13 O19        10.1910   38.2090   -6.4870 O.co2     1 79F        -0.6057
     14 O20        12.5860   37.5800   -6.1030 O.co2     1 79F        -0.6057
     15 N21        11.2610   39.0110   -4.2830 N.am      1 79F        -0.2714
     16 C23        10.0410   38.5820   -3.5820 C.3       1 79F         0.1452
     17 O45         7.7450   39.1360   -3.5930 O.2       1 79F        -0.3951
     18 C47        10.3420   38.4190   -2.0820 C.3       1 79F         0.0808
     19 O50        10.8440   37.0830   -1.8740 O.3       1 79F        -0.3907
     20 O12        13.5300   40.5000   -9.8810 O.3       1 79F        -0.2506
     21 O14        12.0350   41.8270   -8.9070 O.2       1 79F        -0.3774
     22 N15        12.8290   39.9670   -7.8500 N.am      1 79F        -0.2448
     23 H1         16.1408   41.8828   -9.5934 H         1 79F         0.0557
     24 H2         18.3951   41.2763  -10.4047 H         1 79F         0.0599
     25 H3         12.9470   41.5422  -11.6558 H         1 79F         0.0776
     26 H4         13.6819   42.5741  -10.3823 H         1 79F         0.0776
     27 H5          8.4519   41.4693   -4.2398 H         1 79F         0.1815
     28 H6         10.1400   41.0825   -4.2150 H         1 79F         0.1815
     29 H7         18.6615   40.2340  -12.6640 H         1 79F         0.0559
     30 H8         16.6385   39.8256  -14.0521 H         1 79F         0.0599
     31 H9         14.3893   40.4524  -13.2293 H         1 79F         0.0557
     32 H10        12.6982   40.7356   -5.8910 H         1 79F         0.0743
     33 H11        11.1793   40.8142   -6.8469 H         1 79F         0.0743
     34 H12        11.9467   39.5432   -3.7865 H         1 79F         0.1670
     35 H13         9.7407   37.6048   -3.9881 H         1 79F         0.0776
     36 H14         9.4220   38.5679   -1.4977 H         1 79F         0.0602
     37 H15        11.0976   39.1550   -1.7701 H         1 79F         0.0602
     38 H16        11.6359   36.9604   -2.3843 H         1 79F         0.2097
     39 H17        13.4187   39.1632   -7.9284 H         1 79F         0.1884
@<TRIPOS>BOND
     1    1    2 ar 
     2    3    1 ar 
     3    2    8 ar 
     4    4    3 1  
     5    3   10 ar 
     6   20    4 1  
     7    5   20 1  
     8    5   21 2  
     9   22    5 am 
    10    6    7 am 
    11   16    6 1  
    12    6   17 2  
    13    9    8 ar 
    14   10    9 ar 
    15   12   11 1  
    16   11   22 1  
    17   12   13 ar 
    18   12   14 ar 
    19   15   12 am 
    20   15   16 1  
    21   16   18 1  
    22   18   19 1  
    23    1   23 1  
    24    2   24 1  
    25    4   25 1  
    26    4   26 1  
    27    7   27 1  
    28    7   28 1  
    29    8   29 1  
    30    9   30 1  
    31   10   31 1  
    32   11   32 1  
    33   11   33 1  
    34   15   34 1  
    35   16   35 1  
    36   18   36 1  
    37   18   37 1  
    38   19   38 1  
    39   22   39 1  
@<TRIPOS>SUBSTRUCTURE
     1 79F         1

