5lvd_ligand
  -I-interpret- 

 40 40  0  0  0  0  0  0  0  0999 V2000
   16.2490   41.4250  -10.5700 C   0  0  0  0  0
   17.5270   41.0880  -11.0260 C   0  0  0  0  0
   15.1020   41.1860  -11.3440 C   0  0  0  0  0
   13.6980   41.5800  -10.8530 C   0  0  0  0  0
   12.7330   40.8360   -8.8740 C   0  0  0  0  0
    8.8910   39.5380   -3.7730 C   0  0  0  0  0
    9.1860   40.8040   -4.1040 N   0  0  0  0  0
   17.6790   40.5040  -12.2940 C   0  0  0  0  0
   16.5350   40.2770  -13.0720 C   0  0  0  0  0
   15.2580   40.6240  -12.6040 C   0  0  0  0  0
   12.0640   40.2030   -6.6150 C   0  0  0  0  0
   11.5320   38.6290   -5.8990 P   0  0  0  0  0
   10.1910   38.2090   -6.4870 O   0  0  0  0  0
   12.5860   37.5800   -6.1030 O   0  0  0  0  0
   11.2610   39.0110   -4.2830 N   0  0  0  0  0
   10.0410   38.5820   -3.5820 C   0  0  0  0  0
    7.7450   39.1360   -3.5930 O   0  0  0  0  0
   10.3420   38.4190   -2.0820 C   0  0  0  0  0
   10.8440   37.0830   -1.8740 O   0  0  0  0  0
   13.5300   40.5000   -9.8810 O   0  0  0  0  0
   12.0350   41.8270   -8.9070 O   0  0  0  0  0
   12.8290   39.9670   -7.8500 N   0  0  0  0  0
   16.1402   41.8853   -9.5880 H   0  0  0  0  0
   18.3999   41.2774  -10.4012 H   0  0  0  0  0
   12.9284   41.6518  -11.6216 H   0  0  0  0  0
   13.5982   42.5921  -10.4610 H   0  0  0  0  0
    8.4386   41.4886   -4.2184 H   0  0  0  0  0
   10.1577   41.0821   -4.2412 H   0  0  0  0  0
   18.6669   40.2325  -12.6660 H   0  0  0  0  0
   16.6391   39.8231  -14.0575 H   0  0  0  0  0
   14.3845   40.4514  -13.2328 H   0  0  0  0  0
   12.6969   40.7254   -5.8977 H   0  0  0  0  0
   11.1851   40.8036   -6.8491 H   0  0  0  0  0
    9.5455   38.9035   -6.3369 H   0  0  0  0  0
   11.9604   39.5538   -3.7765 H   0  0  0  0  0
    9.7362   37.6289   -4.0141 H   0  0  0  0  0
    9.4370   38.5781   -1.4956 H   0  0  0  0  0
   11.0808   39.1541   -1.7629 H   0  0  0  0  0
   11.0395   36.9572   -0.9426 H   0  0  0  0  0
   13.4305   39.1471   -7.9300 H   0  0  0  0  0
  1  2  4  0  0  0
  3  1  4  0  0  0
  2  8  4  0  0  0
  4  3  1  0  0  0
  3 10  4  0  0  0
 20  4  1  0  0  0
  5 20  1  0  0  0
  5 21  2  0  0  0
 22  5  1  0  0  0
  6  7  1  0  0  0
 16  6  1  0  0  0
  6 17  2  0  0  0
  9  8  4  0  0  0
 10  9  4  0  0  0
 12 11  1  0  0  0
 11 22  1  0  0  0
 12 13  1  0  0  0
 12 14  2  0  0  0
 15 12  1  0  0  0
 15 16  1  0  0  0
 16 18  1  0  0  0
 18 19  1  0  0  0
  1 23  1  0  0  0
  2 24  1  0  0  0
  4 25  1  0  0  0
  4 26  1  0  0  0
  7 27  1  0  0  0
  7 28  1  0  0  0
  8 29  1  0  0  0
  9 30  1  0  0  0
 10 31  1  0  0  0
 11 32  1  0  0  0
 11 33  1  0  0  0
 13 34  1  0  0  0
 15 35  1  0  0  0
 16 36  1  0  0  0
 18 37  1  0  0  0
 18 38  1  0  0  0
 19 39  1  0  0  0
 22 40  1  0  0  0
M  END
$$$$
