3k22_ligand
  -I-interpret- 

 57 59  0  0  0  0  0  0  0  0999 V2000
  -22.8280   33.2100   10.9460 C   0  0  0  0  0
  -16.8810   26.7220   20.5400 F   0  0  0  0  0
  -22.0060   31.4680   12.4190 N   0  0  0  0  0
  -21.4610   31.6420   14.6400 O   0  0  0  0  0
  -22.1110   32.8860   12.2250 C   0  0  0  0  0
  -15.8800   26.2100   22.3890 F   0  0  0  0  0
  -21.1700   26.8370   16.0230 N   0  0  0  0  0
  -17.5590   24.2250   21.4590 O   0  0  0  0  0
  -21.8320   30.9940   13.6820 C   0  0  0  0  0
  -17.5080   27.6330   22.4200 F   0  0  0  0  0
  -20.0480   26.1760   15.7320 N   0  0  0  0  0
  -20.4170   34.5550   12.1040 O   0  0  0  0  0
  -22.1160   29.5780   13.8490 C   0  0  0  0  0
  -17.0070   25.2130   24.1270 F   0  0  0  0  0
  -19.2800   25.4900   19.9980 N   0  0  0  0  0
  -22.9850   28.9590   12.9890 C   0  0  0  0  0
  -18.6900   23.9170   23.7500 F   0  0  0  0  0
  -19.8260   32.3630   11.9010 N   0  0  0  0  0
  -23.2460   27.6230   13.1550 C   0  0  0  0  0
  -19.0000   26.0420   24.1000 F   0  0  0  0  0
  -22.6420   26.9220   14.1690 C   0  0  0  0  0
  -21.7790   27.5670   15.0150 C   0  0  0  0  0
  -21.4980   28.9000   14.8690 C   0  0  0  0  0
  -19.5610   25.8280   16.9170 C   0  0  0  0  0
  -20.3820   26.2600   17.9740 C   0  0  0  0  0
  -20.3200   26.1470   19.3430 C   0  0  0  0  0
  -19.3850   25.7250   21.4160 C   0  0  0  0  0
  -18.0610   25.3940   22.0550 C   0  0  0  0  0
  -17.0730   26.4990   21.8480 C   0  0  0  0  0
  -18.1990   25.1410   23.5190 C   0  0  0  0  0
  -21.3590   26.7260   20.0200 C   0  0  0  0  0
  -22.3900   27.3740   19.3910 C   0  0  0  0  0
  -23.4720   27.9730   20.2040 C   0  0  0  0  0
  -22.4590   27.4930   18.0300 C   0  0  0  0  0
  -21.4210   26.9120   17.3600 C   0  0  0  0  0
  -20.7120   33.3760   12.0740 C   0  0  0  0  0
  -22.8114   34.2879   10.7846 H   0  0  0  0  0
  -22.3307   32.7093   10.1153 H   0  0  0  0  0
  -23.8605   32.8672   11.0129 H   0  0  0  0  0
  -22.0607   30.8287   11.6261 H   0  0  0  0  0
  -22.6541   33.3365   13.0558 H   0  0  0  0  0
  -16.7144   24.0016   21.8569 H   0  0  0  0  0
  -18.5576   24.9304   19.5447 H   0  0  0  0  0
  -23.4616   29.5201   12.1851 H   0  0  0  0  0
  -18.8336   32.5678   11.7846 H   0  0  0  0  0
  -20.1524   31.3967   11.8873 H   0  0  0  0  0
  -23.9352   27.1161   12.4796 H   0  0  0  0  0
  -22.8476   25.8596   14.3001 H   0  0  0  0  0
  -20.8055   29.4057   15.5419 H   0  0  0  0  0
  -18.6334   25.2724   17.0546 H   0  0  0  0  0
  -20.1697   25.0983   21.8399 H   0  0  0  0  0
  -19.6374   26.7689   21.6024 H   0  0  0  0  0
  -21.3669   26.6692   21.1085 H   0  0  0  0  0
  -23.9588   27.1932   20.7897 H   0  0  0  0  0
  -23.0494   28.7219   20.8738 H   0  0  0  0  0
  -24.2018   28.4435   19.5451 H   0  0  0  0  0
  -23.2745   28.0086   17.5228 H   0  0  0  0  0
  5  1  1  0  0  0
 29  2  1  0  0  0
  3  5  1  0  0  0
  9  3  1  0  0  0
  9  4  2  0  0  0
  5 36  1  0  0  0
 29  6  1  0  0  0
  7 11  4  0  0  0
  7 22  1  0  0  0
 35  7  4  0  0  0
 28  8  1  0  0  0
 13  9  1  0  0  0
 29 10  1  0  0  0
 24 11  4  0  0  0
 36 12  2  0  0  0
 13 16  4  0  0  0
 23 13  4  0  0  0
 30 14  1  0  0  0
 15 26  1  0  0  0
 27 15  1  0  0  0
 19 16  4  0  0  0
 30 17  1  0  0  0
 36 18  1  0  0  0
 21 19  4  0  0  0
 30 20  1  0  0  0
 22 21  4  0  0  0
 22 23  4  0  0  0
 25 24  4  0  0  0
 26 25  4  0  0  0
 25 35  4  0  0  0
 26 31  4  0  0  0
 28 27  1  0  0  0
 28 29  1  0  0  0
 28 30  1  0  0  0
 31 32  4  0  0  0
 32 33  1  0  0  0
 32 34  4  0  0  0
 34 35  4  0  0  0
  1 37  1  0  0  0
  1 38  1  0  0  0
  1 39  1  0  0  0
  3 40  1  0  0  0
  5 41  1  0  0  0
  8 42  1  0  0  0
 15 43  1  0  0  0
 16 44  1  0  0  0
 18 45  1  0  0  0
 18 46  1  0  0  0
 19 47  1  0  0  0
 21 48  1  0  0  0
 23 49  1  0  0  0
 24 50  1  0  0  0
 27 51  1  0  0  0
 27 52  1  0  0  0
 31 53  1  0  0  0
 33 54  1  0  0  0
 33 55  1  0  0  0
 33 56  1  0  0  0
 34 57  1  0  0  0
M  END
$$$$
