2vwu_ligand
  -I-interpret- 

 61 65  0  0  0  0  0  0  0  0999 V2000
    9.5400   10.4300   10.6250 C   0  0  0  0  0
   10.9620   10.6640   10.7240 O   0  0  0  0  0
   11.6500    9.5650   11.1600 C   0  0  0  0  0
   11.0830    8.3240   11.3970 C   0  0  0  0  0
   11.8870    7.2590   11.8640 C   0  0  0  0  0
   11.3790    5.9640   12.1570 C   0  0  0  0  0
   10.0200    5.7030   11.9640 N   0  0  0  0  0
    9.3860    4.5130   12.3770 C   0  0  0  0  0
    9.2710    4.2400   13.7200 C   0  0  0  0  0
    9.7110    4.9620   14.7840 O   0  0  0  0  0
    9.5060    4.1000   15.9150 C   0  0  0  0  0
    8.6340    3.0500   15.4800 O   0  0  0  0  0
    8.6130    3.0780   14.1410 C   0  0  0  0  0
    8.0790    2.1660   13.2390 C   0  0  0  0  0
    8.2140    2.4310   11.8830 C   0  0  0  0  0
    8.8460    3.6080   11.4700 C   0  0  0  0  0
    9.0240    3.9330    9.7830 Cl  0  0  0  0  0
   12.2320    5.0140   12.6010 N   0  0  0  0  0
   13.5310    5.2460   12.7510 C   0  0  0  0  0
   14.0540    6.4310   12.4770 N   0  0  0  0  0
   13.2870    7.4600   12.0330 C   0  0  0  0  0
   13.8380    8.7270   11.7580 C   0  0  0  0  0
   13.0350    9.7530   11.3230 C   0  0  0  0  0
   13.4960   10.9990   11.0300 O   0  0  0  0  0
   14.8550   11.2490   11.3560 C   0  0  0  0  0
   15.0160   12.7790   11.2970 C   0  0  0  0  0
   15.2680   13.2080    9.8540 C   0  0  0  0  0
   15.3730   14.6760    9.6880 N   0  3  0  0  0
   16.7360   15.1620    9.9910 C   0  0  0  0  0
   16.7670   16.7010    9.9310 C   0  0  0  0  0
   16.2980   17.1820    8.5440 C   0  0  0  0  0
   14.9810   16.5020    8.1150 C   0  0  0  0  0
   15.0940   14.9700    8.2790 C   0  0  0  0  0
    9.3547    9.6189    9.9208 H   0  0  0  0  0
    9.1487   10.1582   11.6054 H   0  0  0  0  0
    9.0474   11.3369   10.2744 H   0  0  0  0  0
   10.0182    8.1685   11.2237 H   0  0  0  0  0
    9.4548    6.4130   11.4983 H   0  0  0  0  0
    9.0667    4.6496   16.7475 H   0  0  0  0  0
   10.4532    3.6954   16.2715 H   0  0  0  0  0
    7.5685    1.2678   13.5863 H   0  0  0  0  0
    7.8300    1.7264   11.1453 H   0  0  0  0  0
   14.1793    4.4451   13.1067 H   0  0  0  0  0
   14.9069    8.8940   11.8911 H   0  0  0  0  0
   15.5311   10.7487   10.6626 H   0  0  0  0  0
   15.1083   10.8580   12.3414 H   0  0  0  0  0
   15.8594   13.0801   11.9184 H   0  0  0  0  0
   14.1067   13.2547   11.6643 H   0  0  0  0  0
   14.4211   12.8691    9.2573 H   0  0  0  0  0
   16.2176   12.7729    9.5424 H   0  0  0  0  0
   14.7198   15.1326   10.3246 H   0  0  0  0  0
   17.4337   14.7587    9.2571 H   0  0  0  0  0
   17.0212   14.8346   10.9908 H   0  0  0  0  0
   17.7858   17.0469   10.1057 H   0  0  0  0  0
   16.1019   17.1038   10.6948 H   0  0  0  0  0
   17.0676   16.9272    7.8154 H   0  0  0  0  0
   16.1270   18.2573    8.5947 H   0  0  0  0  0
   14.7831   16.7354    7.0688 H   0  0  0  0  0
   14.1688   16.8692    8.7424 H   0  0  0  0  0
   14.1626   14.4922    7.9751 H   0  0  0  0  0
   15.8977   14.5855    7.6510 H   0  0  0  0  0
  1  2  1  0  0  0
  2  3  1  0  0  0
  3  4  4  0  0  0
  3 23  4  0  0  0
  4  5  4  0  0  0
  5  6  4  0  0  0
  5 21  4  0  0  0
  6  7  1  0  0  0
  6 18  4  0  0  0
  7  8  1  0  0  0
  8  9  4  0  0  0
  8 16  4  0  0  0
  9 10  1  0  0  0
  9 13  4  0  0  0
 10 11  1  0  0  0
 11 12  1  0  0  0
 12 13  1  0  0  0
 13 14  4  0  0  0
 14 15  4  0  0  0
 15 16  4  0  0  0
 16 17  1  0  0  0
 18 19  4  0  0  0
 19 20  4  0  0  0
 20 21  4  0  0  0
 21 22  4  0  0  0
 22 23  4  0  0  0
 23 24  1  0  0  0
 24 25  1  0  0  0
 25 26  1  0  0  0
 26 27  1  0  0  0
 27 28  1  0  0  0
 28 29  1  0  0  0
 28 33  1  0  0  0
 29 30  1  0  0  0
 30 31  1  0  0  0
 31 32  1  0  0  0
 32 33  1  0  0  0
  1 34  1  0  0  0
  1 35  1  0  0  0
  1 36  1  0  0  0
  4 37  1  0  0  0
  7 38  1  0  0  0
 11 39  1  0  0  0
 11 40  1  0  0  0
 14 41  1  0  0  0
 15 42  1  0  0  0
 19 43  1  0  0  0
 22 44  1  0  0  0
 25 45  1  0  0  0
 25 46  1  0  0  0
 26 47  1  0  0  0
 26 48  1  0  0  0
 27 49  1  0  0  0
 27 50  1  0  0  0
 28 51  1  0  0  0
 29 52  1  0  0  0
 29 53  1  0  0  0
 30 54  1  0  0  0
 30 55  1  0  0  0
 31 56  1  0  0  0
 31 57  1  0  0  0
 32 58  1  0  0  0
 32 59  1  0  0  0
 33 60  1  0  0  0
 33 61  1  0  0  0
M  END
$$$$
