4mt9_ligand
  -I-interpret- 

 56 59  0  0  0  0  0  0  0  0999 V2000
   -5.9950   42.9850   26.9670 N   0  0  0  0  0
   -4.6320   43.0540   26.7700 C   0  0  0  0  0
   -3.9340   42.0640   26.5000 O   0  0  0  0  0
   -3.9740   44.4450   26.8100 C   0  0  0  0  0
   -3.9340   45.1290   28.1240 C   0  0  0  0  0
   -3.5250   44.0140   29.6050 S   0  0  0  0  0
   -1.7980   43.7370   29.4390 C   0  0  0  0  0
   -1.2540   42.6780   30.1310 N   0  0  0  0  0
    0.0650   42.2940   30.0490 C   0  0  0  0  0
    0.5240   41.3490   30.6960 O   0  0  0  0  0
   -1.0340   44.4970   28.6340 N   0  0  0  0  0
    0.2940   44.2250   28.4670 C   0  0  0  0  0
    0.9540   43.0600   29.1870 C   0  0  0  0  0
    2.3660   42.7820   28.9940 C   0  0  0  0  0
    3.1600   43.6510   28.1100 C   0  0  0  0  0
    2.5320   44.7920   27.4200 C   0  0  0  0  0
    1.1020   45.0760   27.6050 C   0  0  0  0  0
   -8.4820   40.1880   26.0880 C   0  0  0  0  0
   -7.5190   41.3310   25.8930 C   0  0  0  0  0
   -6.5700   41.6220   27.1060 C   0  0  0  0  0
   -7.2740   41.4650   28.4860 C   0  0  0  0  0
   -8.2140   40.2930   28.5830 C   0  0  0  0  0
   -9.2430   40.2080   27.4390 C   0  0  0  0  0
  -10.0800   38.9950   27.6030 O   0  0  0  0  0
  -11.3760   39.2000   28.2570 C   0  0  0  0  0
  -11.7510   40.5450   28.6880 C   0  0  0  0  0
  -13.0150   40.7570   29.3120 C   0  0  0  0  0
  -13.8510   39.6470   29.4940 C   0  0  0  0  0
  -13.5040   38.2700   29.0820 C   0  0  0  0  0
  -12.2470   38.0460   28.4510 C   0  0  0  0  0
  -15.0750   40.1440   30.1170 C   0  0  0  0  0
  -16.0060   40.6200   30.6070 N   0  0  0  0  0
   -6.5757   43.8222   27.0146 H   0  0  0  0  0
   -4.5773   45.0797   26.1609 H   0  0  0  0  0
   -2.9342   44.2921   26.5209 H   0  0  0  0  0
   -4.9332   45.5277   28.2994 H   0  0  0  0  0
   -3.1402   45.8736   28.0647 H   0  0  0  0  0
   -1.8689   42.1432   30.7445 H   0  0  0  0  0
    2.8340   41.9372   29.4993 H   0  0  0  0  0
    4.2212   43.4489   27.9645 H   0  0  0  0  0
    3.1313   45.4285   26.7691 H   0  0  0  0  0
    0.6455   45.9250   27.0961 H   0  0  0  0  0
   -7.8945   39.2701   26.0675 H   0  0  0  0  0
   -9.2310   40.2652   25.2999 H   0  0  0  0  0
   -8.1231   42.2266   25.7476 H   0  0  0  0  0
   -6.8785   41.0596   25.0538 H   0  0  0  0  0
   -5.7762   40.8753   27.0838 H   0  0  0  0  0
   -7.8705   42.3639   28.6419 H   0  0  0  0  0
   -6.4897   41.3048   29.2258 H   0  0  0  0  0
   -8.7748   40.4079   29.5106 H   0  0  0  0  0
   -7.6059   39.3897   28.5348 H   0  0  0  0  0
   -9.9056   41.0733   27.4594 H   0  0  0  0  0
  -11.0686   41.3808   28.5333 H   0  0  0  0  0
  -13.3217   41.7511   29.6373 H   0  0  0  0  0
  -14.1946   37.4451   29.2572 H   0  0  0  0  0
  -11.9471   37.0499   28.1253 H   0  0  0  0  0
  1  2  1  0  0  0
 20  1  1  0  0  0
  2  3  2  0  0  0
  2  4  1  0  0  0
  4  5  1  0  0  0
  5  6  1  0  0  0
  6  7  1  0  0  0
  7  8  1  0  0  0
  7 11  2  0  0  0
  8  9  1  0  0  0
  9 10  2  0  0  0
  9 13  1  0  0  0
 11 12  1  0  0  0
 12 13  4  0  0  0
 12 17  4  0  0  0
 13 14  4  0  0  0
 14 15  4  0  0  0
 16 15  4  0  0  0
 17 16  4  0  0  0
 19 18  1  0  0  0
 18 23  1  0  0  0
 19 20  1  0  0  0
 20 21  1  0  0  0
 21 22  1  0  0  0
 22 23  1  0  0  0
 23 24  1  0  0  0
 24 25  1  0  0  0
 25 26  4  0  0  0
 25 30  4  0  0  0
 26 27  4  0  0  0
 27 28  4  0  0  0
 28 29  4  0  0  0
 28 31  1  0  0  0
 29 30  4  0  0  0
 31 32  3  0  0  0
  1 33  1  0  0  0
  4 34  1  0  0  0
  4 35  1  0  0  0
  5 36  1  0  0  0
  5 37  1  0  0  0
  8 38  1  0  0  0
 14 39  1  0  0  0
 15 40  1  0  0  0
 16 41  1  0  0  0
 17 42  1  0  0  0
 18 43  1  0  0  0
 18 44  1  0  0  0
 19 45  1  0  0  0
 19 46  1  0  0  0
 20 47  1  0  0  0
 21 48  1  0  0  0
 21 49  1  0  0  0
 22 50  1  0  0  0
 22 51  1  0  0  0
 23 52  1  0  0  0
 26 53  1  0  0  0
 27 54  1  0  0  0
 29 55  1  0  0  0
 30 56  1  0  0  0
M  END
$$$$
