2rfn_ligand
  -I-interpret- 

 81 86  0  0  0  0  0  0  0  0999 V2000
   58.2790    9.6300  127.1800 N   0  3  0  0  0
   63.4650   17.0740  111.4590 N   0  0  0  0  0
   58.1170   10.3360  128.4840 C   0  0  0  0  0
   64.5900   16.7850  108.2710 C   0  0  0  0  0
   65.7610   16.4710  108.9570 C   0  0  0  0  0
   66.8520   15.9530  108.2540 C   0  0  0  0  0
   66.7710   15.7430  106.8770 C   0  0  0  0  0
   64.5070   16.5800  106.8940 C   0  0  0  0  0
   63.0110   16.6030  110.2800 C   0  0  0  0  0
   61.5140   13.6160  116.4240 C   0  0  0  0  0
   62.1090   13.3590  114.0730 C   0  0  0  0  0
   61.4940   15.0060  116.2800 C   0  0  0  0  0
   61.5920   12.4350  119.9120 C   0  0  0  0  0
   60.2570   12.0540  120.0540 C   0  0  0  0  0
   60.6680   11.4880  122.3660 C   0  0  0  0  0
   62.4510   12.3510  121.0100 C   0  0  0  0  0
   63.4000   13.2980  118.6280 C   0  0  0  0  0
   57.0650    9.0140  126.5510 C   0  0  0  0  0
   55.8300    8.8870  127.4800 C   0  0  0  0  0
   55.7990    9.8720  128.5420 O   0  0  0  0  0
   56.9890    9.7360  129.3300 C   0  0  0  0  0
   58.8590   10.5960  126.2170 C   0  0  0  0  0
   60.2400   10.1090  125.7810 C   0  0  0  0  0
   60.9210   11.0250  124.7470 C   0  0  0  0  0
   60.1620   10.9950  123.5270 O   0  0  0  0  0
   61.9950   11.8690  122.2290 C   0  0  0  0  0
   59.7910   11.5700  121.2800 C   0  0  0  0  0
   58.4770   11.1870  121.4690 O   0  0  0  0  0
   57.8200   10.4470  120.4250 C   0  0  0  0  0
   63.7260   12.7300  120.9110 N   0  0  0  0  0
   64.2120   13.1850  119.7650 C   0  0  0  0  0
   62.0620   12.9230  118.6880 C   0  0  0  0  0
   61.2080   13.0110  117.6100 O   0  0  0  0  0
   61.8050   12.8160  115.3160 C   0  0  0  0  0
   61.8190   11.4840  115.4580 F   0  0  0  0  0
   61.7980   15.5540  115.0240 C   0  0  0  0  0
   62.1110   14.7460  113.9190 C   0  0  0  0  0
   62.3950   15.3320  112.6720 C   0  0  0  0  0
   61.8880   14.7980  111.4680 C   0  0  0  0  0
   61.1870   13.7770  111.4530 O   0  0  0  0  0
   62.1940   15.4410  110.2450 N   0  0  0  0  0
   61.6680   14.8790  108.9570 C   0  0  0  0  0
   63.1810   16.4820  112.6130 C   0  0  0  0  0
   63.3790   17.3660  109.0060 C   0  0  0  0  0
   65.5900   16.0540  106.2030 C   0  0  0  0  0
   58.8704    8.8282  127.3988 H   0  0  0  0  0
   57.8695   11.3773  128.2777 H   0  0  0  0  0
   59.0485   10.2374  129.0414 H   0  0  0  0  0
   65.8258   16.6281  110.0337 H   0  0  0  0  0
   67.7727   15.7113  108.7851 H   0  0  0  0  0
   67.6242   15.3390  106.3320 H   0  0  0  0  0
   63.5911   16.8330  106.3600 H   0  0  0  0  0
   62.3428   12.7097  113.2293 H   0  0  0  0  0
   61.2478   15.6501  117.1242 H   0  0  0  0  0
   59.5758   12.1340  119.2068 H   0  0  0  0  0
   63.8174   13.6800  117.6963 H   0  0  0  0  0
   57.3435    8.0007  126.2615 H   0  0  0  0  0
   56.7723    9.6688  125.7303 H   0  0  0  0  0
   55.8728    7.9034  127.9478 H   0  0  0  0  0
   54.9424    9.0402  126.8662 H   0  0  0  0  0
   56.8932   10.2495  130.2867 H   0  0  0  0  0
   57.1871    8.6923  129.5742 H   0  0  0  0  0
   58.9502   11.5732  126.6912 H   0  0  0  0  0
   58.2092   10.6766  125.3456 H   0  0  0  0  0
   60.1093    9.1322  125.3153 H   0  0  0  0  0
   60.8740   10.0901  126.6675 H   0  0  0  0  0
   61.9363   10.6763  124.5580 H   0  0  0  0  0
   60.9634   12.0448  125.1296 H   0  0  0  0  0
   62.6769   11.7901  123.0757 H   0  0  0  0  0
   57.8082   11.0420  119.5118 H   0  0  0  0  0
   58.3587    9.5163  120.2468 H   0  0  0  0  0
   56.7970   10.2239  120.7280 H   0  0  0  0  0
   65.2607   13.4762  119.7056 H   0  0  0  0  0
   61.7909   16.6372  114.9030 H   0  0  0  0  0
   61.0502   15.6275  108.4609 H   0  0  0  0  0
   62.5039   14.6100  108.3112 H   0  0  0  0  0
   61.0691   13.9927  109.1665 H   0  0  0  0  0
   63.5723   16.9059  113.5378 H   0  0  0  0  0
   62.5261   17.3038  108.3302 H   0  0  0  0  0
   63.6320   18.3854  109.2974 H   0  0  0  0  0
   65.5172   15.8832  105.1289 H   0  0  0  0  0
  1  3  1  0  0  0
  1 18  1  0  0  0
 22  1  1  0  0  0
  2  9  2  0  0  0
 43  2  1  0  0  0
  3 21  1  0  0  0
  4  5  4  0  0  0
  4  8  4  0  0  0
 44  4  1  0  0  0
  5  6  4  0  0  0
  6  7  4  0  0  0
 45  7  4  0  0  0
  8 45  4  0  0  0
  9 41  1  0  0  0
  9 44  1  0  0  0
 12 10  4  0  0  0
 10 33  1  0  0  0
 34 10  4  0  0  0
 11 34  4  0  0  0
 37 11  4  0  0  0
 36 12  4  0  0  0
 13 14  4  0  0  0
 13 16  4  0  0  0
 32 13  4  0  0  0
 14 27  4  0  0  0
 15 25  1  0  0  0
 26 15  4  0  0  0
 27 15  4  0  0  0
 16 26  4  0  0  0
 16 30  4  0  0  0
 17 31  4  0  0  0
 32 17  4  0  0  0
 18 19  1  0  0  0
 19 20  1  0  0  0
 21 20  1  0  0  0
 23 22  1  0  0  0
 24 23  1  0  0  0
 25 24  1  0  0  0
 27 28  1  0  0  0
 28 29  1  0  0  0
 31 30  4  0  0  0
 33 32  1  0  0  0
 34 35  1  0  0  0
 37 36  4  0  0  0
 38 37  1  0  0  0
 38 39  1  0  0  0
 38 43  2  0  0  0
 39 40  2  0  0  0
 39 41  1  0  0  0
 41 42  1  0  0  0
  1 46  1  0  0  0
  3 47  1  0  0  0
  3 48  1  0  0  0
  5 49  1  0  0  0
  6 50  1  0  0  0
  7 51  1  0  0  0
  8 52  1  0  0  0
 11 53  1  0  0  0
 12 54  1  0  0  0
 14 55  1  0  0  0
 17 56  1  0  0  0
 18 57  1  0  0  0
 18 58  1  0  0  0
 19 59  1  0  0  0
 19 60  1  0  0  0
 21 61  1  0  0  0
 21 62  1  0  0  0
 22 63  1  0  0  0
 22 64  1  0  0  0
 23 65  1  0  0  0
 23 66  1  0  0  0
 24 67  1  0  0  0
 24 68  1  0  0  0
 26 69  1  0  0  0
 29 70  1  0  0  0
 29 71  1  0  0  0
 29 72  1  0  0  0
 31 73  1  0  0  0
 36 74  1  0  0  0
 42 75  1  0  0  0
 42 76  1  0  0  0
 42 77  1  0  0  0
 43 78  1  0  0  0
 44 79  1  0  0  0
 44 80  1  0  0  0
 45 81  1  0  0  0
M  END
$$$$
