1g30_ligand
  -I-interpret- 

 70 74  0  0  0  0  0  0  0  0999 V2000
   10.2730  -12.6880   23.9230 N   0  0  0  0  0
   10.8730  -10.6680   24.4990 N   0  0  0  0  0
   11.0970  -11.6780   23.6710 C   0  0  0  0  0
   12.0790  -11.6850   22.6660 C   0  0  0  0  0
   12.0990  -12.6910   21.6450 C   0  0  0  0  0
   13.0860  -12.7030   20.6420 C   0  0  0  0  0
   14.0860  -11.7100   20.6240 C   0  0  0  0  0
   14.0990  -10.7020   21.6110 C   0  0  0  0  0
   13.1130  -10.6920   22.6100 C   0  0  0  0  0
   15.1220  -11.6910   19.6280 N   0  0  0  0  0
   16.5750  -11.4160   19.8050 C   0  0  0  0  0
   16.7180  -13.2600   21.5130 N   0  0  0  0  0
   17.4080  -12.3860   20.6790 C   0  0  0  0  0
   18.8210  -12.4030   20.6440 N   0  0  0  0  0
   19.0210  -13.4180   21.5730 C   0  0  0  0  0
   17.7690  -13.9140   22.0830 C   0  0  0  0  0
   20.2520  -13.9740   22.0450 C   0  0  0  0  0
   20.2060  -15.0050   23.0010 C   0  0  0  0  0
   18.9710  -15.5090   23.5300 C   0  0  0  0  0
   17.7400  -14.9590   23.0520 C   0  0  0  0  0
   19.8120  -11.6010   19.8600 C   0  0  0  0  0
   18.0980  -17.6840   24.9640 C   0  0  0  0  0
   17.7220  -16.3400   25.6270 C   0  0  0  0  0
   18.9830  -16.4650   24.8040 C   0  0  0  0  0
   20.4640  -16.6310   25.2470 C   0  0  0  0  0
   21.1550  -17.6570   24.8780 N   0  0  0  0  0
   22.4130  -15.7230   26.6390 N   0  0  0  0  0
   21.1190  -15.5360   26.1000 C   0  0  0  0  0
   20.4370  -14.3180   26.3370 C   0  0  0  0  0
   21.0510  -13.3150   27.1050 C   0  0  0  0  0
   22.3350  -13.4960   27.6460 C   0  0  0  0  0
   23.0250  -14.7120   27.4120 C   0  0  0  0  0
   20.5310  -18.6970   24.0270 O   0  0  0  0  0
   21.1310  -19.9690   24.2640 C   0  0  0  0  0
   20.4590  -21.0230   23.3480 C   0  0  0  0  0
   20.6110  -22.2250   23.6010 O   0  0  0  0  0
   19.7090  -20.6100   22.2700 O   0  0  0  0  0
   18.1330  -21.2130   20.5100 C   0  0  0  0  0
   19.1640  -21.7220   21.5370 C   0  0  0  0  0
    9.5876  -12.6117   24.6745 H   0  0  0  0  0
   10.3254  -13.5403   23.3651 H   0  0  0  0  0
   11.4341   -9.8189   24.4313 H   0  0  0  0  0
   11.3315  -13.4650   21.6455 H   0  0  0  0  0
   13.0771  -13.4808   19.8785 H   0  0  0  0  0
   14.8720   -9.9336   21.5978 H   0  0  0  0  0
   13.1335   -9.9066   23.3655 H   0  0  0  0  0
   14.8226  -11.8925   18.6740 H   0  0  0  0  0
   16.6233  -10.4558   20.3186 H   0  0  0  0  0
   17.0038  -11.4922   18.8058 H   0  0  0  0  0
   21.2073  -13.6057   21.6709 H   0  0  0  0  0
   21.1429  -15.4369   23.3528 H   0  0  0  0  0
   16.7879  -15.3358   23.4256 H   0  0  0  0  0
   19.6433  -11.7583   18.7947 H   0  0  0  0  0
   19.6902  -10.5439   20.0962 H   0  0  0  0  0
   20.8217  -11.9187   20.1201 H   0  0  0  0  0
   17.6382  -18.4556   24.3465 H   0  0  0  0  0
   18.1862  -18.7376   25.2289 H   0  0  0  0  0
   17.4096  -15.9624   26.6006 H   0  0  0  0  0
   16.8595  -15.6793   25.7148 H   0  0  0  0  0
   19.4402  -14.1595   25.9254 H   0  0  0  0  0
   20.5217  -12.3792   27.2846 H   0  0  0  0  0
   22.7968  -12.7079   28.2408 H   0  0  0  0  0
   24.0215  -14.8657   27.8261 H   0  0  0  0  0
   20.9956  -20.2502   25.3084 H   0  0  0  0  0
   22.1976  -19.9186   24.0450 H   0  0  0  0  0
   17.3285  -20.6942   21.0313 H   0  0  0  0  0
   18.6204  -20.5271   19.8172 H   0  0  0  0  0
   17.7237  -22.0591   19.9580 H   0  0  0  0  0
   18.6754  -22.4067   22.2302 H   0  0  0  0  0
   19.9687  -22.2394   21.0147 H   0  0  0  0  0
  3  1  1  0  0  0
  4  3  1  0  0  0
  5  4  4  0  0  0
  9  4  4  0  0  0
  6  5  4  0  0  0
  7  6  4  0  0  0
  7  8  4  0  0  0
 10  7  1  0  0  0
  8  9  4  0  0  0
 11 10  1  0  0  0
 13 11  1  0  0  0
 14 13  4  0  0  0
 15 14  4  0  0  0
 14 21  1  0  0  0
 16 15  4  0  0  0
 17 15  4  0  0  0
 20 16  4  0  0  0
 18 17  4  0  0  0
 19 18  4  0  0  0
 19 20  4  0  0  0
 24 19  1  0  0  0
 22 23  1  0  0  0
 24 22  1  0  0  0
 23 24  1  0  0  0
 24 25  1  0  0  0
 25 26  2  0  0  0
 25 28  1  0  0  0
 26 33  1  0  0  0
 28 29  4  0  0  0
 29 30  4  0  0  0
 30 31  4  0  0  0
 31 32  4  0  0  0
 33 34  1  0  0  0
 34 35  1  0  0  0
 35 36  2  0  0  0
 35 37  1  0  0  0
 37 39  1  0  0  0
 39 38  1  0  0  0
 32 27  4  0  0  0
 28 27  4  0  0  0
 16 12  4  0  0  0
 13 12  4  0  0  0
  3  2  2  0  0  0
  1 40  1  0  0  0
  1 41  1  0  0  0
  2 42  1  0  0  0
  5 43  1  0  0  0
  6 44  1  0  0  0
  8 45  1  0  0  0
  9 46  1  0  0  0
 10 47  1  0  0  0
 11 48  1  0  0  0
 11 49  1  0  0  0
 17 50  1  0  0  0
 18 51  1  0  0  0
 20 52  1  0  0  0
 21 53  1  0  0  0
 21 54  1  0  0  0
 21 55  1  0  0  0
 22 56  1  0  0  0
 22 57  1  0  0  0
 23 58  1  0  0  0
 23 59  1  0  0  0
 29 60  1  0  0  0
 30 61  1  0  0  0
 31 62  1  0  0  0
 32 63  1  0  0  0
 34 64  1  0  0  0
 34 65  1  0  0  0
 38 66  1  0  0  0
 38 67  1  0  0  0
 38 68  1  0  0  0
 39 69  1  0  0  0
 39 70  1  0  0  0
M  END
$$$$
