1xt3_ligand
  -I-interpret- 

162167  0  0  0  0  0  0  0  0999 V2000
   17.7860   33.3350   35.7010 C   0  0  0  0  0
   18.5110   32.3420   34.7990 C   0  0  0  0  0
   18.8250   31.0130   35.4860 C   0  0  0  0  0
   17.7260   30.5670   36.3900 C   0  0  0  0  0
   16.6540   31.3670   36.6490 C   0  0  0  0  0
   15.3570   30.7770   37.3270 C   0  0  0  0  0
   17.6980   32.0040   33.6620 O   0  0  0  0  0
   20.0170   31.2130   36.1600 O   0  0  0  0  0
   16.5980   32.6890   36.2280 O   0  0  0  0  0
   15.3290   29.5950   37.6720 O   0  0  0  0  0
   14.3450   31.5040   37.4820 O   0  0  0  0  0
   16.3040   32.9840   33.1360 S   0  0  0  0  0
   15.2970   32.9180   34.1620 O   0  0  0  0  0
   15.7160   32.4100   31.9740 O   0  0  0  0  0
   16.7850   34.3380   32.9050 O   0  0  0  0  0
   18.2950   36.3510   40.1060 C   0  0  0  0  0
   17.3480   35.1670   39.9690 C   0  0  0  0  0
   17.9260   34.0580   39.0850 C   0  0  0  0  0
   18.1440   34.6510   37.6840 C   0  0  0  0  0
   19.2120   35.7420   37.8720 C   0  0  0  0  0
   19.5670   36.3920   36.5560 C   0  0  0  0  0
   17.1610   34.5830   41.2590 N   0  0  0  0  0
   19.3760   35.9510   40.9580 O   0  0  0  0  0
   16.9840   33.0200   39.0450 O   0  0  0  0  0
   18.6680   33.6700   36.7920 O   0  0  0  0  0
   18.7130   36.7750   38.7690 O   0  0  0  0  0
   20.5440   35.5610   35.9550 O   0  0  0  0  0
   15.6680   34.9870   42.0680 S   0  0  0  0  0
   15.6560   34.2940   43.3390 O   0  0  0  0  0
   14.6130   34.5530   41.1980 O   0  0  0  0  0
   15.5480   36.4170   42.2330 O   0  0  0  0  0
   21.9930   36.3960   35.4490 S   0  0  0  0  0
   21.7060   37.2490   34.3440 O   0  0  0  0  0
   22.9180   35.3670   35.0590 O   0  0  0  0  0
   22.5580   37.1120   36.5900 O   0  0  0  0  0
   20.3920   35.2880   44.4460 C   0  0  0  0  0
   18.9290   35.1820   43.9350 C   0  0  0  0  0
   18.5090   36.4980   43.2670 C   0  0  0  0  0
   19.5000   36.8300   42.0690 C   0  0  0  0  0
   20.9660   36.7720   42.5770 C   0  0  0  0  0
   22.0680   37.0340   41.5540 C   0  0  0  0  0
   18.7420   34.1340   43.0210 O   0  0  0  0  0
   18.6220   37.4720   44.2810 O   0  0  0  0  0
   21.2490   35.5000   43.2950 O   0  0  0  0  0
   22.0070   38.0330   40.8390 O   0  0  0  0  0
   23.0090   36.2390   41.5190 O   0  0  0  0  0
   19.2180   32.5120   43.5420 S   0  0  0  0  0
   18.8780   31.6320   42.4390 O   0  0  0  0  0
   18.4470   32.2230   44.7440 O   0  0  0  0  0
   20.6020   32.3770   43.8930 O   0  0  0  0  0
   22.9300   38.7170   47.7770 C   0  0  0  0  0
   23.2410   38.6580   46.3040 C   0  0  0  0  0
   22.0060   38.2370   45.5690 C   0  0  0  0  0
   21.5880   36.8290   46.0670 C   0  0  0  0  0
   21.2650   36.9410   47.5680 C   0  0  0  0  0
   20.8510   35.5910   48.1140 C   0  0  0  0  0
   23.6340   39.9750   45.8670 N   0  0  0  0  0
   21.9050   39.6970   47.9460 O   0  0  0  0  0
   22.3420   38.2140   44.2290 O   0  0  0  0  0
   20.3960   36.4040   45.3890 O   0  0  0  0  0
   22.4800   37.4180   48.2170 O   0  0  0  0  0
   21.7740   35.1250   49.0880 O   0  0  0  0  0
   24.7700   40.1650   44.5210 S   0  0  0  0  0
   26.1410   39.9700   44.9650 O   0  0  0  0  0
   24.5640   41.5100   44.0590 O   0  0  0  0  0
   24.4740   39.2360   43.4450 O   0  0  0  0  0
   23.3160   34.4440   48.5060 S   0  0  0  0  0
   23.0090   33.3200   47.6600 O   0  0  0  0  0
   24.0850   34.0170   49.6440 O   0  0  0  0  0
   24.0780   35.4250   47.7610 O   0  0  0  0  0
   20.7630   43.3630   49.5800 C   0  0  0  0  0
   22.2460   43.3840   49.1020 C   0  0  0  0  0
   22.4310   42.3590   48.0290 C   0  0  0  0  0
   22.1600   40.9460   48.5940 C   0  0  0  0  0
   21.1180   40.9210   49.7670 C   0  0  0  0  0
   20.2930   39.6100   49.8600 C   0  0  0  0  0
   22.5600   44.6380   48.5160 O   0  0  0  0  0
   23.7520   42.4090   47.5910 O   0  0  0  0  0
   20.1800   42.0380   49.6850 O   0  0  0  0  0
   20.9490   38.5390   49.8640 O   0  0  0  0  0
   19.0300   39.6760   49.9490 O   0  0  0  0  0
   24.2650   45.1420   48.6620 S   0  0  0  0  0
   24.9110   45.1090   47.3510 O   0  0  0  0  0
   24.8980   44.1870   49.5500 O   0  0  0  0  0
   24.3570   46.4780   49.2440 O   0  0  0  0  0
   21.8070   42.3460   55.0630 C   0  0  0  0  0
   20.4850   41.9190   54.3930 C   0  0  0  0  0
   20.6540   41.8880   52.8720 C   0  0  0  0  0
   21.0800   43.2850   52.3900 C   0  0  0  0  0
   22.3520   43.7560   53.1120 C   0  0  0  0  0
   22.7140   45.1880   52.6760 C   0  0  0  0  0
   20.0720   40.5790   54.8330 N   0  0  0  0  0
   22.8090   41.3720   54.7110 O   0  0  0  0  0
   19.3870   41.5590   52.3040 O   0  0  0  0  0
   21.2850   43.3310   50.9000 O   0  0  0  0  0
   22.1500   43.6820   54.5650 O   0  0  0  0  0
   21.6490   46.1090   53.0090 O   0  0  0  0  0
   20.5030   39.9180   56.4320 S   0  0  0  0  0
   19.8780   38.6090   56.5520 O   0  0  0  0  0
   19.9910   40.8440   57.4230 O   0  0  0  0  0
   21.9380   39.7310   56.5830 O   0  0  0  0  0
   20.8280   47.0120   51.7130 S   0  0  0  0  0
   20.1330   46.1010   50.8140 O   0  0  0  0  0
   21.8410   47.7830   50.9980 O   0  0  0  0  0
   19.8640   47.9120   52.3140 O   0  0  0  0  0
   17.5067   34.2341   35.1516 H   0  0  0  0  0
   19.4375   32.8447   34.5214 H   0  0  0  0  0
   18.9165   30.2059   34.7591 H   0  0  0  0  0
   17.7814   29.5816   36.8526 H   0  0  0  0  0
   20.6908   31.4980   35.5385 H   0  0  0  0  0
   14.5362   32.3890   37.1629 H   0  0  0  0  0
   17.4519   34.3260   32.2146 H   0  0  0  0  0
   17.8230   37.2179   40.5683 H   0  0  0  0  0
   16.4257   35.5442   39.5273 H   0  0  0  0  0
   18.8726   33.6722   39.4636 H   0  0  0  0  0
   17.2073   35.0223   37.2684 H   0  0  0  0  0
   20.0990   35.2658   38.2898 H   0  0  0  0  0
   19.9492   37.4015   36.7071 H   0  0  0  0  0
   18.6892   36.4911   35.9175 H   0  0  0  0  0
   17.8567   33.9681   41.6812 H   0  0  0  0  0
   17.3185   32.3068   38.4963 H   0  0  0  0  0
   16.3768   34.6166   43.8849 H   0  0  0  0  0
   22.7310   36.4916   37.3019 H   0  0  0  0  0
   20.7612   34.3958   44.9517 H   0  0  0  0  0
   18.3118   34.9755   44.8094 H   0  0  0  0  0
   17.5013   36.4550   42.8538 H   0  0  0  0  0
   19.2302   37.8279   41.7232 H   0  0  0  0  0
   21.0082   37.6237   43.2559 H   0  0  0  0  0
   18.3717   38.3293   43.9289 H   0  0  0  0  0
   22.8563   35.5359   42.1546 H   0  0  0  0  0
   18.7064   32.8284   45.4424 H   0  0  0  0  0
   23.8060   38.9862   48.3672 H   0  0  0  0  0
   24.0442   37.9473   46.1093 H   0  0  0  0  0
   21.1672   38.9130   45.7349 H   0  0  0  0  0
   22.3905   36.1160   45.8778 H   0  0  0  0  0
   20.4371   37.6263   47.7499 H   0  0  0  0  0
   20.8237   34.8767   47.2911 H   0  0  0  0  0
   19.8720   35.6909   48.5826 H   0  0  0  0  0
   23.2568   40.7995   46.3343 H   0  0  0  0  0
   21.5774   37.9479   43.7131 H   0  0  0  0  0
   26.2525   39.0659   45.2680 H   0  0  0  0  0
   24.2795   36.1715   48.3300 H   0  0  0  0  0
   20.0849   44.0443   49.0662 H   0  0  0  0  0
   22.8822   43.1904   49.9656 H   0  0  0  0  0
   21.7400   42.5641   47.2114 H   0  0  0  0  0
   23.2431   40.9058   48.7095 H   0  0  0  0  0
   21.7326   40.9986   50.6638 H   0  0  0  0  0
   23.8841   41.7548   46.9010 H   0  0  0  0  0
   18.7562   40.5958   49.9244 H   0  0  0  0  0
   24.4858   45.7439   46.7699 H   0  0  0  0  0
   21.7301   42.3905   56.1494 H   0  0  0  0  0
   19.7245   42.6448   54.6809 H   0  0  0  0  0
   21.4081   41.1583   52.5770 H   0  0  0  0  0
   20.2635   43.9639   52.6359 H   0  0  0  0  0
   23.1831   43.1040   52.8432 H   0  0  0  0  0
   22.8653   45.1999   51.5966 H   0  0  0  0  0
   23.6212   45.4958   53.1959 H   0  0  0  0  0
   19.5170   40.0045   54.1988 H   0  0  0  0  0
   23.6451   41.6139   55.1161 H   0  0  0  0  0
   19.4636   41.5324   51.3474 H   0  0  0  0  0
   20.2379   38.0213   55.8836 H   0  0  0  0  0
   22.2835   48.3743   51.6113 H   0  0  0  0  0
  1  2  1  0  0  0
  1  9  1  0  0  0
 25  1  1  0  0  0
  2  3  1  0  0  0
  2  7  1  0  0  0
  3  4  1  0  0  0
  3  8  1  0  0  0
  5  4  2  0  0  0
  5  6  1  0  0  0
  9  5  1  0  0  0
  6 10  2  0  0  0
  6 11  1  0  0  0
  7 12  1  0  0  0
 12 13  2  0  0  0
 12 14  2  0  0  0
 12 15  1  0  0  0
 16 17  1  0  0  0
 23 16  1  0  0  0
 16 26  1  0  0  0
 17 18  1  0  0  0
 17 22  1  0  0  0
 18 19  1  0  0  0
 18 24  1  0  0  0
 20 19  1  0  0  0
 19 25  1  0  0  0
 20 21  1  0  0  0
 26 20  1  0  0  0
 21 27  1  0  0  0
 22 28  1  0  0  0
 39 23  1  0  0  0
 27 32  1  0  0  0
 28 29  1  0  0  0
 28 30  2  0  0  0
 28 31  2  0  0  0
 32 33  2  0  0  0
 32 34  2  0  0  0
 32 35  1  0  0  0
 36 37  1  0  0  0
 36 44  1  0  0  0
 60 36  1  0  0  0
 37 38  1  0  0  0
 37 42  1  0  0  0
 38 39  1  0  0  0
 38 43  1  0  0  0
 40 39  1  0  0  0
 40 41  1  0  0  0
 44 40  1  0  0  0
 41 45  2  0  0  0
 41 46  1  0  0  0
 42 47  1  0  0  0
 47 48  2  0  0  0
 47 49  1  0  0  0
 47 50  2  0  0  0
 51 52  1  0  0  0
 58 51  1  0  0  0
 51 61  1  0  0  0
 52 53  1  0  0  0
 52 57  1  0  0  0
 53 54  1  0  0  0
 53 59  1  0  0  0
 55 54  1  0  0  0
 54 60  1  0  0  0
 55 56  1  0  0  0
 61 55  1  0  0  0
 56 62  1  0  0  0
 57 63  1  0  0  0
 74 58  1  0  0  0
 62 67  1  0  0  0
 63 64  1  0  0  0
 63 65  2  0  0  0
 63 66  2  0  0  0
 67 68  2  0  0  0
 67 69  2  0  0  0
 67 70  1  0  0  0
 71 72  1  0  0  0
 71 79  1  0  0  0
 95 71  1  0  0  0
 72 73  1  0  0  0
 72 77  1  0  0  0
 73 74  1  0  0  0
 73 78  1  0  0  0
 75 74  1  0  0  0
 75 76  1  0  0  0
 79 75  1  0  0  0
 76 80  2  0  0  0
 76 81  1  0  0  0
 77 82  1  0  0  0
 82 83  1  0  0  0
 82 84  2  0  0  0
 82 85  2  0  0  0
 87 86  1  0  0  0
 86 93  1  0  0  0
 86 96  1  0  0  0
 88 87  1  0  0  0
 87 92  1  0  0  0
 89 88  1  0  0  0
 88 94  1  0  0  0
 89 90  1  0  0  0
 89 95  1  0  0  0
 90 91  1  0  0  0
 90 96  1  0  0  0
 91 97  1  0  0  0
 92 98  1  0  0  0
 97102  1  0  0  0
 98 99  1  0  0  0
 98100  2  0  0  0
 98101  2  0  0  0
102103  2  0  0  0
102104  1  0  0  0
102105  2  0  0  0
  1106  1  0  0  0
  2107  1  0  0  0
  3108  1  0  0  0
  4109  1  0  0  0
  8110  1  0  0  0
 11111  1  0  0  0
 15112  1  0  0  0
 16113  1  0  0  0
 17114  1  0  0  0
 18115  1  0  0  0
 19116  1  0  0  0
 20117  1  0  0  0
 21118  1  0  0  0
 21119  1  0  0  0
 22120  1  0  0  0
 24121  1  0  0  0
 29122  1  0  0  0
 35123  1  0  0  0
 36124  1  0  0  0
 37125  1  0  0  0
 38126  1  0  0  0
 39127  1  0  0  0
 40128  1  0  0  0
 43129  1  0  0  0
 46130  1  0  0  0
 49131  1  0  0  0
 51132  1  0  0  0
 52133  1  0  0  0
 53134  1  0  0  0
 54135  1  0  0  0
 55136  1  0  0  0
 56137  1  0  0  0
 56138  1  0  0  0
 57139  1  0  0  0
 59140  1  0  0  0
 64141  1  0  0  0
 70142  1  0  0  0
 71143  1  0  0  0
 72144  1  0  0  0
 73145  1  0  0  0
 74146  1  0  0  0
 75147  1  0  0  0
 78148  1  0  0  0
 81149  1  0  0  0
 83150  1  0  0  0
 86151  1  0  0  0
 87152  1  0  0  0
 88153  1  0  0  0
 89154  1  0  0  0
 90155  1  0  0  0
 91156  1  0  0  0
 91157  1  0  0  0
 92158  1  0  0  0
 93159  1  0  0  0
 94160  1  0  0  0
 99161  1  0  0  0
104162  1  0  0  0
M  END
$$$$
