### 
### Created by X-TOOL on Mon Sep 10 21:12:52 2018
### 

@<TRIPOS>MOLECULE
1xt3_ligand
  150   155     1     0     0
SMALL
GAST_HUCK


@<TRIPOS>ATOM
      1 C1         17.7860   33.3350   35.7010 C.3       1 IDS         0.2100
      2 C2         18.5110   32.3420   34.7990 C.3       1 IDS         0.1709
      3 C3         18.8250   31.0130   35.4860 C.3       1 IDS         0.1080
      4 C4         17.7260   30.5670   36.3900 C.2       1 IDS        -0.0270
      5 C5         16.6540   31.3670   36.6490 C.2       1 IDS         0.1115
      6 C6         15.3570   30.7770   37.3270 C.2       1 IDS         0.0810
      7 O2         17.6980   32.0040   33.6620 O.3       1 IDS        -0.2525
      8 O3         20.0170   31.2130   36.1600 O.3       1 IDS        -0.3803
      9 O5         16.5980   32.6890   36.2280 O.3       1 IDS        -0.2948
     10 O61        15.3290   29.5950   37.6720 O.co2     1 IDS        -0.5623
     11 O62        14.3450   31.5040   37.4820 O.co2     1 IDS        -0.5623
     12 S          16.3040   32.9840   33.1360 S.o2      1 IDS        -0.0731
     13 O1S        15.2970   32.9180   34.1620 O.co2     1 IDS        -0.4611
     14 O2S        15.7160   32.4100   31.9740 O.co2     1 IDS        -0.4611
     15 O3S        16.7850   34.3380   32.9050 O.co2     1 IDS        -0.4611
     16 C1         18.2950   36.3510   40.1060 C.3       1 SGN         0.1821
     17 C2         17.3480   35.1670   39.9690 C.3       1 SGN         0.1138
     18 C3         17.9260   34.0580   39.0850 C.3       1 SGN         0.1080
     19 C4         18.1440   34.6510   37.6840 C.3       1 SGN         0.1182
     20 C5         19.2120   35.7420   37.8720 C.3       1 SGN         0.1158
     21 C6         19.5670   36.3920   36.5560 C.3       1 SGN         0.1025
     22 N          17.1610   34.5830   41.2590 N.am      1 SGN        -0.2705
     23 O1         19.3760   35.9510   40.9580 O.3       1 IDS        -0.3391
     24 O3         16.9840   33.0200   39.0450 O.3       1 SGN        -0.3871
     25 O4         18.6680   33.6700   36.7920 O.3       1 SGN        -0.3366
     26 O5         18.7130   36.7750   38.7690 O.3       1 SGN        -0.3411
     27 O6         20.5440   35.5610   35.9550 O.3       1 SGN        -0.2631
     28 S1         15.6680   34.9870   42.0680 S.o2      1 SGN        -0.1197
     29 O1S        15.6560   34.2940   43.3390 O.co2     1 SGN        -0.4676
     30 O2S        14.6130   34.5530   41.1980 O.co2     1 SGN        -0.4676
     31 O3S        15.5480   36.4170   42.2330 O.co2     1 SGN        -0.4676
     32 S2         21.9930   36.3960   35.4490 S.o2      1 SGN        -0.0736
     33 O4S        21.7060   37.2490   34.3440 O.co2     1 SGN        -0.4611
     34 O5S        22.9180   35.3670   35.0590 O.co2     1 SGN        -0.4611
     35 O6S        22.5580   37.1120   36.5900 O.co2     1 SGN        -0.4611
     36 C1         20.3920   35.2880   44.4460 C.3       1 IDS         0.1927
     37 C2         18.9290   35.1820   43.9350 C.3       1 IDS         0.1635
     38 C3         18.5090   36.4980   43.2670 C.3       1 IDS         0.1184
     39 C4         19.5000   36.8300   42.0690 C.3       1 IDS         0.1280
     40 C5         20.9660   36.7720   42.5770 C.3       1 IDS         0.1424
     41 C6         22.0680   37.0340   41.5540 C.2       1 IDS         0.0664
     42 O2         18.7420   34.1340   43.0210 O.3       1 IDS        -0.2546
     43 O3         18.6220   37.4720   44.2810 O.3       1 IDS        -0.3862
     44 O5         21.2490   35.5000   43.2950 O.3       1 IDS        -0.3284
     45 O61        22.0070   38.0330   40.8390 O.co2     1 IDS        -0.5662
     46 O62        23.0090   36.2390   41.5190 O.co2     1 IDS        -0.5662
     47 S          19.2180   32.5120   43.5420 S.o2      1 IDS        -0.0732
     48 O1S        18.8780   31.6320   42.4390 O.co2     1 IDS        -0.4611
     49 O2S        18.4470   32.2230   44.7440 O.co2     1 IDS        -0.4611
     50 O3S        20.6020   32.3770   43.8930 O.co2     1 IDS        -0.4611
     51 C1         22.9300   38.7170   47.7770 C.3       1 SGN         0.1821
     52 C2         23.2410   38.6580   46.3040 C.3       1 SGN         0.1138
     53 C3         22.0060   38.2370   45.5690 C.3       1 SGN         0.1080
     54 C4         21.5880   36.8290   46.0670 C.3       1 SGN         0.1179
     55 C5         21.2650   36.9410   47.5680 C.3       1 SGN         0.1157
     56 C6         20.8510   35.5910   48.1140 C.3       1 SGN         0.1025
     57 N          23.6340   39.9750   45.8670 N.am      1 SGN        -0.2705
     58 O1         21.9050   39.6970   47.9460 O.3       1 IDS        -0.3391
     59 O3         22.3420   38.2140   44.2290 O.3       1 SGN        -0.3871
     60 O4         20.3960   36.4040   45.3890 O.3       1 SGN        -0.3400
     61 O5         22.4800   37.4180   48.2170 O.3       1 SGN        -0.3411
     62 O6         21.7740   35.1250   49.0880 O.3       1 SGN        -0.2631
     63 S1         24.7700   40.1650   44.5210 S.o2      1 SGN        -0.1197
     64 O1S        26.1410   39.9700   44.9650 O.co2     1 SGN        -0.4676
     65 O2S        24.5640   41.5100   44.0590 O.co2     1 SGN        -0.4676
     66 O3S        24.4740   39.2360   43.4450 O.co2     1 SGN        -0.4676
     67 S2         23.3160   34.4440   48.5060 S.o2      1 SGN        -0.0736
     68 O4S        23.0090   33.3200   47.6600 O.co2     1 SGN        -0.4611
     69 O5S        24.0850   34.0170   49.6440 O.co2     1 SGN        -0.4611
     70 O6S        24.0780   35.4250   47.7610 O.co2     1 SGN        -0.4611
     71 C1         20.7630   43.3630   49.5800 C.3       1 IDS         0.1927
     72 C2         22.2460   43.3840   49.1020 C.3       1 IDS         0.1635
     73 C3         22.4310   42.3590   48.0290 C.3       1 IDS         0.1184
     74 C4         22.1600   40.9460   48.5940 C.3       1 IDS         0.1280
     75 C5         21.1180   40.9210   49.7670 C.3       1 IDS         0.1424
     76 C6         20.2930   39.6100   49.8600 C.2       1 IDS         0.0664
     77 O2         22.5600   44.6380   48.5160 O.3       1 IDS        -0.2546
     78 O3         23.7520   42.4090   47.5910 O.3       1 IDS        -0.3862
     79 O5         20.1800   42.0380   49.6850 O.3       1 IDS        -0.3284
     80 O61        20.9490   38.5390   49.8640 O.co2     1 IDS        -0.5662
     81 O62        19.0300   39.6760   49.9490 O.co2     1 IDS        -0.5662
     82 S          24.2650   45.1420   48.6620 S.o2      1 IDS        -0.0732
     83 O1S        24.9110   45.1090   47.3510 O.co2     1 IDS        -0.4611
     84 O2S        24.8980   44.1870   49.5500 O.co2     1 IDS        -0.4611
     85 O3S        24.3570   46.4780   49.2440 O.co2     1 IDS        -0.4611
     86 C1         21.8070   42.3460   55.0630 C.3       1 SGN         0.1788
     87 C2         20.4850   41.9190   54.3930 C.3       1 SGN         0.1136
     88 C3         20.6540   41.8880   52.8720 C.3       1 SGN         0.1080
     89 C4         21.0800   43.2850   52.3900 C.3       1 SGN         0.1179
     90 C5         22.3520   43.7560   53.1120 C.3       1 SGN         0.1157
     91 C6         22.7140   45.1880   52.6760 C.3       1 SGN         0.1025
     92 N          20.0720   40.5790   54.8330 N.am      1 SGN        -0.2705
     93 O1         22.8090   41.3720   54.7110 O.3       1 SGN        -0.3654
     94 O3         19.3870   41.5590   52.3040 O.3       1 SGN        -0.3871
     95 O4         21.2850   43.3310   50.9000 O.3       1 SGN        -0.3400
     96 O5         22.1500   43.6820   54.5650 O.3       1 SGN        -0.3413
     97 O6         21.6490   46.1090   53.0090 O.3       1 SGN        -0.2631
     98 S1         20.5030   39.9180   56.4320 S.o2      1 SGN        -0.1197
     99 O1S        19.8780   38.6090   56.5520 O.co2     1 SGN        -0.4676
    100 O2S        19.9910   40.8440   57.4230 O.co2     1 SGN        -0.4676
    101 O3S        21.9380   39.7310   56.5830 O.co2     1 SGN        -0.4676
    102 S2         20.8280   47.0120   51.7130 S.o2      1 SGN        -0.0736
    103 O4S        20.1330   46.1010   50.8140 O.co2     1 SGN        -0.4611
    104 O5S        21.8410   47.7830   50.9980 O.co2     1 SGN        -0.4611
    105 O6S        19.8640   47.9120   52.3140 O.co2     1 SGN        -0.4611
    106 H1         17.5114   34.2395   35.1384 H         1 IDS         0.0991
    107 H2         19.4496   32.8057   34.4613 H         1 IDS         0.0721
    108 H3         18.9688   30.2357   34.7211 H         1 IDS         0.0744
    109 H4         17.7814   29.5825   36.8522 H         1 IDS         0.0480
    110 H5         19.8954   31.8804   36.8250 H         1 IDS         0.2127
    111 H6         17.7678   37.1898   40.5840 H         1 IDS         0.0930
    112 H7         16.3887   35.5127   39.5565 H         1 IDS         0.0587
    113 H8         18.8789   33.6895   39.4927 H         1 IDS         0.0641
    114 H9         17.2078   35.0684   37.2849 H         1 IDS         0.0650
    115 H10        20.1143   35.2854   38.3049 H         1 IDS         0.0648
    116 H11        19.9756   37.3990   36.7261 H         1 IDS         0.0610
    117 H12        18.6774   36.4611   35.9127 H         1 IDS         0.0610
    118 H13        17.8431   33.9801   41.6730 H         1 IDS         0.1646
    119 H14        17.2950   32.3338   38.4663 H         1 IDS         0.2100
    120 H15        20.6963   34.3649   44.9611 H         1 IDS         0.0940
    121 H16        18.2785   35.0013   44.8034 H         1 IDS         0.0697
    122 H17        17.4760   36.4388   42.8937 H         1 IDS         0.0650
    123 H18        19.2814   37.8510   41.7231 H         1 IDS         0.0669
    124 H19        21.0487   37.5808   43.3180 H         1 IDS         0.0794
    125 H20        19.5133   37.4835   44.6096 H         1 IDS         0.2100
    126 H21        23.8255   39.0081   48.3457 H         1 IDS         0.0930
    127 H22        24.0534   37.9406   46.1160 H         1 IDS         0.0587
    128 H23        21.1872   38.9506   45.7430 H         1 IDS         0.0641
    129 H24        22.4005   36.1073   45.8968 H         1 IDS         0.0650
    130 H25        20.4484   37.6608   47.7263 H         1 IDS         0.0648
    131 H26        20.8071   34.8676   47.2865 H         1 IDS         0.0610
    132 H27        19.8568   35.6805   48.5760 H         1 IDS         0.0610
    133 H28        23.2642   40.7833   46.3251 H         1 IDS         0.1646
    134 H29        22.5932   39.0872   43.9516 H         1 IDS         0.2100
    135 H30        20.0986   44.1618   49.2187 H         1 IDS         0.0940
    136 H31        22.9144   43.1805   49.9516 H         1 IDS         0.0697
    137 H32        21.7461   42.5656   47.1934 H         1 IDS         0.0650
    138 H33        23.1332   40.7523   49.0687 H         1 IDS         0.0669
    139 H34        21.6884   41.0220   50.7021 H         1 IDS         0.0794
    140 H35        23.9356   43.2724   47.2400 H         1 IDS         0.2100
    141 H36        21.6907   42.3782   56.1563 H         1 IDS         0.0928
    142 H37        19.7021   42.6442   54.6597 H         1 IDS         0.0587
    143 H38        21.4087   41.1415   52.5837 H         1 IDS         0.0641
    144 H39        20.2687   43.9847   52.6396 H         1 IDS         0.0650
    145 H40        23.1820   43.0880   52.8386 H         1 IDS         0.0648
    146 H41        22.8779   45.2037   51.5884 H         1 IDS         0.0610
    147 H42        23.6350   45.5000   53.1902 H         1 IDS         0.0610
    148 H43        19.5279   40.0157   54.2112 H         1 IDS         0.1646
    149 H44        22.5545   40.5213   55.0487 H         1 IDS         0.2125
    150 H45        19.4557   41.5618   51.3565 H         1 IDS         0.2100
@<TRIPOS>BOND
     1    1    2 1  
     2    1    9 1  
     3   25    1 1  
     4    2    3 1  
     5    2    7 1  
     6    3    4 1  
     7    3    8 1  
     8    5    4 2  
     9    5    6 1  
    10    9    5 1  
    11    6   10 ar 
    12    6   11 ar 
    13    7   12 1  
    14   12   13 ar 
    15   12   14 ar 
    16   12   15 ar 
    17   16   17 1  
    18   23   16 1  
    19   16   26 1  
    20   17   18 1  
    21   17   22 1  
    22   18   19 1  
    23   18   24 1  
    24   20   19 1  
    25   19   25 1  
    26   20   21 1  
    27   26   20 1  
    28   21   27 1  
    29   22   28 am 
    30   39   23 1  
    31   27   32 1  
    32   28   29 ar 
    33   28   30 ar 
    34   28   31 ar 
    35   32   33 ar 
    36   32   34 ar 
    37   32   35 ar 
    38   36   37 1  
    39   36   44 1  
    40   60   36 1  
    41   37   38 1  
    42   37   42 1  
    43   38   39 1  
    44   38   43 1  
    45   40   39 1  
    46   40   41 1  
    47   44   40 1  
    48   41   45 ar 
    49   41   46 ar 
    50   42   47 1  
    51   47   48 ar 
    52   47   49 ar 
    53   47   50 ar 
    54   51   52 1  
    55   58   51 1  
    56   51   61 1  
    57   52   53 1  
    58   52   57 1  
    59   53   54 1  
    60   53   59 1  
    61   55   54 1  
    62   54   60 1  
    63   55   56 1  
    64   61   55 1  
    65   56   62 1  
    66   57   63 am 
    67   74   58 1  
    68   62   67 1  
    69   63   64 ar 
    70   63   65 ar 
    71   63   66 ar 
    72   67   68 ar 
    73   67   69 ar 
    74   67   70 ar 
    75   71   72 1  
    76   71   79 1  
    77   95   71 1  
    78   72   73 1  
    79   72   77 1  
    80   73   74 1  
    81   73   78 1  
    82   75   74 1  
    83   75   76 1  
    84   79   75 1  
    85   76   80 ar 
    86   76   81 ar 
    87   77   82 1  
    88   82   83 ar 
    89   82   84 ar 
    90   82   85 ar 
    91   87   86 1  
    92   86   93 1  
    93   86   96 1  
    94   88   87 1  
    95   87   92 1  
    96   89   88 1  
    97   88   94 1  
    98   89   90 1  
    99   89   95 1  
   100   90   91 1  
   101   90   96 1  
   102   91   97 1  
   103   92   98 am 
   104   97  102 1  
   105   98   99 ar 
   106   98  100 ar 
   107   98  101 ar 
   108  102  103 ar 
   109  102  104 ar 
   110  102  105 ar 
   111    1  106 1  
   112    2  107 1  
   113    3  108 1  
   114    4  109 1  
   115    8  110 1  
   116   16  111 1  
   117   17  112 1  
   118   18  113 1  
   119   19  114 1  
   120   20  115 1  
   121   21  116 1  
   122   21  117 1  
   123   22  118 1  
   124   24  119 1  
   125   36  120 1  
   126   37  121 1  
   127   38  122 1  
   128   39  123 1  
   129   40  124 1  
   130   43  125 1  
   131   51  126 1  
   132   52  127 1  
   133   53  128 1  
   134   54  129 1  
   135   55  130 1  
   136   56  131 1  
   137   56  132 1  
   138   57  133 1  
   139   59  134 1  
   140   71  135 1  
   141   72  136 1  
   142   73  137 1  
   143   74  138 1  
   144   75  139 1  
   145   78  140 1  
   146   86  141 1  
   147   87  142 1  
   148   88  143 1  
   149   89  144 1  
   150   90  145 1  
   151   91  146 1  
   152   91  147 1  
   153   92  148 1  
   154   93  149 1  
   155   94  150 1  
@<TRIPOS>SUBSTRUCTURE
     1 IDS         1

