5om7_ligand
  -I-interpret- 

 69 73  0  0  0  0  0  0  0  0999 V2000
  -23.0100    6.0270    2.0460 C   0  0  0  0  0
  -23.3420    7.2830    2.5210 C   0  0  0  0  0
  -22.3470    8.1920    2.8210 C   0  0  0  0  0
  -21.0010    7.8280    2.6520 C   0  0  0  0  0
  -19.9820    8.6880    2.9480 O   0  0  0  0  0
  -20.6520    6.5610    2.2070 C   0  0  0  0  0
  -19.2420    6.1520    1.9920 C   0  0  0  0  0
  -18.2930    6.8830    2.2400 O   0  0  0  0  0
  -18.9980    4.7980    1.4520 C   0  0  0  0  0
  -17.6710    4.3700    1.2300 C   0  0  0  0  0
  -16.6530    5.2290    1.5280 O   0  0  0  0  0
  -17.3880    3.0870    0.7310 C   0  0  0  0  0
  -15.9330    2.6830    0.4750 C   0  0  0  0  0
  -15.1260    2.6260    1.6560 O   0  0  0  0  0
  -15.8500    1.3830   -0.4300 C   0  0  0  0  0
  -16.8570    0.3320    0.0860 C   0  0  0  0  0
  -16.5830    0.0860    1.4530 O   0  0  0  0  0
  -16.7270   -0.9940   -0.6510 C   0  0  0  0  0
  -16.6340   -1.0680   -1.8510 O   0  0  0  0  0
  -16.7540   -2.2230    0.2220 C   0  0  0  0  0
  -17.0400   -3.2780   -0.6510 O   0  0  0  0  0
  -18.2750    0.8670   -0.1370 C   0  0  0  0  0
  -18.4470    2.2290    0.4090 C   0  0  0  0  0
  -19.7730    2.6580    0.6260 C   0  0  0  0  0
  -20.7890    1.7500    0.3020 O   0  0  0  0  0
  -20.0470    3.9370    1.1400 C   0  0  0  0  0
  -21.4330    4.3740    1.3340 C   0  0  0  0  0
  -22.3530    3.6240    1.0610 O   0  0  0  0  0
  -21.6980    5.6940    1.8610 C   0  0  0  0  0
  -20.4350   10.0470    3.0820 C   0  0  0  0  0
  -13.9090    3.3430    1.5490 C   0  0  0  0  0
  -13.3180    3.5210    2.9670 C   0  0  0  0  0
  -12.8200    2.1780    3.4970 C   0  0  0  0  0
  -12.1250    2.3870    4.7590 N   0  3  0  0  0
  -11.8440    1.5380    2.4550 C   0  0  0  0  0
  -10.8100    2.4710    2.1920 O   0  0  0  0  0
  -12.6750    1.3190    1.2100 C   0  0  0  0  0
  -13.0290    2.6020    0.6980 O   0  0  0  0  0
  -11.9540    0.5450    0.1300 C   0  0  0  0  0
  -23.7938    5.3042    1.8197 H   0  0  0  0  0
  -24.3885    7.5550    2.6584 H   0  0  0  0  0
  -22.6045    9.1860    3.1867 H   0  0  0  0  0
  -15.8129    4.8092    1.3288 H   0  0  0  0  0
  -15.4794    3.4920   -0.0976 H   0  0  0  0  0
  -14.8412    0.9726   -0.3851 H   0  0  0  0  0
  -16.0910    1.6418   -1.4610 H   0  0  0  0  0
  -17.2014   -0.5665    1.7898 H   0  0  0  0  0
  -17.4977   -2.1404    1.0146 H   0  0  0  0  0
  -15.8070   -2.3721    0.7407 H   0  0  0  0  0
  -17.0727   -4.1006   -0.1572 H   0  0  0  0  0
  -18.9729    0.2046    0.3751 H   0  0  0  0  0
  -18.4592    0.9052   -1.2106 H   0  0  0  0  0
  -21.6429    2.1467    0.4895 H   0  0  0  0  0
  -20.8895   10.3711    2.1458 H   0  0  0  0  0
  -21.1707   10.1060    3.8841 H   0  0  0  0  0
  -19.5868   10.6899    3.3173 H   0  0  0  0  0
  -14.0592    4.3321    1.1162 H   0  0  0  0  0
  -14.0912    3.9050    3.6324 H   0  0  0  0  0
  -12.4836    4.2210    2.9227 H   0  0  0  0  0
  -13.6653    1.5086    3.6564 H   0  0  0  0  0
  -11.7916    1.4910    5.1146 H   0  0  0  0  0
  -11.3322    3.0112    4.6099 H   0  0  0  0  0
  -12.7659    2.8047    5.4336 H   0  0  0  0  0
  -11.3961    0.6064    2.8009 H   0  0  0  0  0
  -10.1983    2.0975    1.5533 H   0  0  0  0  0
  -13.5443    0.7240    1.4899 H   0  0  0  0  0
  -11.0573    1.0885   -0.1677 H   0  0  0  0  0
  -11.6751   -0.4367    0.5129 H   0  0  0  0  0
  -12.6116    0.4270   -0.7312 H   0  0  0  0  0
  1  2  4  0  0  0
  1 29  4  0  0  0
  2  3  4  0  0  0
  3  4  4  0  0  0
  4  5  1  0  0  0
  4  6  4  0  0  0
  5 30  1  0  0  0
  6  7  1  0  0  0
  6 29  4  0  0  0
  7  8  2  0  0  0
  7  9  1  0  0  0
  9 10  4  0  0  0
  9 26  4  0  0  0
 10 11  1  0  0  0
 10 12  4  0  0  0
 12 13  1  0  0  0
 12 23  4  0  0  0
 13 14  1  0  0  0
 13 15  1  0  0  0
 14 31  1  0  0  0
 15 16  1  0  0  0
 16 17  1  0  0  0
 16 18  1  0  0  0
 16 22  1  0  0  0
 18 19  2  0  0  0
 18 20  1  0  0  0
 20 21  1  0  0  0
 22 23  1  0  0  0
 23 24  4  0  0  0
 24 25  1  0  0  0
 24 26  4  0  0  0
 26 27  1  0  0  0
 27 28  2  0  0  0
 27 29  1  0  0  0
 31 32  1  0  0  0
 31 38  1  0  0  0
 32 33  1  0  0  0
 33 34  1  0  0  0
 33 35  1  0  0  0
 35 36  1  0  0  0
 35 37  1  0  0  0
 37 38  1  0  0  0
 37 39  1  0  0  0
  1 40  1  0  0  0
  2 41  1  0  0  0
  3 42  1  0  0  0
 11 43  1  0  0  0
 13 44  1  0  0  0
 15 45  1  0  0  0
 15 46  1  0  0  0
 17 47  1  0  0  0
 20 48  1  0  0  0
 20 49  1  0  0  0
 21 50  1  0  0  0
 22 51  1  0  0  0
 22 52  1  0  0  0
 25 53  1  0  0  0
 30 54  1  0  0  0
 30 55  1  0  0  0
 30 56  1  0  0  0
 31 57  1  0  0  0
 32 58  1  0  0  0
 32 59  1  0  0  0
 33 60  1  0  0  0
 34 61  1  0  0  0
 34 62  1  0  0  0
 34 63  1  0  0  0
 35 64  1  0  0  0
 36 65  1  0  0  0
 37 66  1  0  0  0
 39 67  1  0  0  0
 39 68  1  0  0  0
 39 69  1  0  0  0
M  END
$$$$
