2wor_ligand
  -I-interpret- 

 34 36  0  0  0  0  0  0  0  0999 V2000
    2.7420    5.4730    7.0170 C   0  0  0  0  0
    4.0790    5.6850    7.4370 C   0  0  0  0  0
    5.1890    5.8660    6.5310 C   0  0  0  0  0
    4.8820    5.8110    5.1890 C   0  0  0  0  0
    3.5890    5.6290    4.6960 C   0  0  0  0  0
    3.3390    5.6160    3.2950 C   0  0  0  0  0
    2.0380    5.4090    2.8080 C   0  0  0  0  0
    0.8440    5.2630    3.6220 C   0  0  0  0  0
    1.7350    5.1920    7.9830 N   0  0  0  0  0
   -0.4460    5.3380    5.8990 S   0  0  0  0  0
    1.0050    5.3260    5.0090 C   0  0  0  0  0
    2.3970    5.4450    5.5910 C   0  0  0  0  0
    1.4100    5.9290    9.0630 C   0  0  0  0  0
    0.5460    5.2470    9.9960 C   0  0  0  0  0
    0.2290    6.0010   11.2000 C   0  0  0  0  0
    0.6590    7.3020   11.3020 C   0  0  0  0  0
    1.4980    7.9740   10.3410 C   0  0  0  0  0
    1.8870    7.2270    9.1940 C   0  0  0  0  0
   -1.5950    5.4450    4.9360 O   0  0  0  0  0
   -0.4240    6.5940    6.6020 O   0  0  0  0  0
   -0.6040    4.1700    6.7980 O   0  0  0  0  0
    4.2815    5.7131    8.5077 H   0  0  0  0  0
    6.2054    6.0354    6.8864 H   0  0  0  0  0
    5.6955    5.9156    4.4712 H   0  0  0  0  0
    4.1617    5.7675    2.5962 H   0  0  0  0  0
    1.9137    5.3531    1.7265 H   0  0  0  0  0
   -0.1362    5.1107    3.1703 H   0  0  0  0  0
    1.1988    4.3359    7.8416 H   0  0  0  0  0
    0.1603    4.2441    9.8132 H   0  0  0  0  0
   -0.3403    5.5410   12.0077 H   0  0  0  0  0
    0.3415    7.8697   12.1766 H   0  0  0  0  0
    1.8191    9.0055   10.4862 H   0  0  0  0  0
    2.5416    7.6616    8.4386 H   0  0  0  0  0
   -1.6648    4.6314    4.4312 H   0  0  0  0  0
  1  2  4  0  0  0
  1  9  1  0  0  0
  1 12  4  0  0  0
  2  3  4  0  0  0
  3  4  4  0  0  0
  4  5  4  0  0  0
  5  6  4  0  0  0
  5 12  4  0  0  0
  6  7  4  0  0  0
  7  8  4  0  0  0
  8 11  4  0  0  0
  9 13  1  0  0  0
 11 10  1  0  0  0
 10 19  1  0  0  0
 10 20  2  0  0  0
 10 21  2  0  0  0
 11 12  4  0  0  0
 13 14  4  0  0  0
 13 18  4  0  0  0
 14 15  4  0  0  0
 15 16  4  0  0  0
 16 17  4  0  0  0
 17 18  4  0  0  0
  2 22  1  0  0  0
  3 23  1  0  0  0
  4 24  1  0  0  0
  6 25  1  0  0  0
  7 26  1  0  0  0
  8 27  1  0  0  0
  9 28  1  0  0  0
 14 29  1  0  0  0
 15 30  1  0  0  0
 16 31  1  0  0  0
 17 32  1  0  0  0
 18 33  1  0  0  0
 19 34  1  0  0  0
M  END
$$$$
