1xge_ligand
  -I-interpret- 

 17 17  0  0  0  0  0  0  0  0999 V2000
   24.9080   37.3920   72.7780 O   0  0  0  0  0
   25.6880   38.3340   72.6590 C   0  0  0  0  0
   25.2210   39.5770   72.5990 N   0  0  0  0  0
   27.0050   38.1320   72.5030 N   0  0  0  0  0
   27.8820   39.1010   72.1160 C   0  0  0  0  0
   29.0800   38.8910   71.8900 O   0  0  0  0  0
   27.3820   40.5310   71.9870 C   0  0  0  0  0
   26.1050   40.7070   72.7980 C   0  0  0  0  0
   25.4200   41.9610   72.3630 C   0  0  0  0  0
   26.0130   43.0460   72.4880 O   0  0  0  0  0
   24.2740   41.8500   71.8910 O   0  0  0  0  0
   24.2312   39.7365   72.4111 H   0  0  0  0  0
   27.3719   37.1978   72.6848 H   0  0  0  0  0
   27.1755   40.7471   70.9388 H   0  0  0  0  0
   28.1440   41.2141   72.3623 H   0  0  0  0  0
   26.3587   40.7688   73.8563 H   0  0  0  0  0
   24.0178   40.9248   71.8900 H   0  0  0  0  0
  1  2  2  0  0  0
  2  3  1  0  0  0
  2  4  1  0  0  0
  3  8  1  0  0  0
  4  5  1  0  0  0
  5  6  2  0  0  0
  5  7  1  0  0  0
  7  8  1  0  0  0
  8  9  1  0  0  0
  9 10  2  0  0  0
  9 11  1  0  0  0
  3 12  1  0  0  0
  4 13  1  0  0  0
  7 14  1  0  0  0
  7 15  1  0  0  0
  8 16  1  0  0  0
 11 17  1  0  0  0
M  END
$$$$
