1xhy_ligand
  -I-interpret- 

 33 33  0  0  0  0  0  0  0  0999 V2000
   12.5840    7.2410   24.6640 N   0  3  0  0  0
   13.0020    8.6420   24.3830 C   0  0  0  0  0
   15.0920   10.3470   22.8180 C   0  0  0  0  0
   16.9690    9.3740   24.2830 C   0  0  0  0  0
   13.7070    6.3650   24.8550 C   0  0  0  0  0
   14.9130    7.1570   24.4620 C   0  0  0  0  0
   15.0390    6.9700   22.9400 C   0  0  0  0  0
   14.5200    8.5810   24.5590 C   0  0  0  0  0
   15.7450    5.7410   22.4050 C   0  0  0  0  0
   15.4890    9.6650   24.0820 C   0  0  0  0  0
   13.8130    6.1160   26.3680 C   0  0  0  0  0
   12.9650    6.4240   27.2290 O   0  0  0  0  0
   15.7330    5.5370   21.0590 O   0  0  0  0  0
   16.3310    4.9990   23.1790 O   0  0  0  0  0
   14.9050    5.5720   26.8230 O   0  0  0  0  0
   12.0514    6.9028   23.8625 H   0  0  0  0  0
   12.0331    7.2412   25.5224 H   0  0  0  0  0
   12.5262    9.3682   25.0420 H   0  0  0  0  0
   12.7020    8.9850   23.3928 H   0  0  0  0  0
   15.0230    9.6119   22.0162 H   0  0  0  0  0
   14.1239   10.8288   22.9552 H   0  0  0  0  0
   15.8396   11.0975   22.5613 H   0  0  0  0  0
   17.1696    9.2347   25.3453 H   0  0  0  0  0
   17.2369    8.4679   23.7395 H   0  0  0  0  0
   17.5569   10.2116   23.9077 H   0  0  0  0  0
   13.6175    5.4345   24.2945 H   0  0  0  0  0
   15.7902    6.8817   25.0475 H   0  0  0  0  0
   15.6463    7.8104   22.6039 H   0  0  0  0  0
   14.0130    6.8814   22.5828 H   0  0  0  0  0
   14.7078    9.0084   25.5440 H   0  0  0  0  0
   15.3573   10.4632   24.8125 H   0  0  0  0  0
   15.2195    6.2292   20.6361 H   0  0  0  0  0
   15.4912    5.3721   26.0895 H   0  0  0  0  0
  2  1  1  0  0  0
  5  1  1  0  0  0
  8  2  1  0  0  0
 10  3  1  0  0  0
 10  4  1  0  0  0
  6  5  1  0  0  0
  5 11  1  0  0  0
  6  7  1  0  0  0
  8  6  1  0  0  0
  7  9  1  0  0  0
  8 10  1  0  0  0
  9 13  1  0  0  0
  9 14  2  0  0  0
 11 12  2  0  0  0
 11 15  1  0  0  0
  1 16  1  0  0  0
  1 17  1  0  0  0
  2 18  1  0  0  0
  2 19  1  0  0  0
  3 20  1  0  0  0
  3 21  1  0  0  0
  3 22  1  0  0  0
  4 23  1  0  0  0
  4 24  1  0  0  0
  4 25  1  0  0  0
  5 26  1  0  0  0
  6 27  1  0  0  0
  7 28  1  0  0  0
  7 29  1  0  0  0
  8 30  1  0  0  0
 10 31  1  0  0  0
 13 32  1  0  0  0
 15 33  1  0  0  0
M  END
$$$$
