5kup_ligand
  -I-interpret- 

 67 71  0  0  0  0  0  0  0  0999 V2000
  -42.0910   27.1580    0.8550 C   0  0  0  0  0
  -41.2430   28.6230   -2.9540 C   0  0  0  0  0
  -41.7680   26.7250   -1.5770 C   0  0  0  0  0
  -41.7980   25.9300   -2.7010 C   0  0  0  0  0
  -40.9850   28.3310   -5.4650 C   0  0  0  0  0
  -41.5560   26.4690   -3.9710 C   0  0  0  0  0
  -41.5630   25.6080   -5.1400 C   0  0  0  0  0
  -41.2970   27.8440   -4.1150 C   0  0  0  0  0
  -43.3800   25.3360   -0.2460 C   0  0  0  0  0
  -40.9210   25.0910    0.0710 C   0  0  0  0  0
  -42.0450   26.0900   -0.2340 C   0  0  0  0  0
  -41.2420   26.0800   -6.2940 N   0  0  0  0  0
  -40.9300   27.4240   -6.4660 N   0  0  0  0  0
  -40.7150   29.5210   -5.6690 O   0  0  0  0  0
  -41.4970   28.0830   -1.7020 C   0  0  0  0  0
  -40.9570   29.9380   -3.0410 F   0  0  0  0  0
  -40.5600   27.7890   -7.7620 C   0  0  0  0  0
  -39.1930   27.7880   -8.0390 C   0  0  0  0  0
  -38.7660   28.1380   -9.3280 C   0  0  0  0  0
  -39.7720   28.4810  -10.2420 C   0  0  0  0  0
  -41.1090   28.4500   -9.8770 C   0  0  0  0  0
  -41.4680   28.1000   -8.6580 N   0  0  0  0  0
  -37.3420   28.2170   -9.7770 C   0  0  0  0  0
  -36.9110   27.7000  -11.0210 C   0  0  0  0  0
  -35.5880   27.8500  -11.3980 C   0  0  0  0  0
  -34.6730   28.5100  -10.5500 C   0  0  0  0  0
  -33.4990   28.6430  -10.8900 O   0  0  0  0  0
  -35.1020   28.9850   -9.3780 N   0  0  0  0  0
  -36.4010   28.8550   -9.0040 C   0  0  0  0  0
  -34.1300   29.6430   -8.4950 C   0  0  0  0  0
  -35.0190   27.3710  -12.5970 N   0  0  0  0  0
  -35.6830   26.9560  -13.7350 C   0  0  0  0  0
  -34.9110   26.6490  -14.8530 C   0  0  0  0  0
  -35.5630   26.2280  -15.9910 C   0  0  0  0  0
  -36.8910   26.1470  -15.9910 N   0  0  0  0  0
  -37.5890   26.4490  -14.9180 C   0  0  0  0  0
  -37.0030   26.8410  -13.8020 N   0  0  0  0  0
  -38.2150   27.3310   -6.9830 C   0  0  0  0  0
  -37.7850   28.3510   -6.0980 O   0  0  0  0  0
  -42.9053   27.8521    0.6472 H   0  0  0  0  0
  -42.2552   26.6823    1.8219 H   0  0  0  0  0
  -41.1453   27.6997    0.8710 H   0  0  0  0  0
  -42.0131   24.8661   -2.6010 H   0  0  0  0  0
  -41.8409   24.5587   -5.0403 H   0  0  0  0  0
  -43.3520   24.5624   -1.0134 H   0  0  0  0  0
  -43.5453   24.8769    0.7287 H   0  0  0  0  0
  -44.1884   26.0346   -0.4618 H   0  0  0  0  0
  -41.0979   24.6330    1.0442 H   0  0  0  0  0
  -40.9046   24.3186   -0.6979 H   0  0  0  0  0
  -39.9649   25.6142    0.0826 H   0  0  0  0  0
  -41.4842   28.7214   -0.8186 H   0  0  0  0  0
  -39.4988   28.7765  -11.2550 H   0  0  0  0  0
  -41.8727   28.7183  -10.6070 H   0  0  0  0  0
  -37.6149   27.1879  -11.6770 H   0  0  0  0  0
  -36.6257   27.6354  -11.6532 H   0  0  0  0  0
  -36.3419   28.2264   -8.1154 H   0  0  0  0  0
  -36.7567   29.8850   -8.9795 H   0  0  0  0  0
  -33.3381   28.9388   -8.2397 H   0  0  0  0  0
  -33.7009   30.5043   -9.0069 H   0  0  0  0  0
  -34.6322   29.9724   -7.5854 H   0  0  0  0  0
  -34.0004   27.3260  -12.6269 H   0  0  0  0  0
  -33.8250   26.7391  -14.8281 H   0  0  0  0  0
  -34.9960   25.9636  -16.8836 H   0  0  0  0  0
  -38.6759   26.3739  -14.9510 H   0  0  0  0  0
  -37.3296   26.9676   -7.5046 H   0  0  0  0  0
  -38.7252   26.5800   -6.3798 H   0  0  0  0  0
  -37.1690   27.9817   -5.4610 H   0  0  0  0  0
 11  1  1  0  0  0
  2  8  4  0  0  0
 15  2  4  0  0  0
  2 16  1  0  0  0
  3  4  4  0  0  0
  3 11  1  0  0  0
  3 15  4  0  0  0
  4  6  4  0  0  0
  8  5  1  0  0  0
  5 13  1  0  0  0
  5 14  2  0  0  0
  6  7  1  0  0  0
  6  8  4  0  0  0
  7 12  2  0  0  0
 11  9  1  0  0  0
 11 10  1  0  0  0
 12 13  1  0  0  0
 13 17  1  0  0  0
 17 18  4  0  0  0
 17 22  4  0  0  0
 18 19  4  0  0  0
 18 38  1  0  0  0
 19 20  4  0  0  0
 19 23  1  0  0  0
 20 21  4  0  0  0
 21 22  4  0  0  0
 23 24  2  0  0  0
 23 29  1  0  0  0
 24 25  1  0  0  0
 25 26  1  0  0  0
 25 31  1  0  0  0
 26 27  2  0  0  0
 26 28  1  0  0  0
 28 29  1  0  0  0
 28 30  1  0  0  0
 31 32  1  0  0  0
 32 33  4  0  0  0
 32 37  4  0  0  0
 33 34  4  0  0  0
 34 35  4  0  0  0
 35 36  4  0  0  0
 36 37  4  0  0  0
 38 39  1  0  0  0
  1 40  1  0  0  0
  1 41  1  0  0  0
  1 42  1  0  0  0
  4 43  1  0  0  0
  7 44  1  0  0  0
  9 45  1  0  0  0
  9 46  1  0  0  0
  9 47  1  0  0  0
 10 48  1  0  0  0
 10 49  1  0  0  0
 10 50  1  0  0  0
 15 51  1  0  0  0
 20 52  1  0  0  0
 21 53  1  0  0  0
 24 54  1  0  0  0
 25 55  1  0  0  0
 29 56  1  0  0  0
 29 57  1  0  0  0
 30 58  1  0  0  0
 30 59  1  0  0  0
 30 60  1  0  0  0
 31 61  1  0  0  0
 33 62  1  0  0  0
 34 63  1  0  0  0
 36 64  1  0  0  0
 38 65  1  0  0  0
 38 66  1  0  0  0
 39 67  1  0  0  0
M  END
$$$$
