3ctt_ligand
  -I-interpret- 

 30 31  0  0  0  0  0  0  0  0999 V2000
    1.2030  -15.8810   23.4610 O   0  0  0  0  0
    0.8370  -16.3910   22.1910 C   0  0  0  0  0
    0.9850  -15.2550   21.1710 C   0  0  0  0  0
   -0.1130  -15.2920   20.0860 C   0  0  0  0  0
   -1.2480  -14.4570   20.3750 O   0  0  0  0  0
    0.7050  -14.7420   18.9140 C   0  0  0  0  0
    0.0420  -14.9370   17.6800 O   0  0  0  0  0
    1.8670  -15.7000   18.9980 C   0  0  0  0  0
    3.0530  -15.2750   18.1130 C   0  0  0  0  0
    3.3870  -13.9110   18.3650 O   0  0  0  0  0
    2.2480  -15.5560   20.4210 N   0  3  0  0  0
    2.8580  -16.8060   20.9590 C   0  0  0  0  0
    1.7950  -17.5160   21.7440 C   0  0  0  0  0
    1.0830  -18.3910   20.8650 O   0  0  0  0  0
    0.5920  -15.1849   23.7133 H   0  0  0  0  0
   -0.1799  -16.7787   22.2515 H   0  0  0  0  0
    0.9508  -14.3033   21.7013 H   0  0  0  0  0
   -0.5755  -16.2690   19.9458 H   0  0  0  0  0
   -1.7378  -14.8287   21.1122 H   0  0  0  0  0
    0.9241  -13.6753   18.9625 H   0  0  0  0  0
   -0.6999  -14.3310   17.6174 H   0  0  0  0  0
    1.6102  -16.7065   18.6678 H   0  0  0  0  0
    2.7764  -15.3883   17.0648 H   0  0  0  0  0
    3.9140  -15.9029   18.3422 H   0  0  0  0  0
    4.1268  -13.6559   17.8089 H   0  0  0  0  0
    2.9432  -14.8165   20.5221 H   0  0  0  0  0
    3.7131  -16.5735   21.5937 H   0  0  0  0  0
    3.2211  -17.4362   20.1472 H   0  0  0  0  0
    2.1968  -18.0946   22.5758 H   0  0  0  0  0
    0.3995  -18.8510   21.3578 H   0  0  0  0  0
  1  2  1  0  0  0
  2  3  1  0  0  0
  2 13  1  0  0  0
  3  4  1  0  0  0
  3 11  1  0  0  0
  4  5  1  0  0  0
  4  6  1  0  0  0
  6  7  1  0  0  0
  6  8  1  0  0  0
  8  9  1  0  0  0
  8 11  1  0  0  0
  9 10  1  0  0  0
 11 12  1  0  0  0
 12 13  1  0  0  0
 13 14  1  0  0  0
  1 15  1  0  0  0
  2 16  1  0  0  0
  3 17  1  0  0  0
  4 18  1  0  0  0
  5 19  1  0  0  0
  6 20  1  0  0  0
  7 21  1  0  0  0
  8 22  1  0  0  0
  9 23  1  0  0  0
  9 24  1  0  0  0
 10 25  1  0  0  0
 11 26  1  0  0  0
 12 27  1  0  0  0
 12 28  1  0  0  0
 13 29  1  0  0  0
 14 30  1  0  0  0
M  END
$$$$
