6e7u_ligand
  -I-interpret- 

 62 63  0  0  0  0  0  0  0  0999 V2000
  195.4510  -57.5150  289.7520 C   0  0  0  0  0
  196.0710  -57.3280  291.4520 S   0  0  0  0  0
  197.1120  -56.2980  291.5290 O   0  0  0  0  0
  196.8140  -58.5190  291.8740 O   0  0  0  0  0
  194.7770  -56.9870  292.5300 N   0  0  0  0  0
  193.6230  -57.8910  292.6080 C   0  0  0  0  0
  192.6690  -57.8920  291.6010 C   0  0  0  0  0
  191.5550  -58.7270  291.6960 C   0  0  0  0  0
  193.4590  -58.7040  293.7180 C   0  0  0  0  0
  192.3810  -59.5830  293.7850 C   0  0  0  0  0
  191.4430  -59.6120  292.7640 C   0  0  0  0  0
  190.2560  -60.4150  292.9200 O   0  0  0  0  0
  189.5760  -60.7130  291.7170 C   0  0  0  0  0
  188.1720  -61.2440  292.0560 C   0  0  0  0  0
  187.4850  -60.2830  292.7790 O   0  0  0  0  0
  187.4270  -61.5700  290.7470 C   0  0  0  0  0
  185.9790  -61.4010  290.9020 N   0  3  0  0  0
  185.6830  -60.0220  291.2300 C   0  0  0  0  0
  184.3510  -59.6250  290.5970 C   0  0  0  0  0
  184.3580  -58.1180  290.2900 C   0  0  0  0  0
  183.0670  -57.7430  289.5350 C   0  0  0  0  0
  185.4550  -62.2800  291.9520 C   0  0  0  0  0
  186.4780  -63.3600  292.3090 C   0  0  0  0  0
  185.7470  -64.6710  292.7040 C   0  0  0  0  0
  186.4840  -65.7770  293.1030 C   0  0  0  0  0
  185.8430  -66.9860  293.3370 C   0  0  0  0  0
  186.7870  -68.4370  293.7210 Cl  0  0  0  0  0
  184.4930  -67.1160  293.1100 C   0  0  0  0  0
  183.7590  -68.7480  293.1590 Cl  0  0  0  0  0
  183.7410  -66.0170  292.7490 C   0  0  0  0  0
  184.3680  -64.7890  292.5360 C   0  0  0  0  0
  195.0289  -56.5685  289.4144 H   0  0  0  0  0
  196.2731  -57.8021  289.0963 H   0  0  0  0  0
  194.6809  -58.2861  289.7303 H   0  0  0  0  0
  194.8108  -56.1539  293.1175 H   0  0  0  0  0
  192.7895  -57.2405  290.7355 H   0  0  0  0  0
  190.7749  -58.6861  290.9359 H   0  0  0  0  0
  194.1741  -58.6555  294.5392 H   0  0  0  0  0
  192.2743  -60.2492  294.6411 H   0  0  0  0  0
  190.1299  -61.4671  291.1579 H   0  0  0  0  0
  189.4922  -59.8126  291.1085 H   0  0  0  0  0
  188.2456  -62.1508  292.6563 H   0  0  0  0  0
  186.6083  -60.6108  292.9924 H   0  0  0  0  0
  187.6288  -62.6079  290.4821 H   0  0  0  0  0
  187.7748  -60.8884  289.9708 H   0  0  0  0  0
  185.5305  -61.6511  290.0207 H   0  0  0  0  0
  186.4746  -59.3785  290.8462 H   0  0  0  0  0
  185.6192  -59.9108  292.3124 H   0  0  0  0  0
  183.5388  -59.8512  291.2878 H   0  0  0  0  0
  184.2076  -60.1835  289.6720 H   0  0  0  0  0
  185.2236  -57.8763  289.6732 H   0  0  0  0  0
  184.4100  -57.5568  291.2230 H   0  0  0  0  0
  183.0169  -58.3048  288.6023 H   0  0  0  0  0
  182.2026  -57.9851  290.1534 H   0  0  0  0  0
  183.0721  -56.6749  289.3175 H   0  0  0  0  0
  184.5458  -62.7601  291.5900 H   0  0  0  0  0
  185.2457  -61.6839  292.8402 H   0  0  0  0  0
  187.0826  -63.0185  293.1493 H   0  0  0  0  0
  187.1157  -63.5503  291.4457 H   0  0  0  0  0
  187.5633  -65.6967  293.2323 H   0  0  0  0  0
  182.6613  -66.1078  292.6307 H   0  0  0  0  0
  183.7794  -63.9213  292.2381 H   0  0  0  0  0
  1  2  1  0  0  0
  2  3  2  0  0  0
  2  4  2  0  0  0
  2  5  1  0  0  0
  5  6  1  0  0  0
  6  7  4  0  0  0
  6  9  4  0  0  0
  7  8  4  0  0  0
  8 11  4  0  0  0
  9 10  4  0  0  0
 10 11  4  0  0  0
 11 12  1  0  0  0
 12 13  1  0  0  0
 13 14  1  0  0  0
 14 15  1  0  0  0
 14 16  1  0  0  0
 16 17  1  0  0  0
 17 18  1  0  0  0
 17 22  1  0  0  0
 18 19  1  0  0  0
 19 20  1  0  0  0
 20 21  1  0  0  0
 22 23  1  0  0  0
 23 24  1  0  0  0
 24 25  4  0  0  0
 24 31  4  0  0  0
 25 26  4  0  0  0
 26 27  1  0  0  0
 26 28  4  0  0  0
 28 29  1  0  0  0
 28 30  4  0  0  0
 30 31  4  0  0  0
  1 32  1  0  0  0
  1 33  1  0  0  0
  1 34  1  0  0  0
  5 35  1  0  0  0
  7 36  1  0  0  0
  8 37  1  0  0  0
  9 38  1  0  0  0
 10 39  1  0  0  0
 13 40  1  0  0  0
 13 41  1  0  0  0
 14 42  1  0  0  0
 15 43  1  0  0  0
 16 44  1  0  0  0
 16 45  1  0  0  0
 17 46  1  0  0  0
 18 47  1  0  0  0
 18 48  1  0  0  0
 19 49  1  0  0  0
 19 50  1  0  0  0
 20 51  1  0  0  0
 20 52  1  0  0  0
 21 53  1  0  0  0
 21 54  1  0  0  0
 21 55  1  0  0  0
 22 56  1  0  0  0
 22 57  1  0  0  0
 23 58  1  0  0  0
 23 59  1  0  0  0
 25 60  1  0  0  0
 30 61  1  0  0  0
 31 62  1  0  0  0
M  END
$$$$
