3r6g_ligand
  -I-interpret- 

 76 75  0  0  0  0  0  0  0  0999 V2000
  -13.2770   -6.3160   42.7570 C   0  0  0  0  0
  -12.6340   -7.0220   43.5370 O   0  0  0  0  0
  -13.8290   -4.9800   43.1880 C   0  0  0  0  0
  -13.7050   -6.7720   41.5800 N   0  0  0  0  0
  -13.0180   -7.8550   40.8730 C   0  0  0  0  0
  -12.4230   -7.4290   39.5220 C   0  0  0  0  0
  -12.8720   -6.4580   38.9150 O   0  0  0  0  0
  -13.9300   -9.0960   40.6700 C   0  0  0  0  0
  -14.5220   -9.5700   42.0260 C   0  0  0  0  0
  -15.0140   -8.8380   39.6260 C   0  0  0  0  0
  -11.4340   -8.2000   39.0680 N   0  0  0  0  0
  -10.7450   -7.9630   37.7970 C   0  0  0  0  0
  -11.4420   -8.6030   36.5890 C   0  0  0  0  0
  -11.7840   -9.7870   36.6230 O   0  0  0  0  0
   -9.2900   -8.3880   37.9470 C   0  0  0  0  0
   -8.5230   -7.4380   38.8240 C   0  0  0  0  0
   -8.8210   -6.2350   38.6890 O   0  0  0  0  0
   -7.6400   -7.8430   39.6340 O   0  0  0  0  0
  -11.6880   -7.8250   35.5430 N   0  0  0  0  0
  -12.2980   -8.3430   34.2960 C   0  0  0  0  0
  -11.5600   -7.8390   33.0520 C   0  0  0  0  0
  -10.7530   -6.9090   33.1410 O   0  0  0  0  0
  -13.8230   -7.9960   34.1620 C   0  0  0  0  0
  -14.6360   -8.4880   35.3870 C   0  0  0  0  0
  -14.0580   -6.4960   33.8830 C   0  0  0  0  0
  -11.8570   -8.4410   31.9010 N   0  0  0  0  0
  -11.2070   -8.1140   30.6100 C   0  0  0  0  0
  -11.8300   -6.9550   29.8180 C   0  0  0  0  0
  -13.0450   -6.9190   29.6210 O   0  0  0  0  0
  -11.1700   -9.3590   29.7110 C   0  0  0  0  0
  -10.9840   -6.0520   29.3130 N   0  0  0  0  0
  -11.4130   -5.0080   28.3720 C   0  0  0  0  0
  -11.6080   -5.5140   26.9430 C   0  0  0  0  0
  -11.4983   -4.7492   25.9477 O   0  0  0  0  0
  -10.4380   -3.8240   28.3840 C   0  0  0  0  0
  -10.9660   -2.6570   29.1980 C   0  0  0  0  0
  -10.1440   -1.8150   29.6120 O   0  0  0  0  0
  -12.2060   -2.6150   29.4200 O   0  0  0  0  0
  -11.8859   -6.7286   26.7553 O   0  0  0  0  0
  -14.5150   -5.1239   44.0227 H   0  0  0  0  0
  -13.0089   -4.3323   43.4977 H   0  0  0  0  0
  -14.3606   -4.5218   42.3540 H   0  0  0  0  0
  -14.5352   -6.3545   41.1594 H   0  0  0  0  0
  -12.1886   -8.1251   41.5266 H   0  0  0  0  0
  -13.3142   -9.9060   40.2792 H   0  0  0  0  0
  -15.1928   -8.8043   42.4156 H   0  0  0  0  0
  -15.0752  -10.4970   41.8753 H   0  0  0  0  0
  -13.7118   -9.7401   42.7351 H   0  0  0  0  0
  -15.5727   -9.7571   39.4494 H   0  0  0  0  0
  -15.6903   -8.0644   39.9898 H   0  0  0  0  0
  -14.5501   -8.5089   38.6961 H   0  0  0  0  0
  -11.1422   -8.9960   39.6351 H   0  0  0  0  0
  -10.7832   -6.8966   37.5747 H   0  0  0  0  0
   -8.8292   -8.3927   36.9592 H   0  0  0  0  0
   -9.2657   -9.3762   38.4063 H   0  0  0  0  0
   -7.5703   -8.7988   39.5780 H   0  0  0  0  0
  -11.4487   -6.8351   35.5992 H   0  0  0  0  0
  -12.2040   -9.4268   34.3634 H   0  0  0  0  0
  -14.1923   -8.5387   33.2918 H   0  0  0  0  0
  -14.5374   -9.5699   35.4762 H   0  0  0  0  0
  -14.2543   -8.0115   36.2899 H   0  0  0  0  0
  -15.6859   -8.2274   35.2531 H   0  0  0  0  0
  -13.6470   -5.9066   34.7026 H   0  0  0  0  0
  -13.5643   -6.2193   32.9515 H   0  0  0  0  0
  -15.1281   -6.3067   33.7987 H   0  0  0  0  0
  -12.5723   -9.1681   31.9089 H   0  0  0  0  0
  -10.2087   -7.7775   30.8897 H   0  0  0  0  0
  -10.6054  -10.1479   30.2081 H   0  0  0  0  0
  -12.1879   -9.7012   29.5244 H   0  0  0  0  0
  -10.6905   -9.1082   28.7648 H   0  0  0  0  0
  -10.0034   -6.0889   29.5913 H   0  0  0  0  0
  -12.3910   -4.6784   28.7226 H   0  0  0  0  0
  -10.3002   -3.4869   27.3566 H   0  0  0  0  0
   -9.5037   -4.1579   28.8353 H   0  0  0  0  0
  -12.6306   -3.3674   29.0013 H   0  0  0  0  0
  -11.9352   -7.1789   27.6017 H   0  0  0  0  0
  1  2  2  0  0  0
  1  3  1  0  0  0
  1  4  1  0  0  0
  4  5  1  0  0  0
  5  6  1  0  0  0
  5  8  1  0  0  0
  6  7  2  0  0  0
  6 11  1  0  0  0
  8  9  1  0  0  0
  8 10  1  0  0  0
 11 12  1  0  0  0
 12 13  1  0  0  0
 12 15  1  0  0  0
 13 14  2  0  0  0
 13 19  1  0  0  0
 15 16  1  0  0  0
 16 17  2  0  0  0
 16 18  1  0  0  0
 19 20  1  0  0  0
 20 21  1  0  0  0
 20 23  1  0  0  0
 21 22  2  0  0  0
 21 26  1  0  0  0
 23 24  1  0  0  0
 23 25  1  0  0  0
 26 27  1  0  0  0
 27 28  1  0  0  0
 27 30  1  0  0  0
 28 29  2  0  0  0
 28 31  1  0  0  0
 31 32  1  0  0  0
 32 33  1  0  0  0
 32 35  1  0  0  0
 33 34  2  0  0  0
 35 36  1  0  0  0
 36 37  2  0  0  0
 36 38  1  0  0  0
 33 39  1  0  0  0
  3 40  1  0  0  0
  3 41  1  0  0  0
  3 42  1  0  0  0
  4 43  1  0  0  0
  5 44  1  0  0  0
  8 45  1  0  0  0
  9 46  1  0  0  0
  9 47  1  0  0  0
  9 48  1  0  0  0
 10 49  1  0  0  0
 10 50  1  0  0  0
 10 51  1  0  0  0
 11 52  1  0  0  0
 12 53  1  0  0  0
 15 54  1  0  0  0
 15 55  1  0  0  0
 18 56  1  0  0  0
 19 57  1  0  0  0
 20 58  1  0  0  0
 23 59  1  0  0  0
 24 60  1  0  0  0
 24 61  1  0  0  0
 24 62  1  0  0  0
 25 63  1  0  0  0
 25 64  1  0  0  0
 25 65  1  0  0  0
 26 66  1  0  0  0
 27 67  1  0  0  0
 30 68  1  0  0  0
 30 69  1  0  0  0
 30 70  1  0  0  0
 31 71  1  0  0  0
 32 72  1  0  0  0
 35 73  1  0  0  0
 35 74  1  0  0  0
 38 75  1  0  0  0
 39 76  1  0  0  0
M  END
$$$$
