4og3_ligand
  -I-interpret- 

 66 69  0  0  0  0  0  0  0  0999 V2000
  -10.7090   19.2530  -13.3780 C   0  0  0  0  0
  -10.1450   20.4160  -13.8740 C   0  0  0  0  0
   -8.7740   20.5460  -13.9560 C   0  0  0  0  0
   -8.2000   21.7370  -14.4730 C   0  0  0  0  0
   -7.7710   22.7050  -14.9050 N   0  0  0  0  0
   -7.9820   19.4870  -13.5260 C   0  0  0  0  0
   -8.5360   18.2940  -13.0460 C   0  0  0  0  0
   -9.9140   18.1720  -12.9880 C   0  0  0  0  0
  -10.5430   17.0400  -12.5460 O   0  0  0  0  0
   -9.7970   15.8740  -12.1640 C   0  0  0  0  0
  -10.7450   15.0020  -11.2900 C   0  0  0  0  0
  -11.6080   14.2870  -12.2920 C   0  0  0  0  0
  -12.7540   13.5400  -11.6530 N   0  3  0  0  0
  -13.4540   12.7050  -12.6230 C   0  0  0  0  0
  -14.6310   11.9580  -12.0290 C   0  0  0  0  0
  -12.1400   12.4960  -10.7160 C   0  0  0  0  0
  -13.2290   11.7220   -9.8950 C   0  0  0  0  0
  -14.1190   10.9850  -10.9790 C   0  0  0  0  0
  -15.2420   10.0570  -10.4050 C   0  0  0  0  0
  -14.6060    9.0850   -9.3780 C   0  0  0  0  0
  -13.5070    8.1070   -9.8940 C   0  0  0  0  0
  -13.2870    7.2890   -8.5970 C   0  0  0  0  0
  -14.6980    7.2320   -7.8840 C   0  0  0  0  0
  -15.6390    8.0850   -8.6670 C   0  0  0  0  0
  -16.1590   10.8960   -9.7320 O   0  0  0  0  0
  -15.9230    9.3060  -11.4220 C   0  0  0  0  0
  -17.3090    9.1660  -11.4000 C   0  0  0  0  0
  -17.9810    8.4190  -12.3700 C   0  0  0  0  0
  -17.2430    7.8440  -13.4170 C   0  0  0  0  0
  -15.8770    7.9640  -13.4680 C   0  0  0  0  0
  -15.2380    8.7220  -12.5040 C   0  0  0  0  0
  -11.7929   19.1792  -13.2901 H   0  0  0  0  0
  -10.7876   21.2333  -14.2015 H   0  0  0  0  0
   -6.8974   19.5886  -13.5637 H   0  0  0  0  0
   -7.8932   17.4750  -12.7234 H   0  0  0  0  0
   -8.9016   16.1512  -11.6076 H   0  0  0  0  0
   -9.4622   15.3224  -13.0425 H   0  0  0  0  0
  -11.3309   15.6005  -10.5925 H   0  0  0  0  0
  -10.1972   14.3113  -10.6490 H   0  0  0  0  0
  -10.9836   13.5591  -12.8100 H   0  0  0  0  0
  -12.0308   15.0358  -12.9618 H   0  0  0  0  0
  -13.3705   14.2284  -11.2213 H   0  0  0  0  0
  -12.7454   11.9640  -12.9930 H   0  0  0  0  0
  -13.8390   13.3594  -13.4050 H   0  0  0  0  0
  -15.1538   11.4112  -12.8137 H   0  0  0  0  0
  -15.3219   12.6651  -11.5698 H   0  0  0  0  0
  -11.4893   13.0141  -10.0115 H   0  0  0  0  0
  -11.5967   11.7728  -11.3242 H   0  0  0  0  0
  -13.8226   12.3964   -9.2778 H   0  0  0  0  0
  -12.7800   11.0166   -9.1957 H   0  0  0  0  0
  -13.4455   10.2838  -11.4717 H   0  0  0  0  0
  -14.1839    9.8388   -8.7134 H   0  0  0  0  0
  -12.6136    8.5869  -10.2934 H   0  0  0  0  0
  -13.7869    7.5189  -10.7680 H   0  0  0  0  0
  -12.5360    7.7521   -7.9569 H   0  0  0  0  0
  -12.9109    6.2896   -8.8157 H   0  0  0  0  0
  -14.6196    7.5965   -6.8598 H   0  0  0  0  0
  -15.0612    6.2050   -7.8449 H   0  0  0  0  0
  -16.2708    7.5302   -9.3606 H   0  0  0  0  0
  -16.3966    8.5833   -8.0622 H   0  0  0  0  0
  -16.8673   10.3632   -9.3632 H   0  0  0  0  0
  -17.8813    9.6500  -10.6086 H   0  0  0  0  0
  -19.0613    8.2845  -12.3151 H   0  0  0  0  0
  -17.7631    7.2939  -14.2012 H   0  0  0  0  0
  -15.3058    7.4706  -14.2544 H   0  0  0  0  0
  -14.1616    8.8732  -12.5853 H   0  0  0  0  0
  1  2  4  0  0  0
  1  8  4  0  0  0
  2  3  4  0  0  0
  3  4  1  0  0  0
  3  6  4  0  0  0
  4  5  3  0  0  0
  6  7  4  0  0  0
  7  8  4  0  0  0
  8  9  1  0  0  0
  9 10  1  0  0  0
 10 11  1  0  0  0
 11 12  1  0  0  0
 12 13  1  0  0  0
 13 14  1  0  0  0
 13 16  1  0  0  0
 14 15  1  0  0  0
 15 18  1  0  0  0
 16 17  1  0  0  0
 17 18  1  0  0  0
 18 19  1  0  0  0
 19 20  1  0  0  0
 19 25  1  0  0  0
 19 26  1  0  0  0
 20 21  1  0  0  0
 20 24  1  0  0  0
 21 22  1  0  0  0
 22 23  1  0  0  0
 23 24  1  0  0  0
 26 27  4  0  0  0
 26 31  4  0  0  0
 27 28  4  0  0  0
 28 29  4  0  0  0
 29 30  4  0  0  0
 30 31  4  0  0  0
  1 32  1  0  0  0
  2 33  1  0  0  0
  6 34  1  0  0  0
  7 35  1  0  0  0
 10 36  1  0  0  0
 10 37  1  0  0  0
 11 38  1  0  0  0
 11 39  1  0  0  0
 12 40  1  0  0  0
 12 41  1  0  0  0
 13 42  1  0  0  0
 14 43  1  0  0  0
 14 44  1  0  0  0
 15 45  1  0  0  0
 15 46  1  0  0  0
 16 47  1  0  0  0
 16 48  1  0  0  0
 17 49  1  0  0  0
 17 50  1  0  0  0
 18 51  1  0  0  0
 20 52  1  0  0  0
 21 53  1  0  0  0
 21 54  1  0  0  0
 22 55  1  0  0  0
 22 56  1  0  0  0
 23 57  1  0  0  0
 23 58  1  0  0  0
 24 59  1  0  0  0
 24 60  1  0  0  0
 25 61  1  0  0  0
 27 62  1  0  0  0
 28 63  1  0  0  0
 29 64  1  0  0  0
 30 65  1  0  0  0
 31 66  1  0  0  0
M  END
$$$$
