5lvr_ligand
  -I-interpret- 

 25 26  0  0  0  0  0  0  0  0999 V2000
  -10.8700   17.7750   80.0430 C   0  0  0  0  0
  -11.7930   16.7410   80.1720 C   0  0  0  0  0
  -12.1890   16.3350   81.4370 C   0  0  0  0  0
   -9.6640   19.2660   78.5750 N   0  0  0  0  0
  -11.6750   16.9520   82.5640 C   0  0  0  0  0
  -10.7480   17.9710   82.4320 C   0  0  0  0  0
  -10.5520   18.2850   78.7480 N   0  0  0  0  0
  -10.3340   18.3830   81.1760 C   0  0  0  0  0
  -11.1680   17.8490   77.6360 N   0  0  0  0  0
   -8.8680   20.5860   75.3910 O   0  0  0  0  0
   -8.8340   20.4540   76.6080 C   0  0  0  0  0
   -8.0240   21.1340   77.3970 N   0  0  0  0  0
   -9.6810   19.4970   77.2600 C   0  0  0  0  0
  -10.6320   18.6060   76.6920 C   0  0  0  0  0
  -11.0270   18.4410   75.2620 C   0  0  0  0  0
  -12.2009   16.2547   79.2859 H   0  0  0  0  0
  -12.9099   15.5245   81.5446 H   0  0  0  0  0
  -12.0001   16.6356   83.5551 H   0  0  0  0  0
  -10.3413   18.4522   83.3215 H   0  0  0  0  0
   -9.5942   19.1771   81.0749 H   0  0  0  0  0
   -7.3779   21.8157   76.9991 H   0  0  0  0  0
   -8.0439   20.9780   78.4048 H   0  0  0  0  0
  -10.7965   17.4263   74.9375 H   0  0  0  0  0
  -12.0968   18.6227   75.1586 H   0  0  0  0  0
  -10.4752   19.1539   74.6494 H   0  0  0  0  0
  1  2  4  0  0  0
  7  1  1  0  0  0
  1  8  4  0  0  0
  2  3  4  0  0  0
  3  5  4  0  0  0
  4  7  4  0  0  0
 13  4  4  0  0  0
  6  5  4  0  0  0
  8  6  4  0  0  0
  7  9  4  0  0  0
  9 14  4  0  0  0
 11 10  2  0  0  0
 11 12  1  0  0  0
 11 13  1  0  0  0
 13 14  4  0  0  0
 14 15  1  0  0  0
  2 16  1  0  0  0
  3 17  1  0  0  0
  5 18  1  0  0  0
  6 19  1  0  0  0
  8 20  1  0  0  0
 12 21  1  0  0  0
 12 22  1  0  0  0
 15 23  1  0  0  0
 15 24  1  0  0  0
 15 25  1  0  0  0
M  END
$$$$
