3ho2_ligand
  -I-interpret- 

 58 61  0  0  0  0  0  0  0  0999 V2000
   62.2730   36.1480   44.6140 C   0  0  0  0  0
   57.9300   36.8570   48.2350 O   0  0  0  0  0
   55.8590   38.5470   44.7990 O   0  0  0  0  0
   57.1360   39.1770   43.0560 N   0  0  0  0  0
   56.9580   38.7000   44.2560 C   0  0  0  0  0
   58.1590   38.3330   45.0370 C   0  0  0  0  0
   58.0990   36.8430   45.3160 C   0  0  0  0  0
   59.2370   36.5330   46.2810 C   0  0  0  0  0
   59.0260   36.6600   47.7710 C   0  0  0  0  0
   60.2240   36.5440   48.6600 C   0  0  0  0  0
   61.4800   36.4300   48.1730 C   0  0  0  0  0
   61.7460   36.5660   46.7010 C   0  0  0  0  0
   60.5780   36.1460   45.7240 C   0  0  0  0  0
   60.8720   36.3440   44.2260 C   0  0  0  0  0
   63.0150   37.4450   46.2450 C   0  0  0  0  0
   63.1470   37.2530   44.7850 C   0  0  0  0  0
   63.4150   38.2130   43.9060 C   0  0  0  0  0
   58.8220   35.0580   46.3960 C   0  0  0  0  0
   62.4610   35.1040   46.5820 C   0  0  0  0  0
   62.8250   34.8350   45.0560 C   0  0  0  0  0
   56.9120   41.4410   41.7990 O   0  0  0  0  0
   55.2250   37.1780   42.1820 O   0  0  0  0  0
   53.3860   36.4490   40.4370 O   0  0  0  0  0
   52.3660   38.0590   39.3550 O   0  0  0  0  0
   53.2730   37.6800   40.1750 C   0  0  0  0  0
   54.2230   38.6200   40.6790 C   0  0  0  0  0
   55.1840   38.3440   41.6730 C   0  0  0  0  0
   56.0970   39.3070   42.0730 C   0  0  0  0  0
   56.0570   40.5690   41.4840 C   0  0  0  0  0
   55.0850   40.8870   40.5120 C   0  0  0  0  0
   54.1680   39.8990   40.1180 C   0  0  0  0  0
   62.0608   35.9296   43.5674 H   0  0  0  0  0
   58.0758   39.4780   42.7980 H   0  0  0  0  0
   58.1846   38.8908   45.9731 H   0  0  0  0  0
   59.0617   38.5752   44.4761 H   0  0  0  0  0
   58.2039   36.2704   44.3945 H   0  0  0  0  0
   57.1370   36.5668   45.7478 H   0  0  0  0  0
   60.0786   36.5517   49.7402 H   0  0  0  0  0
   62.3079   36.2375   48.8554 H   0  0  0  0  0
   60.5145   35.0582   45.6973 H   0  0  0  0  0
   60.3848   35.7642   43.4421 H   0  0  0  0  0
   60.5264   37.2096   43.6609 H   0  0  0  0  0
   63.9190   37.1296   46.7660 H   0  0  0  0  0
   62.8730   38.4972   46.4916 H   0  0  0  0  0
   63.5563   39.2390   44.2457 H   0  0  0  0  0
   63.4935   37.9744   42.8453 H   0  0  0  0  0
   57.8062   34.9971   46.7866 H   0  0  0  0  0
   58.8624   34.5927   45.4111 H   0  0  0  0  0
   59.5040   34.5416   47.0715 H   0  0  0  0  0
   61.7830   34.3304   46.9423 H   0  0  0  0  0
   63.3674   35.0853   47.1872 H   0  0  0  0  0
   63.8587   34.5974   44.8048 H   0  0  0  0  0
   62.4440   33.9287   44.5852 H   0  0  0  0  0
   52.4029   39.0133   39.2574 H   0  0  0  0  0
   55.7920   38.2857   42.3012 H   0  0  0  0  0
   55.6536   41.1178   39.6112 H   0  0  0  0  0
   54.4772   41.6687   40.9677 H   0  0  0  0  0
   53.4092   40.1309   39.3706 H   0  0  0  0  0
 14  1  1  0  0  0
  1 16  1  0  0  0
  1 20  1  0  0  0
  9  2  2  0  0  0
  5  3  2  0  0  0
  4  5  1  0  0  0
 28  4  1  0  0  0
  5  6  1  0  0  0
  6  7  1  0  0  0
  7  8  1  0  0  0
  8  9  1  0  0  0
  8 13  1  0  0  0
  8 18  1  0  0  0
  9 10  1  0  0  0
 10 11  2  0  0  0
 12 11  1  0  0  0
 13 12  1  0  0  0
 12 15  1  0  0  0
 12 19  1  0  0  0
 13 14  1  0  0  0
 15 16  1  0  0  0
 16 17  2  0  0  0
 19 20  1  0  0  0
 29 21  2  0  0  0
 27 22  2  0  0  0
 25 23  2  0  0  0
 25 24  1  0  0  0
 26 25  1  0  0  0
 27 26  1  0  0  0
 26 31  2  0  0  0
 28 27  1  0  0  0
 28 29  1  0  0  0
 29 30  1  0  0  0
 30 31  1  0  0  0
  1 32  1  0  0  0
  4 33  1  0  0  0
  6 34  1  0  0  0
  6 35  1  0  0  0
  7 36  1  0  0  0
  7 37  1  0  0  0
 10 38  1  0  0  0
 11 39  1  0  0  0
 13 40  1  0  0  0
 14 41  1  0  0  0
 14 42  1  0  0  0
 15 43  1  0  0  0
 15 44  1  0  0  0
 17 45  1  0  0  0
 17 46  1  0  0  0
 18 47  1  0  0  0
 18 48  1  0  0  0
 18 49  1  0  0  0
 19 50  1  0  0  0
 19 51  1  0  0  0
 20 52  1  0  0  0
 20 53  1  0  0  0
 24 54  1  0  0  0
 28 55  1  0  0  0
 30 56  1  0  0  0
 30 57  1  0  0  0
 31 58  1  0  0  0
M  END
$$$$
