4oks_ligand
  -I-interpret- 

 55 58  0  0  0  0  0  0  0  0999 V2000
  -21.0670  -29.3550   27.7410 O   0  0  0  0  0
  -19.9750  -29.6700   27.2610 N   0  0  0  0  0
  -19.5340  -29.1050   26.2640 O   0  0  0  0  0
  -19.1880  -30.7370   27.9200 C   0  0  0  0  0
  -17.9230  -31.0760   27.4650 C   0  0  0  0  0
  -17.2100  -32.0750   28.1120 C   0  0  0  0  0
  -19.7420  -31.3810   29.0130 C   0  0  0  0  0
  -19.0270  -32.3690   29.6610 C   0  0  0  0  0
  -17.7630  -32.7250   29.2110 C   0  0  0  0  0
  -17.0720  -33.7130   29.8490 O   0  0  0  0  0
  -15.8620  -34.1440   29.2210 C   0  0  0  0  0
  -19.6450  -33.0800   30.8300 C   0  0  0  0  0
  -19.2740  -32.5490   32.1480 N   0  0  0  0  0
  -19.7500  -33.1260   33.2940 C   0  0  0  0  0
  -19.2340  -32.4030   34.3880 C   0  0  0  0  0
  -18.4250  -31.3340   33.8040 C   0  0  0  0  0
  -17.6630  -30.2900   34.5960 C   0  0  0  0  0
  -16.8270  -30.9830   35.6560 C   0  0  0  0  0
  -15.9530  -31.9360   35.2960 O   0  0  0  0  0
  -16.9490  -30.7150   36.8280 O   0  0  0  0  0
  -18.5030  -31.4680   32.4590 C   0  0  0  0  0
  -20.5540  -34.2380   33.4960 C   0  0  0  0  0
  -20.8630  -34.6290   34.7980 C   0  0  0  0  0
  -20.3410  -33.9020   35.8820 C   0  0  0  0  0
  -19.5330  -32.8030   35.6930 C   0  0  0  0  0
  -21.7280  -35.8280   35.0130 C   0  0  0  0  0
  -21.5580  -36.6500   36.1350 C   0  0  0  0  0
  -22.3740  -37.7700   36.3280 C   0  0  0  0  0
  -22.2150  -38.5920   37.4560 N   0  0  0  0  0
  -23.3490  -38.0800   35.3900 C   0  0  0  0  0
  -23.5110  -37.2750   34.2650 C   0  0  0  0  0
  -24.4980  -37.5840   33.3300 N   0  0  0  0  0
  -22.7050  -36.1580   34.0710 C   0  0  0  0  0
  -17.4921  -30.5618   26.6059 H   0  0  0  0  0
  -16.2162  -32.3508   27.7592 H   0  0  0  0  0
  -20.7387  -31.1094   29.3608 H   0  0  0  0  0
  -16.0873  -34.5280   28.2261 H   0  0  0  0  0
  -15.1761  -33.3008   29.1396 H   0  0  0  0  0
  -15.4034  -34.9306   29.8202 H   0  0  0  0  0
  -19.2897  -34.1099   30.7949 H   0  0  0  0  0
  -20.7243  -32.9604   30.7356 H   0  0  0  0  0
  -18.3656  -29.6063   35.0724 H   0  0  0  0  0
  -17.0129  -29.7252   33.9277 H   0  0  0  0  0
  -15.9665  -32.0369   34.3414 H   0  0  0  0  0
  -18.0222  -30.8111   31.7342 H   0  0  0  0  0
  -20.9402  -34.8002   32.6458 H   0  0  0  0  0
  -20.5818  -34.2160   36.8976 H   0  0  0  0  0
  -19.1337  -32.2548   36.5463 H   0  0  0  0  0
  -20.7828  -36.4147   36.8642 H   0  0  0  0  0
  -21.4972  -38.3756   38.1477 H   0  0  0  0  0
  -22.8173  -39.4053   37.5834 H   0  0  0  0  0
  -23.9869  -38.9521   35.5336 H   0  0  0  0  0
  -25.0978  -38.3968   33.4713 H   0  0  0  0  0
  -24.6202  -36.9973   32.5046 H   0  0  0  0  0
  -22.8360  -35.5397   33.1830 H   0  0  0  0  0
  1  2  2  0  0  0
  2  3  2  0  0  0
  2  4  1  0  0  0
  4  5  4  0  0  0
  4  7  4  0  0  0
  5  6  4  0  0  0
  6  9  4  0  0  0
  7  8  4  0  0  0
  8  9  4  0  0  0
  8 12  1  0  0  0
  9 10  1  0  0  0
 10 11  1  0  0  0
 12 13  1  0  0  0
 13 14  4  0  0  0
 13 21  4  0  0  0
 14 15  4  0  0  0
 14 22  4  0  0  0
 15 16  4  0  0  0
 15 25  4  0  0  0
 16 17  1  0  0  0
 16 21  4  0  0  0
 17 18  1  0  0  0
 18 19  1  0  0  0
 18 20  2  0  0  0
 22 23  4  0  0  0
 23 24  4  0  0  0
 23 26  1  0  0  0
 24 25  4  0  0  0
 26 27  4  0  0  0
 26 33  4  0  0  0
 27 28  4  0  0  0
 28 29  1  0  0  0
 28 30  4  0  0  0
 30 31  4  0  0  0
 31 32  1  0  0  0
 31 33  4  0  0  0
  5 34  1  0  0  0
  6 35  1  0  0  0
  7 36  1  0  0  0
 11 37  1  0  0  0
 11 38  1  0  0  0
 11 39  1  0  0  0
 12 40  1  0  0  0
 12 41  1  0  0  0
 17 42  1  0  0  0
 17 43  1  0  0  0
 19 44  1  0  0  0
 21 45  1  0  0  0
 22 46  1  0  0  0
 24 47  1  0  0  0
 25 48  1  0  0  0
 27 49  1  0  0  0
 29 50  1  0  0  0
 29 51  1  0  0  0
 30 52  1  0  0  0
 32 53  1  0  0  0
 32 54  1  0  0  0
 33 55  1  0  0  0
M  END
$$$$
