5k0b_ligand
  -I-interpret- 

 36 38  0  0  0  0  0  0  0  0999 V2000
   98.1000   57.0490    2.3130 C   0  0  0  0  0
   97.5500   56.5550    1.0050 C   0  0  0  0  0
   96.2650   55.9130   -1.0570 C   0  0  0  0  0
   97.6030   55.4310   -0.9870 C   0  0  0  0  0
   98.2860   54.5810   -2.0440 C   0  0  0  0  0
   95.2640   54.6690   -2.9810 N   0  0  0  0  0
   93.5360   55.8890   -3.5490 C   0  0  0  0  0
   92.2930   56.3040   -4.3090 C   0  0  0  0  0
   91.6730   57.5470   -3.7060 C   0  0  0  0  0
   92.0860   58.8090   -4.1090 C   0  0  0  0  0
   91.5090   59.9480   -3.5590 C   0  0  0  0  0
   90.5010   59.8310   -2.6120 C   0  0  0  0  0
   90.0810   58.5690   -2.2180 C   0  0  0  0  0
   90.6640   57.4330   -2.7620 C   0  0  0  0  0
   96.0080   56.8130    0.3640 S   0  0  0  0  0
   98.2610   55.8090    0.1470 N   0  0  0  0  0
   95.2650   55.7000   -2.1540 C   0  0  0  0  0
   94.2570   54.7960   -3.7910 N   0  0  0  0  0
   94.1580   56.5500   -2.4540 C   0  0  0  0  0
   92.6990   56.5690   -5.7320 C   0  0  0  0  0
   98.0752   58.1386    2.3278 H   0  0  0  0  0
   97.4939   56.6594    3.1309 H   0  0  0  0  0
   99.1285   56.7061    2.4259 H   0  0  0  0  0
   97.7336   53.6502   -2.1726 H   0  0  0  0  0
   98.3077   55.1255   -2.9880 H   0  0  0  0  0
   99.3052   54.3594   -1.7274 H   0  0  0  0  0
   91.5465   55.5114   -4.2578 H   0  0  0  0  0
   92.8680   58.9079   -4.8618 H   0  0  0  0  0
   91.8490   60.9351   -3.8722 H   0  0  0  0  0
   90.0438   60.7222   -2.1820 H   0  0  0  0  0
   89.2883   58.4689   -1.4766 H   0  0  0  0  0
   90.3268   56.4460   -2.4454 H   0  0  0  0  0
   93.8621   57.4777   -1.9642 H   0  0  0  0  0
   93.4427   57.3656   -5.7540 H   0  0  0  0  0
   93.1235   55.6620   -6.1623 H   0  0  0  0  0
   91.8242   56.8709   -6.3079 H   0  0  0  0  0
  2  1  1  0  0  0
 15  2  4  0  0  0
  2 16  4  0  0  0
  3  4  4  0  0  0
  3 15  4  0  0  0
 17  3  1  0  0  0
  4  5  1  0  0  0
  4 16  4  0  0  0
  6 17  4  0  0  0
 18  6  4  0  0  0
  7  8  1  0  0  0
  7 18  4  0  0  0
  7 19  4  0  0  0
  8  9  1  0  0  0
  8 20  1  0  0  0
  9 10  4  0  0  0
  9 14  4  0  0  0
 10 11  4  0  0  0
 11 12  4  0  0  0
 12 13  4  0  0  0
 13 14  4  0  0  0
 17 19  4  0  0  0
  1 21  1  0  0  0
  1 22  1  0  0  0
  1 23  1  0  0  0
  5 24  1  0  0  0
  5 25  1  0  0  0
  5 26  1  0  0  0
  8 27  1  0  0  0
 10 28  1  0  0  0
 11 29  1  0  0  0
 12 30  1  0  0  0
 13 31  1  0  0  0
 14 32  1  0  0  0
 19 33  1  0  0  0
 20 34  1  0  0  0
 20 35  1  0  0  0
 20 36  1  0  0  0
M  END
$$$$
