1gu3_ligand
  -I-interpret- 

108112  0  0  0  0  0  0  0  0999 V2000
  -10.9960   33.3410   27.0270 C   0  0  0  0  0
  -12.0380   32.5920   26.1870 C   0  0  0  0  0
  -11.4940   31.2460   25.6530 C   0  0  0  0  0
  -10.7080   30.4530   26.7180 C   0  0  0  0  0
   -9.9570   29.2910   26.0640 C   0  0  0  0  0
  -10.4670   32.3720   28.0840 C   0  0  0  0  0
   -9.5620   33.0310   28.9450 O   0  0  0  0  0
  -11.6040   34.4340   27.6620 O   0  0  0  0  0
  -12.5950   33.3870   25.1410 O   0  0  0  0  0
  -12.5660   30.4710   25.1490 O   0  0  0  0  0
   -9.8080   31.2900   27.4520 O   0  0  0  0  0
   -9.9680   28.1570   26.8950 O   0  0  0  0  0
  -13.3270   29.1170   23.2060 C   0  0  0  0  0
  -13.5360   29.0460   21.6800 C   0  0  0  0  0
  -13.9470   30.3870   21.0950 C   0  0  0  0  0
  -12.9580   31.4230   21.6270 C   0  0  0  0  0
  -13.2620   32.8240   21.0840 C   0  0  0  0  0
  -12.4910   30.3070   23.6880 C   0  0  0  0  0
  -12.7300   27.9100   23.6160 O   0  0  0  0  0
  -14.6080   28.1790   21.4200 O   0  0  0  0  0
  -13.8420   30.3240   19.6900 O   0  0  0  0  0
  -13.0000   31.4330   23.0500 O   0  0  0  0  0
  -14.4770   33.3490   21.6200 O   0  0  0  0  0
  -15.0420   30.5070   17.6190 C   0  0  0  0  0
  -16.3110   30.0590   16.9010 C   0  0  0  0  0
  -16.5480   28.5510   17.0020 C   0  0  0  0  0
  -16.3860   28.0520   18.4250 C   0  0  0  0  0
  -16.5820   26.5340   18.4690 C   0  0  0  0  0
  -15.0030   29.8550   18.9980 C   0  0  0  0  0
  -14.9790   31.9060   17.7410 O   0  0  0  0  0
  -16.1750   30.3290   15.5310 O   0  0  0  0  0
  -17.8490   28.2170   16.6030 O   0  0  0  0  0
  -15.0750   28.4420   18.8540 O   0  0  0  0  0
  -15.7150   25.9250   17.5310 O   0  0  0  0  0
  -19.5640   27.3320   15.1450 C   0  0  0  0  0
  -19.8570   26.7400   13.7590 C   0  0  0  0  0
  -19.1330   27.5110   12.6330 C   0  0  0  0  0
  -17.6540   27.6530   13.0130 C   0  0  0  0  0
  -16.8880   28.4880   11.9980 C   0  0  0  0  0
  -18.0590   27.5650   15.3340 C   0  0  0  0  0
  -20.0690   26.4240   16.0940 O   0  0  0  0  0
  -21.2630   26.6550   13.5890 O   0  0  0  0  0
  -19.2400   26.7780   11.4220 O   0  0  0  0  0
  -17.5660   28.3120   14.2560 O   0  0  0  0  0
  -17.5820   29.7320   11.8350 O   0  0  0  0  0
  -19.3360   26.6400    9.1150 C   0  0  0  0  0
  -19.7200   27.3990    7.8430 C   0  0  0  0  0
  -21.1550   27.9760    7.9630 C   0  0  0  0  0
  -21.4030   28.7540    9.2680 C   0  0  0  0  0
  -22.8760   28.9970    9.5430 C   0  0  0  0  0
  -19.6090   27.5500   10.2910 C   0  0  0  0  0
  -17.9830   26.2070    9.1510 O   0  0  0  0  0
  -19.5360   26.5260    6.7280 O   0  0  0  0  0
  -21.4030   28.6920    6.7960 O   0  0  0  0  0
  -20.9680   27.9110   10.3330 O   0  0  0  0  0
  -23.6220   27.7990    9.4610 O   0  0  0  0  0
  -10.1848   33.7040   26.3958 H   0  0  0  0  0
  -12.8595   32.3672   26.8672 H   0  0  0  0  0
  -10.7883   31.4711   24.8534 H   0  0  0  0  0
  -11.4279   30.0526   27.4318 H   0  0  0  0  0
   -8.9232   29.5921   25.8948 H   0  0  0  0  0
  -10.4474   29.0414   25.1231 H   0  0  0  0  0
  -11.3082   31.9998   28.6687 H   0  0  0  0  0
  -10.0074   33.7651   29.3744 H   0  0  0  0  0
  -11.9367   35.0434   26.9990 H   0  0  0  0  0
  -12.9218   34.2121   25.5071 H   0  0  0  0  0
   -9.4923   27.4423   26.4655 H   0  0  0  0  0
  -14.3079   29.2661   23.6573 H   0  0  0  0  0
  -12.5933   28.7204   21.2402 H   0  0  0  0  0
  -14.9709   30.6440   21.3665 H   0  0  0  0  0
  -11.9598   31.1460   21.2881 H   0  0  0  0  0
  -13.3666   32.7563   20.0011 H   0  0  0  0  0
  -12.4462   33.4872   21.3716 H   0  0  0  0  0
  -11.4394   30.1493   23.4486 H   0  0  0  0  0
  -12.5894   27.9302   24.5654 H   0  0  0  0  0
  -14.7510   28.1240   20.4723 H   0  0  0  0  0
  -14.6332   34.2243   21.2581 H   0  0  0  0  0
  -14.1791   30.1963   17.0300 H   0  0  0  0  0
  -17.1375   30.5924   17.3706 H   0  0  0  0  0
  -15.8081   28.0868   16.3500 H   0  0  0  0  0
  -17.1319   28.4802   19.0946 H   0  0  0  0  0
  -17.6157   26.2915   18.2225 H   0  0  0  0  0
  -16.3556   26.1650   19.4693 H   0  0  0  0  0
  -15.8626   30.1338   19.6074 H   0  0  0  0  0
  -14.1699   32.1503   18.1962 H   0  0  0  0  0
  -16.9698   30.0500   15.0706 H   0  0  0  0  0
  -15.8358   24.9730   17.5564 H   0  0  0  0  0
  -20.0411   28.3051   15.2614 H   0  0  0  0  0
  -19.4513   25.7305   13.6929 H   0  0  0  0  0
  -19.5815   28.4957   12.5011 H   0  0  0  0  0
  -17.2226   26.6527   13.0490 H   0  0  0  0  0
  -16.8284   27.9619   11.0452 H   0  0  0  0  0
  -15.8711   28.6666   12.3474 H   0  0  0  0  0
  -17.5123   26.6221   15.3482 H   0  0  0  0  0
  -19.9038   26.7613   16.9775 H   0  0  0  0  0
  -21.4579   26.2857   12.7246 H   0  0  0  0  0
  -17.1150   30.2765   11.1970 H   0  0  0  0  0
  -19.9338   25.7291    9.1472 H   0  0  0  0  0
  -19.0771   28.2662    7.6923 H   0  0  0  0  0
  -21.8836   27.1698    8.0480 H   0  0  0  0  0
  -20.8877   29.7110    9.1861 H   0  0  0  0  0
  -23.2568   29.6931    8.7957 H   0  0  0  0  0
  -22.9776   29.3991   10.5510 H   0  0  0  0  0
  -19.0554   28.4875   10.2389 H   0  0  0  0  0
  -17.8189   25.7416    9.9744 H   0  0  0  0  0
  -19.7727   26.9868    5.9198 H   0  0  0  0  0
  -22.2863   29.0662    6.8331 H   0  0  0  0  0
  -24.5465   27.9862    9.6394 H   0  0  0  0  0
  2  1  1  0  0  0
  1  6  1  0  0  0
  1  8  1  0  0  0
  3  2  1  0  0  0
  2  9  1  0  0  0
  3  4  1  0  0  0
 10  3  1  0  0  0
  4  5  1  0  0  0
  4 11  1  0  0  0
  5 12  1  0  0  0
  6  7  1  0  0  0
 11  6  1  0  0  0
 18 10  1  0  0  0
 14 13  1  0  0  0
 13 18  1  0  0  0
 13 19  1  0  0  0
 15 14  1  0  0  0
 14 20  1  0  0  0
 15 16  1  0  0  0
 21 15  1  0  0  0
 16 17  1  0  0  0
 16 22  1  0  0  0
 17 23  1  0  0  0
 22 18  1  0  0  0
 29 21  1  0  0  0
 25 24  1  0  0  0
 24 29  1  0  0  0
 24 30  1  0  0  0
 26 25  1  0  0  0
 25 31  1  0  0  0
 26 27  1  0  0  0
 32 26  1  0  0  0
 27 28  1  0  0  0
 27 33  1  0  0  0
 28 34  1  0  0  0
 33 29  1  0  0  0
 40 32  1  0  0  0
 36 35  1  0  0  0
 35 40  1  0  0  0
 35 41  1  0  0  0
 37 36  1  0  0  0
 36 42  1  0  0  0
 37 38  1  0  0  0
 43 37  1  0  0  0
 38 39  1  0  0  0
 38 44  1  0  0  0
 39 45  1  0  0  0
 44 40  1  0  0  0
 51 43  1  0  0  0
 46 47  1  0  0  0
 46 51  1  0  0  0
 46 52  1  0  0  0
 47 48  1  0  0  0
 47 53  1  0  0  0
 48 49  1  0  0  0
 48 54  1  0  0  0
 49 50  1  0  0  0
 49 55  1  0  0  0
 50 56  1  0  0  0
 51 55  1  0  0  0
  1 57  1  0  0  0
  2 58  1  0  0  0
  3 59  1  0  0  0
  4 60  1  0  0  0
  5 61  1  0  0  0
  5 62  1  0  0  0
  6 63  1  0  0  0
  7 64  1  0  0  0
  8 65  1  0  0  0
  9 66  1  0  0  0
 12 67  1  0  0  0
 13 68  1  0  0  0
 14 69  1  0  0  0
 15 70  1  0  0  0
 16 71  1  0  0  0
 17 72  1  0  0  0
 17 73  1  0  0  0
 18 74  1  0  0  0
 19 75  1  0  0  0
 20 76  1  0  0  0
 23 77  1  0  0  0
 24 78  1  0  0  0
 25 79  1  0  0  0
 26 80  1  0  0  0
 27 81  1  0  0  0
 28 82  1  0  0  0
 28 83  1  0  0  0
 29 84  1  0  0  0
 30 85  1  0  0  0
 31 86  1  0  0  0
 34 87  1  0  0  0
 35 88  1  0  0  0
 36 89  1  0  0  0
 37 90  1  0  0  0
 38 91  1  0  0  0
 39 92  1  0  0  0
 39 93  1  0  0  0
 40 94  1  0  0  0
 41 95  1  0  0  0
 42 96  1  0  0  0
 45 97  1  0  0  0
 46 98  1  0  0  0
 47 99  1  0  0  0
 48100  1  0  0  0
 49101  1  0  0  0
 50102  1  0  0  0
 50103  1  0  0  0
 51104  1  0  0  0
 52105  1  0  0  0
 53106  1  0  0  0
 54107  1  0  0  0
 56108  1  0  0  0
M  END
$$$$
