5q0n_ligand
  -I-interpret- 

 61 65  0  0  0  0  0  0  0  0999 V2000
   23.1390   18.0720    3.5530 N   0  0  0  0  0
   22.8210   16.3700    2.1240 N   0  0  0  0  0
   24.3670   17.4450    3.4230 C   0  0  0  0  0
   24.1610   16.3980    2.5430 C   0  0  0  0  0
   23.7590   20.4580    4.0640 C   0  0  0  0  0
   22.8020   19.2830    4.4160 C   0  0  0  0  0
   25.5940   17.7200    4.0070 C   0  0  0  0  0
   25.2290   15.5690    2.2070 C   0  0  0  0  0
   27.5300   24.6340    0.6310 C   0  0  0  0  0
   26.4510   15.8450    2.7860 C   0  0  0  0  0
   24.4640   22.8450    1.9740 C   0  0  0  0  0
   26.2870   21.2720    1.9360 C   0  0  0  0  0
   27.1140   22.2700    1.4270 C   0  0  0  0  0
   19.8130   16.9100    3.1000 C   0  0  0  0  0
   27.0220   25.8220    0.6680 O   0  0  0  0  0
   28.6530   24.4000    0.1800 O   0  0  0  0  0
   26.6260   23.5520    1.1890 C   0  0  0  0  0
   24.9440   21.5440    2.2160 C   0  0  0  0  0
   24.0810   20.5510    2.7450 N   0  0  0  0  0
   24.1770   21.2220    4.9230 O   0  0  0  0  0
   22.8370   18.9090    5.9220 C   0  0  0  0  0
   21.9730   19.8420    6.7680 C   0  0  0  0  0
   22.1040   19.5200    8.2690 C   0  0  0  0  0
   21.7090   18.0640    8.5760 C   0  0  0  0  0
   22.4800   17.0660    7.6920 C   0  0  0  0  0
   22.3860   17.4570    6.1710 C   0  0  0  0  0
   22.2510   17.3840    2.7470 C   0  0  0  0  0
   27.5110   15.0680    2.4890 F   0  0  0  0  0
   26.6250   16.8980    3.6660 C   0  0  0  0  0
   27.8460   17.1190    4.2030 F   0  0  0  0  0
   20.8220   17.7420    2.6090 C   0  0  0  0  0
   18.4760   17.2650    2.9690 C   0  0  0  0  0
   18.1540   18.4590    2.3520 C   0  0  0  0  0
   16.4820   18.9160    2.1900 Cl  0  0  0  0  0
   19.1310   19.3040    1.8630 C   0  0  0  0  0
   20.4610   18.9420    1.9940 C   0  0  0  0  0
   22.8020   23.2410    2.3040 Cl  0  0  0  0  0
   25.2870   23.8340    1.4670 C   0  0  0  0  0
   21.7852   19.6145    4.2052 H   0  0  0  0  0
   25.7264   18.5495    4.7017 H   0  0  0  0  0
   25.1045   14.7362    1.5149 H   0  0  0  0  0
   26.6880   20.2747    2.1170 H   0  0  0  0  0
   28.1584   22.0443    1.2118 H   0  0  0  0  0
   20.0771   15.9732    3.5907 H   0  0  0  0  0
   26.1444   25.7816    1.0549 H   0  0  0  0  0
   23.6795   19.8689    2.1016 H   0  0  0  0  0
   23.8790   19.0162    6.2233 H   0  0  0  0  0
   20.9314   19.7107    6.4749 H   0  0  0  0  0
   22.3053   20.8669    6.6030 H   0  0  0  0  0
   21.4359   20.1807    8.8214 H   0  0  0  0  0
   23.1444   19.6623    8.5611 H   0  0  0  0  0
   20.6438   17.9478    8.3763 H   0  0  0  0  0
   21.9489   17.8557    9.6187 H   0  0  0  0  0
   22.0421   16.0765    7.8232 H   0  0  0  0  0
   23.5287   17.0783    7.9889 H   0  0  0  0  0
   23.0417   16.7940    5.6066 H   0  0  0  0  0
   21.3461   17.3637    5.8578 H   0  0  0  0  0
   17.6913   16.6102    3.3480 H   0  0  0  0  0
   18.8588   20.2428    1.3807 H   0  0  0  0  0
   21.2378   19.6040    1.6112 H   0  0  0  0  0
   24.8907   24.8329    1.2845 H   0  0  0  0  0
  1  3  4  0  0  0
  1  6  1  0  0  0
 27  1  4  0  0  0
  2  4  4  0  0  0
 27  2  4  0  0  0
  4  3  4  0  0  0
  3  7  4  0  0  0
  4  8  4  0  0  0
  6  5  1  0  0  0
  5 19  1  0  0  0
  5 20  2  0  0  0
  6 21  1  0  0  0
  7 29  4  0  0  0
  8 10  4  0  0  0
  9 15  1  0  0  0
  9 16  2  0  0  0
 17  9  1  0  0  0
 10 28  1  0  0  0
 10 29  4  0  0  0
 18 11  4  0  0  0
 11 37  1  0  0  0
 11 38  4  0  0  0
 12 13  4  0  0  0
 18 12  4  0  0  0
 13 17  4  0  0  0
 31 14  4  0  0  0
 14 32  4  0  0  0
 38 17  4  0  0  0
 19 18  1  0  0  0
 21 22  1  0  0  0
 21 26  1  0  0  0
 22 23  1  0  0  0
 23 24  1  0  0  0
 25 24  1  0  0  0
 26 25  1  0  0  0
 27 31  1  0  0  0
 29 30  1  0  0  0
 31 36  4  0  0  0
 32 33  4  0  0  0
 33 34  1  0  0  0
 33 35  4  0  0  0
 35 36  4  0  0  0
  6 39  1  0  0  0
  7 40  1  0  0  0
  8 41  1  0  0  0
 12 42  1  0  0  0
 13 43  1  0  0  0
 14 44  1  0  0  0
 15 45  1  0  0  0
 19 46  1  0  0  0
 21 47  1  0  0  0
 22 48  1  0  0  0
 22 49  1  0  0  0
 23 50  1  0  0  0
 23 51  1  0  0  0
 24 52  1  0  0  0
 24 53  1  0  0  0
 25 54  1  0  0  0
 25 55  1  0  0  0
 26 56  1  0  0  0
 26 57  1  0  0  0
 32 58  1  0  0  0
 35 59  1  0  0  0
 36 60  1  0  0  0
 38 61  1  0  0  0
M  END
$$$$
