4hw7_ligand
  -I-interpret- 

 48 51  0  0  0  0  0  0  0  0999 V2000
   29.5060   13.0690   72.6810 C   0  0  0  0  0
   29.4690   11.8330   72.0910 C   0  0  0  0  0
   30.5240   11.0360   71.8890 N   0  0  0  0  0
   30.7000   13.5570   73.1120 C   0  0  0  0  0
   32.8680   10.9670   72.2580 N   0  0  0  0  0
   33.7990   11.7780   72.8070 C   0  0  0  0  0
   33.1870   12.9200   73.2440 C   0  0  0  0  0
   31.8230   12.7690   72.9310 C   0  0  0  0  0
   31.6590   11.5620   72.3250 C   0  0  0  0  0
   28.5190   13.9330   72.9150 O   0  0  0  0  0
   33.8000   14.0990   73.9020 C   0  0  0  0  0
   35.2530   13.8090   73.8770 C   0  0  0  0  0
   35.9660   13.5700   75.0140 C   0  0  0  0  0
   37.2700   13.3000   75.0430 N   0  0  0  0  0
   37.9230   13.2440   73.8860 C   0  0  0  0  0
   37.2860   13.4690   72.6970 C   0  0  0  0  0
   35.9440   13.7550   72.6960 C   0  0  0  0  0
   29.0280   15.0730   73.5530 C   0  0  0  0  0
   39.2590   12.9670   73.8570 N   0  0  0  0  0
   40.1020   13.6040   74.8190 C   0  0  0  0  0
   40.5640   12.5430   75.7450 C   0  0  0  0  0
   39.8320   11.3810   75.8750 C   0  0  0  0  0
   40.2650   10.3870   76.7400 C   0  0  0  0  0
   41.4230   10.5510   77.4790 C   0  0  0  0  0
   42.1480   11.7180   77.3400 C   0  0  0  0  0
   41.7230   12.7140   76.4780 C   0  0  0  0  0
   41.8960    9.5080   78.4050 C   0  0  0  0  0
   42.9360    9.8730   79.1380 F   0  0  0  0  0
   41.0120    9.1180   79.3010 F   0  0  0  0  0
   42.2580    8.3820   77.8120 F   0  0  0  0  0
   28.4973   11.4682   71.7580 H   0  0  0  0  0
   30.7701   14.5367   73.5845 H   0  0  0  0  0
   34.8635   11.5579   72.8882 H   0  0  0  0  0
   33.4259   14.2476   74.9150 H   0  0  0  0  0
   33.5559   15.0304   73.3911 H   0  0  0  0  0
   35.4327   13.6020   75.9641 H   0  0  0  0  0
   37.8391   13.4216   71.7590 H   0  0  0  0  0
   35.4274   13.9394   71.7541 H   0  0  0  0  0
   29.4871   14.7842   74.4985 H   0  0  0  0  0
   29.7752   15.5426   72.9133 H   0  0  0  0  0
   28.2160   15.7753   73.7415 H   0  0  0  0  0
   39.6454   12.3226   73.1672 H   0  0  0  0  0
   39.5603   14.3818   75.3572 H   0  0  0  0  0
   40.9470   14.0924   74.3336 H   0  0  0  0  0
   38.9163   11.2444   75.2998 H   0  0  0  0  0
   39.6874    9.4679   76.8385 H   0  0  0  0  0
   43.0638   11.8561   77.9147 H   0  0  0  0  0
   42.3018   13.6322   76.3774 H   0  0  0  0  0
  2  1  4  0  0  0
  1  4  4  0  0  0
  1 10  1  0  0  0
  3  2  4  0  0  0
  9  3  4  0  0  0
  4  8  4  0  0  0
  5  6  4  0  0  0
  5  9  4  0  0  0
  6  7  4  0  0  0
  7  8  4  0  0  0
  7 11  1  0  0  0
  8  9  4  0  0  0
 10 18  1  0  0  0
 11 12  1  0  0  0
 12 13  4  0  0  0
 12 17  4  0  0  0
 13 14  4  0  0  0
 14 15  4  0  0  0
 15 16  4  0  0  0
 15 19  1  0  0  0
 16 17  4  0  0  0
 19 20  1  0  0  0
 20 21  1  0  0  0
 21 22  4  0  0  0
 21 26  4  0  0  0
 22 23  4  0  0  0
 23 24  4  0  0  0
 24 25  4  0  0  0
 24 27  1  0  0  0
 25 26  4  0  0  0
 27 28  1  0  0  0
 27 29  1  0  0  0
 27 30  1  0  0  0
  2 31  1  0  0  0
  4 32  1  0  0  0
  6 33  1  0  0  0
 11 34  1  0  0  0
 11 35  1  0  0  0
 13 36  1  0  0  0
 16 37  1  0  0  0
 17 38  1  0  0  0
 18 39  1  0  0  0
 18 40  1  0  0  0
 18 41  1  0  0  0
 19 42  1  0  0  0
 20 43  1  0  0  0
 20 44  1  0  0  0
 22 45  1  0  0  0
 23 46  1  0  0  0
 25 47  1  0  0  0
 26 48  1  0  0  0
M  END
$$$$
