1m0q_ligand
  -I-interpret- 

 38 38  0  0  0  0  0  0  0  0999 V2000
   15.8650   51.0490   19.8310 C   0  0  0  0  0
   16.0090   51.2470   18.4280 N   0  0  0  0  0
   17.1620   52.5670   13.6290 N   0  0  0  0  0
   16.0370   52.8770   14.4570 C   0  0  0  0  0
   14.9410   53.8310   13.9430 C   0  0  0  0  0
   15.9660   52.3420   15.7510 C   0  0  0  0  0
   14.8760   52.6630   16.5590 O   0  0  0  0  0
   17.0930   51.4470   16.2780 C   0  0  0  0  0
   17.0100   50.9300   17.7030 C   0  0  0  0  0
   18.2030   51.1800   15.4230 C   0  0  0  0  0
   18.1880   51.7820   14.0290 C   0  0  0  0  0
   19.4040   50.3410   15.8680 C   0  0  0  0  0
   18.9320   49.0270   16.0370 O   0  0  0  0  0
   20.0160   48.0930   16.6400 P   0  0  0  0  0
   19.3910   46.7170   16.8530 O   0  0  0  0  0
   21.2570   47.9760   15.8240 O   0  0  0  0  0
   20.4740   48.7930   17.9260 O   0  0  0  0  0
   14.2540   51.0870   20.2920 P   0  0  0  0  0
   13.5500   52.3430   19.6510 O   0  0  0  0  0
   13.6400   49.7540   19.8510 O   0  0  0  0  0
   14.1400   51.0740   21.8940 O   0  0  0  0  0
   16.6140   49.7340   20.3460 C   0  0  0  0  0
   16.3609   51.8861   20.3223 H   0  0  0  0  0
   13.9788   53.3192   13.9591 H   0  0  0  0  0
   14.8967   54.7109   14.5848 H   0  0  0  0  0
   15.1751   54.1353   12.9229 H   0  0  0  0  0
   14.2724   53.2276   16.0706 H   0  0  0  0  0
   17.7989   50.2933   18.1034 H   0  0  0  0  0
   19.0117   51.5796   13.3445 H   0  0  0  0  0
   19.8271   50.7262   16.7957 H   0  0  0  0  0
   20.2017   50.3769   15.1261 H   0  0  0  0  0
   18.5934   46.8071   17.3795 H   0  0  0  0  0
   19.7223   48.9069   18.5121 H   0  0  0  0  0
   13.9779   53.1431   19.9646 H   0  0  0  0  0
   14.5089   51.8871   22.2465 H   0  0  0  0  0
   16.5733   49.6970   21.4346 H   0  0  0  0  0
   16.1236   48.8527   19.9327 H   0  0  0  0  0
   17.6540   49.7588   20.0206 H   0  0  0  0  0
  1 22  1  0  0  0
  1 18  1  0  0  0
  1  2  1  0  0  0
  2  9  2  0  0  0
  9  8  1  0  0  0
  8 10  4  0  0  0
  8  6  4  0  0  0
  6  7  1  0  0  0
  6  4  4  0  0  0
  4  5  1  0  0  0
  4  3  4  0  0  0
  3 11  4  0  0  0
 11 10  4  0  0  0
 10 12  1  0  0  0
 12 13  1  0  0  0
 13 14  1  0  0  0
 14 17  1  0  0  0
 14 16  2  0  0  0
 14 15  1  0  0  0
 18 21  1  0  0  0
 18 20  2  0  0  0
 18 19  1  0  0  0
  1 23  1  0  0  0
  5 24  1  0  0  0
  5 25  1  0  0  0
  5 26  1  0  0  0
  7 27  1  0  0  0
  9 28  1  0  0  0
 11 29  1  0  0  0
 12 30  1  0  0  0
 12 31  1  0  0  0
 15 32  1  0  0  0
 17 33  1  0  0  0
 19 34  1  0  0  0
 21 35  1  0  0  0
 22 36  1  0  0  0
 22 37  1  0  0  0
 22 38  1  0  0  0
M  END
$$$$
