### 
### Created by X-TOOL on Mon Sep 10 21:12:53 2018
### 

@<TRIPOS>MOLECULE
2bz8_ligand
  201   205     1     0     0
SMALL
GAST_HUCK


@<TRIPOS>ATOM
      1 N          23.3870   10.9160   44.9750 N.4       1 PRO         0.2461
      2 CA         22.4250   10.3620   43.9900 C.3       1 PRO         0.0669
      3 C          21.0220   10.8330   44.3330 C.2       1 PRO         0.2268
      4 O          20.3600   10.2490   45.1930 O.2       1 PRO        -0.3907
      5 CB         22.5200    8.8490   44.0890 C.3       1 PRO         0.0127
      6 CG         22.9310    8.6820   45.5550 C.3       1 PRO        -0.0053
      7 CD         23.9340    9.8270   45.8050 C.3       1 PRO        -0.0313
      8 N          20.5790   11.9010   43.6770 N.am      1 ALA        -0.2613
      9 CA         19.2470   12.4360   43.9210 C.3       1 ALA         0.1283
     10 C          18.2730   11.6060   43.1010 C.2       1 ALA         0.2036
     11 O          18.6750   10.9950   42.1160 O.2       1 ALA        -0.3944
     12 CB         19.1910   13.8930   43.4950 C.3       1 ALA        -0.0244
     13 N          17.0060   11.5610   43.5000 N.am      1 ARG        -0.2637
     14 CA         16.0380   10.7880   42.7320 C.3       1 ARG         0.1313
     15 C          15.7540   11.5160   41.4210 C.2       1 ARG         0.2064
     16 O          16.1130   12.6810   41.2630 O.2       1 ARG        -0.3942
     17 CB         14.7500   10.5910   43.5290 C.3       1 ARG        -0.0092
     18 CG         13.8540   11.7950   43.6580 C.3       1 ARG        -0.0156
     19 CD         12.9690   11.6290   44.8920 C.3       1 ARG         0.0627
     20 NE         13.7940   11.6130   46.0970 N.pl3     1 ARG        -0.2723
     21 CZ         13.3520   11.3650   47.3240 C.cat     1 ARG         0.2882
     22 NH1        12.0730   11.1010   47.5330 N.pl3     1 ARG        -0.2849
     23 NH2        14.1920   11.3910   48.3460 N.pl3     1 ARG        -0.2849
     24 N          15.1210   10.8380   40.4560 N.am      1 PRO        -0.2498
     25 CA         14.8380   11.5100   39.1860 C.3       1 PRO         0.1340
     26 C          13.9820   12.7550   39.3910 C.2       1 PRO         0.2066
     27 O          13.0440   12.7470   40.1930 O.2       1 PRO        -0.3942
     28 CB         14.1000   10.4390   38.3800 C.3       1 PRO        -0.0104
     29 CG         14.6250    9.1580   38.9380 C.3       1 PRO        -0.0281
     30 CD         14.6720    9.4360   40.4240 C.3       1 PRO         0.0369
     31 N          14.3040   13.8480   38.6760 N.am      1 PRO        -0.2498
     32 CA         13.5300   15.0840   38.8040 C.3       1 PRO         0.1338
     33 C          12.1500   14.8980   38.1810 C.2       1 PRO         0.2041
     34 O          11.9250   13.9700   37.4130 O.2       1 PRO        -0.3944
     35 CB         14.3870   16.1060   38.0630 C.3       1 PRO        -0.0104
     36 CG         15.0560   15.2830   37.0150 C.3       1 PRO        -0.0281
     37 CD         15.4520   14.0430   37.7750 C.3       1 PRO         0.0369
     38 N          11.2200   15.7720   38.5310 N.am      1 LYS        -0.2637
     39 CA          9.8790   15.6770   37.9990 C.3       1 LYS         0.1312
     40 C           9.6100   16.8190   37.0480 C.2       1 LYS         0.2064
     41 O          10.0250   17.9480   37.2750 O.2       1 LYS        -0.3942
     42 CB          8.8720   15.6850   39.1440 C.3       1 LYS        -0.0122
     43 CG          8.7580   14.3460   39.8320 C.3       1 LYS        -0.0440
     44 CD          7.4740   13.6270   39.4070 C.3       1 LYS        -0.0124
     45 CE          7.5610   12.1230   39.6560 C.3       1 LYS        -0.0354
     46 NZ          8.3250   11.7990   40.9020 N.4       1 LYS         0.2185
     47 N           8.9360   16.5330   35.9380 N.am      1 PRO        -0.2498
     48 CA          8.6690   17.6370   35.0240 C.3       1 PRO         0.1338
     49 C           7.5170   18.4520   35.6120 C.2       1 PRO         0.2041
     50 O           6.7020   17.9350   36.3780 O.2       1 PRO        -0.3944
     51 CB          8.2610   16.9270   33.7330 C.3       1 PRO        -0.0104
     52 CG          8.7660   15.5120   33.9030 C.3       1 PRO        -0.0281
     53 CD          8.5300   15.2510   35.3480 C.3       1 PRO         0.0369
     54 N           7.4520   19.7280   35.2730 N.am      1 ARG        -0.2637
     55 CA          6.3670   20.5550   35.7710 C.3       1 ARG         0.1313
     56 C           5.1410   20.1220   34.9600 C.2       1 ARG         0.2064
     57 O           5.2500   19.8170   33.7630 O.2       1 ARG        -0.3942
     58 CB          6.6780   22.0330   35.5270 C.3       1 ARG        -0.0092
     59 CG          5.9270   23.0030   36.4260 C.3       1 ARG        -0.0156
     60 CD          6.2470   24.4590   36.0680 C.3       1 ARG         0.0627
     61 NE          7.6830   24.6890   35.8950 N.pl3     1 ARG        -0.2723
     62 CZ          8.2370   25.8880   35.7280 C.cat     1 ARG         0.2882
     63 NH1         9.5540   26.0020   35.5730 N.pl3     1 ARG        -0.2849
     64 NH2         7.4750   26.9750   35.7320 N.pl3     1 ARG        -0.2849
     65 N           3.9620   20.0710   35.5980 N.am      1 PRO        -0.2498
     66 CA          2.7380   19.6660   34.9030 C.3       1 PRO         0.1338
     67 C           2.4720   20.4390   33.6080 C.2       1 PRO         0.2041
     68 O           2.8490   21.6060   33.4860 O.2       1 PRO        -0.3944
     69 CB          1.6540   19.9250   35.9480 C.3       1 PRO        -0.0104
     70 CG          2.3650   19.6530   37.2330 C.3       1 PRO        -0.0281
     71 CD          3.6860   20.3570   37.0160 C.3       1 PRO         0.0369
     72 N           1.8250   19.7750   32.6490 N.am      1 ARG        -0.2637
     73 CA          1.4510   20.3930   31.3740 C.3       1 ARG         0.1310
     74 C           0.1460   21.1670   31.6360 C.2       1 ARG         0.2033
     75 O          -0.9320   20.5700   31.7280 O.2       1 ARG        -0.3944
     76 CB          1.2070   19.3160   30.3110 C.3       1 ARG        -0.0092
     77 CG          2.4420   18.5200   29.8750 C.3       1 ARG        -0.0156
     78 CD          3.3690   19.3280   28.9670 C.3       1 ARG         0.0627
     79 NE          2.6590   20.0090   27.8760 N.pl3     1 ARG        -0.2723
     80 CZ          2.3900   19.4950   26.6730 C.cat     1 ARG         0.2882
     81 NH1         1.7320   20.2210   25.7790 N.pl3     1 ARG        -0.2849
     82 NH2         2.7910   18.2740   26.3440 N.pl3     1 ARG        -0.2849
     83 N           0.2440   22.4880   31.7670 N.am      1 ARG        -0.2695
     84 CA         -0.9300   23.3220   32.0450 C.3       1 ARG         0.0945
     85 C          -1.0840   24.4380   31.0220 C.2       1 ARG         0.0601
     86 O          -2.2230   24.7080   30.5880 O.co2     1 ARG        -0.5666
     87 CB         -0.8240   23.9400   33.4490 C.3       1 ARG        -0.0148
     88 CG         -0.8480   22.9380   34.6080 C.3       1 ARG        -0.0162
     89 CD         -2.2570   22.4500   34.9180 C.3       1 ARG         0.0627
     90 NE         -2.2980   21.5440   36.0680 N.pl3     1 ARG        -0.2723
     91 CZ         -1.9730   20.2500   36.0360 C.cat     1 ARG         0.2882
     92 NH1        -2.0450   19.5170   37.1410 N.pl3     1 ARG        -0.2849
     93 NH2        -1.5860   19.6810   34.9050 N.pl3     1 ARG        -0.2849
     94 OXT        -0.0510   25.0480   30.6870 O.co2     1 ARG        -0.5666
     95 H1         22.9147   11.5823   45.5659 H         1 PRO         0.2035
     96 H2         24.1398   11.3747   44.4862 H         1 PRO         0.2035
     97 H3         22.6861   10.6915   42.9735 H         1 PRO         0.1099
     98 H4         23.2826    8.4458   43.4065 H         1 PRO         0.0347
     99 H5         21.5523    8.3683   43.8827 H         1 PRO         0.0347
    100 H6         23.4084    7.7042   45.7165 H         1 PRO         0.0320
    101 H7         22.0580    8.7777   46.2174 H         1 PRO         0.0320
    102 H8         23.9574   10.1102   46.8677 H         1 PRO         0.0814
    103 H9         24.9463    9.5475   45.4776 H         1 PRO         0.0814
    104 H10        21.1710   12.3447   43.0042 H         1 ALA         0.1884
    105 H11        18.9990   12.3579   44.9898 H         1 ALA         0.0797
    106 H12        18.1827   14.2911   43.6818 H         1 ALA         0.0277
    107 H13        19.4230   13.9707   42.4226 H         1 ALA         0.0277
    108 H14        19.9267   14.4723   44.0722 H         1 ALA         0.0277
    109 H15        16.7189   12.0540   44.3213 H         1 ARG         0.1883
    110 H16        16.4665    9.8001   42.5073 H         1 ARG         0.0800
    111 H17        15.0294   10.2710   44.5437 H         1 ARG         0.0313
    112 H18        14.1715    9.7938   43.0393 H         1 ARG         0.0313
    113 H19        13.2230   11.8825   42.7612 H         1 ARG         0.0301
    114 H20        14.4680   12.7015   43.7643 H         1 ARG         0.0301
    115 H21        12.4135   10.6825   44.8178 H         1 ARG         0.0689
    116 H22        12.2591   12.4675   44.9472 H         1 ARG         0.0689
    117 H23        14.7989   11.8098   45.9860 H         1 ARG         0.2642
    118 H24        11.7359   10.9094   48.4872 H         1 ARG         0.2615
    119 H25        11.4140   11.0870   46.7415 H         1 ARG         0.2615
    120 H26        15.1889   11.5961   48.1881 H         1 ARG         0.2615
    121 H27        13.8489   11.2061   49.2994 H         1 ARG         0.2615
    122 H28        15.7727   11.7977   38.6824 H         1 PRO         0.0802
    123 H29        14.3314   10.5248   37.3080 H         1 PRO         0.0313
    124 H30        13.0127   10.5156   38.5277 H         1 PRO         0.0313
    125 H31        15.6278    8.9355   38.5444 H         1 PRO         0.0287
    126 H32        13.9484    8.3205   38.7126 H         1 PRO         0.0287
    127 H33        13.6791    9.3231   40.8838 H         1 PRO         0.0524
    128 H34        15.3889    8.7745   40.9324 H         1 PRO         0.0524
    129 H35        13.4139   15.3721   39.8592 H         1 PRO         0.0802
    130 H36        15.1255   16.5657   38.7363 H         1 PRO         0.0313
    131 H37        13.7638   16.8917   37.6110 H         1 PRO         0.0313
    132 H38        15.9386   15.7985   36.6084 H         1 PRO         0.0287
    133 H39        14.3623   15.0423   36.1960 H         1 PRO         0.0287
    134 H40        15.5782   13.1846   37.0989 H         1 PRO         0.0524
    135 H41        16.3809   14.2029   38.3420 H         1 PRO         0.0524
    136 H42        11.4473   16.5064   39.1706 H         1 LYS         0.1883
    137 H43         9.7816   14.7299   37.4481 H         1 LYS         0.0800
    138 H44         7.8853   15.9589   38.7424 H         1 LYS         0.0312
    139 H45         9.1876   16.4348   39.8844 H         1 LYS         0.0312
    140 H46         8.7423   14.4997   40.9211 H         1 LYS         0.0269
    141 H47         9.6255   13.7260   39.5617 H         1 LYS         0.0269
    142 H48         7.3059   13.8017   38.3341 H         1 LYS         0.0317
    143 H49         6.6296   14.0353   39.9817 H         1 LYS         0.0317
    144 H50         8.0639   11.6507   38.7993 H         1 LYS         0.0813
    145 H51         6.5418   11.7201   39.7507 H         1 LYS         0.0813
    146 H52         8.3569   10.7992   41.0261 H         1 LYS         0.1994
    147 H53         7.8688   12.2216   41.6953 H         1 LYS         0.1994
    148 H54         9.2636   12.1580   40.8235 H         1 LYS         0.1994
    149 H55         9.5525   18.2738   34.8695 H         1 PRO         0.0802
    150 H56         8.7309   17.4053   32.8610 H         1 PRO         0.0313
    151 H57         7.1677   16.9377   33.6122 H         1 PRO         0.0313
    152 H58         9.8357   15.4405   33.6568 H         1 PRO         0.0287
    153 H59         8.1975   14.8100   33.2753 H         1 PRO         0.0287
    154 H60         7.4714   15.0310   35.5505 H         1 PRO         0.0524
    155 H61         9.1534   14.4225   35.7153 H         1 PRO         0.0524
    156 H62         8.1489   20.1233   34.6745 H         1 ARG         0.1883
    157 H63         6.2045   20.3827   36.8452 H         1 ARG         0.0800
    158 H64         6.4232   22.2679   34.4830 H         1 ARG         0.0313
    159 H65         7.7558   22.1858   35.6847 H         1 ARG         0.0313
    160 H66         6.2163   22.8195   37.4713 H         1 ARG         0.0301
    161 H67         4.8461   22.8351   36.3098 H         1 ARG         0.0301
    162 H68         5.8798   25.1101   36.8750 H         1 ARG         0.0689
    163 H69         5.7330   24.7131   35.1292 H         1 ARG         0.0689
    164 H70         8.3057   23.8686   35.9031 H         1 ARG         0.2642
    165 H71         9.9788   26.9314   35.4441 H         1 ARG         0.2615
    166 H72        10.1483   25.1608   35.5820 H         1 ARG         0.2615
    167 H73         6.4556   26.8889   35.8518 H         1 ARG         0.2615
    168 H74         7.9031   27.9045   35.6153 H         1 ARG         0.2615
    169 H75         2.7847   18.5946   34.6584 H         1 PRO         0.0802
    170 H76         0.8023   19.2420   35.8137 H         1 PRO         0.0313
    171 H77         1.3002   20.9656   35.9030 H         1 PRO         0.0313
    172 H78         2.5083   18.5737   37.3899 H         1 PRO         0.0287
    173 H79         1.8209   20.0790   38.0889 H         1 PRO         0.0287
    174 H80         3.5954   21.4386   37.1944 H         1 PRO         0.0524
    175 H81         4.4703   19.9425   37.6664 H         1 PRO         0.0524
    176 H82         1.5855   18.8169   32.8064 H         1 ARG         0.1883
    177 H83         2.2425   21.0768   31.0336 H         1 ARG         0.0800
    178 H84         0.7909   19.8088   29.4200 H         1 ARG         0.0313
    179 H85         0.4712   18.6043   30.7137 H         1 ARG         0.0313
    180 H86         2.1098   17.6232   29.3315 H         1 ARG         0.0301
    181 H87         3.0022   18.2185   30.7723 H         1 ARG         0.0301
    182 H88         4.1116   18.6452   28.5285 H         1 ARG         0.0689
    183 H89         3.8827   20.0858   29.5768 H         1 ARG         0.0689
    184 H90         2.3392   20.9715   28.0553 H         1 ARG         0.2642
    185 H91         1.5226   19.8283   24.8501 H         1 ARG         0.2615
    186 H92         1.4304   21.1775   26.0136 H         1 ARG         0.2615
    187 H93         3.3030   17.6984   27.0277 H         1 ARG         0.2615
    188 H94         2.5903   17.9016   25.4049 H         1 ARG         0.2615
    189 H95         1.1399   22.9224   31.6736 H         1 ARG         0.1875
    190 H96        -1.8249   22.6837   32.0042 H         1 ARG         0.0726
    191 H97        -1.6687   24.6322   33.5805 H         1 ARG         0.0307
    192 H98         0.1211   24.5002   33.5035 H         1 ARG         0.0307
    193 H99        -0.4362   23.4239   35.5048 H         1 ARG         0.0301
    194 H100       -0.2242   22.0723   34.3408 H         1 ARG         0.0301
    195 H101       -2.6481   21.9195   34.0373 H         1 ARG         0.0689
    196 H102       -2.8926   23.3216   35.1332 H         1 ARG         0.0689
    197 H103       -2.6010   21.9357   36.9711 H         1 ARG         0.2642
    198 H104       -1.7937   18.5185   37.1139 H         1 ARG         0.2615
    199 H105       -2.3522   19.9470   38.0251 H         1 ARG         0.2615
    200 H106       -1.5264   20.2395   34.0416 H         1 ARG         0.2615
    201 H107       -1.3446   18.6798   34.8885 H         1 ARG         0.2615
@<TRIPOS>BOND
     1    1    2 1  
     2    1    7 1  
     3    2    3 1  
     4    2    5 1  
     5    3    4 2  
     6    3    8 am 
     7    5    6 1  
     8    6    7 1  
     9    8    9 1  
    10    9   10 1  
    11    9   12 1  
    12   10   11 2  
    13   10   13 am 
    14   13   14 1  
    15   14   15 1  
    16   14   17 1  
    17   15   16 2  
    18   15   24 am 
    19   17   18 1  
    20   18   19 1  
    21   19   20 1  
    22   20   21 ar 
    23   21   22 ar 
    24   21   23 ar 
    25   24   25 1  
    26   24   30 1  
    27   25   26 1  
    28   25   28 1  
    29   26   27 2  
    30   26   31 am 
    31   28   29 1  
    32   29   30 1  
    33   31   32 1  
    34   31   37 1  
    35   32   33 1  
    36   32   35 1  
    37   33   34 2  
    38   33   38 am 
    39   35   36 1  
    40   36   37 1  
    41   38   39 1  
    42   39   40 1  
    43   39   42 1  
    44   40   41 2  
    45   40   47 am 
    46   42   43 1  
    47   43   44 1  
    48   44   45 1  
    49   45   46 1  
    50   47   48 1  
    51   47   53 1  
    52   48   49 1  
    53   48   51 1  
    54   49   50 2  
    55   49   54 am 
    56   51   52 1  
    57   52   53 1  
    58   54   55 1  
    59   55   56 1  
    60   55   58 1  
    61   56   57 2  
    62   56   65 am 
    63   58   59 1  
    64   59   60 1  
    65   60   61 1  
    66   61   62 ar 
    67   62   63 ar 
    68   62   64 ar 
    69   65   66 1  
    70   65   71 1  
    71   66   67 1  
    72   66   69 1  
    73   67   68 2  
    74   67   72 am 
    75   69   70 1  
    76   70   71 1  
    77   72   73 1  
    78   73   74 1  
    79   73   76 1  
    80   74   75 2  
    81   74   83 am 
    82   76   77 1  
    83   77   78 1  
    84   78   79 1  
    85   79   80 ar 
    86   80   81 ar 
    87   80   82 ar 
    88   83   84 1  
    89   84   85 1  
    90   84   87 1  
    91   85   86 ar 
    92   85   94 ar 
    93   87   88 1  
    94   88   89 1  
    95   89   90 1  
    96   90   91 ar 
    97   91   92 ar 
    98   91   93 ar 
    99    1   95 1  
   100    1   96 1  
   101    2   97 1  
   102    5   98 1  
   103    5   99 1  
   104    6  100 1  
   105    6  101 1  
   106    7  102 1  
   107    7  103 1  
   108    8  104 1  
   109    9  105 1  
   110   12  106 1  
   111   12  107 1  
   112   12  108 1  
   113   13  109 1  
   114   14  110 1  
   115   17  111 1  
   116   17  112 1  
   117   18  113 1  
   118   18  114 1  
   119   19  115 1  
   120   19  116 1  
   121   20  117 1  
   122   22  118 1  
   123   22  119 1  
   124   23  120 1  
   125   23  121 1  
   126   25  122 1  
   127   28  123 1  
   128   28  124 1  
   129   29  125 1  
   130   29  126 1  
   131   30  127 1  
   132   30  128 1  
   133   32  129 1  
   134   35  130 1  
   135   35  131 1  
   136   36  132 1  
   137   36  133 1  
   138   37  134 1  
   139   37  135 1  
   140   38  136 1  
   141   39  137 1  
   142   42  138 1  
   143   42  139 1  
   144   43  140 1  
   145   43  141 1  
   146   44  142 1  
   147   44  143 1  
   148   45  144 1  
   149   45  145 1  
   150   46  146 1  
   151   46  147 1  
   152   46  148 1  
   153   48  149 1  
   154   51  150 1  
   155   51  151 1  
   156   52  152 1  
   157   52  153 1  
   158   53  154 1  
   159   53  155 1  
   160   54  156 1  
   161   55  157 1  
   162   58  158 1  
   163   58  159 1  
   164   59  160 1  
   165   59  161 1  
   166   60  162 1  
   167   60  163 1  
   168   61  164 1  
   169   63  165 1  
   170   63  166 1  
   171   64  167 1  
   172   64  168 1  
   173   66  169 1  
   174   69  170 1  
   175   69  171 1  
   176   70  172 1  
   177   70  173 1  
   178   71  174 1  
   179   71  175 1  
   180   72  176 1  
   181   73  177 1  
   182   76  178 1  
   183   76  179 1  
   184   77  180 1  
   185   77  181 1  
   186   78  182 1  
   187   78  183 1  
   188   79  184 1  
   189   81  185 1  
   190   81  186 1  
   191   82  187 1  
   192   82  188 1  
   193   83  189 1  
   194   84  190 1  
   195   87  191 1  
   196   87  192 1  
   197   88  193 1  
   198   88  194 1  
   199   89  195 1  
   200   89  196 1  
   201   90  197 1  
   202   92  198 1  
   203   92  199 1  
   204   93  200 1  
   205   93  201 1  
@<TRIPOS>SUBSTRUCTURE
     1 PRO         1

