2bz8_ligand
  -I-interpret- 

198202  0  0  0  0  0  0  0  0999 V2000
   23.3870   10.9160   44.9750 N   0  3  0  0  0
   22.4250   10.3620   43.9900 C   0  0  0  0  0
   21.0220   10.8330   44.3330 C   0  0  0  0  0
   20.3600   10.2490   45.1930 O   0  0  0  0  0
   22.5200    8.8490   44.0890 C   0  0  0  0  0
   22.9310    8.6820   45.5550 C   0  0  0  0  0
   23.9340    9.8270   45.8050 C   0  0  0  0  0
   20.5790   11.9010   43.6770 N   0  0  0  0  0
   19.2470   12.4360   43.9210 C   0  0  0  0  0
   18.2730   11.6060   43.1010 C   0  0  0  0  0
   18.6750   10.9950   42.1160 O   0  0  0  0  0
   19.1910   13.8930   43.4950 C   0  0  0  0  0
   17.0060   11.5610   43.5000 N   0  0  0  0  0
   16.0380   10.7880   42.7320 C   0  0  0  0  0
   15.7540   11.5160   41.4210 C   0  0  0  0  0
   16.1130   12.6810   41.2630 O   0  0  0  0  0
   14.7500   10.5910   43.5290 C   0  0  0  0  0
   13.8540   11.7950   43.6580 C   0  0  0  0  0
   12.9690   11.6290   44.8920 C   0  0  0  0  0
   13.7940   11.6130   46.0970 N   0  0  0  0  0
   13.3520   11.3650   47.3240 C   0  0  0  0  0
   12.0730   11.1010   47.5330 N   0  0  0  0  0
   14.1920   11.3910   48.3460 N   0  0  0  0  0
   15.1210   10.8380   40.4560 N   0  0  0  0  0
   14.8380   11.5100   39.1860 C   0  0  0  0  0
   13.9820   12.7550   39.3910 C   0  0  0  0  0
   13.0440   12.7470   40.1930 O   0  0  0  0  0
   14.1000   10.4390   38.3800 C   0  0  0  0  0
   14.6250    9.1580   38.9380 C   0  0  0  0  0
   14.6720    9.4360   40.4240 C   0  0  0  0  0
   14.3040   13.8480   38.6760 N   0  0  0  0  0
   13.5300   15.0840   38.8040 C   0  0  0  0  0
   12.1500   14.8980   38.1810 C   0  0  0  0  0
   11.9250   13.9700   37.4130 O   0  0  0  0  0
   14.3870   16.1060   38.0630 C   0  0  0  0  0
   15.0560   15.2830   37.0150 C   0  0  0  0  0
   15.4520   14.0430   37.7750 C   0  0  0  0  0
   11.2200   15.7720   38.5310 N   0  0  0  0  0
    9.8790   15.6770   37.9990 C   0  0  0  0  0
    9.6100   16.8190   37.0480 C   0  0  0  0  0
   10.0250   17.9480   37.2750 O   0  0  0  0  0
    8.8720   15.6850   39.1440 C   0  0  0  0  0
    8.7580   14.3460   39.8320 C   0  0  0  0  0
    7.4740   13.6270   39.4070 C   0  0  0  0  0
    7.5610   12.1230   39.6560 C   0  0  0  0  0
    8.3250   11.7990   40.9020 N   0  3  0  0  0
    8.9360   16.5330   35.9380 N   0  0  0  0  0
    8.6690   17.6370   35.0240 C   0  0  0  0  0
    7.5170   18.4520   35.6120 C   0  0  0  0  0
    6.7020   17.9350   36.3780 O   0  0  0  0  0
    8.2610   16.9270   33.7330 C   0  0  0  0  0
    8.7660   15.5120   33.9030 C   0  0  0  0  0
    8.5300   15.2510   35.3480 C   0  0  0  0  0
    7.4520   19.7280   35.2730 N   0  0  0  0  0
    6.3670   20.5550   35.7710 C   0  0  0  0  0
    5.1410   20.1220   34.9600 C   0  0  0  0  0
    5.2500   19.8170   33.7630 O   0  0  0  0  0
    6.6780   22.0330   35.5270 C   0  0  0  0  0
    5.9270   23.0030   36.4260 C   0  0  0  0  0
    6.2470   24.4590   36.0680 C   0  0  0  0  0
    7.6830   24.6890   35.8950 N   0  0  0  0  0
    8.2370   25.8880   35.7280 C   0  0  0  0  0
    9.5540   26.0020   35.5730 N   0  0  0  0  0
    7.4750   26.9750   35.7320 N   0  0  0  0  0
    3.9620   20.0710   35.5980 N   0  0  0  0  0
    2.7380   19.6660   34.9030 C   0  0  0  0  0
    2.4720   20.4390   33.6080 C   0  0  0  0  0
    2.8490   21.6060   33.4860 O   0  0  0  0  0
    1.6540   19.9250   35.9480 C   0  0  0  0  0
    2.3650   19.6530   37.2330 C   0  0  0  0  0
    3.6860   20.3570   37.0160 C   0  0  0  0  0
    1.8250   19.7750   32.6490 N   0  0  0  0  0
    1.4510   20.3930   31.3740 C   0  0  0  0  0
    0.1460   21.1670   31.6360 C   0  0  0  0  0
   -0.9320   20.5700   31.7280 O   0  0  0  0  0
    1.2070   19.3160   30.3110 C   0  0  0  0  0
    2.4420   18.5200   29.8750 C   0  0  0  0  0
    3.3690   19.3280   28.9670 C   0  0  0  0  0
    2.6590   20.0090   27.8760 N   0  0  0  0  0
    2.3900   19.4950   26.6730 C   0  0  0  0  0
    1.7320   20.2210   25.7790 N   0  0  0  0  0
    2.7910   18.2740   26.3440 N   0  0  0  0  0
    0.2440   22.4880   31.7670 N   0  0  0  0  0
   -0.9300   23.3220   32.0450 C   0  0  0  0  0
   -1.0840   24.4380   31.0220 C   0  0  0  0  0
   -2.2230   24.7080   30.5880 O   0  0  0  0  0
   -0.8240   23.9400   33.4490 C   0  0  0  0  0
   -0.8480   22.9380   34.6080 C   0  0  0  0  0
   -2.2570   22.4500   34.9180 C   0  0  0  0  0
   -2.2980   21.5440   36.0680 N   0  0  0  0  0
   -1.9730   20.2500   36.0360 C   0  0  0  0  0
   -2.0450   19.5170   37.1410 N   0  0  0  0  0
   -1.5860   19.6810   34.9050 N   0  0  0  0  0
   -0.0510   25.0480   30.6870 O   0  0  0  0  0
   22.9074   11.5883   45.5737 H   0  0  0  0  0
   24.1494   11.3778   44.4791 H   0  0  0  0  0
   22.6509   10.6938   42.9766 H   0  0  0  0  0
   23.2169    8.4019   43.3802 H   0  0  0  0  0
   21.5987    8.3294   43.8256 H   0  0  0  0  0
   23.3703    7.7033   45.7482 H   0  0  0  0  0
   22.0754    8.7328   46.2285 H   0  0  0  0  0
   24.0227   10.0952   46.8577 H   0  0  0  0  0
   24.9584    9.5628   45.5425 H   0  0  0  0  0
   21.1828   12.3536   42.9907 H   0  0  0  0  0
   18.9928   12.3871   44.9798 H   0  0  0  0  0
   19.9204   14.4659   44.0676 H   0  0  0  0  0
   19.4211   13.9686   42.4322 H   0  0  0  0  0
   18.1915   14.2863   43.6806 H   0  0  0  0  0
   16.7132   12.0639   44.3377 H   0  0  0  0  0
   16.4484    9.8010   42.5188 H   0  0  0  0  0
   15.0568   10.3311   44.5421 H   0  0  0  0  0
   14.1724    9.8391   42.9913 H   0  0  0  0  0
   13.2302   11.8850   42.7687 H   0  0  0  0  0
   14.4609   12.6946   43.7602 H   0  0  0  0  0
   12.4221   10.6890   44.8183 H   0  0  0  0  0
   12.2687   12.4625   44.9469 H   0  0  0  0  0
   14.7892   11.8079   45.9871 H   0  0  0  0  0
   11.4204   11.0872   46.7492 H   0  0  0  0  0
   13.8523   11.2079   49.2902 H   0  0  0  0  0
   15.1793   11.5941   48.1897 H   0  0  0  0  0
   15.7359   11.8713   38.6846 H   0  0  0  0  0
   14.2740   10.5296   37.3078 H   0  0  0  0  0
   13.0169   10.5209   38.4706 H   0  0  0  0  0
   15.5958    8.8816   38.5266 H   0  0  0  0  0
   14.0037    8.2986   38.6860 H   0  0  0  0  0
   13.7172    9.2758   40.9247 H   0  0  0  0  0
   15.3283    8.7587   40.9705 H   0  0  0  0  0
   13.3357   15.3941   39.8307 H   0  0  0  0  0
   15.0949   16.6171   38.7155 H   0  0  0  0  0
   13.8023   16.9266   37.6473 H   0  0  0  0  0
   15.9037   15.7885   36.5524 H   0  0  0  0  0
   14.4110   15.0725   36.1619 H   0  0  0  0  0
   15.6408   13.1857   37.1289 H   0  0  0  0  0
   16.3994   14.1480   38.3037 H   0  0  0  0  0
   11.4518   16.5210   39.1834 H   0  0  0  0  0
    9.7785   14.7428   37.4465 H   0  0  0  0  0
    7.8951   15.9307   38.7277 H   0  0  0  0  0
    9.2114   16.4118   39.8821 H   0  0  0  0  0
    8.7329   14.5046   40.9101 H   0  0  0  0  0
    9.6145   13.7323   39.5531 H   0  0  0  0  0
    7.3256   13.7907   38.3396 H   0  0  0  0  0
    6.6466   14.0253   39.9942 H   0  0  0  0  0
    8.0806   11.6692   38.8121 H   0  0  0  0  0
    6.5473   11.7391   39.7704 H   0  0  0  0  0
    8.3567   10.7871   41.0265 H   0  0  0  0  0
    9.2745   12.1627   40.8214 H   0  0  0  0  0
    7.8625   12.2272   41.7040 H   0  0  0  0  0
    9.5011   18.3212   34.8579 H   0  0  0  0  0
    8.6836   17.4083   32.8510 H   0  0  0  0  0
    7.1835   16.9595   33.5720 H   0  0  0  0  0
    9.8111   15.3965   33.6156 H   0  0  0  0  0
    8.2580   14.7987   33.2539 H   0  0  0  0  0
    7.5045   14.9648   35.5813 H   0  0  0  0  0
    9.0812   14.3943   35.7358 H   0  0  0  0  0
    8.1628   20.1312   34.6626 H   0  0  0  0  0
    6.2108   20.4365   36.8432 H   0  0  0  0  0
    6.3762   22.2539   34.5032 H   0  0  0  0  0
    7.7396   22.1699   35.7327 H   0  0  0  0  0
    6.2309   22.8252   37.4576 H   0  0  0  0  0
    4.8573   22.8408   36.2933 H   0  0  0  0  0
    5.9004   25.0912   36.8855 H   0  0  0  0  0
    5.7524   24.6908   35.1247 H   0  0  0  0  0
    8.2997   23.8766   35.9030 H   0  0  0  0  0
    9.9761   26.9234   35.4576 H   0  0  0  0  0
   10.1412   25.1680   35.5696 H   0  0  0  0  0
    6.4669   26.8907   35.8629 H   0  0  0  0  0
    2.7897   18.6318   34.5627 H   0  0  0  0  0
    0.7719   19.2998   35.8095 H   0  0  0  0  0
    1.2438   20.9335   35.8942 H   0  0  0  0  0
    2.4726   18.5904   37.4505 H   0  0  0  0  0
    1.8244   20.0098   38.1096 H   0  0  0  0  0
    3.6467   21.4231   37.2397 H   0  0  0  0  0
    4.4730   20.0099   37.6855 H   0  0  0  0  0
    1.5807   18.7978   32.8096 H   0  0  0  0  0
    2.2424   21.0476   31.0089 H   0  0  0  0  0
    0.8453   19.8350   29.4234 H   0  0  0  0  0
    0.5169   18.5972   30.7528 H   0  0  0  0  0
    2.1004   17.6484   29.3166 H   0  0  0  0  0
    3.0010   18.2493   30.7707 H   0  0  0  0  0
    4.0789   18.6338   28.5172 H   0  0  0  0  0
    3.8470   20.0930   29.5789 H   0  0  0  0  0
    2.3423   20.9622   28.0536 H   0  0  0  0  0
    1.4334   21.1682   26.0114 H   0  0  0  0  0
    2.5923   17.9052   25.4140 H   0  0  0  0  0
    3.2980   17.7040   27.0210 H   0  0  0  0  0
    1.1578   22.9310   31.6717 H   0  0  0  0  0
   -1.8059   22.6759   31.9865 H   0  0  0  0  0
   -2.8639   24.1115   30.9817 H   0  0  0  0  0
   -1.6952   24.5831   33.5739 H   0  0  0  0  0
    0.1394   24.4478   33.4949 H   0  0  0  0  0
   -0.4591   23.4370   35.4956 H   0  0  0  0  0
   -0.2456   22.0755   34.3230 H   0  0  0  0  0
   -2.6225   21.9048   34.0478 H   0  0  0  0  0
   -2.8694   23.3202   35.1542 H   0  0  0  0  0
   -2.5981   21.9319   36.9623 H   0  0  0  0  0
   -1.8034   18.5264   37.1126 H   0  0  0  0  0
   -2.3419   19.9446   38.0182 H   0  0  0  0  0
   -1.5343   20.2323   34.0484 H   0  0  0  0  0
  1  2  1  0  0  0
  1  7  1  0  0  0
  2  3  1  0  0  0
  2  5  1  0  0  0
  3  4  2  0  0  0
  3  8  1  0  0  0
  5  6  1  0  0  0
  6  7  1  0  0  0
  8  9  1  0  0  0
  9 10  1  0  0  0
  9 12  1  0  0  0
 10 11  2  0  0  0
 10 13  1  0  0  0
 13 14  1  0  0  0
 14 15  1  0  0  0
 14 17  1  0  0  0
 15 16  2  0  0  0
 15 24  1  0  0  0
 17 18  1  0  0  0
 18 19  1  0  0  0
 19 20  1  0  0  0
 20 21  1  0  0  0
 21 22  2  0  0  0
 21 23  1  0  0  0
 24 25  1  0  0  0
 24 30  1  0  0  0
 25 26  1  0  0  0
 25 28  1  0  0  0
 26 27  2  0  0  0
 26 31  1  0  0  0
 28 29  1  0  0  0
 29 30  1  0  0  0
 31 32  1  0  0  0
 31 37  1  0  0  0
 32 33  1  0  0  0
 32 35  1  0  0  0
 33 34  2  0  0  0
 33 38  1  0  0  0
 35 36  1  0  0  0
 36 37  1  0  0  0
 38 39  1  0  0  0
 39 40  1  0  0  0
 39 42  1  0  0  0
 40 41  2  0  0  0
 40 47  1  0  0  0
 42 43  1  0  0  0
 43 44  1  0  0  0
 44 45  1  0  0  0
 45 46  1  0  0  0
 47 48  1  0  0  0
 47 53  1  0  0  0
 48 49  1  0  0  0
 48 51  1  0  0  0
 49 50  2  0  0  0
 49 54  1  0  0  0
 51 52  1  0  0  0
 52 53  1  0  0  0
 54 55  1  0  0  0
 55 56  1  0  0  0
 55 58  1  0  0  0
 56 57  2  0  0  0
 56 65  1  0  0  0
 58 59  1  0  0  0
 59 60  1  0  0  0
 60 61  1  0  0  0
 61 62  1  0  0  0
 62 63  1  0  0  0
 62 64  2  0  0  0
 65 66  1  0  0  0
 65 71  1  0  0  0
 66 67  1  0  0  0
 66 69  1  0  0  0
 67 68  2  0  0  0
 67 72  1  0  0  0
 69 70  1  0  0  0
 70 71  1  0  0  0
 72 73  1  0  0  0
 73 74  1  0  0  0
 73 76  1  0  0  0
 74 75  2  0  0  0
 74 83  1  0  0  0
 76 77  1  0  0  0
 77 78  1  0  0  0
 78 79  1  0  0  0
 79 80  1  0  0  0
 80 81  2  0  0  0
 80 82  1  0  0  0
 83 84  1  0  0  0
 84 85  1  0  0  0
 84 87  1  0  0  0
 85 86  1  0  0  0
 85 94  2  0  0  0
 87 88  1  0  0  0
 88 89  1  0  0  0
 89 90  1  0  0  0
 90 91  1  0  0  0
 91 92  1  0  0  0
 91 93  2  0  0  0
  1 95  1  0  0  0
  1 96  1  0  0  0
  2 97  1  0  0  0
  5 98  1  0  0  0
  5 99  1  0  0  0
  6100  1  0  0  0
  6101  1  0  0  0
  7102  1  0  0  0
  7103  1  0  0  0
  8104  1  0  0  0
  9105  1  0  0  0
 12106  1  0  0  0
 12107  1  0  0  0
 12108  1  0  0  0
 13109  1  0  0  0
 14110  1  0  0  0
 17111  1  0  0  0
 17112  1  0  0  0
 18113  1  0  0  0
 18114  1  0  0  0
 19115  1  0  0  0
 19116  1  0  0  0
 20117  1  0  0  0
 22118  1  0  0  0
 23119  1  0  0  0
 23120  1  0  0  0
 25121  1  0  0  0
 28122  1  0  0  0
 28123  1  0  0  0
 29124  1  0  0  0
 29125  1  0  0  0
 30126  1  0  0  0
 30127  1  0  0  0
 32128  1  0  0  0
 35129  1  0  0  0
 35130  1  0  0  0
 36131  1  0  0  0
 36132  1  0  0  0
 37133  1  0  0  0
 37134  1  0  0  0
 38135  1  0  0  0
 39136  1  0  0  0
 42137  1  0  0  0
 42138  1  0  0  0
 43139  1  0  0  0
 43140  1  0  0  0
 44141  1  0  0  0
 44142  1  0  0  0
 45143  1  0  0  0
 45144  1  0  0  0
 46145  1  0  0  0
 46146  1  0  0  0
 46147  1  0  0  0
 48148  1  0  0  0
 51149  1  0  0  0
 51150  1  0  0  0
 52151  1  0  0  0
 52152  1  0  0  0
 53153  1  0  0  0
 53154  1  0  0  0
 54155  1  0  0  0
 55156  1  0  0  0
 58157  1  0  0  0
 58158  1  0  0  0
 59159  1  0  0  0
 59160  1  0  0  0
 60161  1  0  0  0
 60162  1  0  0  0
 61163  1  0  0  0
 63164  1  0  0  0
 63165  1  0  0  0
 64166  1  0  0  0
 66167  1  0  0  0
 69168  1  0  0  0
 69169  1  0  0  0
 70170  1  0  0  0
 70171  1  0  0  0
 71172  1  0  0  0
 71173  1  0  0  0
 72174  1  0  0  0
 73175  1  0  0  0
 76176  1  0  0  0
 76177  1  0  0  0
 77178  1  0  0  0
 77179  1  0  0  0
 78180  1  0  0  0
 78181  1  0  0  0
 79182  1  0  0  0
 81183  1  0  0  0
 82184  1  0  0  0
 82185  1  0  0  0
 83186  1  0  0  0
 84187  1  0  0  0
 86188  1  0  0  0
 87189  1  0  0  0
 87190  1  0  0  0
 88191  1  0  0  0
 88192  1  0  0  0
 89193  1  0  0  0
 89194  1  0  0  0
 90195  1  0  0  0
 92196  1  0  0  0
 92197  1  0  0  0
 93198  1  0  0  0
M  END
$$$$
