5v7w_ligand
  -I-interpret- 

 48 51  0  0  0  0  0  0  0  0999 V2000
  -36.3710   23.6650   22.9950 C   0  0  0  0  0
  -36.5520   23.4420   21.4820 C   0  0  0  0  0
  -36.7260   21.9410   21.2540 C   0  0  0  0  0
  -35.5900   20.2590   19.8860 C   0  0  0  0  0
  -36.5460   18.1760   19.5170 C   0  0  0  0  0
  -37.4870   14.5790   17.9540 C   0  0  0  0  0
  -35.6110   14.6600   16.2940 C   0  0  0  0  0
  -36.0520   16.6690   17.7450 C   0  0  0  0  0
  -37.8700   25.6190   21.3980 C   0  0  0  0  0
  -38.0760   26.9970   23.3870 C   0  0  0  0  0
  -37.7930   25.6520   22.8680 N   0  3  0  0  0
  -36.4940   25.1540   23.3500 C   0  0  0  0  0
  -35.5110   21.3950   20.6520 N   0  0  0  0  0
  -36.4280   19.3150   20.2320 N   0  0  0  0  0
  -37.5920   16.8030   19.7870 S   0  0  0  0  0
  -36.9920   15.9560   18.3800 C   0  0  0  0  0
  -37.1010   14.3390   16.4900 C   0  0  0  0  0
  -35.3590   16.1640   16.4760 C   0  0  0  0  0
  -35.7740   17.9660   18.3780 C   0  0  0  0  0
  -34.8630   19.0170   18.0140 C   0  0  0  0  0
  -34.1500   18.9250   17.0270 O   0  0  0  0  0
  -34.8040   20.1280   18.7800 N   0  0  0  0  0
  -37.7940   24.1640   20.9200 C   0  0  0  0  0
  -35.3791   23.3173   23.2837 H   0  0  0  0  0
  -37.1475   23.1136   23.5252 H   0  0  0  0  0
  -35.6778   23.8449   20.9705 H   0  0  0  0  0
  -37.5704   21.7706   20.5861 H   0  0  0  0  0
  -36.9117   21.4479   22.2082 H   0  0  0  0  0
  -38.5706   14.5294   18.0607 H   0  0  0  0  0
  -37.0319   13.8144   18.5836 H   0  0  0  0  0
  -35.3149   14.3698   15.2859 H   0  0  0  0  0
  -35.0291   14.1104   17.0339 H   0  0  0  0  0
  -37.0401   26.1859   20.9760 H   0  0  0  0  0
  -38.8109   26.0620   21.0715 H   0  0  0  0  0
  -37.3473   27.7009   22.9850 H   0  0  0  0  0
  -39.0790   27.2981   23.0847 H   0  0  0  0  0
  -38.0109   26.9864   24.4750 H   0  0  0  0  0
  -38.5131   25.0251   23.2270 H   0  0  0  0  0
  -35.6862   25.7137   22.8785 H   0  0  0  0  0
  -36.4274   25.2825   24.4303 H   0  0  0  0  0
  -34.6123   21.8543   20.7999 H   0  0  0  0  0
  -37.0062   19.4431   21.0624 H   0  0  0  0  0
  -37.6993   14.9836   15.8461 H   0  0  0  0  0
  -37.2850   13.2961   16.2320 H   0  0  0  0  0
  -35.7595   16.6988   15.6148 H   0  0  0  0  0
  -34.2864   16.3372   16.5632 H   0  0  0  0  0
  -38.6833   23.6406   21.2711 H   0  0  0  0  0
  -37.7283   24.1633   19.8320 H   0  0  0  0  0
  2  1  1  0  0  0
  1 12  1  0  0  0
  2  3  1  0  0  0
 23  2  1  0  0  0
  3 13  1  0  0  0
 13  4  1  0  0  0
  4 14  1  0  0  0
  4 22  4  0  0  0
 14  5  1  0  0  0
  5 15  4  0  0  0
  5 19  4  0  0  0
 16  6  1  0  0  0
  6 17  1  0  0  0
  7 17  1  0  0  0
 18  7  1  0  0  0
  8 16  4  0  0  0
  8 18  1  0  0  0
 19  8  4  0  0  0
  9 11  1  0  0  0
  9 23  1  0  0  0
 11 10  1  0  0  0
 11 12  1  0  0  0
 15 16  4  0  0  0
 19 20  1  0  0  0
 20 21  2  0  0  0
 20 22  1  0  0  0
  1 24  1  0  0  0
  1 25  1  0  0  0
  2 26  1  0  0  0
  3 27  1  0  0  0
  3 28  1  0  0  0
  6 29  1  0  0  0
  6 30  1  0  0  0
  7 31  1  0  0  0
  7 32  1  0  0  0
  9 33  1  0  0  0
  9 34  1  0  0  0
 10 35  1  0  0  0
 10 36  1  0  0  0
 10 37  1  0  0  0
 11 38  1  0  0  0
 12 39  1  0  0  0
 12 40  1  0  0  0
 13 41  1  0  0  0
 14 42  1  0  0  0
 17 43  1  0  0  0
 17 44  1  0  0  0
 18 45  1  0  0  0
 18 46  1  0  0  0
 23 47  1  0  0  0
 23 48  1  0  0  0
M  END
$$$$
