5mlj_ligand
  -I-interpret- 

 45 47  0  0  0  0  0  0  0  0999 V2000
  -11.9630   -4.9500   15.4100 C   0  0  0  0  0
  -10.6000   -4.7030   15.3600 C   0  0  0  0  0
   -9.7630   -5.5630   14.6820 C   0  0  0  0  0
  -10.2880   -6.6680   14.0500 C   0  0  0  0  0
  -11.6520   -6.9180   14.0960 C   0  0  0  0  0
  -16.0110   -9.3720   15.8780 C   0  0  0  0  0
  -15.7650   -8.0060   15.4130 N   0  3  0  0  0
  -16.4320   -7.7720   14.1300 C   0  0  0  0  0
  -16.2380   -6.3290   13.7000 C   0  0  0  0  0
  -14.7440   -6.0590   13.5190 C   0  0  0  0  0
  -13.9990   -6.3290   14.8320 C   0  0  0  0  0
  -14.3120   -7.7410   15.3330 C   0  0  0  0  0
  -12.5080   -6.0570   14.7700 C   0  0  0  0  0
  -17.0010   -6.0760   12.4740 N   0  0  0  0  0
  -18.2280   -5.5330   12.4150 C   0  0  0  0  0
  -18.8210   -4.9510   13.5820 C   0  0  0  0  0
  -19.9890   -4.4030   13.6200 N   0  0  0  0  0
  -20.7070   -4.3920   12.4600 N   0  0  0  0  0
  -22.0220   -3.7660   12.5590 C   0  0  0  0  0
  -20.2870   -4.9040   11.2540 C   0  0  0  0  0
  -21.0010   -4.8500   10.2580 O   0  0  0  0  0
  -18.9720   -5.4920   11.2930 C   0  0  0  0  0
  -18.3720   -6.2010    9.6560 Br  0  0  0  0  0
  -12.6146   -4.2687   15.9572 H   0  0  0  0  0
  -10.1885   -3.8254   15.8587 H   0  0  0  0  0
   -8.6909   -5.3694   14.6463 H   0  0  0  0  0
   -9.6293   -7.3492   13.5113 H   0  0  0  0  0
  -12.0559   -7.7994   13.5979 H   0  0  0  0  0
  -17.0830   -9.5244   16.0029 H   0  0  0  0  0
  -15.6253  -10.0794   15.1439 H   0  0  0  0  0
  -15.5072   -9.5259   16.8323 H   0  0  0  0  0
  -16.1605   -7.3512   16.0877 H   0  0  0  0  0
  -17.4977   -7.9741   14.2376 H   0  0  0  0  0
  -16.0019   -8.4318   13.3765 H   0  0  0  0  0
  -16.6116   -5.6459   14.4628 H   0  0  0  0  0
  -14.6001   -5.0171   13.2329 H   0  0  0  0  0
  -14.3523   -6.7165   12.7429 H   0  0  0  0  0
  -14.3719   -5.6064   15.5579 H   0  0  0  0  0
  -13.8795   -8.4510   14.6281 H   0  0  0  0  0
  -13.8967   -7.8413   16.3358 H   0  0  0  0  0
  -18.2432   -4.9725   14.5060 H   0  0  0  0  0
  -22.6226   -4.2998   13.2956 H   0  0  0  0  0
  -21.9061   -2.7269   12.8670 H   0  0  0  0  0
  -22.5158   -3.8056   11.5881 H   0  0  0  0  0
  -18.3788   -5.5050   12.2073 H   0  0  0  0  0
  1  2  4  0  0  0
 13  1  4  0  0  0
  2  3  4  0  0  0
  4  3  4  0  0  0
  5  4  4  0  0  0
 13  5  4  0  0  0
  7  6  1  0  0  0
  7  8  1  0  0  0
 12  7  1  0  0  0
  9  8  1  0  0  0
 10  9  1  0  0  0
  9 14  1  0  0  0
 11 10  1  0  0  0
 11 12  1  0  0  0
 11 13  1  0  0  0
 14 15  2  0  0  0
 15 16  1  0  0  0
 15 22  1  0  0  0
 16 17  2  0  0  0
 17 18  1  0  0  0
 18 19  1  0  0  0
 18 20  1  0  0  0
 20 21  2  0  0  0
 20 22  1  0  0  0
 22 23  1  0  0  0
  1 24  1  0  0  0
  2 25  1  0  0  0
  3 26  1  0  0  0
  4 27  1  0  0  0
  5 28  1  0  0  0
  6 29  1  0  0  0
  6 30  1  0  0  0
  6 31  1  0  0  0
  7 32  1  0  0  0
  8 33  1  0  0  0
  8 34  1  0  0  0
  9 35  1  0  0  0
 10 36  1  0  0  0
 10 37  1  0  0  0
 11 38  1  0  0  0
 12 39  1  0  0  0
 12 40  1  0  0  0
 16 41  1  0  0  0
 19 42  1  0  0  0
 19 43  1  0  0  0
 19 44  1  0  0  0
 22 45  1  0  0  0
M  END
$$$$
