4q1s_ligand
  -I-interpret- 

 79 82  0  0  0  0  0  0  0  0999 V2000
   75.8610 -145.5840   57.9020 O   0  0  0  0  0
   75.0060 -146.2050   58.7180 C   0  0  0  0  0
   73.7680 -146.7430   58.1200 C   0  0  0  0  0
   73.5460 -146.4830   56.9510 O   0  0  0  0  0
   75.2750 -146.3680   60.0330 C   0  0  0  0  0
   74.4590 -147.4050   60.7960 C   0  0  0  0  0
   76.5070 -145.7850   60.7150 C   0  0  0  0  0
   76.2820 -144.6270   61.7370 C   0  0  0  0  0
   75.6100 -143.3680   61.1100 C   0  0  0  0  0
   77.6540 -144.3360   62.4490 C   0  0  0  0  0
   77.4940 -143.3290   63.4750 O   0  0  0  0  0
   78.3360 -145.6220   63.0590 C   0  0  0  0  0
   77.7060 -146.1110   64.4050 C   0  0  0  0  0
   77.0950 -146.9190   61.3920 O   0  0  0  0  0
   78.3940 -146.7430   61.9640 C   0  0  0  0  0
   78.7520 -148.1810   62.4500 C   0  0  0  0  0
   78.8320 -149.1990   61.2800 C   0  0  0  0  0
   79.0490 -150.6810   61.7560 C   0  0  0  0  0
   79.3690 -151.5640   60.5080 C   0  0  0  0  0
   77.8710 -151.3130   62.5150 C   0  0  0  0  0
   77.6470 -151.5450   63.8480 C   0  0  0  0  0
   78.6350 -151.2440   64.9640 C   0  0  0  0  0
   76.3210 -152.1090   64.3990 C   0  0  0  0  0
   75.0310 -152.0220   63.5080 C   0  0  0  0  0
   73.8520 -152.7860   64.1780 C   0  0  0  0  0
   74.6840 -150.5130   63.2340 C   0  0  0  0  0
   73.7100 -150.1750   62.0650 C   0  0  0  0  0
   74.3320 -150.5490   60.6870 C   0  0  0  0  0
   73.0960 -148.7230   62.2320 C   0  0  0  0  0
   74.0140 -147.4470   62.2730 C   0  0  0  0  0
   72.2110 -148.7340   63.3770 O   0  0  0  0  0
   72.3160 -148.3770   61.0750 O   0  0  0  0  0
   73.1180 -147.7220   60.2080 C   0  0  0  0  0
   72.8080 -147.5310   58.9190 C   0  0  0  0  0
   71.4940 -148.0200   58.3600 C   0  0  0  0  0
   75.4979 -145.5661   57.0135 H   0  0  0  0  0
   75.3568 -148.0166   60.7072 H   0  0  0  0  0
   77.1223 -145.3059   59.9534 H   0  0  0  0  0
   75.5553 -144.9383   62.4874 H   0  0  0  0  0
   76.2415 -142.9809   60.3103 H   0  0  0  0  0
   74.6356 -143.6414   60.7052 H   0  0  0  0  0
   75.4847 -142.6044   61.8776 H   0  0  0  0  0
   78.3214 -143.9681   61.6697 H   0  0  0  0  0
   78.3409 -143.1661   63.8967 H   0  0  0  0  0
   79.3524 -145.3511   63.3449 H   0  0  0  0  0
   77.7896 -145.3215   65.1518 H   0  0  0  0  0
   76.6551 -146.3528   64.2461 H   0  0  0  0  0
   78.2359 -146.9983   64.7515 H   0  0  0  0  0
   79.1767 -146.3818   61.2969 H   0  0  0  0  0
   77.9680 -148.5115   63.1314 H   0  0  0  0  0
   79.7300 -148.1410   62.9295 H   0  0  0  0  0
   79.6871 -148.9236   60.6627 H   0  0  0  0  0
   77.8826 -149.1611   60.7460 H   0  0  0  0  0
   79.8710 -150.6417   62.4707 H   0  0  0  0  0
   78.5350 -151.5171   59.8078 H   0  0  0  0  0
   80.2726 -151.1931   60.0242 H   0  0  0  0  0
   79.5220 -152.5959   60.8242 H   0  0  0  0  0
   77.0563 -151.6399   61.8689 H   0  0  0  0  0
   79.5508 -151.8117   64.7996 H   0  0  0  0  0
   78.8626 -150.1780   64.9683 H   0  0  0  0  0
   78.1973 -151.5272   65.9212 H   0  0  0  0  0
   76.0991 -151.5009   65.2760 H   0  0  0  0  0
   76.5015 -153.1760   64.5298 H   0  0  0  0  0
   75.2136 -152.5040   62.5476 H   0  0  0  0  0
   74.1250 -153.8336   64.3049 H   0  0  0  0  0
   73.6407 -152.3437   65.1516 H   0  0  0  0  0
   72.9675 -152.7138   63.5450 H   0  0  0  0  0
   75.6309 -150.0478   62.9598 H   0  0  0  0  0
   74.1777 -150.1685   64.1357 H   0  0  0  0  0
   72.8263 -150.8117   62.1059 H   0  0  0  0  0
   75.2562 -149.9893   60.5430 H   0  0  0  0  0
   74.5456 -151.6176   60.6643 H   0  0  0  0  0
   73.6280 -150.3009   59.8927 H   0  0  0  0  0
   73.5191 -146.5418   62.6248 H   0  0  0  0  0
   74.8309 -147.4974   62.9929 H   0  0  0  0  0
   71.8293 -147.8609   63.4934 H   0  0  0  0  0
   71.4286 -149.1012   58.4820 H   0  0  0  0  0
   70.6729 -147.5424   58.8947 H   0  0  0  0  0
   71.4349 -147.7683   57.3011 H   0  0  0  0  0
  1  2  1  0  0  0
  2  3  1  0  0  0
  2  5  2  0  0  0
  3  4  2  0  0  0
  3 34  1  0  0  0
  5  6  1  0  0  0
  5  7  1  0  0  0
  6 30  1  0  0  0
  6 33  1  0  0  0
  7  8  1  0  0  0
  7 14  1  0  0  0
  8  9  1  0  0  0
  8 10  1  0  0  0
 10 11  1  0  0  0
 10 12  1  0  0  0
 12 13  1  0  0  0
 12 15  1  0  0  0
 14 15  1  0  0  0
 15 16  1  0  0  0
 16 17  1  0  0  0
 17 18  1  0  0  0
 18 19  1  0  0  0
 18 20  1  0  0  0
 20 21  2  0  0  0
 21 22  1  0  0  0
 21 23  1  0  0  0
 23 24  1  0  0  0
 24 25  1  0  0  0
 24 26  1  0  0  0
 26 27  1  0  0  0
 27 28  1  0  0  0
 27 29  1  0  0  0
 29 30  1  0  0  0
 29 31  1  0  0  0
 29 32  1  0  0  0
 32 33  1  0  0  0
 33 34  2  0  0  0
 34 35  1  0  0  0
  1 36  1  0  0  0
  6 37  1  0  0  0
  7 38  1  0  0  0
  8 39  1  0  0  0
  9 40  1  0  0  0
  9 41  1  0  0  0
  9 42  1  0  0  0
 10 43  1  0  0  0
 11 44  1  0  0  0
 12 45  1  0  0  0
 13 46  1  0  0  0
 13 47  1  0  0  0
 13 48  1  0  0  0
 15 49  1  0  0  0
 16 50  1  0  0  0
 16 51  1  0  0  0
 17 52  1  0  0  0
 17 53  1  0  0  0
 18 54  1  0  0  0
 19 55  1  0  0  0
 19 56  1  0  0  0
 19 57  1  0  0  0
 20 58  1  0  0  0
 22 59  1  0  0  0
 22 60  1  0  0  0
 22 61  1  0  0  0
 23 62  1  0  0  0
 23 63  1  0  0  0
 24 64  1  0  0  0
 25 65  1  0  0  0
 25 66  1  0  0  0
 25 67  1  0  0  0
 26 68  1  0  0  0
 26 69  1  0  0  0
 27 70  1  0  0  0
 28 71  1  0  0  0
 28 72  1  0  0  0
 28 73  1  0  0  0
 30 74  1  0  0  0
 30 75  1  0  0  0
 31 76  1  0  0  0
 35 77  1  0  0  0
 35 78  1  0  0  0
 35 79  1  0  0  0
M  END
$$$$
