1u71_ligand
  -I-interpret- 

 43 45  0  0  0  0  0  0  0  0999 V2000
   28.7960   13.1390   -4.3190 N   0  0  0  0  0
   27.5960   12.6440   -4.4550 C   0  0  0  0  0
   27.1960   12.3270   -5.7000 N   0  0  0  0  0
   26.7520   12.3650   -3.4240 N   0  0  0  0  0
   27.1020   12.6130   -2.2120 C   0  0  0  0  0
   26.1370   12.3020   -1.3320 N   0  0  0  0  0
   28.3750   13.2270   -1.9150 C   0  0  0  0  0
   28.9030   13.6070   -0.6740 C   0  0  0  0  0
   28.1790   13.4400    0.6520 C   0  0  0  0  0
   30.1710   14.1720   -0.6450 C   0  0  0  0  0
   30.8480   14.3570   -1.8610 C   0  0  0  0  0
   30.4070   14.0210   -3.0420 N   0  0  0  0  0
   29.1880   13.4550   -3.0760 C   0  0  0  0  0
   30.8230   14.6760    0.6050 C   0  0  0  0  0
   32.2470   14.3200    0.9540 C   0  0  0  0  0
   33.2770   15.2500    0.8970 C   0  0  0  0  0
   32.8830   16.5130    0.4990 O   0  0  0  0  0
   33.9050   17.4780    0.2510 C   0  0  0  0  0
   34.5470   14.8740    1.2670 C   0  0  0  0  0
   34.8080   13.5700    1.7060 C   0  0  0  0  0
   33.8190   12.6740    1.7400 C   0  0  0  0  0
   33.8000   11.3260    2.0990 O   0  0  0  0  0
   32.4620   10.8250    2.0700 C   0  0  0  0  0
   32.5330   13.0600    1.3960 C   0  0  0  0  0
   27.8229   12.4764   -6.4906 H   0  0  0  0  0
   26.2659   11.9373   -5.8531 H   0  0  0  0  0
   25.2518   11.9164   -1.6609 H   0  0  0  0  0
   26.2890   12.4513   -0.3345 H   0  0  0  0  0
   27.2453   14.0019    0.6280 H   0  0  0  0  0
   27.9650   12.3841    0.8172 H   0  0  0  0  0
   28.8094   13.8147    1.4584 H   0  0  0  0  0
   31.8318   14.8239   -1.8141 H   0  0  0  0  0
   30.2387   14.2197    1.4040 H   0  0  0  0  0
   30.8532   15.7564    0.4639 H   0  0  0  0  0
   34.4864   17.6314    1.1602 H   0  0  0  0  0
   34.5586   17.1172   -0.5432 H   0  0  0  0  0
   33.4478   18.4197   -0.0527 H   0  0  0  0  0
   35.3595   15.5990    1.2180 H   0  0  0  0  0
   35.8135   13.2881    2.0183 H   0  0  0  0  0
   31.8486   11.3899    2.7719 H   0  0  0  0  0
   32.0570   10.9321    1.0637 H   0  0  0  0  0
   32.4634    9.7722    2.3524 H   0  0  0  0  0
   31.7240   12.3345    1.4810 H   0  0  0  0  0
  1  2  4  0  0  0
  1 13  4  0  0  0
  2  3  1  0  0  0
  2  4  4  0  0  0
  4  5  4  0  0  0
  5  6  1  0  0  0
  5  7  4  0  0  0
  7  8  4  0  0  0
  7 13  4  0  0  0
  8  9  1  0  0  0
  8 10  4  0  0  0
 10 11  4  0  0  0
 10 14  1  0  0  0
 11 12  4  0  0  0
 12 13  4  0  0  0
 14 15  1  0  0  0
 15 16  4  0  0  0
 15 24  4  0  0  0
 16 17  1  0  0  0
 16 19  4  0  0  0
 17 18  1  0  0  0
 19 20  4  0  0  0
 20 21  4  0  0  0
 21 22  1  0  0  0
 21 24  4  0  0  0
 22 23  1  0  0  0
  3 25  1  0  0  0
  3 26  1  0  0  0
  6 27  1  0  0  0
  6 28  1  0  0  0
  9 29  1  0  0  0
  9 30  1  0  0  0
  9 31  1  0  0  0
 11 32  1  0  0  0
 14 33  1  0  0  0
 14 34  1  0  0  0
 18 35  1  0  0  0
 18 36  1  0  0  0
 18 37  1  0  0  0
 19 38  1  0  0  0
 20 39  1  0  0  0
 23 40  1  0  0  0
 23 41  1  0  0  0
 23 42  1  0  0  0
 24 43  1  0  0  0
M  END
$$$$
