### 
### Created by X-TOOL on Mon Sep 10 21:13:02 2018
### 

@<TRIPOS>MOLECULE
3ifp_ligand
  101   102     1     0     0
SMALL
GAST_HUCK


@<TRIPOS>ATOM
      1 N          65.5580  -10.8290   47.4070 N.4       1 ALA         0.2377
      2 CA         66.5840  -11.8030   47.7700 C.3       1 ALA         0.0621
      3 C          68.0060  -11.2520   47.6580 C.2       1 ALA         0.2264
      4 O          68.2270  -10.0860   47.3060 O.2       1 ALA        -0.3907
      5 CB         66.4470  -13.0840   46.9370 C.3       1 ALA        -0.0040
      6 N          68.9670  -12.1150   47.9700 N.am      1 GLU        -0.2609
      7 CA         70.3760  -11.7560   47.9280 C.3       1 GLU         0.1326
      8 C          70.9230  -11.8870   46.5260 C.2       1 GLU         0.2041
      9 O          70.3850  -12.6200   45.7000 O.2       1 GLU        -0.3944
     10 CB         71.1930  -12.6720   48.8260 C.3       1 GLU        -0.0008
     11 CG         71.1970  -12.3080   50.2850 C.3       1 GLU         0.0044
     12 CD         71.7300  -13.4510   51.1320 C.2       1 GLU         0.0350
     13 OE1        72.0350  -14.5300   50.5570 O.co2     1 GLU        -0.5690
     14 OE2        71.8270  -13.2720   52.3680 O.co2     1 GLU        -0.5690
     15 N          72.0110  -11.1730   46.2750 N.am      1 PHE        -0.2619
     16 CA         72.7710  -11.3050   45.0450 C.3       1 PHE         0.1404
     17 C          73.4960  -12.6540   45.0840 C.2       1 PHE         0.2060
     18 O          74.0170  -13.0560   46.1290 O.2       1 PHE        -0.3942
     19 CB         73.7650  -10.1430   44.9430 C.3       1 PHE         0.0214
     20 CG         74.5560  -10.1330   43.6830 C.ar      1 PHE        -0.0386
     21 CD1        74.0800   -9.4910   42.5590 C.ar      1 PHE        -0.0601
     22 CD2        75.7840  -10.7620   43.6230 C.ar      1 PHE        -0.0601
     23 CE1        74.8140   -9.4820   41.3980 C.ar      1 PHE        -0.0686
     24 CE2        76.5170  -10.7580   42.4690 C.ar      1 PHE        -0.0686
     25 CZ         76.0310  -10.1170   41.3520 C.ar      1 PHE        -0.0687
     26 N          73.5190  -13.3700   43.9660 N.am      1 ARG        -0.2636
     27 CA         74.1650  -14.6790   43.9570 C.3       1 ARG         0.1311
     28 C          75.6890  -14.5500   44.0170 C.2       1 ARG         0.2040
     29 O          76.2890  -13.8470   43.2130 O.2       1 ARG        -0.3944
     30 CB         73.7420  -15.4770   42.7290 C.3       1 ARG        -0.0092
     31 CG         74.5430  -16.7300   42.4970 C.3       1 ARG        -0.0156
     32 CD         73.9640  -17.5050   41.3470 C.3       1 ARG         0.0627
     33 NE         74.8280  -18.5840   40.8770 N.pl3     1 ARG        -0.2723
     34 CZ         75.2770  -18.6850   39.6280 C.cat     1 ARG         0.2882
     35 NH1        74.9440  -17.7700   38.7240 N.pl3     1 ARG        -0.2849
     36 NH2        76.0500  -19.7010   39.2790 N.pl3     1 ARG        -0.2849
     37 N          76.3100  -15.2280   44.9760 N.am      1 HIS        -0.2625
     38 CA         77.7590  -15.1650   45.1240 C.3       1 HIS         0.1369
     39 C          78.4460  -16.5210   44.9600 C.2       1 HIS         0.2049
     40 O          79.6690  -16.6040   44.9280 O.2       1 HIS        -0.3943
     41 CB         78.1460  -14.5190   46.4580 C.3       1 HIS         0.0145
     42 CG         78.0950  -13.0210   46.4420 C.2       1 HIS        -0.0027
     43 ND1        79.0170  -12.2510   45.7680 N.2       1 HIS        -0.3252
     44 CD2        77.2370  -12.1500   47.0210 C.2       1 HIS         0.0291
     45 CE1        78.7290  -10.9730   45.9300 C.2       1 HIS         0.0907
     46 NE2        77.6520  -10.8850   46.6850 N.pl3     1 HIS        -0.2752
     47 N          77.6610  -17.5890   44.8650 N.am      1 ASP        -0.2678
     48 CA         78.2010  -18.9150   44.5290 C.3       1 ASP         0.1058
     49 C          77.1540  -19.8970   43.9890 C.2       1 ASP         0.0618
     50 O          76.2080  -19.5050   43.2910 O.co2     1 ASP        -0.5665
     51 CB         78.9880  -19.5490   45.6870 C.3       1 ASP         0.0351
     52 CG         78.8480  -18.7920   46.9970 C.2       1 ASP         0.0387
     53 OD1        77.6980  -18.4680   47.4110 O.co2     1 ASP        -0.5688
     54 OD2        79.9090  -18.5450   47.6210 O.co2     1 ASP        -0.5688
     55 OXT        77.2450  -21.1110   44.2230 O.co2     1 ASP        -0.5665
     56 H          65.6721   -9.9892   47.9745 H         1 ALA         0.2015
     57 H          65.6525  -10.5893   46.4201 H         1 ALA         0.2015
     58 H          64.6354  -11.2307   47.5737 H         1 ALA         0.2015
     59 H          66.4160  -12.0367   48.8213 H         1 ALA         0.1095
     60 H          66.6635  -12.8613   45.8922 H         1 ALA         0.0310
     61 H          67.1505  -13.8314   47.3038 H         1 ALA         0.0310
     62 H          65.4300  -13.4662   47.0252 H         1 ALA         0.0310
     63 H          68.7079  -13.0614   48.2484 H         1 GLU         0.1885
     64 H          70.4525  -10.7234   48.2687 H         1 GLU         0.0801
     65 H          72.2259  -12.6024   48.4848 H         1 GLU         0.0330
     66 H          70.7428  -13.6620   48.7532 H         1 GLU         0.0330
     67 H          70.1741  -12.0925   50.5937 H         1 GLU         0.0433
     68 H          71.8404  -11.4396   50.4262 H         1 GLU         0.0433
     69 H          72.3277  -10.5026   46.9754 H         1 PHE         0.1885
     70 H          72.1216  -11.2709   44.1702 H         1 PHE         0.0823
     71 H          74.4706  -10.2475   45.7672 H         1 PHE         0.0474
     72 H          73.1868   -9.2194   44.9694 H         1 PHE         0.0474
     73 H          73.1141   -8.9870   42.5922 H         1 PHE         0.0557
     74 H          76.1735  -11.2678   44.5065 H         1 PHE         0.0557
     75 H          74.4311   -8.9715   40.5143 H         1 PHE         0.0599
     76 H          77.4834  -11.2609   42.4335 H         1 PHE         0.0599
     77 H          76.6125  -10.1134   40.4301 H         1 PHE         0.0559
     78 H          73.0868  -13.0067   43.1165 H         1 ARG         0.1883
     79 H          73.8416  -15.2157   44.8489 H         1 ARG         0.0800
     80 H          73.8938  -14.8346   41.8616 H         1 ARG         0.0313
     81 H          72.7076  -15.7826   42.8863 H         1 ARG         0.0313
     82 H          74.5131  -17.3461   43.3957 H         1 ARG         0.0301
     83 H          75.5729  -16.4592   42.2644 H         1 ARG         0.0301
     84 H          73.8289  -16.8095   40.5187 H         1 ARG         0.0689
     85 H          73.0341  -17.9570   41.6921 H         1 ARG         0.0689
     86 H          75.1040  -19.3032   41.5455 H         1 ARG         0.2642
     87 H          74.3434  -16.9886   38.9866 H         1 ARG         0.2615
     88 H          75.2890  -17.8490   37.7674 H         1 ARG         0.2615
     89 H          76.3032  -20.4093   39.9679 H         1 ARG         0.2615
     90 H          76.3925  -19.7757   38.3211 H         1 ARG         0.2615
     91 H          75.7643  -15.8018   45.6190 H         1 HIS         0.1885
     92 H          78.1188  -14.5383   44.3080 H         1 HIS         0.0817
     93 H          79.1752  -14.8069   46.6721 H         1 HIS         0.0420
     94 H          77.4292  -14.8607   47.2047 H         1 HIS         0.0420
     95 H          76.3763  -12.4050   47.6393 H         1 HIS         0.0729
     96 H          79.2859  -10.1347   45.5115 H         1 HIS         0.1199
     97 H          77.1999  -10.0172   46.9731 H         1 HIS         0.2361
     98 H          76.6595  -17.4866   45.0291 H         1 ASP         0.1877
     99 H          78.8973  -18.7193   43.7136 H         1 ASP         0.0745
    100 H          80.0428  -19.5383   45.4123 H         1 ASP         0.0471
    101 H          78.5918  -20.5524   45.8432 H         1 ASP         0.0471
@<TRIPOS>BOND
     1    1    2 1  
     2    2    3 1  
     3    2    5 1  
     4    3    4 2  
     5    3    6 am 
     6    6    7 1  
     7    7    8 1  
     8    7   10 1  
     9    8    9 2  
    10    8   15 am 
    11   10   11 1  
    12   11   12 1  
    13   12   13 ar 
    14   12   14 ar 
    15   15   16 1  
    16   16   17 1  
    17   16   19 1  
    18   17   18 2  
    19   17   26 am 
    20   19   20 1  
    21   20   21 ar 
    22   20   22 ar 
    23   21   23 ar 
    24   22   24 ar 
    25   23   25 ar 
    26   24   25 ar 
    27   26   27 1  
    28   27   28 1  
    29   27   30 1  
    30   28   29 2  
    31   28   37 am 
    32   30   31 1  
    33   31   32 1  
    34   32   33 1  
    35   33   34 ar 
    36   34   35 ar 
    37   34   36 ar 
    38   37   38 1  
    39   38   39 1  
    40   38   41 1  
    41   39   40 2  
    42   39   47 am 
    43   41   42 1  
    44   42   43 1  
    45   42   44 2  
    46   43   45 2  
    47   44   46 1  
    48   45   46 1  
    49   47   48 1  
    50   48   49 1  
    51   48   51 1  
    52   49   50 ar 
    53   49   55 ar 
    54   51   52 1  
    55   52   53 ar 
    56   52   54 ar 
    57    1   56 1  
    58    1   57 1  
    59    1   58 1  
    60    2   59 1  
    61    5   60 1  
    62    5   61 1  
    63    5   62 1  
    64    6   63 1  
    65    7   64 1  
    66   10   65 1  
    67   10   66 1  
    68   11   67 1  
    69   11   68 1  
    70   15   69 1  
    71   16   70 1  
    72   19   71 1  
    73   19   72 1  
    74   21   73 1  
    75   22   74 1  
    76   23   75 1  
    77   24   76 1  
    78   25   77 1  
    79   26   78 1  
    80   27   79 1  
    81   30   80 1  
    82   30   81 1  
    83   31   82 1  
    84   31   83 1  
    85   32   84 1  
    86   32   85 1  
    87   33   86 1  
    88   35   87 1  
    89   35   88 1  
    90   36   89 1  
    91   36   90 1  
    92   37   91 1  
    93   38   92 1  
    94   41   93 1  
    95   41   94 1  
    96   44   95 1  
    97   45   96 1  
    98   46   97 1  
    99   47   98 1  
   100   48   99 1  
   101   51  100 1  
   102   51  101 1  
@<TRIPOS>SUBSTRUCTURE
     1 ALA         1

