3ifp_ligand
  -I-interpret- 

102103  0  0  0  0  0  0  0  0999 V2000
   65.5580  -10.8290   47.4070 N   0  3  0  0  0
   66.5840  -11.8030   47.7700 C   0  0  0  0  0
   68.0060  -11.2520   47.6580 C   0  0  0  0  0
   68.2270  -10.0860   47.3060 O   0  0  0  0  0
   66.4470  -13.0840   46.9370 C   0  0  0  0  0
   68.9670  -12.1150   47.9700 N   0  0  0  0  0
   70.3760  -11.7560   47.9280 C   0  0  0  0  0
   70.9230  -11.8870   46.5260 C   0  0  0  0  0
   70.3850  -12.6200   45.7000 O   0  0  0  0  0
   71.1930  -12.6720   48.8260 C   0  0  0  0  0
   71.1970  -12.3080   50.2850 C   0  0  0  0  0
   71.7300  -13.4510   51.1320 C   0  0  0  0  0
   72.0350  -14.5300   50.5570 O   0  0  0  0  0
   71.8270  -13.2720   52.3680 O   0  0  0  0  0
   72.0110  -11.1730   46.2750 N   0  0  0  0  0
   72.7710  -11.3050   45.0450 C   0  0  0  0  0
   73.4960  -12.6540   45.0840 C   0  0  0  0  0
   74.0170  -13.0560   46.1290 O   0  0  0  0  0
   73.7650  -10.1430   44.9430 C   0  0  0  0  0
   74.5560  -10.1330   43.6830 C   0  0  0  0  0
   74.0800   -9.4910   42.5590 C   0  0  0  0  0
   75.7840  -10.7620   43.6230 C   0  0  0  0  0
   74.8140   -9.4820   41.3980 C   0  0  0  0  0
   76.5170  -10.7580   42.4690 C   0  0  0  0  0
   76.0310  -10.1170   41.3520 C   0  0  0  0  0
   73.5190  -13.3700   43.9660 N   0  0  0  0  0
   74.1650  -14.6790   43.9570 C   0  0  0  0  0
   75.6890  -14.5500   44.0170 C   0  0  0  0  0
   76.2890  -13.8470   43.2130 O   0  0  0  0  0
   73.7420  -15.4770   42.7290 C   0  0  0  0  0
   74.5430  -16.7300   42.4970 C   0  0  0  0  0
   73.9640  -17.5050   41.3470 C   0  0  0  0  0
   74.8280  -18.5840   40.8770 N   0  0  0  0  0
   75.2770  -18.6850   39.6280 C   0  0  0  0  0
   74.9440  -17.7700   38.7240 N   0  0  0  0  0
   76.0500  -19.7010   39.2790 N   0  0  0  0  0
   76.3100  -15.2280   44.9760 N   0  0  0  0  0
   77.7590  -15.1650   45.1240 C   0  0  0  0  0
   78.4460  -16.5210   44.9600 C   0  0  0  0  0
   79.6690  -16.6040   44.9280 O   0  0  0  0  0
   78.1460  -14.5190   46.4580 C   0  0  0  0  0
   78.0950  -13.0210   46.4420 C   0  0  0  0  0
   79.0170  -12.2510   45.7680 N   0  0  0  0  0
   77.2370  -12.1500   47.0210 C   0  0  0  0  0
   78.7290  -10.9730   45.9300 C   0  0  0  0  0
   77.6520  -10.8850   46.6850 N   0  0  0  0  0
   77.6610  -17.5890   44.8650 N   0  0  0  0  0
   78.2010  -18.9150   44.5290 C   0  0  0  0  0
   77.1540  -19.8970   43.9890 C   0  0  0  0  0
   76.2080  -19.5050   43.2910 O   0  0  0  0  0
   78.9880  -19.5490   45.6870 C   0  0  0  0  0
   78.8480  -18.7920   46.9970 C   0  0  0  0  0
   77.6980  -18.4680   47.4110 O   0  0  0  0  0
   79.9090  -18.5450   47.6210 O   0  0  0  0  0
   77.2450  -21.1110   44.2230 O   0  0  0  0  0
   65.6721   -9.9892   47.9745 H   0  0  0  0  0
   65.6525  -10.5893   46.4201 H   0  0  0  0  0
   64.6354  -11.2307   47.5737 H   0  0  0  0  0
   66.4160  -12.0367   48.8213 H   0  0  0  0  0
   66.6635  -12.8613   45.8922 H   0  0  0  0  0
   67.1505  -13.8314   47.3038 H   0  0  0  0  0
   65.4300  -13.4662   47.0252 H   0  0  0  0  0
   68.7079  -13.0614   48.2484 H   0  0  0  0  0
   70.4525  -10.7234   48.2687 H   0  0  0  0  0
   72.2259  -12.6024   48.4848 H   0  0  0  0  0
   70.7428  -13.6620   48.7532 H   0  0  0  0  0
   70.1741  -12.0925   50.5937 H   0  0  0  0  0
   71.8404  -11.4396   50.4262 H   0  0  0  0  0
   71.8822  -14.4427   49.6133 H   0  0  0  0  0
   72.3277  -10.5026   46.9754 H   0  0  0  0  0
   72.1216  -11.2709   44.1702 H   0  0  0  0  0
   74.4706  -10.2475   45.7672 H   0  0  0  0  0
   73.1868   -9.2194   44.9694 H   0  0  0  0  0
   73.1141   -8.9870   42.5922 H   0  0  0  0  0
   76.1735  -11.2678   44.5065 H   0  0  0  0  0
   74.4311   -8.9715   40.5143 H   0  0  0  0  0
   77.4834  -11.2609   42.4335 H   0  0  0  0  0
   76.6125  -10.1134   40.4301 H   0  0  0  0  0
   73.0868  -13.0067   43.1165 H   0  0  0  0  0
   73.8416  -15.2157   44.8489 H   0  0  0  0  0
   73.8938  -14.8346   41.8616 H   0  0  0  0  0
   72.7076  -15.7826   42.8863 H   0  0  0  0  0
   74.5131  -17.3461   43.3957 H   0  0  0  0  0
   75.5729  -16.4592   42.2644 H   0  0  0  0  0
   73.8289  -16.8095   40.5187 H   0  0  0  0  0
   73.0341  -17.9570   41.6921 H   0  0  0  0  0
   75.1040  -19.3032   41.5455 H   0  0  0  0  0
   75.2839  -17.8524   37.7658 H   0  0  0  0  0
   74.3485  -16.9852   38.9882 H   0  0  0  0  0
   76.3032  -20.4093   39.9679 H   0  0  0  0  0
   75.7643  -15.8018   45.6190 H   0  0  0  0  0
   78.1188  -14.5383   44.3080 H   0  0  0  0  0
   79.1752  -14.8069   46.6721 H   0  0  0  0  0
   77.4292  -14.8607   47.2047 H   0  0  0  0  0
   76.3763  -12.4050   47.6393 H   0  0  0  0  0
   79.2859  -10.1347   45.5115 H   0  0  0  0  0
   76.6595  -17.4866   45.0291 H   0  0  0  0  0
   78.8973  -18.7193   43.7136 H   0  0  0  0  0
   80.0428  -19.5383   45.4123 H   0  0  0  0  0
   78.5918  -20.5524   45.8432 H   0  0  0  0  0
   77.0378  -18.7555   46.7761 H   0  0  0  0  0
   78.0169  -21.2733   44.7702 H   0  0  0  0  0
  1  2  1  0  0  0
  2  3  1  0  0  0
  2  5  1  0  0  0
  3  4  2  0  0  0
  3  6  1  0  0  0
  6  7  1  0  0  0
  7  8  1  0  0  0
  7 10  1  0  0  0
  8  9  2  0  0  0
  8 15  1  0  0  0
 10 11  1  0  0  0
 11 12  1  0  0  0
 12 13  1  0  0  0
 12 14  2  0  0  0
 15 16  1  0  0  0
 16 17  1  0  0  0
 16 19  1  0  0  0
 17 18  2  0  0  0
 17 26  1  0  0  0
 19 20  1  0  0  0
 20 21  4  0  0  0
 20 22  4  0  0  0
 21 23  4  0  0  0
 22 24  4  0  0  0
 23 25  4  0  0  0
 24 25  4  0  0  0
 26 27  1  0  0  0
 27 28  1  0  0  0
 27 30  1  0  0  0
 28 29  2  0  0  0
 28 37  1  0  0  0
 30 31  1  0  0  0
 31 32  1  0  0  0
 32 33  1  0  0  0
 33 34  1  0  0  0
 34 35  1  0  0  0
 34 36  2  0  0  0
 37 38  1  0  0  0
 38 39  1  0  0  0
 38 41  1  0  0  0
 39 40  2  0  0  0
 39 47  1  0  0  0
 41 42  1  0  0  0
 42 43  4  0  0  0
 42 44  4  0  0  0
 43 45  4  0  0  0
 44 46  4  0  0  0
 45 46  4  0  0  0
 47 48  1  0  0  0
 48 49  1  0  0  0
 48 51  1  0  0  0
 49 50  2  0  0  0
 49 55  1  0  0  0
 51 52  1  0  0  0
 52 53  1  0  0  0
 52 54  2  0  0  0
  1 56  1  0  0  0
  1 57  1  0  0  0
  1 58  1  0  0  0
  2 59  1  0  0  0
  5 60  1  0  0  0
  5 61  1  0  0  0
  5 62  1  0  0  0
  6 63  1  0  0  0
  7 64  1  0  0  0
 10 65  1  0  0  0
 10 66  1  0  0  0
 11 67  1  0  0  0
 11 68  1  0  0  0
 13 69  1  0  0  0
 15 70  1  0  0  0
 16 71  1  0  0  0
 19 72  1  0  0  0
 19 73  1  0  0  0
 21 74  1  0  0  0
 22 75  1  0  0  0
 23 76  1  0  0  0
 24 77  1  0  0  0
 25 78  1  0  0  0
 26 79  1  0  0  0
 27 80  1  0  0  0
 30 81  1  0  0  0
 30 82  1  0  0  0
 31 83  1  0  0  0
 31 84  1  0  0  0
 32 85  1  0  0  0
 32 86  1  0  0  0
 33 87  1  0  0  0
 35 88  1  0  0  0
 35 89  1  0  0  0
 36 90  1  0  0  0
 37 91  1  0  0  0
 38 92  1  0  0  0
 41 93  1  0  0  0
 41 94  1  0  0  0
 44 95  1  0  0  0
 45 96  1  0  0  0
 47 97  1  0  0  0
 48 98  1  0  0  0
 51 99  1  0  0  0
 51100  1  0  0  0
 53101  1  0  0  0
 55102  1  0  0  0
M  END
$$$$
