4n9d_ligand
  -I-interpret- 

 55 57  0  0  0  0  0  0  0  0999 V2000
   18.8220   -0.2950   -5.1470 C   0  0  0  0  0
   19.1750    1.1030   -4.6200 C   0  0  0  0  0
   19.6650    1.9830   -5.7720 C   0  0  0  0  0
   20.3150    0.9840   -3.6130 C   0  0  0  0  0
   17.9490    1.7050   -3.9560 C   0  0  0  0  0
   17.6400    1.3520   -2.6490 C   0  0  0  0  0
   16.5190    1.8870   -2.0380 C   0  0  0  0  0
   15.6990    2.7780   -2.7120 C   0  0  0  0  0
   16.0120    3.1380   -4.0150 C   0  0  0  0  0
   17.1290    2.5960   -4.6360 C   0  0  0  0  0
   14.2750    3.4500   -1.9030 S   0  0  0  0  0
   13.5770    2.3390   -1.3460 O   0  0  0  0  0
   13.6390    4.3460   -2.8280 O   0  0  0  0  0
   14.8740    4.3680   -0.6460 N   0  0  0  0  0
   15.8150    5.4780   -0.9210 C   0  0  0  0  0
   15.7040    6.4120    0.2560 C   0  0  0  0  0
   14.5510    7.1560    0.3580 C   0  0  0  0  0
   14.3910    7.9990    1.4310 C   0  0  0  0  0
   15.4000    8.1300    2.3840 C   0  0  0  0  0
   16.5530    7.3380    2.3090 C   0  0  0  0  0
   16.7020    6.4930    1.2210 C   0  0  0  0  0
   15.0650    8.9780    3.5350 C   0  0  0  0  0
   14.3010    9.9170    3.4500 O   0  0  0  0  0
   15.5440    8.5070    4.7050 N   0  0  0  0  0
   15.2580    8.8920    6.0160 C   0  0  0  0  0
   16.0010    8.3670    7.0680 C   0  0  0  0  0
   15.6050    8.6790    8.3680 C   0  0  0  0  0
   14.4750    9.4460    8.5770 C   0  0  0  0  0
   13.7600    9.8970    7.5550 N   0  0  0  0  0
   14.1020    9.6160    6.3100 C   0  0  0  0  0
   18.5060   -0.9259   -4.3163 H   0  0  0  0  0
   18.0124   -0.2147   -5.8724 H   0  0  0  0  0
   19.6979   -0.7335   -5.6252 H   0  0  0  0  0
   18.8749    2.0772   -6.5170 H   0  0  0  0  0
   19.9243    2.9699   -5.3887 H   0  0  0  0  0
   20.5435    1.5265   -6.2280 H   0  0  0  0  0
   20.5653    1.9737   -3.2309 H   0  0  0  0  0
   20.0041    0.3426   -2.7883 H   0  0  0  0  0
   21.1871    0.5510   -4.1029 H   0  0  0  0  0
   18.2785    0.6555   -2.1056 H   0  0  0  0  0
   16.2781    1.6038   -1.0134 H   0  0  0  0  0
   15.3806    3.8466   -4.5511 H   0  0  0  0  0
   17.3640    2.8716   -5.6641 H   0  0  0  0  0
   14.5920    4.1648    0.3129 H   0  0  0  0  0
   15.5682    5.9849   -1.8539 H   0  0  0  0  0
   16.8347    5.1124   -1.0420 H   0  0  0  0  0
   13.7744    7.0776   -0.4028 H   0  0  0  0  0
   13.4684    8.5695    1.5379 H   0  0  0  0  0
   17.3144    7.3853    3.0875 H   0  0  0  0  0
   17.6044    5.8898    1.1212 H   0  0  0  0  0
   16.2222    7.7501    4.6179 H   0  0  0  0  0
   16.8665    7.7310    6.8819 H   0  0  0  0  0
   16.1855    8.3187    9.2173 H   0  0  0  0  0
   14.1670    9.6836    9.5952 H   0  0  0  0  0
   13.4661    9.9578    5.4934 H   0  0  0  0  0
  1  2  1  0  0  0
  2  3  1  0  0  0
  2  4  1  0  0  0
  2  5  1  0  0  0
  5  6  4  0  0  0
  5 10  4  0  0  0
  6  7  4  0  0  0
  7  8  4  0  0  0
  8  9  4  0  0  0
  8 11  1  0  0  0
  9 10  4  0  0  0
 11 12  2  0  0  0
 11 13  2  0  0  0
 11 14  1  0  0  0
 14 15  1  0  0  0
 15 16  1  0  0  0
 16 17  4  0  0  0
 16 21  4  0  0  0
 17 18  4  0  0  0
 18 19  4  0  0  0
 19 20  4  0  0  0
 19 22  1  0  0  0
 20 21  4  0  0  0
 22 23  2  0  0  0
 22 24  1  0  0  0
 24 25  1  0  0  0
 25 26  4  0  0  0
 25 30  4  0  0  0
 26 27  4  0  0  0
 27 28  4  0  0  0
 28 29  4  0  0  0
 29 30  4  0  0  0
  1 31  1  0  0  0
  1 32  1  0  0  0
  1 33  1  0  0  0
  3 34  1  0  0  0
  3 35  1  0  0  0
  3 36  1  0  0  0
  4 37  1  0  0  0
  4 38  1  0  0  0
  4 39  1  0  0  0
  6 40  1  0  0  0
  7 41  1  0  0  0
  9 42  1  0  0  0
 10 43  1  0  0  0
 14 44  1  0  0  0
 15 45  1  0  0  0
 15 46  1  0  0  0
 17 47  1  0  0  0
 18 48  1  0  0  0
 20 49  1  0  0  0
 21 50  1  0  0  0
 24 51  1  0  0  0
 26 52  1  0  0  0
 27 53  1  0  0  0
 28 54  1  0  0  0
 30 55  1  0  0  0
M  END
$$$$
