3moe_ligand
  -I-interpret- 

 14 13  0  0  0  0  0  0  0  0999 V2000
    0.8050   -2.1970    9.8180 C   0  0  0  0  0
    0.4200   -1.0160    9.9320 O   0  0  0  0  0
    2.0370   -2.5260    9.9950 O   0  0  0  0  0
   -0.1160   -3.1840    9.4940 C   0  0  0  0  0
    0.3710   -4.7010    9.2470 C   0  0  0  0  0
   -1.3480   -2.9350    9.3130 O   0  0  0  0  0
    0.8920   -5.0010    7.5910 S   0  0  0  0  0
    1.5000   -6.2730    7.6760 O   0  0  0  0  0
    1.8350   -3.9530    7.2490 O   0  0  0  0  0
   -0.3240   -5.0280    6.7620 O   0  0  0  0  0
    2.1363   -3.4719    9.8649 H   0  0  0  0  0
   -0.4751   -5.3572    9.4513 H   0  0  0  0  0
    1.2240   -4.8848    9.9003 H   0  0  0  0  0
   -0.7068   -4.1483    6.7287 H   0  0  0  0  0
  1  2  2  0  0  0
  1  3  1  0  0  0
  1  4  1  0  0  0
  4  5  1  0  0  0
  4  6  2  0  0  0
  5  7  1  0  0  0
  7  8  2  0  0  0
  7  9  2  0  0  0
  7 10  1  0  0  0
  3 11  1  0  0  0
  5 12  1  0  0  0
  5 13  1  0  0  0
 10 14  1  0  0  0
M  END
$$$$
