5w3i_ligand
  -I-interpret- 

 54 56  0  0  0  0  0  0  0  0999 V2000
   24.2340  -20.8930    9.4320 N   0  0  0  0  0
   25.3710  -17.5580    5.2430 C   0  0  0  0  0
   26.4740  -21.1440    9.6780 O   0  0  0  0  0
   22.7050  -19.5190    7.8630 C   0  0  0  0  0
   22.7020  -17.1420    7.7110 C   0  0  0  0  0
   22.0800  -17.2010    6.4830 C   0  0  0  0  0
   21.7220  -18.5350    5.8540 C   0  0  0  0  0
   23.1070  -15.8260    8.4430 C   0  0  0  0  0
   24.2320  -14.8750   10.5960 C   0  0  0  0  0
   22.2850  -20.6490   10.9140 C   0  0  0  0  0
   21.8490  -21.1740    9.5490 C   0  0  0  0  0
   23.0190  -20.8790    8.5690 C   0  0  0  0  0
   25.5750  -15.2530   11.3620 C   0  0  0  0  0
   23.8280  -20.5330   10.8160 C   0  0  0  0  0
   25.5730  -21.1760    8.9100 C   0  0  0  0  0
   25.7910  -21.5510    7.3190 C   0  0  0  0  0
   25.8150  -16.5950    6.1530 C   0  0  0  0  0
   26.5770  -17.0160    7.2350 C   0  0  0  0  0
   26.8870  -18.3730    7.3980 C   0  0  0  0  0
   26.4480  -19.3600    6.4860 C   0  0  0  0  0
   25.6770  -18.9120    5.4030 C   0  0  0  0  0
   23.0120  -18.3590    8.4010 N   0  0  0  0  0
   22.0870  -19.6620    6.6500 N   0  0  0  0  0
   23.7420  -15.9740    9.7070 N   0  0  0  0  0
   21.7490  -16.1510    5.7790 O   0  0  0  0  0
   21.1730  -18.6860    4.7920 O   0  0  0  0  0
   22.8910  -14.7500    7.9810 O   0  0  0  0  0
   26.7510  -20.7150    6.6400 O   0  0  0  0  0
   25.6350  -16.6530   11.6900 O   0  0  0  0  0
   26.2920  -17.4910   10.7400 C   0  0  0  0  0
   24.7716  -17.2455    4.3879 H   0  0  0  0  0
   24.4379  -14.0066    9.9703 H   0  0  0  0  0
   23.4633  -14.6839   11.3448 H   0  0  0  0  0
   21.9774  -21.3125   11.7223 H   0  0  0  0  0
   21.8192  -19.6921   11.1496 H   0  0  0  0  0
   20.9310  -20.6879    9.2187 H   0  0  0  0  0
   21.6351  -22.2420    9.5915 H   0  0  0  0  0
   23.1665  -21.5943    7.7599 H   0  0  0  0  0
   25.6082  -14.6842   12.2912 H   0  0  0  0  0
   26.4161  -15.0203   10.7089 H   0  0  0  0  0
   24.1426  -19.5150   11.0459 H   0  0  0  0  0
   24.3005  -21.2055   11.5320 H   0  0  0  0  0
   24.8319  -21.4089    6.8209 H   0  0  0  0  0
   26.1689  -22.5726    7.2784 H   0  0  0  0  0
   25.5698  -15.5416    6.0172 H   0  0  0  0  0
   26.9360  -16.2870    7.9615 H   0  0  0  0  0
   27.4862  -18.6774    8.2561 H   0  0  0  0  0
   25.3099  -19.6334    4.6729 H   0  0  0  0  0
   21.8817  -20.5999    6.3055 H   0  0  0  0  0
   23.8773  -16.9279   10.0420 H   0  0  0  0  0
   21.3299  -16.4335    4.9628 H   0  0  0  0  0
   25.7761  -17.4260    9.7820 H   0  0  0  0  0
   27.3247  -17.1630   10.6210 H   0  0  0  0  0
   26.2753  -18.5218   11.0939 H   0  0  0  0  0
  1 12  1  0  0  0
  1 14  1  0  0  0
 15  1  1  0  0  0
  2 17  4  0  0  0
 21  2  4  0  0  0
 15  3  2  0  0  0
 12  4  1  0  0  0
  4 22  2  0  0  0
  4 23  1  0  0  0
  5  6  2  0  0  0
  5  8  1  0  0  0
 22  5  1  0  0  0
  7  6  1  0  0  0
  6 25  1  0  0  0
 23  7  1  0  0  0
  7 26  2  0  0  0
  8 24  1  0  0  0
  8 27  2  0  0  0
  9 13  1  0  0  0
 24  9  1  0  0  0
 10 11  1  0  0  0
 14 10  1  0  0  0
 12 11  1  0  0  0
 13 29  1  0  0  0
 16 15  1  0  0  0
 28 16  1  0  0  0
 18 17  4  0  0  0
 19 18  4  0  0  0
 20 19  4  0  0  0
 20 21  4  0  0  0
 20 28  1  0  0  0
 29 30  1  0  0  0
  2 31  1  0  0  0
  9 32  1  0  0  0
  9 33  1  0  0  0
 10 34  1  0  0  0
 10 35  1  0  0  0
 11 36  1  0  0  0
 11 37  1  0  0  0
 12 38  1  0  0  0
 13 39  1  0  0  0
 13 40  1  0  0  0
 14 41  1  0  0  0
 14 42  1  0  0  0
 16 43  1  0  0  0
 16 44  1  0  0  0
 17 45  1  0  0  0
 18 46  1  0  0  0
 19 47  1  0  0  0
 21 48  1  0  0  0
 23 49  1  0  0  0
 24 50  1  0  0  0
 25 51  1  0  0  0
 30 52  1  0  0  0
 30 53  1  0  0  0
 30 54  1  0  0  0
M  END
$$$$
