5izf_ligand
  -I-interpret- 

119121  0  0  0  0  0  0  0  0999 V2000
   -3.4480   52.7200   -1.0440 C   0  0  0  0  0
   -3.5990   51.5450   -0.1280 C   0  0  0  0  0
   -2.3940   50.7240    0.0670 C   0  0  0  0  0
   -6.6840   55.2960   -1.9070 N   0  0  0  0  0
   -4.6700   50.9970    0.6400 C   0  0  0  0  0
   -4.0890   49.8990    1.2600 C   0  0  0  0  0
   -2.2290   52.9250   -1.6140 N   0  0  0  0  0
   -1.1700   52.1260   -1.3750 C   0  0  0  0  0
   -4.5180   53.5850   -1.3500 N   0  0  0  0  0
   -5.7680   53.0170   -1.8640 C   0  0  0  0  0
   -4.3620   55.0320   -1.1960 C   0  0  0  0  0
   -5.2920   55.6720   -2.2290 C   0  0  0  0  0
   -6.9020   53.9250   -1.3940 C   0  0  0  0  0
   -1.2340   51.0550   -0.5600 N   0  0  0  0  0
   -2.7710   49.7570    0.9180 N   0  0  0  0  0
  -13.8030   57.3380    3.4500 C   0  0  0  0  0
  -12.6170   56.7730    4.2050 C   0  0  0  0  0
  -11.5260   56.2220    3.2880 C   0  0  0  0  0
  -10.6240   57.3080    2.7110 C   0  0  0  0  0
  -10.8440   57.3950    1.2050 C   0  0  0  0  0
   -9.5410   57.3740    0.4110 C   0  0  0  0  0
   -9.2760   55.9760   -0.1310 C   0  0  0  0  0
   -9.1140   55.9300   -1.6520 C   0  0  0  0  0
   -7.6800   56.1950   -2.0990 C   0  0  0  0  0
  -14.1100   58.4990    3.6850 O   0  0  0  0  0
   -7.4940   57.2670   -2.6560 O   0  0  0  0  0
  -14.4500   56.5400    2.5870 N   0  0  0  0  0
  -15.5870   56.9670    1.7810 C   0  0  0  0  0
  -16.2880   55.7410    1.1990 C   0  0  0  0  0
  -17.6230   56.1170    0.5610 C   0  0  0  0  0
  -18.5130   54.9070    0.3210 C   0  0  0  0  0
  -17.9760   53.9570   -0.6480 N   0  0  0  0  0
  -18.2800   53.9220   -1.9520 C   0  0  0  0  0
  -19.1260   54.7920   -2.5100 N   0  0  0  0  0
  -17.7160   52.9900   -2.7200 N   0  0  0  0  0
  -15.1810   57.9360    0.6950 C   0  0  0  0  0
  -15.8160   58.9690    0.5320 O   0  0  0  0  0
  -18.0740   57.3960   -5.9580 C   0  0  0  0  0
  -18.8770   56.5060   -5.7120 O   0  0  0  0  0
  -17.4870   58.1680   -4.7990 C   0  0  0  0  0
  -16.2030   57.4990   -4.3180 C   0  0  0  0  0
  -15.7790   58.0280   -2.9500 C   0  0  0  0  0
  -14.4520   57.4160   -2.5100 C   0  0  0  0  0
  -13.8320   58.1960   -1.3540 C   0  0  0  0  0
  -14.1220   57.6060   -0.0540 N   0  0  0  0  0
  -17.6690   57.7450   -7.1850 N   0  0  0  0  0
  -18.3550   57.3620   -8.4140 C   0  0  0  0  0
  -17.4130   57.5050   -9.6090 C   0  0  0  0  0
  -17.4890   56.2510  -10.4720 C   0  0  0  0  0
  -16.3860   56.2030  -11.5210 C   0  0  0  0  0
  -15.5340   55.0330  -11.3610 N   0  0  0  0  0
  -15.4880   53.9790  -12.1880 C   0  0  0  0  0
  -14.6510   52.9830  -11.9130 N   0  0  0  0  0
  -16.2530   53.8920  -13.2790 N   0  0  0  0  0
  -19.6030   58.1770   -8.6320 C   0  0  0  0  0
  -20.5460   57.7070   -9.2520 O   0  0  0  0  0
  -19.6800   59.4990   -8.1150 N   0  0  0  0  0
   -5.6966   51.3544    0.7204 H   0  0  0  0  0
   -4.6189   49.2300    1.9380 H   0  0  0  0  0
   -0.2221   52.3560   -1.8615 H   0  0  0  0  0
   -5.9098   52.0018   -1.4933 H   0  0  0  0  0
   -5.7460   52.9617   -2.9524 H   0  0  0  0  0
   -3.3275   55.3357   -1.3561 H   0  0  0  0  0
   -4.6179   55.3502   -0.1854 H   0  0  0  0  0
   -5.1851   56.7564   -2.2032 H   0  0  0  0  0
   -5.0344   55.3209   -3.2282 H   0  0  0  0  0
   -7.8513   53.5438   -1.7703 H   0  0  0  0  0
   -6.9228   53.9447   -0.3044 H   0  0  0  0  0
  -12.9791   55.9488    4.8195 H   0  0  0  0  0
  -12.1800   57.5839    4.7878 H   0  0  0  0  0
  -12.0167   55.7213    2.4534 H   0  0  0  0  0
  -10.9017   55.5535    3.8808 H   0  0  0  0  0
   -9.5814   57.0638    2.9148 H   0  0  0  0  0
  -10.8646   58.2661    3.1717 H   0  0  0  0  0
  -11.3453   58.3401    0.9963 H   0  0  0  0  0
  -11.4307   56.5271    0.9040 H   0  0  0  0  0
   -8.7197   57.6634    1.0666 H   0  0  0  0  0
   -9.6213   58.0703   -0.4237 H   0  0  0  0  0
  -10.1361   55.3574    0.1252 H   0  0  0  0  0
   -8.3416   55.6266    0.3082 H   0  0  0  0  0
   -9.7472   56.7073   -2.0798 H   0  0  0  0  0
   -9.3902   54.9306   -1.9881 H   0  0  0  0  0
  -14.1271   55.5774    2.4891 H   0  0  0  0  0
  -16.2830   57.5031    2.4262 H   0  0  0  0  0
  -16.4760   55.0328    2.0060 H   0  0  0  0  0
  -15.6470   55.3059    0.4322 H   0  0  0  0  0
  -17.4168   56.5803   -0.4038 H   0  0  0  0  0
  -18.1446   56.7892    1.2423 H   0  0  0  0  0
  -19.4584   55.2753   -0.0775 H   0  0  0  0  0
  -18.6065   54.3812    1.2712 H   0  0  0  0  0
  -17.3140   53.2617   -0.3035 H   0  0  0  0  0
  -19.3306   54.7361   -3.5077 H   0  0  0  0  0
  -19.5674   55.5123   -1.9384 H   0  0  0  0  0
  -17.0649   52.3189   -2.3125 H   0  0  0  0  0
  -18.2075   58.1874   -3.9813 H   0  0  0  0  0
  -17.2605   59.1833   -5.1244 H   0  0  0  0  0
  -15.4103   57.7155   -5.0341 H   0  0  0  0  0
  -16.3811   56.4269   -4.2349 H   0  0  0  0  0
  -16.5442   57.7615   -2.2210 H   0  0  0  0  0
  -15.6588   59.1093   -3.0166 H   0  0  0  0  0
  -13.7626   57.4433   -3.3539 H   0  0  0  0  0
  -14.6364   56.3945   -2.1775 H   0  0  0  0  0
  -14.2537   59.2010   -1.3657 H   0  0  0  0  0
  -12.7505   58.1895   -1.4894 H   0  0  0  0  0
  -13.4803   56.8999    0.3066 H   0  0  0  0  0
  -16.8271   58.3151   -7.2658 H   0  0  0  0  0
  -18.6552   56.3187   -8.3162 H   0  0  0  0  0
  -16.3918   57.6377   -9.2517 H   0  0  0  0  0
  -17.7080   58.3711  -10.2014 H   0  0  0  0  0
  -18.4481   56.2548  -10.9899 H   0  0  0  0  0
  -17.3737   55.3848   -9.8204 H   0  0  0  0  0
  -15.7679   57.0936  -11.4076 H   0  0  0  0  0
  -16.8524   56.1538  -12.5049 H   0  0  0  0  0
  -14.9181   55.0137  -10.5482 H   0  0  0  0  0
  -14.0579   53.0293  -11.0844 H   0  0  0  0  0
  -16.1885   53.0726  -13.8831 H   0  0  0  0  0
  -16.9018   54.6449  -13.5083 H   0  0  0  0  0
  -20.5221   60.0556   -8.2613 H   0  0  0  0  0
  -18.8931   59.8910   -7.5977 H   0  0  0  0  0
  1  2  4  0  0  0
  1  7  4  0  0  0
  9  1  1  0  0  0
  2  3  4  0  0  0
  2  5  4  0  0  0
  3 14  4  0  0  0
  3 15  4  0  0  0
  4 12  1  0  0  0
  4 13  1  0  0  0
 24  4  1  0  0  0
  5  6  4  0  0  0
  6 15  4  0  0  0
  7  8  4  0  0  0
  8 14  4  0  0  0
 10  9  1  0  0  0
 11  9  1  0  0  0
 13 10  1  0  0  0
 12 11  1  0  0  0
 16 17  1  0  0  0
 16 25  2  0  0  0
 27 16  1  0  0  0
 17 18  1  0  0  0
 18 19  1  0  0  0
 19 20  1  0  0  0
 20 21  1  0  0  0
 21 22  1  0  0  0
 22 23  1  0  0  0
 23 24  1  0  0  0
 24 26  2  0  0  0
 28 27  1  0  0  0
 28 29  1  0  0  0
 36 28  1  0  0  0
 29 30  1  0  0  0
 30 31  1  0  0  0
 31 32  1  0  0  0
 32 33  1  0  0  0
 33 34  1  0  0  0
 33 35  2  0  0  0
 36 37  2  0  0  0
 45 36  1  0  0  0
 38 39  2  0  0  0
 40 38  1  0  0  0
 38 46  1  0  0  0
 41 40  1  0  0  0
 42 41  1  0  0  0
 43 42  1  0  0  0
 44 43  1  0  0  0
 44 45  1  0  0  0
 46 47  1  0  0  0
 47 48  1  0  0  0
 47 55  1  0  0  0
 48 49  1  0  0  0
 49 50  1  0  0  0
 50 51  1  0  0  0
 51 52  1  0  0  0
 52 53  2  0  0  0
 52 54  1  0  0  0
 55 56  2  0  0  0
 55 57  1  0  0  0
  5 58  1  0  0  0
  6 59  1  0  0  0
  8 60  1  0  0  0
 10 61  1  0  0  0
 10 62  1  0  0  0
 11 63  1  0  0  0
 11 64  1  0  0  0
 12 65  1  0  0  0
 12 66  1  0  0  0
 13 67  1  0  0  0
 13 68  1  0  0  0
 17 69  1  0  0  0
 17 70  1  0  0  0
 18 71  1  0  0  0
 18 72  1  0  0  0
 19 73  1  0  0  0
 19 74  1  0  0  0
 20 75  1  0  0  0
 20 76  1  0  0  0
 21 77  1  0  0  0
 21 78  1  0  0  0
 22 79  1  0  0  0
 22 80  1  0  0  0
 23 81  1  0  0  0
 23 82  1  0  0  0
 27 83  1  0  0  0
 28 84  1  0  0  0
 29 85  1  0  0  0
 29 86  1  0  0  0
 30 87  1  0  0  0
 30 88  1  0  0  0
 31 89  1  0  0  0
 31 90  1  0  0  0
 32 91  1  0  0  0
 34 92  1  0  0  0
 34 93  1  0  0  0
 35 94  1  0  0  0
 40 95  1  0  0  0
 40 96  1  0  0  0
 41 97  1  0  0  0
 41 98  1  0  0  0
 42 99  1  0  0  0
 42100  1  0  0  0
 43101  1  0  0  0
 43102  1  0  0  0
 44103  1  0  0  0
 44104  1  0  0  0
 45105  1  0  0  0
 46106  1  0  0  0
 47107  1  0  0  0
 48108  1  0  0  0
 48109  1  0  0  0
 49110  1  0  0  0
 49111  1  0  0  0
 50112  1  0  0  0
 50113  1  0  0  0
 51114  1  0  0  0
 53115  1  0  0  0
 54116  1  0  0  0
 54117  1  0  0  0
 57118  1  0  0  0
 57119  1  0  0  0
M  END
$$$$
