3vw9_ligand
  -I-interpret- 

 49 52  0  0  0  0  0  0  0  0999 V2000
    5.6130  -10.7480  -24.6640 C   0  0  0  0  0
    9.7490  -12.1760  -28.2440 C   0  0  0  0  0
    5.2810  -10.5450  -26.1660 C   0  0  0  0  0
    7.2330  -11.6170  -27.2870 C   0  0  0  0  0
    5.3370  -12.6620  -27.4930 C   0  0  0  0  0
    6.2500  -13.3940  -28.1340 C   0  0  0  0  0
    7.4300  -12.7650  -28.0510 C   0  0  0  0  0
    8.7220  -13.0980  -28.4770 C   0  0  0  0  0
    9.4790  -11.0440  -27.4650 C   0  0  0  0  0
    4.9530  -11.9970  -24.0440 C   0  0  0  0  0
    2.8650  -13.0760  -23.7180 C   0  0  0  0  0
    3.5280  -11.8320  -23.9930 O   0  0  0  0  0
    5.9400  -11.5870  -26.9870 N   0  0  0  0  0
    8.2550  -10.7870  -27.0010 N   0  0  0  0  0
   11.0720  -12.4630  -28.6030 C   0  0  0  0  0
   11.4590  -12.8890  -29.8730 C   0  0  0  0  0
   12.0630  -12.3360  -27.6070 N   0  0  0  0  0
   11.7860  -11.8910  -26.3050 O   0  0  0  0  0
   13.4030  -12.6430  -27.8780 C   0  0  0  0  0
   14.2160  -12.4940  -26.9410 O   0  0  0  0  0
   13.7770  -13.0590  -29.1660 C   0  0  0  0  0
   12.8170  -13.1490  -30.1900 C   0  0  0  0  0
   13.1880  -13.5830  -31.4890 C   0  0  0  0  0
   12.3010  -14.3370  -32.2790 C   0  0  0  0  0
   12.7100  -14.7920  -33.5450 C   0  0  0  0  0
   13.9870  -14.4920  -34.0400 C   0  0  0  0  0
   14.8670  -13.7200  -33.2830 C   0  0  0  0  0
   14.4580  -13.2700  -32.0150 C   0  0  0  0  0
    5.2332   -9.8790  -24.1267 H   0  0  0  0  0
    6.6924  -10.8771  -24.5842 H   0  0  0  0  0
    5.6419   -9.5655  -26.4797 H   0  0  0  0  0
    4.2020  -10.6151  -26.3033 H   0  0  0  0  0
    4.2780  -12.9025  -27.3992 H   0  0  0  0  0
    6.0670  -14.3424  -28.6392 H   0  0  0  0  0
    8.9217  -14.0468  -28.9751 H   0  0  0  0  0
   10.2905  -10.3547  -27.2316 H   0  0  0  0  0
    5.3323  -12.1351  -23.0315 H   0  0  0  0  0
    5.1894  -12.8666  -24.6572 H   0  0  0  0  0
    3.1024  -13.7941  -24.5029 H   0  0  0  0  0
    3.2034  -13.4618  -22.7564 H   0  0  0  0  0
    1.7877  -12.9129  -23.6867 H   0  0  0  0  0
   10.6986  -13.0257  -30.6419 H   0  0  0  0  0
   12.5977  -11.8792  -25.7926 H   0  0  0  0  0
   14.8164  -13.3134  -29.3732 H   0  0  0  0  0
   11.3011  -14.5674  -31.9113 H   0  0  0  0  0
   12.0249  -15.3861  -34.1498 H   0  0  0  0  0
   14.2922  -14.8630  -35.0184 H   0  0  0  0  0
   15.8556  -13.4693  -33.6675 H   0  0  0  0  0
   15.1419  -12.6623  -31.4224 H   0  0  0  0  0
  3  1  1  0  0  0
  1 10  1  0  0  0
  8  2  4  0  0  0
  2  9  4  0  0  0
  2 15  1  0  0  0
 13  3  1  0  0  0
  7  4  4  0  0  0
  4 13  4  0  0  0
  4 14  4  0  0  0
  6  5  4  0  0  0
  5 13  4  0  0  0
  7  6  4  0  0  0
  7  8  4  0  0  0
  9 14  4  0  0  0
 10 12  1  0  0  0
 12 11  1  0  0  0
 15 16  2  0  0  0
 15 17  1  0  0  0
 16 22  1  0  0  0
 17 18  1  0  0  0
 17 19  1  0  0  0
 19 20  2  0  0  0
 19 21  1  0  0  0
 21 22  2  0  0  0
 22 23  1  0  0  0
 23 24  4  0  0  0
 23 28  4  0  0  0
 24 25  4  0  0  0
 25 26  4  0  0  0
 26 27  4  0  0  0
 27 28  4  0  0  0
  1 29  1  0  0  0
  1 30  1  0  0  0
  3 31  1  0  0  0
  3 32  1  0  0  0
  5 33  1  0  0  0
  6 34  1  0  0  0
  8 35  1  0  0  0
  9 36  1  0  0  0
 10 37  1  0  0  0
 10 38  1  0  0  0
 11 39  1  0  0  0
 11 40  1  0  0  0
 11 41  1  0  0  0
 16 42  1  0  0  0
 18 43  1  0  0  0
 21 44  1  0  0  0
 24 45  1  0  0  0
 25 46  1  0  0  0
 26 47  1  0  0  0
 27 48  1  0  0  0
 28 49  1  0  0  0
M  END
$$$$
