3kyr_ligand
  -I-interpret- 

 98100  0  0  0  0  0  0  0  0999 V2000
   41.4250   12.2060   36.9470 O   0  0  0  0  0
   39.4540   15.2170   38.2980 O   0  0  0  0  0
   39.3750   11.8420   37.8010 N   0  0  0  0  0
   38.4460   14.5730   38.0280 C   0  0  0  0  0
   42.6650   11.1170   39.1770 N   0  0  0  0  0
   38.4300   13.8830   36.6980 C   0  0  0  0  0
   42.8520   10.4920   40.4280 N   0  0  0  0  0
   38.5150   12.3570   36.7390 C   0  0  0  0  0
   41.6810   10.2110   40.9490 N   0  0  0  0  0
   40.6950   11.7840   37.8200 C   0  0  0  0  0
   40.7060   10.6660   40.0560 N   0  0  0  0  0
   41.3390   11.2010   38.9960 C   0  0  0  0  0
   39.4990   14.4370   35.9070 N   0  3  0  0  0
   37.4110   14.5090   38.7620 N   0  0  0  0  0
   37.3930   15.1730   40.0460 C   0  0  0  0  0
   38.2910   14.4230   40.9910 C   0  0  0  0  0
   38.3360   13.2080   40.9210 O   0  0  0  0  0
   35.9640   15.1830   40.5660 C   0  0  0  0  0
   35.4120   13.7870   40.8880 C   0  0  0  0  0
   35.8780   16.1100   41.7770 C   0  0  0  0  0
   39.0460   15.1110   41.8580 N   0  0  0  0  0
   39.9370   14.3730   42.7660 C   0  0  0  0  0
   39.2520   14.1490   44.0610 C   0  0  0  0  0
   38.2260   14.7680   44.2990 O   0  0  0  0  0
   41.1460   15.2660   42.9850 C   0  0  0  0  0
   41.9250   15.4750   41.6880 C   0  0  0  0  0
   42.5760   14.1790   41.1930 C   0  0  0  0  0
   42.9580   16.5690   41.8900 C   0  0  0  0  0
   41.5490   12.3690   46.9490 O   0  0  0  0  0
   40.5160   15.6840   46.8880 O   0  0  0  0  0
   39.8090   13.2660   44.8880 N   0  0  0  0  0
   40.5380   13.3340   47.1530 C   0  0  0  0  0
   39.3690   12.9060   46.2450 C   0  0  0  0  0
   40.1990   13.3590   48.6450 C   0  0  0  0  0
   40.7150   13.7830   51.0430 C   0  0  0  0  0
   41.6060   13.4990   52.1060 C   0  0  0  0  0
   41.1190   13.3380   53.4200 C   0  0  0  0  0
   39.7360   13.4440   53.6940 C   0  0  0  0  0
   38.8390   13.7140   52.6440 C   0  0  0  0  0
   39.3320   13.8860   51.3310 C   0  0  0  0  0
   41.1520   14.6540   46.7870 C   0  0  0  0  0
   41.2390   13.9410   49.6170 C   0  0  0  0  0
   43.0170   19.4610   45.7350 C   0  0  0  0  0
   41.9710   19.7250   46.4150 O   0  0  0  0  0
   43.6670   20.3450   45.1110 O   0  0  0  0  0
   43.5130   18.0440   45.6950 C   0  0  0  0  0
   42.6670   16.9920   46.1130 C   0  0  0  0  0
   43.1660   15.6880   46.0870 C   0  0  0  0  0
   44.4800   15.4490   45.6650 C   0  0  0  0  0
   45.3270   16.4830   45.2600 C   0  0  0  0  0
   44.8360   17.8070   45.2760 C   0  0  0  0  0
   42.4150   14.6110   46.3940 N   0  0  0  0  0
   38.8989   11.4835   38.6287 H   0  0  0  0  0
   37.4512   14.0683   36.2556 H   0  0  0  0  0
   37.5090   11.9806   36.9246 H   0  0  0  0  0
   38.9397   12.0298   35.7899 H   0  0  0  0  0
   39.4200   15.4539   35.8954 H   0  0  0  0  0
   40.3953   14.1690   36.3135 H   0  0  0  0  0
   39.4359   14.0790   34.9540 H   0  0  0  0  0
   36.5926   13.9890   38.4453 H   0  0  0  0  0
   37.7492   16.1994   39.9574 H   0  0  0  0  0
   35.3281   15.5581   39.7641 H   0  0  0  0  0
   35.4244   13.1758   39.9856 H   0  0  0  0  0
   36.0322   13.3201   41.6532 H   0  0  0  0  0
   34.3890   13.8775   41.2531 H   0  0  0  0  0
   36.5496   15.7504   42.5566 H   0  0  0  0  0
   36.1682   17.1185   41.4823 H   0  0  0  0  0
   34.8550   16.1202   42.1532 H   0  0  0  0  0
   39.0035   16.1297   41.8878 H   0  0  0  0  0
   40.2178   13.4043   42.3526 H   0  0  0  0  0
   41.8034   14.7875   43.7109 H   0  0  0  0  0
   40.8003   16.2362   43.3419 H   0  0  0  0  0
   41.2244   15.7833   40.9120 H   0  0  0  0  0
   43.2676   13.8092   41.9499 H   0  0  0  0  0
   41.8030   13.4327   41.0096 H   0  0  0  0  0
   43.1187   14.3766   40.2686 H   0  0  0  0  0
   42.4548   17.4956   42.1661 H   0  0  0  0  0
   43.6447   16.2764   42.6843 H   0  0  0  0  0
   43.5136   16.7177   40.9641 H   0  0  0  0  0
   42.3099   12.5844   47.4932 H   0  0  0  0  0
   40.6372   12.7830   44.5400 H   0  0  0  0  0
   39.1486   11.8424   46.3353 H   0  0  0  0  0
   38.4365   13.4002   46.5177 H   0  0  0  0  0
   40.0904   12.3133   48.9326 H   0  0  0  0  0
   39.3291   14.0100   48.7312 H   0  0  0  0  0
   42.6737   13.4043   51.9080 H   0  0  0  0  0
   41.8157   13.1298   54.2321 H   0  0  0  0  0
   39.3671   13.3174   54.7118 H   0  0  0  0  0
   37.7699   13.7900   52.8424 H   0  0  0  0  0
   38.6334   14.1025   50.5228 H   0  0  0  0  0
   41.4035   14.9958   49.3967 H   0  0  0  0  0
   42.1856   13.4115   49.5086 H   0  0  0  0  0
   41.6328   18.9164   46.8067 H   0  0  0  0  0
   41.6494   17.1936   46.4477 H   0  0  0  0  0
   44.8529   14.4248   45.6523 H   0  0  0  0  0
   46.3468   16.2722   44.9380 H   0  0  0  0  0
   45.4737   18.6355   44.9676 H   0  0  0  0  0
   42.8537   13.6933   46.3175 H   0  0  0  0  0
 10  1  2  0  0  0
  4  2  2  0  0  0
  8  3  1  0  0  0
  3 10  1  0  0  0
  4  6  1  0  0  0
 14  4  1  0  0  0
  5  7  4  0  0  0
 12  5  4  0  0  0
  6  8  1  0  0  0
  6 13  1  0  0  0
  9  7  4  0  0  0
 11  9  4  0  0  0
 10 12  1  0  0  0
 12 11  4  0  0  0
 15 14  1  0  0  0
 16 15  1  0  0  0
 15 18  1  0  0  0
 16 17  2  0  0  0
 21 16  1  0  0  0
 18 19  1  0  0  0
 18 20  1  0  0  0
 22 21  1  0  0  0
 23 22  1  0  0  0
 22 25  1  0  0  0
 23 24  2  0  0  0
 31 23  1  0  0  0
 25 26  1  0  0  0
 26 27  1  0  0  0
 26 28  1  0  0  0
 32 29  1  0  0  0
 41 30  2  0  0  0
 33 31  1  0  0  0
 32 33  1  0  0  0
 32 34  1  0  0  0
 41 32  1  0  0  0
 34 42  1  0  0  0
 35 36  4  0  0  0
 35 40  4  0  0  0
 42 35  1  0  0  0
 36 37  4  0  0  0
 37 38  4  0  0  0
 39 38  4  0  0  0
 40 39  4  0  0  0
 52 41  1  0  0  0
 43 44  1  0  0  0
 43 45  2  0  0  0
 46 43  1  0  0  0
 47 46  4  0  0  0
 46 51  4  0  0  0
 48 47  4  0  0  0
 48 49  4  0  0  0
 48 52  1  0  0  0
 49 50  4  0  0  0
 50 51  4  0  0  0
  3 53  1  0  0  0
  6 54  1  0  0  0
  8 55  1  0  0  0
  8 56  1  0  0  0
 13 57  1  0  0  0
 13 58  1  0  0  0
 13 59  1  0  0  0
 14 60  1  0  0  0
 15 61  1  0  0  0
 18 62  1  0  0  0
 19 63  1  0  0  0
 19 64  1  0  0  0
 19 65  1  0  0  0
 20 66  1  0  0  0
 20 67  1  0  0  0
 20 68  1  0  0  0
 21 69  1  0  0  0
 22 70  1  0  0  0
 25 71  1  0  0  0
 25 72  1  0  0  0
 26 73  1  0  0  0
 27 74  1  0  0  0
 27 75  1  0  0  0
 27 76  1  0  0  0
 28 77  1  0  0  0
 28 78  1  0  0  0
 28 79  1  0  0  0
 29 80  1  0  0  0
 31 81  1  0  0  0
 33 82  1  0  0  0
 33 83  1  0  0  0
 34 84  1  0  0  0
 34 85  1  0  0  0
 36 86  1  0  0  0
 37 87  1  0  0  0
 38 88  1  0  0  0
 39 89  1  0  0  0
 40 90  1  0  0  0
 42 91  1  0  0  0
 42 92  1  0  0  0
 44 93  1  0  0  0
 47 94  1  0  0  0
 49 95  1  0  0  0
 50 96  1  0  0  0
 51 97  1  0  0  0
 52 98  1  0  0  0
M  END
$$$$
