4i54_ligand
  -I-interpret- 

 47 49  0  0  0  0  0  0  0  0999 V2000
    1.2740  -15.2430  -10.4490 N   0  0  0  0  0
    0.6000  -15.0000  -11.5220 C   0  0  0  0  0
   -0.2250  -13.7910  -11.5970 N   0  0  0  0  0
   -1.0110  -13.5350  -12.8070 C   0  0  0  0  0
   -2.5080  -13.5520  -12.5310 C   0  0  0  0  0
   -3.2220  -13.0970  -13.7630 C   0  0  0  0  0
   -4.0830  -14.2770  -14.1700 C   0  0  0  0  0
   -4.9710  -14.4140  -15.3670 C   0  0  0  0  0
   -5.6850  -15.6250  -15.5130 C   0  0  0  0  0
   -5.5940  -16.6800  -14.5970 C   0  0  0  0  0
   -4.7510  -16.5720  -13.4540 C   0  0  0  0  0
   -3.9690  -15.3000  -13.2700 C   0  0  0  0  0
   -3.0270  -14.8770  -12.1630 C   0  0  0  0  0
   -3.8440  -14.7360  -10.9620 N   0  0  0  0  0
   -3.4230  -15.3060   -9.6900 C   0  0  0  0  0
   -2.2400  -15.5290   -9.5030 O   0  0  0  0  0
   -4.4040  -15.2100   -8.5580 C   0  0  0  0  0
   -5.4940  -14.6720   -8.7980 O   0  0  0  0  0
   -3.9410  -15.5040   -7.2040 N   0  0  0  0  0
   -4.5280  -14.9470   -6.0090 C   0  0  0  0  0
   -5.8440  -14.8140   -5.9380 C   0  0  0  0  0
   -6.5380  -14.5910   -4.7640 C   0  0  0  0  0
   -7.8580  -14.4480   -4.6500 F   0  0  0  0  0
   -5.6980  -14.5200   -3.5880 C   0  0  0  0  0
   -6.5530  -14.2210   -2.1190 Cl  0  0  0  0  0
   -4.2970  -14.6550   -3.6810 C   0  0  0  0  0
   -3.7470  -14.8680   -4.9320 C   0  0  0  0  0
    0.6480  -15.8380  -12.5580 N   0  0  0  0  0
    1.8502  -16.0824  -10.3878 H   0  0  0  0  0
   -0.2518  -13.1354  -10.8161 H   0  0  0  0  0
   -0.7893  -14.3207  -13.5293 H   0  0  0  0  0
   -0.7455  -12.5467  -13.1824 H   0  0  0  0  0
   -2.6799  -12.8921  -11.6806 H   0  0  0  0  0
   -2.5270  -12.8105  -14.5523 H   0  0  0  0  0
   -3.8187  -12.2035  -13.5795 H   0  0  0  0  0
   -5.0635  -13.6108  -16.0980 H   0  0  0  0  0
   -6.3366  -15.7431  -16.3788 H   0  0  0  0  0
   -6.1719  -17.5897  -14.7596 H   0  0  0  0  0
   -4.6747  -17.3868  -12.7340 H   0  0  0  0  0
   -2.2119  -15.5836  -12.0070 H   0  0  0  0  0
   -4.7271  -14.2283  -11.0147 H   0  0  0  0  0
   -3.1534  -16.1431   -7.0964 H   0  0  0  0  0
   -6.4153  -14.8849   -6.8636 H   0  0  0  0  0
   -3.6669  -14.5933   -2.7937 H   0  0  0  0  0
   -2.6671  -14.9720   -5.0378 H   0  0  0  0  0
    1.2213  -16.6801  -12.5067 H   0  0  0  0  0
    0.1115  -15.6370  -13.4019 H   0  0  0  0  0
  1  2  2  0  0  0
  2  3  1  0  0  0
  2 28  1  0  0  0
  3  4  1  0  0  0
  4  5  1  0  0  0
  5  6  1  0  0  0
  5 13  1  0  0  0
  6  7  1  0  0  0
  7  8  4  0  0  0
  7 12  4  0  0  0
  8  9  4  0  0  0
  9 10  4  0  0  0
 10 11  4  0  0  0
 11 12  4  0  0  0
 12 13  1  0  0  0
 13 14  1  0  0  0
 14 15  1  0  0  0
 15 16  2  0  0  0
 15 17  1  0  0  0
 17 18  2  0  0  0
 17 19  1  0  0  0
 19 20  1  0  0  0
 20 21  4  0  0  0
 20 27  4  0  0  0
 21 22  4  0  0  0
 22 23  1  0  0  0
 22 24  4  0  0  0
 24 25  1  0  0  0
 24 26  4  0  0  0
 26 27  4  0  0  0
  1 29  1  0  0  0
  3 30  1  0  0  0
  4 31  1  0  0  0
  4 32  1  0  0  0
  5 33  1  0  0  0
  6 34  1  0  0  0
  6 35  1  0  0  0
  8 36  1  0  0  0
  9 37  1  0  0  0
 10 38  1  0  0  0
 11 39  1  0  0  0
 13 40  1  0  0  0
 14 41  1  0  0  0
 19 42  1  0  0  0
 21 43  1  0  0  0
 26 44  1  0  0  0
 27 45  1  0  0  0
 28 46  1  0  0  0
 28 47  1  0  0  0
M  END
$$$$
