4xg3_ligand
  -I-interpret- 

 63 66  0  0  0  0  0  0  0  0999 V2000
   12.9040   11.4670    5.7440 C   0  0  0  0  0
   11.7510   12.2180    5.4940 C   0  0  0  0  0
   11.8700   13.4010    4.7760 C   0  0  0  0  0
   13.0570   13.8190    4.3600 N   0  0  0  0  0
   14.0820   11.9600    5.2910 N   0  0  0  0  0
   21.9950   10.3440    5.6220 C   0  0  0  0  0
   21.4950   11.5390    4.4010 S   0  0  0  0  0
   22.5730   11.6330    3.3630 O   0  0  0  0  0
   21.3100   12.8910    5.0180 O   0  0  0  0  0
   20.2950   11.0850    3.7610 O   0  0  0  0  0
   19.0880   11.7500    3.8880 C   0  0  0  0  0
   18.8130   12.9530    3.2090 C   0  0  0  0  0
   19.8630   13.6510    2.3370 C   0  0  0  0  0
   17.5610   13.5590    3.3320 C   0  0  0  0  0
   18.0600   11.1650    4.6500 C   0  0  0  0  0
   18.2650    9.8550    5.4160 C   0  0  0  0  0
   16.8160   11.7830    4.7690 C   0  0  0  0  0
   16.5380   12.9830    4.0980 C   0  0  0  0  0
   15.3530   13.6220    4.1540 N   0  0  0  0  0
   14.1810   13.1120    4.5940 C   0  0  0  0  0
   10.5360   11.8360    5.9080 F   0  0  0  0  0
   12.9030   10.3300    6.4610 N   0  0  0  0  0
   14.0190    9.6730    6.8050 C   0  0  0  0  0
   11.8570    9.6820    7.0130 C   0  0  0  0  0
   12.3320    8.6270    7.6710 C   0  0  0  0  0
   11.4970    7.5940    8.4350 C   0  0  0  0  0
   13.7090    8.6140    7.5480 C   0  0  0  0  0
   14.6990    7.5920    8.1190 C   0  0  0  0  0
   15.2130    8.0250    9.4290 N   0  3  0  0  0
   16.1370    9.1730    9.3320 C   0  0  0  0  0
   15.9690    6.9110   10.0380 C   0  0  0  0  0
   17.3950    7.4140   10.2020 C   0  0  0  0  0
   17.1890    8.9020   10.3760 C   0  0  0  0  0
   18.3790    9.5920   10.0030 O   0  0  0  0  0
   10.9805   13.9901    4.5529 H   0  0  0  0  0
   22.1384    9.3754    5.1431 H   0  0  0  0  0
   22.9296   10.6654    6.0817 H   0  0  0  0  0
   21.2221   10.2621    6.3862 H   0  0  0  0  0
   20.7285   13.9075    2.9479 H   0  0  0  0  0
   20.1695   12.9813    1.5335 H   0  0  0  0  0
   19.4350   14.5588    1.9118 H   0  0  0  0  0
   17.3746   14.5030    2.8199 H   0  0  0  0  0
   18.5310    9.0636    4.7152 H   0  0  0  0  0
   19.0667    9.9826    6.1434 H   0  0  0  0  0
   17.3427    9.5896    5.9327 H   0  0  0  0  0
   16.0476   11.3267    5.3930 H   0  0  0  0  0
   15.3389   14.5895    3.8314 H   0  0  0  0  0
   15.0300    9.9630    6.5188 H   0  0  0  0  0
   10.8089    9.9709    6.9343 H   0  0  0  0  0
   10.9385    8.0937    9.2265 H   0  0  0  0  0
   10.8024    7.1104    7.7481 H   0  0  0  0  0
   12.1582    6.8456    8.8719 H   0  0  0  0  0
   15.5380    7.4969    7.4297 H   0  0  0  0  0
   14.1833    6.6399    8.2445 H   0  0  0  0  0
   14.4049    8.3025    9.9860 H   0  0  0  0  0
   15.6281   10.1217    9.5023 H   0  0  0  0  0
   16.5668    9.2676    8.3348 H   0  0  0  0  0
   15.9338    6.0201    9.4110 H   0  0  0  0  0
   15.5399    6.6197   10.9967 H   0  0  0  0  0
   18.0392    7.1643    9.3590 H   0  0  0  0  0
   17.9212    6.9517   11.0372 H   0  0  0  0  0
   16.9302    9.2054   11.3904 H   0  0  0  0  0
   19.0608    9.4295   10.6591 H   0  0  0  0  0
  1  2  4  0  0  0
  5  1  4  0  0  0
  1 22  1  0  0  0
  3  2  4  0  0  0
  2 21  1  0  0  0
  4  3  4  0  0  0
 20  4  4  0  0  0
 20  5  4  0  0  0
  7  6  1  0  0  0
  7  8  2  0  0  0
  7  9  2  0  0  0
 10  7  1  0  0  0
 11 10  1  0  0  0
 12 11  4  0  0  0
 15 11  4  0  0  0
 12 13  1  0  0  0
 14 12  4  0  0  0
 18 14  4  0  0  0
 15 16  1  0  0  0
 17 15  4  0  0  0
 18 17  4  0  0  0
 19 18  1  0  0  0
 19 20  1  0  0  0
 22 23  4  0  0  0
 22 24  4  0  0  0
 23 27  4  0  0  0
 24 25  4  0  0  0
 25 26  1  0  0  0
 25 27  4  0  0  0
 27 28  1  0  0  0
 28 29  1  0  0  0
 29 30  1  0  0  0
 29 31  1  0  0  0
 30 33  1  0  0  0
 31 32  1  0  0  0
 32 33  1  0  0  0
 33 34  1  0  0  0
  3 35  1  0  0  0
  6 36  1  0  0  0
  6 37  1  0  0  0
  6 38  1  0  0  0
 13 39  1  0  0  0
 13 40  1  0  0  0
 13 41  1  0  0  0
 14 42  1  0  0  0
 16 43  1  0  0  0
 16 44  1  0  0  0
 16 45  1  0  0  0
 17 46  1  0  0  0
 19 47  1  0  0  0
 23 48  1  0  0  0
 24 49  1  0  0  0
 26 50  1  0  0  0
 26 51  1  0  0  0
 26 52  1  0  0  0
 28 53  1  0  0  0
 28 54  1  0  0  0
 29 55  1  0  0  0
 30 56  1  0  0  0
 30 57  1  0  0  0
 31 58  1  0  0  0
 31 59  1  0  0  0
 32 60  1  0  0  0
 32 61  1  0  0  0
 33 62  1  0  0  0
 34 63  1  0  0  0
M  END
$$$$
