5vcx_ligand
  -I-interpret- 

 72 77  0  0  0  0  0  0  0  0999 V2000
   17.3790   11.7490    8.5980 C   0  0  0  0  0
   18.2620   11.7700    7.3970 N   0  3  0  0  0
   17.6120   11.1520    6.2020 C   0  0  0  0  0
   18.5340   11.2520    4.9630 C   0  0  0  0  0
   19.8760   10.6620    5.2490 N   0  3  0  0  0
   20.7260   10.5550    4.0220 C   0  0  0  0  0
   21.2550    9.1320    3.7420 C   0  0  0  0  0
   20.1520    8.2240    3.5260 O   0  0  0  0  0
   20.5560    6.9860    3.1020 C   0  0  0  0  0
   19.8950    5.8070    3.4810 C   0  0  0  0  0
   20.3230    4.5030    3.0380 C   0  0  0  0  0
   19.6570    3.3140    3.4070 O   0  0  0  0  0
   18.3200    3.4870    4.0100 C   0  0  0  0  0
   17.3270    3.4760    2.8090 C   0  0  0  0  0
   16.2880    2.3380    2.9070 C   0  0  0  0  0
   16.9990    1.1130    3.1460 O   0  0  0  0  0
   17.4920    1.0190    4.4950 C   0  0  0  0  0
   18.0270    2.3620    5.0630 C   0  0  0  0  0
   21.4600    4.4260    2.1770 C   0  0  0  0  0
   22.0250    3.2270    1.6400 C   0  0  0  0  0
   21.5460    1.9650    1.8790 N   0  0  0  0  0
   22.0620    0.7750    1.4260 C   0  0  0  0  0
   23.4280    0.3960    1.5490 C   0  0  0  0  0
   24.4450    1.0900    2.1130 O   0  0  0  0  0
   25.5630    0.1880    2.0050 C   0  0  0  0  0
   25.2130   -0.9940    1.2680 O   0  0  0  0  0
   23.8950   -0.8190    1.0590 C   0  0  0  0  0
   23.0300   -1.7210    0.4240 C   0  0  0  0  0
   21.6710   -1.3790    0.2860 C   0  0  0  0  0
   21.1870   -0.1430    0.7790 C   0  0  0  0  0
   19.5360    0.1960    0.5710 Cl  0  0  0  0  0
   23.1180    3.3300    0.8340 N   0  0  0  0  0
   23.7110    4.4940    0.5060 C   0  0  0  0  0
   23.2050    5.6400    0.9980 N   0  0  0  0  0
   22.1170    5.6410    1.8080 C   0  0  0  0  0
   21.6700    6.8910    2.2610 C   0  0  0  0  0
   20.5340   11.2980    6.4310 C   0  0  0  0  0
   19.6200   11.2090    7.6740 C   0  0  0  0  0
   17.2548   10.7209    8.9381 H   0  0  0  0  0
   17.8326   12.3432    9.3913 H   0  0  0  0  0
   16.4063   12.1676    8.3396 H   0  0  0  0  0
   18.4077   12.7521    7.1633 H   0  0  0  0  0
   16.6830   11.6825    5.9930 H   0  0  0  0  0
   17.4174   10.1002    6.4118 H   0  0  0  0  0
   18.6609   12.3032    4.7042 H   0  0  0  0  0
   18.0771   10.7018    4.1405 H   0  0  0  0  0
   19.7341    9.6931    5.5345 H   0  0  0  0  0
   21.5937   11.1968    4.1745 H   0  0  0  0  0
   20.1039   10.8400    3.1735 H   0  0  0  0  0
   21.8351    8.7915    4.5997 H   0  0  0  0  0
   21.8805    9.1527    2.8496 H   0  0  0  0  0
   19.0257    5.8798    4.1346 H   0  0  0  0  0
   18.2301    4.4171    4.5711 H   0  0  0  0  0
   17.9052    3.3244    1.8975 H   0  0  0  0  0
   16.7878    4.4233    2.8113 H   0  0  0  0  0
   15.7149    2.2685    1.9824 H   0  0  0  0  0
   15.5881    2.5338    3.7194 H   0  0  0  0  0
   18.3240    0.3149    4.4883 H   0  0  0  0  0
   16.6579    0.7095    5.1247 H   0  0  0  0  0
   17.2457    2.7506    5.7162 H   0  0  0  0  0
   18.9801    2.1341    5.5402 H   0  0  0  0  0
   20.7101    1.9022    2.4602 H   0  0  0  0  0
   25.8678   -0.1075    3.0090 H   0  0  0  0  0
   26.3698    0.6980    1.4787 H   0  0  0  0  0
   23.4033   -2.6717    0.0432 H   0  0  0  0  0
   20.9863   -2.0711   -0.2041 H   0  0  0  0  0
   24.5845    4.5076   -0.1458 H   0  0  0  0  0
   22.1950    7.7960    1.9552 H   0  0  0  0  0
   20.7252   12.3475    6.2071 H   0  0  0  0  0
   21.4672   10.7750    6.6401 H   0  0  0  0  0
   19.5108   10.1596    7.9478 H   0  0  0  0  0
   20.0746   11.7866    8.4789 H   0  0  0  0  0
  1  2  1  0  0  0
  2  3  1  0  0  0
  2 38  1  0  0  0
  3  4  1  0  0  0
  4  5  1  0  0  0
  5  6  1  0  0  0
  5 37  1  0  0  0
  6  7  1  0  0  0
  7  8  1  0  0  0
  8  9  1  0  0  0
  9 10  4  0  0  0
  9 36  4  0  0  0
 10 11  4  0  0  0
 11 12  1  0  0  0
 11 19  4  0  0  0
 12 13  1  0  0  0
 13 14  1  0  0  0
 13 18  1  0  0  0
 14 15  1  0  0  0
 15 16  1  0  0  0
 16 17  1  0  0  0
 17 18  1  0  0  0
 19 20  4  0  0  0
 19 35  4  0  0  0
 20 21  1  0  0  0
 20 32  4  0  0  0
 21 22  1  0  0  0
 22 23  4  0  0  0
 22 30  4  0  0  0
 23 24  1  0  0  0
 23 27  4  0  0  0
 24 25  1  0  0  0
 25 26  1  0  0  0
 26 27  1  0  0  0
 27 28  4  0  0  0
 28 29  4  0  0  0
 29 30  4  0  0  0
 30 31  1  0  0  0
 32 33  4  0  0  0
 33 34  4  0  0  0
 34 35  4  0  0  0
 35 36  4  0  0  0
 37 38  1  0  0  0
  1 39  1  0  0  0
  1 40  1  0  0  0
  1 41  1  0  0  0
  2 42  1  0  0  0
  3 43  1  0  0  0
  3 44  1  0  0  0
  4 45  1  0  0  0
  4 46  1  0  0  0
  5 47  1  0  0  0
  6 48  1  0  0  0
  6 49  1  0  0  0
  7 50  1  0  0  0
  7 51  1  0  0  0
 10 52  1  0  0  0
 13 53  1  0  0  0
 14 54  1  0  0  0
 14 55  1  0  0  0
 15 56  1  0  0  0
 15 57  1  0  0  0
 17 58  1  0  0  0
 17 59  1  0  0  0
 18 60  1  0  0  0
 18 61  1  0  0  0
 21 62  1  0  0  0
 25 63  1  0  0  0
 25 64  1  0  0  0
 28 65  1  0  0  0
 29 66  1  0  0  0
 33 67  1  0  0  0
 36 68  1  0  0  0
 37 69  1  0  0  0
 37 70  1  0  0  0
 38 71  1  0  0  0
 38 72  1  0  0  0
M  END
$$$$
