4xtx_ligand
  -I-interpret- 

 67 71  0  0  0  0  0  0  0  0999 V2000
   -2.2700  -10.0400   13.8580 C   0  0  0  0  0
   -1.1200   -9.1860   13.5940 N   0  0  0  0  0
   -0.1730   -9.3130   14.5100 C   0  0  0  0  0
    0.9180   -8.7670   14.4690 O   0  0  0  0  0
   -0.5760  -10.1200   15.4740 N   0  0  0  0  0
   -1.9230  -10.6180   15.2460 C   0  0  0  0  0
   -2.7500   -9.9680   16.3510 C   0  0  0  0  0
   -3.4840   -8.5630   15.6030 S   0  0  0  0  0
   -3.4730   -9.1050   13.9360 C   0  0  0  0  0
   -3.3830   -7.9070   13.0000 C   0  0  0  0  0
   -3.7140   -8.3080   11.5680 C   0  0  0  0  0
   -3.8740   -7.0990   10.6560 C   0  0  0  0  0
   -4.3260   -7.5640    9.2780 C   0  0  0  0  0
   -4.7070   -6.3970    8.3980 C   0  0  0  0  0
   -5.8350   -5.9350    8.4530 O   0  0  0  0  0
   -3.7630   -5.9240    7.5850 N   0  0  0  0  0
   -4.0360   -4.7550    6.6460 S   0  0  0  0  0
   -5.1530   -5.0590    5.7960 O   0  0  0  0  0
   -2.8780   -4.5320    5.8260 O   0  0  0  0  0
   -4.3470   -3.4760    7.4400 O   0  0  0  0  0
   -3.3070   -2.6580    7.9790 C   0  0  0  0  0
   -3.7370   -1.1910    7.9190 C   0  0  0  0  0
   -4.9470   -0.9590    8.6510 O   0  0  0  0  0
   -2.7110   -0.2250    8.4860 C   0  0  0  0  0
   -1.8150    0.2100    7.4620 O   0  0  0  0  0
   -3.5670    0.9260    8.9680 C   0  0  0  0  0
   -4.8770    0.2600    9.3990 C   0  0  0  0  0
   -5.0040   -0.0790   10.8480 N   0  0  0  0  0
   -4.0280   -0.2460   11.7530 C   0  0  0  0  0
   -4.5690   -0.5550   12.9510 N   0  0  0  0  0
   -5.9050   -0.6020   12.7910 C   0  0  0  0  0
   -6.1700   -0.3070   11.4650 C   0  0  0  0  0
   -7.4540   -0.2860   11.0330 N   0  0  0  0  0
   -8.4550   -0.5530   11.8800 C   0  0  0  0  0
   -8.2220   -0.8390   13.1690 N   0  0  0  0  0
   -6.9620   -0.8730   13.6510 C   0  0  0  0  0
   -6.7410   -1.1680   14.9550 N   0  0  0  0  0
   -0.7190    0.9530   11.0450 N   0  0  0  0  0
   -1.7130    1.2780   10.5470 N   0  0  0  0  0
   -2.8940    1.7080    9.9860 N   0  0  0  0  0
   -2.4841  -10.8214   13.1289 H   0  0  0  0  0
   -1.0520   -8.5594   12.7920 H   0  0  0  0  0
   -0.0082  -10.3657   16.2849 H   0  0  0  0  0
   -2.0735  -11.6974   15.2634 H   0  0  0  0  0
   -2.1344   -9.6938   17.2077 H   0  0  0  0  0
   -3.5000  -10.6515   16.7490 H   0  0  0  0  0
   -4.3799   -9.6256   13.6285 H   0  0  0  0  0
   -2.3657   -7.5167   13.0279 H   0  0  0  0  0
   -4.0991   -7.1530   13.3267 H   0  0  0  0  0
   -4.6576   -8.8535   11.5775 H   0  0  0  0  0
   -2.8927   -8.9148   11.1867 H   0  0  0  0  0
   -2.9205   -6.5778   10.5705 H   0  0  0  0  0
   -4.6185   -6.4220   11.0749 H   0  0  0  0  0
   -5.1992   -8.2050    9.3989 H   0  0  0  0  0
   -3.5013   -8.0979    8.8059 H   0  0  0  0  0
   -2.8379   -6.3535    7.5913 H   0  0  0  0  0
   -2.3954   -2.7956    7.3974 H   0  0  0  0  0
   -3.1188   -2.9415    9.0145 H   0  0  0  0  0
   -3.8665   -1.0050    6.8528 H   0  0  0  0  0
   -2.0888   -0.6600    9.2681 H   0  0  0  0  0
   -1.1742    0.8188    7.8365 H   0  0  0  0  0
   -3.7673    1.6783    8.2051 H   0  0  0  0  0
   -5.6787    0.9750    9.2141 H   0  0  0  0  0
   -2.9612   -0.1473   11.5520 H   0  0  0  0  0
   -9.4817   -0.5376   11.5142 H   0  0  0  0  0
   -5.7880   -1.1934   15.3177 H   0  0  0  0  0
   -7.5276   -1.3647   15.5738 H   0  0  0  0  0
  1  2  1  0  0  0
  1  6  1  0  0  0
  9  1  1  0  0  0
  2  3  1  0  0  0
  3  4  2  0  0  0
  5  3  1  0  0  0
  6  5  1  0  0  0
  7  6  1  0  0  0
  8  7  1  0  0  0
  9  8  1  0  0  0
 10  9  1  0  0  0
 11 10  1  0  0  0
 12 11  1  0  0  0
 13 12  1  0  0  0
 14 13  1  0  0  0
 14 15  2  0  0  0
 16 14  1  0  0  0
 17 16  1  0  0  0
 17 18  2  0  0  0
 17 19  2  0  0  0
 20 17  1  0  0  0
 21 20  1  0  0  0
 22 21  1  0  0  0
 23 22  1  0  0  0
 24 22  1  0  0  0
 27 23  1  0  0  0
 24 25  1  0  0  0
 26 24  1  0  0  0
 26 27  1  0  0  0
 40 26  1  0  0  0
 27 28  1  0  0  0
 28 29  4  0  0  0
 28 32  4  0  0  0
 29 30  4  0  0  0
 31 30  4  0  0  0
 32 31  4  0  0  0
 31 36  4  0  0  0
 32 33  4  0  0  0
 33 34  4  0  0  0
 34 35  4  0  0  0
 36 35  4  0  0  0
 36 37  1  0  0  0
 39 38  3  0  0  0
 39 40  2  0  0  0
  1 41  1  0  0  0
  2 42  1  0  0  0
  5 43  1  0  0  0
  6 44  1  0  0  0
  7 45  1  0  0  0
  7 46  1  0  0  0
  9 47  1  0  0  0
 10 48  1  0  0  0
 10 49  1  0  0  0
 11 50  1  0  0  0
 11 51  1  0  0  0
 12 52  1  0  0  0
 12 53  1  0  0  0
 13 54  1  0  0  0
 13 55  1  0  0  0
 16 56  1  0  0  0
 21 57  1  0  0  0
 21 58  1  0  0  0
 22 59  1  0  0  0
 24 60  1  0  0  0
 25 61  1  0  0  0
 26 62  1  0  0  0
 27 63  1  0  0  0
 29 64  1  0  0  0
 34 65  1  0  0  0
 37 66  1  0  0  0
 37 67  1  0  0  0
M  END
$$$$
