5oxl_ligand
  -I-interpret- 

 33 32  0  0  0  0  0  0  0  0999 V2000
   20.8360   15.7370   -2.0360 N   0  3  0  0  0
   22.2840   15.8920   -2.0530 C   0  0  0  0  0
   22.7780   16.2940   -3.4360 C   0  0  0  0  0
   22.2910   15.7930   -4.4480 O   0  0  0  0  0
   22.9580   14.6100   -1.6050 C   0  0  0  0  0
   23.7470   17.2020   -3.4720 N   0  0  0  0  0
   24.3390   17.6430   -4.7280 C   0  0  0  0  0
   25.5410   16.7900   -5.1060 C   0  0  0  0  0
   25.8980   16.6990   -6.2810 O   0  0  0  0  0
   24.7560   19.1080   -4.6370 C   0  0  0  0  0
   23.6340   20.1320   -4.7940 C   0  0  0  0  0
   24.0870   21.4900   -4.2890 C   0  0  0  0  0
   23.1980   20.2130   -6.2490 C   0  0  0  0  0
   26.1780   16.1840   -4.2410 O   0  0  0  0  0
   20.3985   16.6070   -2.3395 H   0  0  0  0  0
   20.5686   14.9821   -2.6677 H   0  0  0  0  0
   20.5303   15.5137   -1.0889 H   0  0  0  0  0
   22.5449   16.6890   -1.3567 H   0  0  0  0  0
   22.7263   13.8131   -2.3116 H   0  0  0  0  0
   24.0367   14.7620   -1.5677 H   0  0  0  0  0
   22.5939   14.3365   -0.6147 H   0  0  0  0  0
   24.0857   17.6012   -2.5966 H   0  0  0  0  0
   23.5818   17.5314   -5.5041 H   0  0  0  0  0
   25.4478   19.2819   -5.4612 H   0  0  0  0  0
   25.1629   19.2497   -3.6358 H   0  0  0  0  0
   22.7790   19.8144   -4.1972 H   0  0  0  0  0
   24.3553   21.4134   -3.2353 H   0  0  0  0  0
   24.9533   21.8191   -4.8628 H   0  0  0  0  0
   23.2765   22.2092   -4.4075 H   0  0  0  0  0
   24.0456   20.5138   -6.8648 H   0  0  0  0  0
   22.8393   19.2365   -6.5744 H   0  0  0  0  0
   22.3977   20.9466   -6.3469 H   0  0  0  0  0
   25.7848   16.3493   -3.3810 H   0  0  0  0  0
  1  2  1  0  0  0
  2  3  1  0  0  0
  2  5  1  0  0  0
  3  4  2  0  0  0
  3  6  1  0  0  0
  6  7  1  0  0  0
  7  8  1  0  0  0
  7 10  1  0  0  0
  8  9  2  0  0  0
  8 14  1  0  0  0
 10 11  1  0  0  0
 11 12  1  0  0  0
 11 13  1  0  0  0
  1 15  1  0  0  0
  1 16  1  0  0  0
  1 17  1  0  0  0
  2 18  1  0  0  0
  5 19  1  0  0  0
  5 20  1  0  0  0
  5 21  1  0  0  0
  6 22  1  0  0  0
  7 23  1  0  0  0
 10 24  1  0  0  0
 10 25  1  0  0  0
 11 26  1  0  0  0
 12 27  1  0  0  0
 12 28  1  0  0  0
 12 29  1  0  0  0
 13 30  1  0  0  0
 13 31  1  0  0  0
 13 32  1  0  0  0
 14 33  1  0  0  0
M  END
$$$$
