5ai4_ligand
  -I-interpret- 

 23 23  0  0  0  0  0  0  0  0999 V2000
   14.0940   13.7040   18.6140 C   0  0  0  0  0
   13.9870   12.2560   18.5730 N   0  0  0  0  0
   15.3390   11.9020   18.3180 C   0  0  0  0  0
   15.2240   11.0350   17.2420 C   0  0  0  0  0
   16.5510   10.7380   17.0180 O   0  0  0  0  0
   13.6670   11.6810   19.8430 C   0  0  0  0  0
   13.1310   12.4890   20.9590 C   0  0  0  0  0
   12.8660   11.8610   22.2100 C   0  0  0  0  0
   13.1170   10.4780   22.3130 C   0  0  0  0  0
   13.6110    9.7240   21.2260 C   0  0  0  0  0
   13.8770   10.2900   20.0120 N   0  0  0  0  0
   12.7780    9.5410   23.8860 Br  0  0  0  0  0
   13.1441   14.1282   18.9394 H   0  0  0  0  0
   14.8795   13.9893   19.3138 H   0  0  0  0  0
   14.3384   14.0773   17.6195 H   0  0  0  0  0
   15.8322   11.4511   19.1791 H   0  0  0  0  0
   15.9735   12.7628   18.1071 H   0  0  0  0  0
   14.7099   11.4595   16.3797 H   0  0  0  0  0
   14.5982   10.1638   17.4356 H   0  0  0  0  0
   16.6212   10.1295   16.2788 H   0  0  0  0  0
   12.9406   13.5540   20.8261 H   0  0  0  0  0
   12.4828   12.4298   23.0572 H   0  0  0  0  0
   13.7855    8.6565   21.3602 H   0  0  0  0  0
  1  2  1  0  0  0
  2  3  1  0  0  0
  2  6  1  0  0  0
  3  4  1  0  0  0
  4  5  1  0  0  0
  6  7  4  0  0  0
  6 11  4  0  0  0
  7  8  4  0  0  0
  8  9  4  0  0  0
  9 10  4  0  0  0
  9 12  1  0  0  0
 10 11  4  0  0  0
  1 13  1  0  0  0
  1 14  1  0  0  0
  1 15  1  0  0  0
  3 16  1  0  0  0
  3 17  1  0  0  0
  4 18  1  0  0  0
  4 19  1  0  0  0
  5 20  1  0  0  0
  7 21  1  0  0  0
  8 22  1  0  0  0
 10 23  1  0  0  0
M  END
$$$$
