3o1e_ligand
  -I-interpret- 

181182  0  0  0  0  0  0  0  0999 V2000
   25.4880   31.7860   25.9520 N   0  3  0  0  0
   24.5430   31.3220   26.9600 C   0  0  0  0  0
   23.9050   32.5000   27.6910 C   0  0  0  0  0
   24.6070   33.3540   28.2320 O   0  0  0  0  0
   22.5740   32.5330   27.7040 N   0  0  0  0  0
   21.8100   33.5840   28.3910 C   0  0  0  0  0
   21.8900   34.9210   27.6690 C   0  0  0  0  0
   22.0870   35.9690   28.2840 O   0  0  0  0  0
   22.2550   33.7390   29.8400 C   0  0  0  0  0
   22.1830   32.4710   30.6260 C   0  0  0  0  0
   21.0330   31.7160   30.7150 N   0  0  0  0  0
   23.1190   31.8230   31.3600 C   0  0  0  0  0
   21.2640   30.6560   31.4700 C   0  0  0  0  0
   22.5210   30.6980   31.8740 N   0  0  0  0  0
   21.7430   34.8460   26.3520 N   0  0  0  0  0
   21.6920   35.9870   25.4600 C   0  0  0  0  0
   20.9040   37.1320   26.0810 C   0  0  0  0  0
   21.4340   38.2080   26.3390 O   0  0  0  0  0
   20.9870   35.5310   24.1780 C   0  0  0  0  0
   21.5800   35.9800   22.8630 C   0  0  0  0  0
   20.9630   35.1450   21.7300 C   0  0  0  0  0
   21.1530   35.7850   20.3570 C   0  0  0  0  0
   20.3350   37.0280   20.1760 N   0  3  0  0  0
   19.6240   36.8810   26.3140 N   0  0  0  0  0
   18.6890   37.9300   26.6930 C   0  0  0  0  0
   18.8580   38.4380   28.1410 C   0  0  0  0  0
   18.8220   39.6520   28.3830 O   0  0  0  0  0
   17.2220   37.4810   26.4300 C   0  0  0  0  0
   17.0970   36.7980   25.0500 C   0  0  0  0  0
   16.2760   38.6500   26.5310 C   0  0  0  0  0
   15.8650   35.8900   24.9320 C   0  0  0  0  0
   19.0240   37.5320   29.1050 N   0  0  0  0  0
   19.2350   37.9710   30.4910 C   0  0  0  0  0
   20.3950   38.9570   30.5390 C   0  0  0  0  0
   20.3000   40.0020   31.1640 O   0  0  0  0  0
   19.5140   36.7910   31.4230 C   0  0  0  0  0
   18.2810   36.1100   32.0170 C   0  0  0  0  0
   18.6580   34.8500   32.7470 C   0  0  0  0  0
   17.5360   37.0620   32.9300 C   0  0  0  0  0
   21.4810   38.6130   29.8510 N   0  0  0  0  0
   22.6550   39.4670   29.7290 C   0  0  0  0  0
   22.3080   40.8300   29.1820 C   0  0  0  0  0
   22.6890   41.8540   29.7430 O   0  0  0  0  0
   23.6590   38.8380   28.7780 C   0  0  0  0  0
   24.8770   38.3080   29.4540 C   0  0  0  0  0
   25.1280   36.9570   29.5830 N   0  0  0  0  0
   25.9160   38.9450   30.0430 C   0  0  0  0  0
   26.2700   36.7870   30.2210 C   0  0  0  0  0
   26.7670   37.9770   30.5140 N   0  0  0  0  0
   21.6080   40.8340   28.0580 N   0  0  0  0  0
   21.2300   42.0800   27.4350 C   0  0  0  0  0
   20.4070   42.9390   28.3950 C   0  0  0  0  0
   20.6700   44.1320   28.5550 O   0  0  0  0  0
   20.4340   41.8080   26.1650 C   0  0  0  0  0
   19.9450   43.0690   25.5010 C   0  0  0  0  0
   21.1160   43.9520   25.2160 C   0  0  0  0  0
   20.7460   45.0720   24.3710 N   0  0  0  0  0
   21.6220   45.9420   23.8900 C   0  0  0  0  0
   22.9070   45.8090   24.1880 N   0  0  0  0  0
   21.2160   46.9420   23.1200 N   0  0  0  0  0
   19.4110   42.3290   29.0310 N   0  0  0  0  0
   18.5160   43.0670   29.9220 C   0  0  0  0  0
   19.1880   43.4640   31.2280 C   0  0  0  0  0
   18.5840   44.1400   32.0540 O   0  0  0  0  0
   17.2590   42.2580   30.2350 C   0  0  0  0  0
   16.4320   41.8540   29.0180 C   0  0  0  0  0
   15.1710   41.1220   29.4500 C   0  0  0  0  0
   16.0990   43.0730   28.1710 C   0  0  0  0  0
   20.4340   43.0380   31.4080 N   0  0  0  0  0
   21.1660   43.3310   32.6290 C   0  0  0  0  0
   22.1800   44.4500   32.4220 C   0  0  0  0  0
   22.7490   44.9510   33.3820 O   0  0  0  0  0
   21.8320   42.0650   33.1810 C   0  0  0  0  0
   20.8950   41.1140   33.9430 C   0  0  0  0  0
   21.5680   39.8020   34.3370 C   0  0  0  0  0
   20.3210   41.8080   35.1630 C   0  0  0  0  0
   22.3870   44.8540   31.1700 N   0  0  0  0  0
   23.3290   45.9290   30.8490 C   0  0  0  0  0
   22.7700   47.3140   31.2100 C   0  0  0  0  0
   21.5630   47.4670   31.4240 O   0  0  0  0  0
   23.6930   45.9090   29.3570 C   0  0  0  0  0
   24.4420   44.6750   28.8420 C   0  0  0  0  0
   24.4950   44.6260   27.3070 C   0  0  0  0  0
   24.3000   45.6440   26.6350 O   0  0  0  0  0
   24.7430   43.4370   26.7510 N   0  0  0  0  0
   23.5488   48.3014   31.2884 O   0  0  0  0  0
   25.9001   30.9821   25.4784 H   0  0  0  0  0
   24.9994   32.3689   25.2723 H   0  0  0  0  0
   26.2235   32.3306   26.4023 H   0  0  0  0  0
   25.0769   30.7072   27.6846 H   0  0  0  0  0
   23.7580   30.7484   26.4671 H   0  0  0  0  0
   22.0627   31.7974   27.2163 H   0  0  0  0  0
   20.7680   33.2642   28.3801 H   0  0  0  0  0
   21.5838   34.4557   30.3133 H   0  0  0  0  0
   23.2970   34.0586   29.8296 H   0  0  0  0  0
   24.1519   32.1353   31.5138 H   0  0  0  0  0
   20.5404   29.8793   31.7172 H   0  0  0  0  0
   21.6599   33.9177   25.9376 H   0  0  0  0  0
   22.7023   36.3437   25.2597 H   0  0  0  0  0
   19.9904   35.9706   24.2173 H   0  0  0  0  0
   21.0544   34.4431   24.1756 H   0  0  0  0  0
   22.6608   35.8398   22.8784 H   0  0  0  0  0
   21.3646   37.0364   22.7025 H   0  0  0  0  0
   19.8922   35.0656   21.9173 H   0  0  0  0  0
   21.4606   34.1752   21.7193 H   0  0  0  0  0
   20.8332   35.0631   19.6055 H   0  0  0  0  0
   22.2033   36.0600   20.2598 H   0  0  0  0  0
   20.5013   37.4104   19.2451 H   0  0  0  0  0
   19.3460   36.8009   20.2799 H   0  0  0  0  0
   20.6030   37.7155   20.8802 H   0  0  0  0  0
   19.2836   35.9236   26.2251 H   0  0  0  0  0
   18.9277   38.7818   26.0561 H   0  0  0  0  0
   16.9492   36.7557   27.1966 H   0  0  0  0  0
   17.9803   36.1751   24.9093 H   0  0  0  0  0
   17.0003   37.5838   24.3008 H   0  0  0  0  0
   16.3377   39.0804   27.5305 H   0  0  0  0  0
   16.5507   39.4029   25.7922 H   0  0  0  0  0
   15.2579   38.3091   26.3430 H   0  0  0  0  0
   15.9214   35.1035   25.6846 H   0  0  0  0  0
   14.9630   36.4813   25.0895 H   0  0  0  0  0
   15.8388   35.4426   23.9384 H   0  0  0  0  0
   19.0046   36.5371   28.8809 H   0  0  0  0  0
   18.3210   38.4541   30.8365 H   0  0  0  0  0
   20.0820   37.1892   32.2638 H   0  0  0  0  0
   20.0240   36.0374   30.8229 H   0  0  0  0  0
   17.6182   35.8331   31.1972 H   0  0  0  0  0
   19.1385   34.1598   32.0536 H   0  0  0  0  0
   19.3470   35.0926   33.5560 H   0  0  0  0  0
   17.7608   34.3878   33.1586 H   0  0  0  0  0
   18.1935   37.3746   33.7412 H   0  0  0  0  0
   17.2185   37.9356   32.3607 H   0  0  0  0  0
   16.6619   36.5583   33.3426 H   0  0  0  0  0
   21.4920   37.7055   29.3855 H   0  0  0  0  0
   23.0703   39.5745   30.7311 H   0  0  0  0  0
   23.9833   39.6157   28.0865 H   0  0  0  0  0
   23.1643   37.9966   28.2928 H   0  0  0  0  0
   26.0512   40.0233   30.1273 H   0  0  0  0  0
   26.7267   35.8280   30.4654 H   0  0  0  0  0
   21.3339   39.9500   27.6292 H   0  0  0  0  0
   22.1382   42.6254   27.1783 H   0  0  0  0  0
   19.5614   41.2149   26.4386 H   0  0  0  0  0
   21.0908   41.2942   25.4630 H   0  0  0  0  0
   19.2464   43.5850   26.1597 H   0  0  0  0  0
   19.4355   42.8211   24.5699 H   0  0  0  0  0
   21.8730   43.3639   24.6971 H   0  0  0  0  0
   21.4913   44.3429   26.1618 H   0  0  0  0  0
   19.7614   45.1959   24.1353 H   0  0  0  0  0
   23.2155   45.0408   24.7839 H   0  0  0  0  0
   21.8930   47.6119   22.7549 H   0  0  0  0  0
   20.2266   47.0414   22.8927 H   0  0  0  0  0
   19.2686   41.3282   28.8950 H   0  0  0  0  0
   18.2447   43.9773   29.3874 H   0  0  0  0  0
   16.6221   42.8923   30.8516 H   0  0  0  0  0
   17.5895   41.3349   30.7112 H   0  0  0  0  0
   17.0222   41.1721   28.4059 H   0  0  0  0  0
   15.4453   40.2254   30.0059 H   0  0  0  0  0
   14.5724   41.7756   30.0845 H   0  0  0  0  0
   14.5947   40.8422   28.5681 H   0  0  0  0  0
   15.5274   43.7835   28.7681 H   0  0  0  0  0
   17.0229   43.5417   27.8321 H   0  0  0  0  0
   15.5090   42.7641   27.3081 H   0  0  0  0  0
   20.8863   42.4937   30.6734 H   0  0  0  0  0
   20.4488   43.6837   33.3701 H   0  0  0  0  0
   22.5905   42.3939   33.8914 H   0  0  0  0  0
   22.2114   41.5105   32.3227 H   0  0  0  0  0
   20.0861   40.8531   33.2605 H   0  0  0  0  0
   21.9067   39.2849   33.4392 H   0  0  0  0  0
   22.4221   40.0123   34.9807 H   0  0  0  0  0
   20.8542   39.1751   34.8714 H   0  0  0  0  0
   21.1339   42.1122   35.8224 H   0  0  0  0  0
   19.7584   42.6869   34.8483 H   0  0  0  0  0
   19.6596   41.1219   35.6921 H   0  0  0  0  0
   21.8748   44.4018   30.4126 H   0  0  0  0  0
   24.2214   45.7499   31.4487 H   0  0  0  0  0
   24.3661   46.7523   29.2029 H   0  0  0  0  0
   22.7455   45.9291   28.8185 H   0  0  0  0  0
   23.9139   43.7878   29.1914 H   0  0  0  0  0
   25.4652   44.7194   29.2152 H   0  0  0  0  0
   24.7767   43.3459   25.7356 H   0  0  0  0  0
   24.8987   42.6202   27.3418 H   0  0  0  0  0
   24.4451   48.0167   31.0954 H   0  0  0  0  0
  1  2  1  0  0  0
  2  3  1  0  0  0
  3  4  2  0  0  0
  3  5  1  0  0  0
  5  6  1  0  0  0
  6  7  1  0  0  0
  6  9  1  0  0  0
  7  8  2  0  0  0
  7 15  1  0  0  0
  9 10  1  0  0  0
 10 11  4  0  0  0
 10 12  4  0  0  0
 11 13  4  0  0  0
 12 14  4  0  0  0
 13 14  4  0  0  0
 15 16  1  0  0  0
 16 17  1  0  0  0
 16 19  1  0  0  0
 17 18  2  0  0  0
 17 24  1  0  0  0
 19 20  1  0  0  0
 20 21  1  0  0  0
 21 22  1  0  0  0
 22 23  1  0  0  0
 24 25  1  0  0  0
 25 26  1  0  0  0
 25 28  1  0  0  0
 26 27  2  0  0  0
 26 32  1  0  0  0
 28 29  1  0  0  0
 28 30  1  0  0  0
 29 31  1  0  0  0
 32 33  1  0  0  0
 33 34  1  0  0  0
 33 36  1  0  0  0
 34 35  2  0  0  0
 34 40  1  0  0  0
 36 37  1  0  0  0
 37 38  1  0  0  0
 37 39  1  0  0  0
 40 41  1  0  0  0
 41 42  1  0  0  0
 41 44  1  0  0  0
 42 43  2  0  0  0
 42 50  1  0  0  0
 44 45  1  0  0  0
 45 46  4  0  0  0
 45 47  4  0  0  0
 46 48  4  0  0  0
 47 49  4  0  0  0
 48 49  4  0  0  0
 50 51  1  0  0  0
 51 52  1  0  0  0
 51 54  1  0  0  0
 52 53  2  0  0  0
 52 61  1  0  0  0
 54 55  1  0  0  0
 55 56  1  0  0  0
 56 57  1  0  0  0
 57 58  1  0  0  0
 58 59  2  0  0  0
 58 60  1  0  0  0
 61 62  1  0  0  0
 62 63  1  0  0  0
 62 65  1  0  0  0
 63 64  2  0  0  0
 63 69  1  0  0  0
 65 66  1  0  0  0
 66 67  1  0  0  0
 66 68  1  0  0  0
 69 70  1  0  0  0
 70 71  1  0  0  0
 70 73  1  0  0  0
 71 72  2  0  0  0
 71 77  1  0  0  0
 73 74  1  0  0  0
 74 75  1  0  0  0
 74 76  1  0  0  0
 77 78  1  0  0  0
 78 79  1  0  0  0
 78 81  1  0  0  0
 79 80  2  0  0  0
 81 82  1  0  0  0
 82 83  1  0  0  0
 83 84  2  0  0  0
 83 85  1  0  0  0
 79 86  1  0  0  0
  1 87  1  0  0  0
  1 88  1  0  0  0
  1 89  1  0  0  0
  2 90  1  0  0  0
  2 91  1  0  0  0
  5 92  1  0  0  0
  6 93  1  0  0  0
  9 94  1  0  0  0
  9 95  1  0  0  0
 12 96  1  0  0  0
 13 97  1  0  0  0
 15 98  1  0  0  0
 16 99  1  0  0  0
 19100  1  0  0  0
 19101  1  0  0  0
 20102  1  0  0  0
 20103  1  0  0  0
 21104  1  0  0  0
 21105  1  0  0  0
 22106  1  0  0  0
 22107  1  0  0  0
 23108  1  0  0  0
 23109  1  0  0  0
 23110  1  0  0  0
 24111  1  0  0  0
 25112  1  0  0  0
 28113  1  0  0  0
 29114  1  0  0  0
 29115  1  0  0  0
 30116  1  0  0  0
 30117  1  0  0  0
 30118  1  0  0  0
 31119  1  0  0  0
 31120  1  0  0  0
 31121  1  0  0  0
 32122  1  0  0  0
 33123  1  0  0  0
 36124  1  0  0  0
 36125  1  0  0  0
 37126  1  0  0  0
 38127  1  0  0  0
 38128  1  0  0  0
 38129  1  0  0  0
 39130  1  0  0  0
 39131  1  0  0  0
 39132  1  0  0  0
 40133  1  0  0  0
 41134  1  0  0  0
 44135  1  0  0  0
 44136  1  0  0  0
 47137  1  0  0  0
 48138  1  0  0  0
 50139  1  0  0  0
 51140  1  0  0  0
 54141  1  0  0  0
 54142  1  0  0  0
 55143  1  0  0  0
 55144  1  0  0  0
 56145  1  0  0  0
 56146  1  0  0  0
 57147  1  0  0  0
 59148  1  0  0  0
 60149  1  0  0  0
 60150  1  0  0  0
 61151  1  0  0  0
 62152  1  0  0  0
 65153  1  0  0  0
 65154  1  0  0  0
 66155  1  0  0  0
 67156  1  0  0  0
 67157  1  0  0  0
 67158  1  0  0  0
 68159  1  0  0  0
 68160  1  0  0  0
 68161  1  0  0  0
 69162  1  0  0  0
 70163  1  0  0  0
 73164  1  0  0  0
 73165  1  0  0  0
 74166  1  0  0  0
 75167  1  0  0  0
 75168  1  0  0  0
 75169  1  0  0  0
 76170  1  0  0  0
 76171  1  0  0  0
 76172  1  0  0  0
 77173  1  0  0  0
 78174  1  0  0  0
 81175  1  0  0  0
 81176  1  0  0  0
 82177  1  0  0  0
 82178  1  0  0  0
 85179  1  0  0  0
 85180  1  0  0  0
 86181  1  0  0  0
M  END
$$$$
