### 
### Created by X-TOOL on Mon Sep 10 21:13:07 2018
### 

@<TRIPOS>MOLECULE
3o1e_ligand
  183   184     1     0     0
SMALL
GAST_HUCK


@<TRIPOS>ATOM
      1 N          25.4880   31.7860   25.9520 N.4       1 LYS         0.2357
      2 CA         24.5430   31.3220   26.9600 C.3       1 LYS         0.0545
      3 C          23.9050   32.5000   27.6910 C.2       1 LYS         0.2237
      4 O          24.6070   33.3540   28.2320 O.2       1 LYS        -0.3910
      5 N          22.5740   32.5330   27.7040 N.am      1 HIS        -0.2600
      6 CA         21.8100   33.5840   28.3910 C.3       1 HIS         0.1370
      7 C          21.8900   34.9210   27.6690 C.2       1 HIS         0.2054
      8 O          22.0870   35.9690   28.2840 O.2       1 HIS        -0.3942
      9 CB         22.2550   33.7390   29.8400 C.3       1 HIS         0.0145
     10 CG         22.1830   32.4710   30.6260 C.2       1 HIS        -0.0027
     11 ND1        21.0330   31.7160   30.7150 N.2       1 HIS        -0.3252
     12 CD2        23.1190   31.8230   31.3600 C.2       1 HIS         0.0291
     13 CE1        21.2640   30.6560   31.4700 C.2       1 HIS         0.0907
     14 NE2        22.5210   30.6980   31.8740 N.pl3     1 HIS        -0.2752
     15 N          21.7430   34.8460   26.3520 N.am      1 LYS        -0.2636
     16 CA         21.6920   35.9870   25.4600 C.3       1 LYS         0.1310
     17 C          20.9040   37.1320   26.0810 C.2       1 LYS         0.2039
     18 O          21.4340   38.2080   26.3390 O.2       1 LYS        -0.3944
     19 CB         20.9870   35.5310   24.1780 C.3       1 LYS        -0.0122
     20 CG         21.5800   35.9800   22.8630 C.3       1 LYS        -0.0440
     21 CD         20.9630   35.1450   21.7300 C.3       1 LYS        -0.0124
     22 CE         21.1530   35.7850   20.3570 C.3       1 LYS        -0.0354
     23 NZ         20.3350   37.0280   20.1760 N.4       1 LYS         0.2185
     24 N          19.6240   36.8810   26.3140 N.am      1 ILE        -0.2635
     25 CA         18.6890   37.9300   26.6930 C.3       1 ILE         0.1335
     26 C          18.8580   38.4380   28.1410 C.2       1 ILE         0.2042
     27 O          18.8220   39.6520   28.3830 O.2       1 ILE        -0.3944
     28 CB         17.2220   37.4810   26.4300 C.3       1 ILE        -0.0037
     29 CG1        17.0970   36.7980   25.0500 C.3       1 ILE        -0.0491
     30 CG2        16.2760   38.6500   26.5310 C.3       1 ILE        -0.0582
     31 CD1        15.8650   35.8900   24.9320 C.3       1 ILE        -0.0648
     32 N          19.0240   37.5320   29.1050 N.am      1 LEU        -0.2637
     33 CA         19.2350   37.9710   30.4910 C.3       1 LEU         0.1312
     34 C          20.3950   38.9570   30.5390 C.2       1 LEU         0.2040
     35 O          20.3000   40.0020   31.1640 O.2       1 LEU        -0.3944
     36 CB         19.5140   36.7910   31.4230 C.3       1 LEU        -0.0101
     37 CG         18.2810   36.1100   32.0170 C.3       1 LEU        -0.0425
     38 CD1        18.6580   34.8500   32.7470 C.3       1 LEU        -0.0625
     39 CD2        17.5360   37.0620   32.9300 C.3       1 LEU        -0.0625
     40 N          21.4810   38.6130   29.8510 N.am      1 HIS        -0.2625
     41 CA         22.6550   39.4670   29.7290 C.3       1 HIS         0.1369
     42 C          22.3080   40.8300   29.1820 C.2       1 HIS         0.2054
     43 O          22.6890   41.8540   29.7430 O.2       1 HIS        -0.3942
     44 CB         23.6590   38.8380   28.7780 C.3       1 HIS         0.0145
     45 CG         24.8770   38.3080   29.4540 C.2       1 HIS        -0.0027
     46 ND1        25.1280   36.9570   29.5830 N.2       1 HIS        -0.3252
     47 CD2        25.9160   38.9450   30.0430 C.2       1 HIS         0.0291
     48 CE1        26.2700   36.7870   30.2210 C.2       1 HIS         0.0907
     49 NE2        26.7670   37.9770   30.5140 N.pl3     1 HIS        -0.2752
     50 N          21.6080   40.8340   28.0580 N.am      1 ARG        -0.2636
     51 CA         21.2300   42.0800   27.4350 C.3       1 ARG         0.1311
     52 C          20.4070   42.9390   28.3950 C.2       1 ARG         0.2039
     53 O          20.6700   44.1320   28.5550 O.2       1 ARG        -0.3944
     54 CB         20.4340   41.8080   26.1650 C.3       1 ARG        -0.0092
     55 CG         19.9450   43.0690   25.5010 C.3       1 ARG        -0.0156
     56 CD         21.1160   43.9520   25.2160 C.3       1 ARG         0.0627
     57 NE         20.7460   45.0720   24.3710 N.pl3     1 ARG        -0.2723
     58 CZ         21.6220   45.9420   23.8900 C.cat     1 ARG         0.2882
     59 NH1        22.9070   45.8090   24.1880 N.pl3     1 ARG        -0.2849
     60 NH2        21.2160   46.9420   23.1200 N.pl3     1 ARG        -0.2849
     61 N          19.4110   42.3290   29.0310 N.am      1 LEU        -0.2637
     62 CA         18.5160   43.0670   29.9220 C.3       1 LEU         0.1312
     63 C          19.1880   43.4640   31.2280 C.2       1 LEU         0.2039
     64 O          18.5840   44.1400   32.0540 O.2       1 LEU        -0.3944
     65 CB         17.2590   42.2580   30.2350 C.3       1 LEU        -0.0101
     66 CG         16.4320   41.8540   29.0180 C.3       1 LEU        -0.0425
     67 CD1        15.1710   41.1220   29.4500 C.3       1 LEU        -0.0625
     68 CD2        16.0990   43.0730   28.1710 C.3       1 LEU        -0.0625
     69 N          20.4340   43.0380   31.4080 N.am      1 LEU        -0.2637
     70 CA         21.1660   43.3310   32.6290 C.3       1 LEU         0.1312
     71 C          22.1800   44.4500   32.4220 C.2       1 LEU         0.2034
     72 O          22.7490   44.9510   33.3820 O.2       1 LEU        -0.3944
     73 CB         21.8320   42.0650   33.1810 C.3       1 LEU        -0.0101
     74 CG         20.8950   41.1140   33.9430 C.3       1 LEU        -0.0425
     75 CD1        21.5680   39.8020   34.3370 C.3       1 LEU        -0.0625
     76 CD2        20.3210   41.8080   35.1630 C.3       1 LEU        -0.0625
     77 N          22.3870   44.8540   31.1700 N.am      1 GLN        -0.2693
     78 CA         23.3290   45.9290   30.8490 C.3       1 GLN         0.0964
     79 C          22.7700   47.3140   31.2100 C.2       1 GLN         0.0602
     80 O          21.5630   47.4670   31.4240 O.co2     1 GLN        -0.5666
     81 CB         23.6930   45.9090   29.3570 C.3       1 GLN        -0.0010
     82 CG         24.4420   44.6750   28.8420 C.3       1 GLN         0.0407
     83 CD         24.4950   44.6260   27.3070 C.2       1 GLN         0.1737
     84 OE1        24.3000   45.6440   26.6350 O.2       1 GLN        -0.3973
     85 NE2        24.7430   43.4370   26.7510 N.am      1 GLN        -0.3009
     86 H          25.9001   30.9821   25.4784 H         1 LYS         0.2012
     87 H          24.9994   32.3689   25.2723 H         1 LYS         0.2012
     88 H          26.2235   32.3306   26.4023 H         1 LYS         0.2012
     89 H          25.0769   30.7072   27.6846 H         1 LYS         0.1061
     90 H          23.7580   30.7484   26.4671 H         1 LYS         0.1061
     91 H          22.0627   31.7974   27.2163 H         1 HIS         0.1886
     92 H          20.7680   33.2642   28.3801 H         1 HIS         0.0817
     93 H          21.5838   34.4557   30.3133 H         1 HIS         0.0420
     94 H          23.2970   34.0586   29.8296 H         1 HIS         0.0420
     95 H          24.1519   32.1353   31.5138 H         1 HIS         0.0729
     96 H          20.5404   29.8793   31.7172 H         1 HIS         0.1199
     97 H          22.9745   30.0066   32.4713 H         1 HIS         0.2361
     98 H          21.6599   33.9177   25.9376 H         1 LYS         0.1883
     99 H          22.7023   36.3437   25.2597 H         1 LYS         0.0800
    100 H          19.9904   35.9706   24.2173 H         1 LYS         0.0312
    101 H          21.0544   34.4431   24.1756 H         1 LYS         0.0312
    102 H          22.6608   35.8398   22.8784 H         1 LYS         0.0269
    103 H          21.3646   37.0364   22.7025 H         1 LYS         0.0269
    104 H          19.8922   35.0656   21.9173 H         1 LYS         0.0317
    105 H          21.4606   34.1752   21.7193 H         1 LYS         0.0317
    106 H          20.8332   35.0631   19.6055 H         1 LYS         0.0813
    107 H          22.2033   36.0600   20.2598 H         1 LYS         0.0813
    108 H          20.5013   37.4104   19.2451 H         1 LYS         0.1994
    109 H          19.3460   36.8009   20.2799 H         1 LYS         0.1994
    110 H          20.6030   37.7155   20.8802 H         1 LYS         0.1994
    111 H          19.2836   35.9236   26.2251 H         1 ILE         0.1883
    112 H          18.9277   38.7818   26.0561 H         1 ILE         0.0803
    113 H          16.9492   36.7557   27.1966 H         1 ILE         0.0345
    114 H          17.9803   36.1751   24.9093 H         1 ILE         0.0267
    115 H          17.0003   37.5838   24.3008 H         1 ILE         0.0267
    116 H          16.3377   39.0804   27.5305 H         1 ILE         0.0235
    117 H          16.5507   39.4029   25.7922 H         1 ILE         0.0235
    118 H          15.2579   38.3091   26.3430 H         1 ILE         0.0235
    119 H          15.9214   35.1035   25.6846 H         1 ILE         0.0230
    120 H          14.9630   36.4813   25.0895 H         1 ILE         0.0230
    121 H          15.8388   35.4426   23.9384 H         1 ILE         0.0230
    122 H          19.0046   36.5371   28.8809 H         1 LEU         0.1883
    123 H          18.3210   38.4541   30.8365 H         1 LEU         0.0800
    124 H          20.0820   37.1892   32.2638 H         1 LEU         0.0315
    125 H          20.0240   36.0374   30.8229 H         1 LEU         0.0315
    126 H          17.6182   35.8331   31.1972 H         1 LEU         0.0298
    127 H          19.1385   34.1598   32.0536 H         1 LEU         0.0232
    128 H          19.3470   35.0926   33.5560 H         1 LEU         0.0232
    129 H          17.7608   34.3878   33.1586 H         1 LEU         0.0232
    130 H          18.1935   37.3746   33.7412 H         1 LEU         0.0232
    131 H          17.2185   37.9356   32.3607 H         1 LEU         0.0232
    132 H          16.6619   36.5583   33.3426 H         1 LEU         0.0232
    133 H          21.4920   37.7055   29.3855 H         1 HIS         0.1885
    134 H          23.0703   39.5745   30.7311 H         1 HIS         0.0817
    135 H          23.9833   39.6157   28.0865 H         1 HIS         0.0420
    136 H          23.1643   37.9966   28.2928 H         1 HIS         0.0420
    137 H          26.0512   40.0233   30.1273 H         1 HIS         0.0729
    138 H          26.7267   35.8280   30.4654 H         1 HIS         0.1199
    139 H          27.6417   38.1478   31.0100 H         1 HIS         0.2361
    140 H          21.3339   39.9500   27.6292 H         1 ARG         0.1883
    141 H          22.1382   42.6254   27.1783 H         1 ARG         0.0800
    142 H          19.5614   41.2149   26.4386 H         1 ARG         0.0313
    143 H          21.0908   41.2942   25.4630 H         1 ARG         0.0313
    144 H          19.2464   43.5850   26.1597 H         1 ARG         0.0301
    145 H          19.4355   42.8211   24.5699 H         1 ARG         0.0301
    146 H          21.8730   43.3639   24.6971 H         1 ARG         0.0689
    147 H          21.4913   44.3429   26.1618 H         1 ARG         0.0689
    148 H          19.7614   45.1959   24.1353 H         1 ARG         0.2642
    149 H          23.2155   45.0408   24.7839 H         1 ARG         0.2615
    150 H          23.5871   46.4749   23.8214 H         1 ARG         0.2615
    151 H          20.2261   47.0437   22.8959 H         1 ARG         0.2615
    152 H          21.8935   47.6096   22.7517 H         1 ARG         0.2615
    153 H          19.2686   41.3282   28.8950 H         1 LEU         0.1883
    154 H          18.2447   43.9773   29.3874 H         1 LEU         0.0800
    155 H          16.6221   42.8923   30.8516 H         1 LEU         0.0315
    156 H          17.5895   41.3349   30.7112 H         1 LEU         0.0315
    157 H          17.0222   41.1721   28.4059 H         1 LEU         0.0298
    158 H          15.4453   40.2254   30.0059 H         1 LEU         0.0232
    159 H          14.5724   41.7756   30.0845 H         1 LEU         0.0232
    160 H          14.5947   40.8422   28.5681 H         1 LEU         0.0232
    161 H          15.5274   43.7835   28.7681 H         1 LEU         0.0232
    162 H          17.0229   43.5417   27.8321 H         1 LEU         0.0232
    163 H          15.5090   42.7641   27.3081 H         1 LEU         0.0232
    164 H          20.8863   42.4937   30.6734 H         1 LEU         0.1883
    165 H          20.4488   43.6837   33.3701 H         1 LEU         0.0800
    166 H          22.5905   42.3939   33.8914 H         1 LEU         0.0315
    167 H          22.2114   41.5105   32.3227 H         1 LEU         0.0315
    168 H          20.0861   40.8531   33.2605 H         1 LEU         0.0298
    169 H          21.9067   39.2849   33.4392 H         1 LEU         0.0232
    170 H          22.4221   40.0123   34.9807 H         1 LEU         0.0232
    171 H          20.8542   39.1751   34.8714 H         1 LEU         0.0232
    172 H          21.1339   42.1122   35.8224 H         1 LEU         0.0232
    173 H          19.7584   42.6869   34.8483 H         1 LEU         0.0232
    174 H          19.6596   41.1219   35.6921 H         1 LEU         0.0232
    175 H          21.8748   44.4018   30.4126 H         1 GLN         0.1875
    176 H          24.2214   45.7499   31.4487 H         1 GLN         0.0727
    177 O          23.5488   48.3014   31.2884 O.co2     1 GLN        -0.5666
    178 H          24.3661   46.7523   29.2029 H         1 GLN         0.0330
    179 H          22.7455   45.9291   28.8185 H         1 GLN         0.0330
    180 H          23.9139   43.7878   29.1914 H         1 GLN         0.0504
    181 H          25.4652   44.7194   29.2152 H         1 GLN         0.0504
    182 H          24.7767   43.3459   25.7356 H         1 GLN         0.1814
    183 H          24.8987   42.6202   27.3418 H         1 GLN         0.1814
@<TRIPOS>BOND
     1    1    2 1  
     2    2    3 1  
     3    3    4 2  
     4    3    5 am 
     5    5    6 1  
     6    6    7 1  
     7    6    9 1  
     8    7    8 2  
     9    7   15 am 
    10    9   10 1  
    11   10   11 1  
    12   10   12 2  
    13   11   13 2  
    14   12   14 1  
    15   13   14 1  
    16   15   16 1  
    17   16   17 1  
    18   16   19 1  
    19   17   18 2  
    20   17   24 am 
    21   19   20 1  
    22   20   21 1  
    23   21   22 1  
    24   22   23 1  
    25   24   25 1  
    26   25   26 1  
    27   25   28 1  
    28   26   27 2  
    29   26   32 am 
    30   28   29 1  
    31   28   30 1  
    32   29   31 1  
    33   32   33 1  
    34   33   34 1  
    35   33   36 1  
    36   34   35 2  
    37   34   40 am 
    38   36   37 1  
    39   37   38 1  
    40   37   39 1  
    41   40   41 1  
    42   41   42 1  
    43   41   44 1  
    44   42   43 2  
    45   42   50 am 
    46   44   45 1  
    47   45   46 1  
    48   45   47 2  
    49   46   48 2  
    50   47   49 1  
    51   48   49 1  
    52   50   51 1  
    53   51   52 1  
    54   51   54 1  
    55   52   53 2  
    56   52   61 am 
    57   54   55 1  
    58   55   56 1  
    59   56   57 1  
    60   57   58 ar 
    61   58   59 ar 
    62   58   60 ar 
    63   61   62 1  
    64   62   63 1  
    65   62   65 1  
    66   63   64 2  
    67   63   69 am 
    68   65   66 1  
    69   66   67 1  
    70   66   68 1  
    71   69   70 1  
    72   70   71 1  
    73   70   73 1  
    74   71   72 2  
    75   71   77 am 
    76   73   74 1  
    77   74   75 1  
    78   74   76 1  
    79   77   78 1  
    80   78   79 1  
    81   78   81 1  
    82   79   80 ar 
    83   81   82 1  
    84   82   83 1  
    85   83   84 2  
    86   83   85 am 
    87    1   86 1  
    88    1   87 1  
    89    1   88 1  
    90    2   89 1  
    91    2   90 1  
    92    5   91 1  
    93    6   92 1  
    94    9   93 1  
    95    9   94 1  
    96   12   95 1  
    97   13   96 1  
    98   14   97 1  
    99   15   98 1  
   100   16   99 1  
   101   19  100 1  
   102   19  101 1  
   103   20  102 1  
   104   20  103 1  
   105   21  104 1  
   106   21  105 1  
   107   22  106 1  
   108   22  107 1  
   109   23  108 1  
   110   23  109 1  
   111   23  110 1  
   112   24  111 1  
   113   25  112 1  
   114   28  113 1  
   115   29  114 1  
   116   29  115 1  
   117   30  116 1  
   118   30  117 1  
   119   30  118 1  
   120   31  119 1  
   121   31  120 1  
   122   31  121 1  
   123   32  122 1  
   124   33  123 1  
   125   36  124 1  
   126   36  125 1  
   127   37  126 1  
   128   38  127 1  
   129   38  128 1  
   130   38  129 1  
   131   39  130 1  
   132   39  131 1  
   133   39  132 1  
   134   40  133 1  
   135   41  134 1  
   136   44  135 1  
   137   44  136 1  
   138   47  137 1  
   139   48  138 1  
   140   49  139 1  
   141   50  140 1  
   142   51  141 1  
   143   54  142 1  
   144   54  143 1  
   145   55  144 1  
   146   55  145 1  
   147   56  146 1  
   148   56  147 1  
   149   57  148 1  
   150   59  149 1  
   151   59  150 1  
   152   60  151 1  
   153   60  152 1  
   154   61  153 1  
   155   62  154 1  
   156   65  155 1  
   157   65  156 1  
   158   66  157 1  
   159   67  158 1  
   160   67  159 1  
   161   67  160 1  
   162   68  161 1  
   163   68  162 1  
   164   68  163 1  
   165   69  164 1  
   166   70  165 1  
   167   73  166 1  
   168   73  167 1  
   169   74  168 1  
   170   75  169 1  
   171   75  170 1  
   172   75  171 1  
   173   76  172 1  
   174   76  173 1  
   175   76  174 1  
   176   77  175 1  
   177   78  176 1  
   178   79  177 ar 
   179   81  178 1  
   180   81  179 1  
   181   82  180 1  
   182   82  181 1  
   183   85  182 1  
   184   85  183 1  
@<TRIPOS>SUBSTRUCTURE
     1 LYS         1

