4anv_ligand
  -I-interpret- 

 65 69  0  0  0  0  0  0  0  0999 V2000
   49.5190   12.1530   30.1190 C   0  0  0  0  0
   48.6320   11.5740   29.1460 O   0  0  0  0  0
   47.3540   11.5160   29.6160 C   0  0  0  0  0
   46.5100   10.4490   29.2310 C   0  0  0  0  0
   45.2180   10.4000   29.7400 C   0  0  0  0  0
   46.8770   12.5090   30.4980 C   0  0  0  0  0
   45.5610   12.4730   30.9750 C   0  0  0  0  0
   44.7180   11.4050   30.5940 C   0  0  0  0  0
   43.4200   11.3460   31.1240 C   0  0  0  0  0
   43.1930   11.8060   32.4350 C   0  0  0  0  0
   42.3650   10.8010   30.4100 C   0  0  0  0  0
   41.1000   10.7390   30.9710 C   0  0  0  0  0
   40.8930   11.2090   32.2630 C   0  0  0  0  0
   41.9320   11.7330   33.0370 C   0  0  0  0  0
   41.7110   12.4400   34.7730 S   0  0  0  0  0
   42.6970   11.7930   35.6320 O   0  0  0  0  0
   40.2820   12.4020   35.2090 O   0  0  0  0  0
   42.0880   14.0350   34.4430 N   0  0  0  0  0
   43.1260   14.5740   35.3020 C   0  0  0  0  0
   43.4560   15.9750   34.8710 C   0  0  0  0  0
   40.8420   14.7960   34.3690 C   0  0  0  0  0
   41.1060   16.1100   33.6750 C   0  0  0  0  0
   42.3590   16.7140   34.1910 N   0  0  0  0  0
   42.5560   18.1130   34.0580 C   0  0  0  0  0
   41.5610   18.9590   34.4080 N   0  0  0  0  0
   41.7120   20.2770   34.3450 C   0  0  0  0  0
   42.9210   20.8030   33.9160 C   0  0  0  0  0
   43.9000   19.9750   33.5460 N   0  0  0  0  0
   43.7810   18.6310   33.6330 C   0  0  0  0  0
   44.8840   17.8540   33.2020 C   0  0  0  0  0
   46.1760   18.1110   33.6710 C   0  0  0  0  0
   47.2700   17.3900   33.1860 C   0  0  0  0  0
   47.0880   16.4110   32.2030 C   0  0  0  0  0
   48.1160   15.6710   31.7130 O   0  0  0  0  0
   49.4740   16.1460   31.6710 C   0  0  0  0  0
   45.8090   16.1550   31.7130 C   0  0  0  0  0
   44.7220   16.8910   32.1830 C   0  0  0  0  0
   49.1882   13.1647   30.3537 H   0  0  0  0  0
   49.5084   11.5466   31.0247 H   0  0  0  0  0
   50.5302   12.1849   29.7134 H   0  0  0  0  0
   46.8665    9.6787   28.5472 H   0  0  0  0  0
   44.5737    9.5626   29.4722 H   0  0  0  0  0
   47.5413   13.3141   30.8119 H   0  0  0  0  0
   45.1912   13.2597   31.6326 H   0  0  0  0  0
   44.0240   12.2315   32.9976 H   0  0  0  0  0
   42.5312   10.4194   29.4026 H   0  0  0  0  0
   40.2692   10.3229   30.4011 H   0  0  0  0  0
   39.8890   11.1675   32.6854 H   0  0  0  0  0
   44.0179   13.9517   35.2282 H   0  0  0  0  0
   42.7744   14.5847   36.3337 H   0  0  0  0  0
   44.2680   15.8932   34.1485 H   0  0  0  0  0
   43.6873   16.5316   35.7792 H   0  0  0  0  0
   40.4657   14.9819   35.3750 H   0  0  0  0  0
   40.0986   14.2286   33.8091 H   0  0  0  0  0
   40.2754   16.7895   33.8659 H   0  0  0  0  0
   41.2067   15.9357   32.6037 H   0  0  0  0  0
   40.8934   20.9388   34.6278 H   0  0  0  0  0
   43.0704   21.8822   33.8813 H   0  0  0  0  0
   46.3315   18.8834   34.4242 H   0  0  0  0  0
   48.2684   17.5907   33.5746 H   0  0  0  0  0
   49.5234   17.0478   31.0607 H   0  0  0  0  0
   49.8101   16.3718   32.6830 H   0  0  0  0  0
   50.1133   15.3769   31.2376 H   0  0  0  0  0
   45.6582   15.3793   30.9622 H   0  0  0  0  0
   43.7332   16.7202   31.7574 H   0  0  0  0  0
  1  2  1  0  0  0
  2  3  1  0  0  0
  3  4  4  0  0  0
  3  6  4  0  0  0
  4  5  4  0  0  0
  5  8  4  0  0  0
  6  7  4  0  0  0
  7  8  4  0  0  0
  8  9  1  0  0  0
  9 10  4  0  0  0
  9 11  4  0  0  0
 10 14  4  0  0  0
 11 12  4  0  0  0
 12 13  4  0  0  0
 13 14  4  0  0  0
 14 15  1  0  0  0
 15 16  2  0  0  0
 15 17  2  0  0  0
 15 18  1  0  0  0
 18 19  1  0  0  0
 18 21  1  0  0  0
 19 20  1  0  0  0
 20 23  1  0  0  0
 21 22  1  0  0  0
 22 23  1  0  0  0
 23 24  1  0  0  0
 24 25  4  0  0  0
 24 29  4  0  0  0
 25 26  4  0  0  0
 26 27  4  0  0  0
 27 28  4  0  0  0
 28 29  4  0  0  0
 29 30  1  0  0  0
 30 31  4  0  0  0
 30 37  4  0  0  0
 31 32  4  0  0  0
 32 33  4  0  0  0
 33 34  1  0  0  0
 33 36  4  0  0  0
 34 35  1  0  0  0
 36 37  4  0  0  0
  1 38  1  0  0  0
  1 39  1  0  0  0
  1 40  1  0  0  0
  4 41  1  0  0  0
  5 42  1  0  0  0
  6 43  1  0  0  0
  7 44  1  0  0  0
 10 45  1  0  0  0
 11 46  1  0  0  0
 12 47  1  0  0  0
 13 48  1  0  0  0
 19 49  1  0  0  0
 19 50  1  0  0  0
 20 51  1  0  0  0
 20 52  1  0  0  0
 21 53  1  0  0  0
 21 54  1  0  0  0
 22 55  1  0  0  0
 22 56  1  0  0  0
 26 57  1  0  0  0
 27 58  1  0  0  0
 31 59  1  0  0  0
 32 60  1  0  0  0
 35 61  1  0  0  0
 35 62  1  0  0  0
 35 63  1  0  0  0
 36 64  1  0  0  0
 37 65  1  0  0  0
M  END
$$$$
