### 
### Created by X-TOOL on Sun Sep  9 21:51:22 2018
### 

@<TRIPOS>MOLECULE
3kl8_ligand
  300   301     1     0     0
SMALL
GAST_HUCK


@<TRIPOS>ATOM
      1 N          32.1420  -34.7350   43.4940 N.4       1 NON         0.2379
      2 CA         32.7850  -34.0970   44.6370 C.3       1 NON         0.0650
      3 C          32.1070  -32.7760   44.9850 C.2       1 NON         0.2267
      4 O          31.7810  -32.5210   46.1440 O.2       1 NON        -0.3907
      5 CB         34.2720  -33.8670   44.3560 C.3       1 NON         0.0080
      6 CG         35.0530  -35.1400   44.0700 C.3       1 NON        -0.0410
      7 CD         36.5180  -34.8380   43.7980 C.3       1 NON        -0.0123
      8 CE         37.2990  -36.1100   43.5090 C.3       1 NON        -0.0354
      9 NZ         38.7360  -35.8300   43.2380 N.4       1 NON         0.2185
     10 N          31.8980  -31.9400   43.9730 N.am      1 NON        -0.2610
     11 CA         32.2980  -32.2740   42.6020 C.3       1 NON         0.1314
     12 C          32.9350  -30.9530   42.0930 C.2       1 NON         0.2064
     13 O          32.3090  -29.8910   42.2010 O.2       1 NON        -0.3942
     14 CB         31.0690  -32.6110   41.7290 C.3       1 NON        -0.0092
     15 CG         31.3480  -32.6970   40.2180 C.3       1 NON        -0.0156
     16 CD         30.0790  -33.0980   39.4630 C.3       1 NON         0.0627
     17 NE         29.4350  -34.2540   40.0830 N.pl3     1 NON        -0.2723
     18 CZ         28.1880  -34.6490   39.8430 C.cat     1 NON         0.2882
     19 NH1        27.7030  -35.7140   40.4680 N.pl3     1 NON        -0.2849
     20 NH2        27.4250  -33.9850   38.9860 N.pl3     1 NON        -0.2849
     21 N          34.1580  -31.0470   41.5640 N.am      1 NON        -0.2498
     22 CA         34.9490  -29.9090   41.0520 C.3       1 NON         0.1340
     23 C          34.5250  -29.3500   39.6830 C.2       1 NON         0.2066
     24 O          33.8090  -30.0290   38.9470 O.2       1 NON        -0.3942
     25 CB         36.3640  -30.4880   40.9610 C.3       1 NON        -0.0104
     26 CG         36.3910  -31.5670   41.9880 C.3       1 NON        -0.0281
     27 CD         35.0140  -32.1660   41.9960 C.3       1 NON         0.0369
     28 N          34.9600  -28.1290   39.3550 N.am      1 NON        -0.2498
     29 CA         34.5890  -27.5000   38.0810 C.3       1 NON         0.1338
     30 C          35.2660  -28.1950   36.9110 C.2       1 NON         0.2041
     31 O          36.3520  -28.7500   37.0960 O.2       1 NON        -0.3944
     32 CB         35.1410  -26.0670   38.2080 C.3       1 NON        -0.0104
     33 CG         35.6020  -25.9230   39.5900 C.3       1 NON        -0.0281
     34 CD         35.9240  -27.3020   40.0890 C.3       1 NON         0.0369
     35 N          34.6470  -28.1580   35.7310 N.am      1 NON        -0.2637
     36 CA         35.2430  -28.8150   34.5820 C.3       1 NON         0.1310
     37 C          36.5020  -28.0760   34.1770 C.2       1 NON         0.2039
     38 O          36.6090  -26.8750   34.3620 O.2       1 NON        -0.3944
     39 CB         34.2500  -28.9650   33.4320 C.3       1 NON        -0.0122
     40 CG         33.1200  -29.9320   33.7410 C.3       1 NON        -0.0440
     41 CD         32.6860  -30.7420   32.5280 C.3       1 NON        -0.0124
     42 CE         31.7720  -31.8850   32.9470 C.3       1 NON        -0.0354
     43 NZ         31.3320  -32.7330   31.8060 N.4       1 NON         0.2185
     44 N          37.4640  -28.8130   33.6470 N.am      1 NON        -0.2637
     45 CA         38.7770  -28.2740   33.3650 C.3       1 NON         0.1312
     46 C          38.7270  -26.9730   32.5620 C.2       1 NON         0.2037
     47 O          39.6130  -26.1310   32.6730 O.2       1 NON        -0.3944
     48 CB         39.6020  -29.3140   32.6280 C.3       1 NON        -0.0101
     49 CG         40.9800  -28.8630   32.1760 C.3       1 NON        -0.0425
     50 CD1        41.9380  -28.8400   33.3450 C.3       1 NON        -0.0625
     51 CD2        41.4840  -29.7980   31.1130 C.3       1 NON        -0.0625
     52 N          37.6930  -26.8080   31.7450 N.am      1 NON        -0.2664
     53 CA         37.5170  -25.5860   30.9820 C.3       1 NON         0.1201
     54 C          37.2300  -24.3990   31.8820 C.2       1 NON         0.2007
     55 O          37.8320  -23.3420   31.7440 O.2       1 NON        -0.3947
     56 N          36.3040  -24.5800   32.8100 N.am      1 NON        -0.2638
     57 CA         35.9690  -23.5400   33.7710 C.3       1 NON         0.1330
     58 C          37.1380  -23.1330   34.6670 C.2       1 NON         0.2040
     59 O          37.2530  -21.9690   35.0520 O.2       1 NON        -0.3944
     60 CB         34.8080  -23.9900   34.6480 C.3       1 NON         0.0045
     61 CG         33.4840  -24.0540   33.9340 C.3       1 NON         0.0412
     62 CD         32.4770  -24.9500   34.6350 C.2       1 NON         0.1737
     63 OE1        32.8000  -26.0710   35.0410 O.2       1 NON        -0.3973
     64 NE2        31.2430  -24.4660   34.7670 N.am      1 NON        -0.3009
     65 N          38.0080  -24.0750   35.0050 N.am      1 NON        -0.2635
     66 CA         38.9950  -23.7780   36.0330 C.3       1 NON         0.1335
     67 C          40.1720  -22.9510   35.5080 C.2       1 NON         0.2040
     68 O          40.7120  -22.1040   36.2300 O.2       1 NON        -0.3944
     69 CB         39.4760  -25.0480   36.8320 C.3       1 NON        -0.0037
     70 CG1        40.1420  -26.0720   35.9130 C.3       1 NON        -0.0491
     71 CG2        38.3470  -25.6750   37.6550 C.3       1 NON        -0.0582
     72 CD1        40.8160  -27.2140   36.6600 C.3       1 NON        -0.0648
     73 N          40.5600  -23.1760   34.2580 N.am      1 NON        -0.2664
     74 CA         41.6880  -22.4550   33.6960 C.3       1 NON         0.1201
     75 C          42.9190  -23.3270   33.5820 C.2       1 NON         0.2007
     76 O          42.8230  -24.5360   33.7100 O.2       1 NON        -0.3947
     77 N          44.0800  -22.7190   33.3660 N.am      1 NON        -0.2640
     78 CA         45.2890  -23.4860   33.0590 C.3       1 NON         0.1311
     79 C          46.4800  -23.3170   34.0210 C.2       1 NON         0.2040
     80 O          47.2590  -22.3660   33.9150 O.2       1 NON        -0.3944
     81 CB         45.7350  -23.1840   31.6340 C.3       1 NON        -0.0092
     82 CG         44.6640  -23.4060   30.6070 C.3       1 NON        -0.0156
     83 CD         44.8930  -22.5790   29.3540 C.3       1 NON         0.0627
     84 NE         46.2790  -22.6550   28.9140 N.pl3     1 NON        -0.2723
     85 CZ         46.6850  -23.1780   27.7620 C.cat     1 NON         0.2882
     86 NH1        45.8080  -23.6710   26.8970 N.pl3     1 NON        -0.2849
     87 NH2        47.9780  -23.1930   27.4690 N.pl3     1 NON        -0.2849
     88 N          46.5960  -24.2270   34.9930 N.am      1 NON        -0.2616
     89 CA         47.7720  -24.4130   35.8830 C.3       1 NON         0.1539
     90 C          48.3740  -23.2240   36.6650 C.2       1 NON         0.2062
     91 O          47.6500  -22.3710   37.1790 O.2       1 NON        -0.3943
     92 CB         48.8920  -25.1240   35.1140 C.3       1 NON         0.0843
     93 OG         49.2930  -24.3700   33.9840 O.3       1 NON        -0.3903
     94 N          49.7150  -23.1810   36.7250 N.am      1 NON        -0.2637
     95 CA         50.4420  -22.0700   37.3320 C.3       1 NON         0.1310
     96 C          51.9380  -22.3710   37.4330 C.2       1 NON         0.2039
     97 O          52.7460  -21.6430   36.8630 O.2       1 NON        -0.3944
     98 CB         49.8830  -21.7570   38.7170 C.3       1 NON        -0.0122
     99 CG         50.6270  -20.6580   39.4300 C.3       1 NON        -0.0440
    100 CD         49.9760  -20.3200   40.7600 C.3       1 NON        -0.0124
    101 CE         50.6100  -19.0760   41.3710 C.3       1 NON        -0.0354
    102 NZ         49.9110  -18.6000   42.6000 N.4       1 NON         0.2185
    103 N          52.2890  -23.4380   38.1610 N.am      1 NON        -0.2637
    104 CA         53.6720  -23.9150   38.3060 C.3       1 NON         0.1311
    105 C          54.1920  -23.3050   39.5870 C.2       1 NON         0.2039
    106 O          53.6540  -22.3090   40.0480 O.2       1 NON        -0.3944
    107 CB         54.4770  -23.6740   37.0310 C.3       1 NON        -0.0092
    108 CG         55.9460  -24.0980   37.0560 C.3       1 NON        -0.0156
    109 CD         56.4360  -24.2620   35.5920 C.3       1 NON         0.0627
    110 NE         57.8570  -23.9520   35.3670 N.pl3     1 NON        -0.2723
    111 CZ         58.4840  -24.0900   34.1960 C.cat     1 NON         0.2882
    112 NH1        57.8270  -24.5390   33.1320 N.pl3     1 NON        -0.2849
    113 NH2        59.7720  -23.7840   34.0850 N.pl3     1 NON        -0.2849
    114 N          55.2400  -23.9120   40.1460 N.am      1 NON        -0.2635
    115 CA         55.7230  -23.6250   41.5090 C.3       1 NON         0.1332
    116 C          57.1950  -24.0040   41.6610 C.2       1 NON         0.2042
    117 O          57.5910  -25.0810   41.2460 O.2       1 NON        -0.3944
    118 CB         54.9720  -24.3740   42.6430 C.3       1 NON        -0.0063
    119 CG1        55.9030  -24.6890   43.7790 C.3       1 NON        -0.0584
    120 CG2        53.7760  -23.5770   43.1350 C.3       1 NON        -0.0584
    121 N          58.0270  -23.1650   42.2620 N.am      1 NON        -0.2635
    122 CA         59.3790  -23.6500   42.6000 C.3       1 NON         0.1332
    123 C          59.9190  -23.1410   43.9500 C.2       1 NON         0.2036
    124 O          59.2230  -22.4310   44.6900 O.2       1 NON        -0.3944
    125 CB         60.4420  -23.4270   41.4760 C.3       1 NON        -0.0063
    126 CG1        61.5790  -24.4080   41.6500 C.3       1 NON        -0.0584
    127 CG2        59.8470  -23.5970   40.0910 C.3       1 NON        -0.0584
    128 N          61.1560  -23.5230   44.2690 N.am      1 NON        -0.2692
    129 CA         61.7610  -23.1750   45.5520 C.3       1 NON         0.0969
    130 C          63.2780  -23.3720   45.5070 C.2       1 NON         0.0604
    131 O          63.9527  -22.9474   44.5312 O.co2     1 NON        -0.5666
    132 CB         61.1370  -24.0020   46.7190 C.3       1 NON        -0.0092
    133 CG1        60.6750  -23.0700   47.8640 C.3       1 NON        -0.0497
    134 CG2        62.0940  -25.1490   47.1550 C.3       1 NON        -0.0588
    135 CD1        59.3240  -23.4560   48.5270 C.3       1 NON        -0.0649
    136 O          63.8582  -23.9649   46.4554 O.co2     1 NON        -0.5666
    137 H1         32.6097  -35.6036   43.2871 H         1 NON         0.2015
    138 H2         32.1972  -34.1248   42.6936 H         1 NON         0.2015
    139 H3         31.1748  -34.9176   43.7113 H         1 NON         0.2015
    140 H4         32.6946  -34.7700   45.5023 H         1 NON         0.1098
    141 H5         34.7181  -33.3779   45.2345 H         1 NON         0.0346
    142 H6         34.3602  -33.2039   43.4828 H         1 NON         0.0346
    143 H7         34.6197  -35.6364   43.1892 H         1 NON         0.0270
    144 H8         34.9803  -35.8086   44.9405 H         1 NON         0.0270
    145 H9         36.9518  -34.3436   44.6797 H         1 NON         0.0317
    146 H10        36.5905  -34.1676   42.9289 H         1 NON         0.0317
    147 H11        36.8610  -36.6041   42.6292 H         1 NON         0.0813
    148 H12        37.2250  -36.7782   44.3796 H         1 NON         0.0813
    149 H13        39.2176  -36.6957   43.0517 H         1 NON         0.1994
    150 H14        39.1484  -35.3822   44.0414 H         1 NON         0.1994
    151 H15        38.8148  -35.2226   42.4374 H         1 NON         0.1994
    152 H16        31.4566  -31.0605   44.1510 H         1 NON         0.1884
    153 H17        33.0157  -33.1074   42.5851 H         1 NON         0.0800
    154 H18        30.3105  -31.8312   41.8920 H         1 NON         0.0313
    155 H19        30.6725  -33.5827   42.0585 H         1 NON         0.0313
    156 H20        32.1305  -33.4484   40.0361 H         1 NON         0.0301
    157 H21        31.6902  -31.7162   39.8562 H         1 NON         0.0301
    158 H22        30.3437  -33.3492   38.4253 H         1 NON         0.0689
    159 H23        29.3767  -32.2514   39.4676 H         1 NON         0.0689
    160 H24        29.9880  -34.8038   40.7559 H         1 NON         0.2642
    161 H25        26.7377  -36.0233   40.2850 H         1 NON         0.2615
    162 H26        28.2917  -36.2315   41.1362 H         1 NON         0.2615
    163 H27        27.7976  -33.1576   38.4986 H         1 NON         0.2615
    164 H28        26.4596  -34.2965   38.8075 H         1 NON         0.2615
    165 H29        34.9140  -29.0855   41.7804 H         1 NON         0.0802
    166 H30        37.1152  -29.7169   41.1871 H         1 NON         0.0313
    167 H31        36.5519  -30.9003   39.9587 H         1 NON         0.0313
    168 H32        36.6311  -31.1480   42.9763 H         1 NON         0.0287
    169 H33        37.1378  -32.3295   41.7217 H         1 NON         0.0287
    170 H34        34.9464  -33.0089   41.2925 H         1 NON         0.0524
    171 H35        34.7381  -32.5072   43.0047 H         1 NON         0.0524
    172 H36        33.4980  -27.5014   37.9406 H         1 NON         0.0802
    173 H37        34.3497  -25.3339   37.9926 H         1 NON         0.0313
    174 H38        35.9783  -25.9185   37.5102 H         1 NON         0.0313
    175 H39        34.8110  -25.4726   40.2075 H         1 NON         0.0287
    176 H40        36.5002  -25.2890   39.6249 H         1 NON         0.0287
    177 H41        36.9589  -27.5833   39.8443 H         1 NON         0.0524
    178 H42        35.7702  -27.3792   41.1754 H         1 NON         0.0524
    179 H43        33.7743  -27.6788   35.6376 H         1 NON         0.1883
    180 H44        35.5370  -29.8292   34.8901 H         1 NON         0.0800
    181 H45        34.7918  -29.3312   32.5475 H         1 NON         0.0312
    182 H46        33.8160  -27.9781   33.2136 H         1 NON         0.0312
    183 H47        32.2563  -29.3573   34.1067 H         1 NON         0.0269
    184 H48        33.4567  -30.6266   34.5247 H         1 NON         0.0269
    185 H49        33.5765  -31.1546   32.0312 H         1 NON         0.0317
    186 H50        32.1470  -30.0857   31.8289 H         1 NON         0.0317
    187 H51        30.8802  -31.4600   33.4308 H         1 NON         0.0813
    188 H52        32.3121  -32.5189   33.6656 H         1 NON         0.0813
    189 H53        30.7323  -33.4686   32.1457 H         1 NON         0.1994
    190 H54        32.1388  -33.1376   31.3573 H         1 NON         0.1994
    191 H55        30.8267  -32.1673   31.1421 H         1 NON         0.1994
    192 H56        37.2782  -29.7724   33.4346 H         1 NON         0.1883
    193 H57        39.2674  -28.0571   34.3254 H         1 NON         0.0800
    194 H58        39.0378  -29.6223   31.7354 H         1 NON         0.0315
    195 H59        39.7317  -30.1780   33.2963 H         1 NON         0.0315
    196 H60        40.9058  -27.8486   31.7571 H         1 NON         0.0298
    197 H61        42.9295  -28.5116   33.0000 H         1 NON         0.0232
    198 H62        42.0153  -29.8492   33.7756 H         1 NON         0.0232
    199 H63        41.5664  -28.1424   34.1100 H         1 NON         0.0232
    200 H64        40.7795  -29.8065   30.2682 H         1 NON         0.0232
    201 H65        41.5707  -30.8129   31.5284 H         1 NON         0.0232
    202 H66        42.4706  -29.4590   30.7642 H         1 NON         0.0232
    203 H67        37.0205  -27.5424   31.6535 H         1 NON         0.1881
    204 H68        36.6749  -25.7180   30.2867 H         1 NON         0.0763
    205 H69        38.4359  -25.3866   30.4113 H         1 NON         0.0763
    206 H70        35.8216  -25.4549   32.8519 H         1 NON         0.1883
    207 H71        35.6546  -22.6518   33.2034 H         1 NON         0.0801
    208 H72        34.7143  -23.2833   35.4857 H         1 NON         0.0337
    209 H73        35.0385  -24.9924   35.0379 H         1 NON         0.0337
    210 H74        33.6513  -24.4417   32.9183 H         1 NON         0.0504
    211 H75        33.0677  -23.0376   33.8746 H         1 NON         0.0504
    212 H76        30.5378  -25.0113   35.2202 H         1 NON         0.1814
    213 H77        31.0218  -23.5573   34.4129 H         1 NON         0.1814
    214 H78        37.9865  -24.9715   34.5625 H         1 NON         0.1883
    215 H79        38.4788  -23.1399   36.7653 H         1 NON         0.0803
    216 H80        40.2416  -24.7080   37.5448 H         1 NON         0.0345
    217 H81        40.9023  -25.5548   35.3093 H         1 NON         0.0267
    218 H82        39.3734  -26.4959   35.2500 H         1 NON         0.0267
    219 H83        37.8949  -24.9082   38.3012 H         1 NON         0.0235
    220 H84        38.7536  -26.4857   38.2774 H         1 NON         0.0235
    221 H85        37.5815  -26.0814   36.9776 H         1 NON         0.0235
    222 H86        41.2707  -27.9072   35.9370 H         1 NON         0.0230
    223 H87        40.0678  -27.7507   37.2617 H         1 NON         0.0230
    224 H88        41.5966  -26.8096   37.3211 H         1 NON         0.0230
    225 H89        40.0717  -23.8468   33.6998 H         1 NON         0.1881
    226 H90        41.9196  -21.5970   34.3443 H         1 NON         0.0763
    227 H91        41.4147  -22.0939   32.6935 H         1 NON         0.0763
    228 H92        44.1292  -21.7214   33.4138 H         1 NON         0.1883
    229 H93        45.0028  -24.5472   33.1039 H         1 NON         0.0800
    230 H94        46.5884  -23.8345   31.3919 H         1 NON         0.0313
    231 H95        46.0506  -22.1314   31.5846 H         1 NON         0.0313
    232 H96        43.6925  -23.1288   31.0421 H         1 NON         0.0301
    233 H97        44.6520  -24.4709   30.3317 H         1 NON         0.0301
    234 H98        44.6421  -21.5294   29.5669 H         1 NON         0.0689
    235 H99        44.2416  -22.9563   28.5520 H         1 NON         0.0689
    236 H100       46.9996  -22.2743   29.5438 H         1 NON         0.2642
    237 H101       46.1335  -24.0741   26.0068 H         1 NON         0.2615
    238 H102       44.8017  -23.6506   27.1157 H         1 NON         0.2615
    239 H103       48.6621  -22.8113   28.1378 H         1 NON         0.2615
    240 H104       48.2984  -23.5864   26.5726 H         1 NON         0.2615
    241 H105       45.8189  -24.8402   35.1348 H         1 NON         0.1884
    242 H106       47.4238  -25.1098   36.6597 H         1 NON         0.0823
    243 H107       48.5300  -26.1074   34.7796 H         1 NON         0.0606
    244 H108       49.7563  -25.2588   35.7810 H         1 NON         0.0606
    245 H109       48.5508  -24.2539   33.4026 H         1 NON         0.2097
    246 H110       50.2369  -23.9412   36.3380 H         1 NON         0.1883
    247 H111       50.3098  -21.1838   36.6939 H         1 NON         0.0800
    248 H112       49.9383  -22.6691   39.3293 H         1 NON         0.0312
    249 H113       48.8318  -21.4519   38.6076 H         1 NON         0.0312
    250 H114       50.6322  -19.7594   38.7956 H         1 NON         0.0269
    251 H115       51.6615  -20.9852   39.6109 H         1 NON         0.0269
    252 H116       50.1048  -21.1667   41.4503 H         1 NON         0.0317
    253 H117       48.9032  -20.1369   40.6004 H         1 NON         0.0317
    254 H118       50.5885  -18.2699   40.6229 H         1 NON         0.0813
    255 H119       51.6535  -19.3076   41.6306 H         1 NON         0.0813
    256 H120       50.3760  -17.7788   42.9542 H         1 NON         0.1994
    257 H121       49.9304  -19.3252   43.2998 H         1 NON         0.1994
    258 H122       48.9544  -18.3743   42.3764 H         1 NON         0.1994
    259 H123       51.5665  -23.9413   38.6351 H         1 NON         0.1883
    260 H124       53.6500  -25.0050   38.4521 H         1 NON         0.0800
    261 H125       54.4449  -22.5958   36.8153 H         1 NON         0.0313
    262 H126       53.9847  -24.2257   36.2166 H         1 NON         0.0313
    263 H127       56.0473  -25.0540   37.5905 H         1 NON         0.0301
    264 H128       56.5458  -23.3285   37.5640 H         1 NON         0.0301
    265 H129       55.8373  -23.5933   34.9561 H         1 NON         0.0689
    266 H130       56.2639  -25.3058   35.2907 H         1 NON         0.0689
    267 H131       58.4051  -23.6050   36.1670 H         1 NON         0.2642
    268 H132       58.3156  -24.6435   32.2313 H         1 NON         0.2615
    269 H133       56.8291  -24.7826   33.2079 H         1 NON         0.2615
    270 H134       60.2908  -23.4351   34.9035 H         1 NON         0.2615
    271 H135       60.2518  -23.8957   33.1804 H         1 NON         0.2615
    272 H136       55.7262  -24.6017   39.6094 H         1 NON         0.1883
    273 H137       55.6103  -22.5435   41.6754 H         1 NON         0.0802
    274 H138       54.6002  -25.3245   42.2328 H         1 NON         0.0343
    275 H139       55.3509  -25.2185   44.5695 H         1 NON         0.0234
    276 H140       56.3167  -23.7538   44.1842 H         1 NON         0.0234
    277 H141       56.7231  -25.3255   43.4153 H         1 NON         0.0234
    278 H142       53.1084  -23.3575   42.2887 H         1 NON         0.0234
    279 H143       54.1228  -22.6339   43.5826 H         1 NON         0.0234
    280 H144       53.2307  -24.1624   43.8899 H         1 NON         0.0234
    281 H145       57.7464  -22.2303   42.4800 H         1 NON         0.1883
    282 H146       59.2754  -24.7399   42.7071 H         1 NON         0.0802
    283 H147       60.8344  -22.4033   41.5655 H         1 NON         0.0343
    284 H148       62.3252  -24.2486   40.8577 H         1 NON         0.0234
    285 H149       61.1902  -25.4350   41.5862 H         1 NON         0.0234
    286 H150       62.0489  -24.2542   42.6326 H         1 NON         0.0234
    287 H151       59.0186  -22.8856   39.9580 H         1 NON         0.0234
    288 H152       59.4700  -24.6241   39.9774 H         1 NON         0.0234
    289 H153       60.6208  -23.4045   39.3333 H         1 NON         0.0234
    290 H154       61.6835  -24.0621   43.6124 H         1 NON         0.1875
    291 H155       61.5596  -22.1108   45.7442 H         1 NON         0.0729
    292 H156       60.2303  -24.4860   46.3270 H         1 NON         0.0338
    293 H157       60.5756  -22.0533   47.4561 H         1 NON         0.0267
    294 H158       61.4511  -23.0781   48.6435 H         1 NON         0.0267
    295 H159       62.3653  -25.7537   46.2771 H         1 NON         0.0234
    296 H160       61.5895  -25.7855   47.8968 H         1 NON         0.0234
    297 H161       63.0037  -24.7187   47.5991 H         1 NON         0.0234
    298 H162       59.0873  -22.7352   49.3235 H         1 NON         0.0230
    299 H163       59.4018  -24.4654   48.9572 H         1 NON         0.0230
    300 H164       58.5263  -23.4406   47.7698 H         1 NON         0.0230
@<TRIPOS>BOND
     1    1    2 1  
     2    2    3 1  
     3    2    5 1  
     4    3    4 2  
     5    3   10 am 
     6    5    6 1  
     7    6    7 1  
     8    7    8 1  
     9    8    9 1  
    10   10   11 1  
    11   11   12 1  
    12   11   14 1  
    13   12   13 2  
    14   12   21 am 
    15   14   15 1  
    16   15   16 1  
    17   16   17 1  
    18   17   18 ar 
    19   18   19 ar 
    20   18   20 ar 
    21   21   22 1  
    22   21   27 1  
    23   22   23 1  
    24   22   25 1  
    25   23   24 2  
    26   23   28 am 
    27   25   26 1  
    28   26   27 1  
    29   28   29 1  
    30   28   34 1  
    31   29   30 1  
    32   29   32 1  
    33   30   31 2  
    34   30   35 am 
    35   32   33 1  
    36   33   34 1  
    37   35   36 1  
    38   36   37 1  
    39   36   39 1  
    40   37   38 2  
    41   37   44 am 
    42   39   40 1  
    43   40   41 1  
    44   41   42 1  
    45   42   43 1  
    46   44   45 1  
    47   45   46 1  
    48   45   48 1  
    49   46   47 2  
    50   46   52 am 
    51   48   49 1  
    52   49   50 1  
    53   49   51 1  
    54   52   53 1  
    55   53   54 1  
    56   54   55 2  
    57   54   56 am 
    58   56   57 1  
    59   57   58 1  
    60   57   60 1  
    61   58   59 2  
    62   58   65 am 
    63   60   61 1  
    64   61   62 1  
    65   62   63 2  
    66   62   64 am 
    67   65   66 1  
    68   66   67 1  
    69   66   69 1  
    70   67   68 2  
    71   67   73 am 
    72   69   70 1  
    73   69   71 1  
    74   70   72 1  
    75   73   74 1  
    76   74   75 1  
    77   75   76 2  
    78   75   77 am 
    79   77   78 1  
    80   78   79 1  
    81   78   81 1  
    82   79   80 2  
    83   79   88 am 
    84   81   82 1  
    85   82   83 1  
    86   83   84 1  
    87   84   85 ar 
    88   85   86 ar 
    89   85   87 ar 
    90   88   89 1  
    91   89   90 1  
    92   89   92 1  
    93   90   91 2  
    94   90   94 am 
    95   92   93 1  
    96   94   95 1  
    97   95   96 1  
    98   95   98 1  
    99   96   97 2  
   100   96  103 am 
   101   98   99 1  
   102   99  100 1  
   103  100  101 1  
   104  101  102 1  
   105  103  104 1  
   106  104  105 1  
   107  104  107 1  
   108  105  106 2  
   109  105  114 am 
   110  107  108 1  
   111  108  109 1  
   112  109  110 1  
   113  110  111 ar 
   114  111  112 ar 
   115  111  113 ar 
   116  114  115 1  
   117  115  116 1  
   118  115  118 1  
   119  116  117 2  
   120  116  121 am 
   121  118  119 1  
   122  118  120 1  
   123  121  122 1  
   124  122  123 1  
   125  122  125 1  
   126  123  124 2  
   127  123  128 am 
   128  125  126 1  
   129  125  127 1  
   130  128  129 1  
   131  129  130 1  
   132  129  132 1  
   133  130  131 ar 
   134  132  133 1  
   135  132  134 1  
   136  133  135 1  
   137  130  136 ar 
   138    1  137 1  
   139    1  138 1  
   140    1  139 1  
   141    2  140 1  
   142    5  141 1  
   143    5  142 1  
   144    6  143 1  
   145    6  144 1  
   146    7  145 1  
   147    7  146 1  
   148    8  147 1  
   149    8  148 1  
   150    9  149 1  
   151    9  150 1  
   152    9  151 1  
   153   10  152 1  
   154   11  153 1  
   155   14  154 1  
   156   14  155 1  
   157   15  156 1  
   158   15  157 1  
   159   16  158 1  
   160   16  159 1  
   161   17  160 1  
   162   19  161 1  
   163   19  162 1  
   164   20  163 1  
   165   20  164 1  
   166   22  165 1  
   167   25  166 1  
   168   25  167 1  
   169   26  168 1  
   170   26  169 1  
   171   27  170 1  
   172   27  171 1  
   173   29  172 1  
   174   32  173 1  
   175   32  174 1  
   176   33  175 1  
   177   33  176 1  
   178   34  177 1  
   179   34  178 1  
   180   35  179 1  
   181   36  180 1  
   182   39  181 1  
   183   39  182 1  
   184   40  183 1  
   185   40  184 1  
   186   41  185 1  
   187   41  186 1  
   188   42  187 1  
   189   42  188 1  
   190   43  189 1  
   191   43  190 1  
   192   43  191 1  
   193   44  192 1  
   194   45  193 1  
   195   48  194 1  
   196   48  195 1  
   197   49  196 1  
   198   50  197 1  
   199   50  198 1  
   200   50  199 1  
   201   51  200 1  
   202   51  201 1  
   203   51  202 1  
   204   52  203 1  
   205   53  204 1  
   206   53  205 1  
   207   56  206 1  
   208   57  207 1  
   209   60  208 1  
   210   60  209 1  
   211   61  210 1  
   212   61  211 1  
   213   64  212 1  
   214   64  213 1  
   215   65  214 1  
   216   66  215 1  
   217   69  216 1  
   218   70  217 1  
   219   70  218 1  
   220   71  219 1  
   221   71  220 1  
   222   71  221 1  
   223   72  222 1  
   224   72  223 1  
   225   72  224 1  
   226   73  225 1  
   227   74  226 1  
   228   74  227 1  
   229   77  228 1  
   230   78  229 1  
   231   81  230 1  
   232   81  231 1  
   233   82  232 1  
   234   82  233 1  
   235   83  234 1  
   236   83  235 1  
   237   84  236 1  
   238   86  237 1  
   239   86  238 1  
   240   87  239 1  
   241   87  240 1  
   242   88  241 1  
   243   89  242 1  
   244   92  243 1  
   245   92  244 1  
   246   93  245 1  
   247   94  246 1  
   248   95  247 1  
   249   98  248 1  
   250   98  249 1  
   251   99  250 1  
   252   99  251 1  
   253  100  252 1  
   254  100  253 1  
   255  101  254 1  
   256  101  255 1  
   257  102  256 1  
   258  102  257 1  
   259  102  258 1  
   260  103  259 1  
   261  104  260 1  
   262  107  261 1  
   263  107  262 1  
   264  108  263 1  
   265  108  264 1  
   266  109  265 1  
   267  109  266 1  
   268  110  267 1  
   269  112  268 1  
   270  112  269 1  
   271  113  270 1  
   272  113  271 1  
   273  114  272 1  
   274  115  273 1  
   275  118  274 1  
   276  119  275 1  
   277  119  276 1  
   278  119  277 1  
   279  120  278 1  
   280  120  279 1  
   281  120  280 1  
   282  121  281 1  
   283  122  282 1  
   284  125  283 1  
   285  126  284 1  
   286  126  285 1  
   287  126  286 1  
   288  127  287 1  
   289  127  288 1  
   290  127  289 1  
   291  128  290 1  
   292  129  291 1  
   293  132  292 1  
   294  133  293 1  
   295  133  294 1  
   296  134  295 1  
   297  134  296 1  
   298  134  297 1  
   299  135  298 1  
   300  135  299 1  
   301  135  300 1  
@<TRIPOS>SUBSTRUCTURE
     1 NON         1

