3kl8_ligand
  -I-interpret- 

298299  0  0  0  0  0  0  0  0999 V2000
   32.1420  -34.7350   43.4940 N   0  3  0  0  0
   32.7850  -34.0970   44.6370 C   0  0  0  0  0
   32.1070  -32.7760   44.9850 C   0  0  0  0  0
   31.7810  -32.5210   46.1440 O   0  0  0  0  0
   34.2720  -33.8670   44.3560 C   0  0  0  0  0
   35.0530  -35.1400   44.0700 C   0  0  0  0  0
   36.5180  -34.8380   43.7980 C   0  0  0  0  0
   37.2990  -36.1100   43.5090 C   0  0  0  0  0
   38.7360  -35.8300   43.2380 N   0  3  0  0  0
   31.8980  -31.9400   43.9730 N   0  0  0  0  0
   32.2980  -32.2740   42.6020 C   0  0  0  0  0
   32.9350  -30.9530   42.0930 C   0  0  0  0  0
   32.3090  -29.8910   42.2010 O   0  0  0  0  0
   31.0690  -32.6110   41.7290 C   0  0  0  0  0
   31.3480  -32.6970   40.2180 C   0  0  0  0  0
   30.0790  -33.0980   39.4630 C   0  0  0  0  0
   29.4350  -34.2540   40.0830 N   0  0  0  0  0
   28.1880  -34.6490   39.8430 C   0  0  0  0  0
   27.7030  -35.7140   40.4680 N   0  0  0  0  0
   27.4250  -33.9850   38.9860 N   0  0  0  0  0
   34.1580  -31.0470   41.5640 N   0  0  0  0  0
   34.9490  -29.9090   41.0520 C   0  0  0  0  0
   34.5250  -29.3500   39.6830 C   0  0  0  0  0
   33.8090  -30.0290   38.9470 O   0  0  0  0  0
   36.3640  -30.4880   40.9610 C   0  0  0  0  0
   36.3910  -31.5670   41.9880 C   0  0  0  0  0
   35.0140  -32.1660   41.9960 C   0  0  0  0  0
   34.9600  -28.1290   39.3550 N   0  0  0  0  0
   34.5890  -27.5000   38.0810 C   0  0  0  0  0
   35.2660  -28.1950   36.9110 C   0  0  0  0  0
   36.3520  -28.7500   37.0960 O   0  0  0  0  0
   35.1410  -26.0670   38.2080 C   0  0  0  0  0
   35.6020  -25.9230   39.5900 C   0  0  0  0  0
   35.9240  -27.3020   40.0890 C   0  0  0  0  0
   34.6470  -28.1580   35.7310 N   0  0  0  0  0
   35.2430  -28.8150   34.5820 C   0  0  0  0  0
   36.5020  -28.0760   34.1770 C   0  0  0  0  0
   36.6090  -26.8750   34.3620 O   0  0  0  0  0
   34.2500  -28.9650   33.4320 C   0  0  0  0  0
   33.1200  -29.9320   33.7410 C   0  0  0  0  0
   32.6860  -30.7420   32.5280 C   0  0  0  0  0
   31.7720  -31.8850   32.9470 C   0  0  0  0  0
   31.3320  -32.7330   31.8060 N   0  3  0  0  0
   37.4640  -28.8130   33.6470 N   0  0  0  0  0
   38.7770  -28.2740   33.3650 C   0  0  0  0  0
   38.7270  -26.9730   32.5620 C   0  0  0  0  0
   39.6130  -26.1310   32.6730 O   0  0  0  0  0
   39.6020  -29.3140   32.6280 C   0  0  0  0  0
   40.9800  -28.8630   32.1760 C   0  0  0  0  0
   41.9380  -28.8400   33.3450 C   0  0  0  0  0
   41.4840  -29.7980   31.1130 C   0  0  0  0  0
   37.6930  -26.8080   31.7450 N   0  0  0  0  0
   37.5170  -25.5860   30.9820 C   0  0  0  0  0
   37.2300  -24.3990   31.8820 C   0  0  0  0  0
   37.8320  -23.3420   31.7440 O   0  0  0  0  0
   36.3040  -24.5800   32.8100 N   0  0  0  0  0
   35.9690  -23.5400   33.7710 C   0  0  0  0  0
   37.1380  -23.1330   34.6670 C   0  0  0  0  0
   37.2530  -21.9690   35.0520 O   0  0  0  0  0
   34.8080  -23.9900   34.6480 C   0  0  0  0  0
   33.4840  -24.0540   33.9340 C   0  0  0  0  0
   32.4770  -24.9500   34.6350 C   0  0  0  0  0
   32.8000  -26.0710   35.0410 O   0  0  0  0  0
   31.2430  -24.4660   34.7670 N   0  0  0  0  0
   38.0080  -24.0750   35.0050 N   0  0  0  0  0
   38.9950  -23.7780   36.0330 C   0  0  0  0  0
   40.1720  -22.9510   35.5080 C   0  0  0  0  0
   40.7120  -22.1040   36.2300 O   0  0  0  0  0
   39.4760  -25.0480   36.8320 C   0  0  0  0  0
   40.1420  -26.0720   35.9130 C   0  0  0  0  0
   38.3470  -25.6750   37.6550 C   0  0  0  0  0
   40.8160  -27.2140   36.6600 C   0  0  0  0  0
   40.5600  -23.1760   34.2580 N   0  0  0  0  0
   41.6880  -22.4550   33.6960 C   0  0  0  0  0
   42.9190  -23.3270   33.5820 C   0  0  0  0  0
   42.8230  -24.5360   33.7100 O   0  0  0  0  0
   44.0800  -22.7190   33.3660 N   0  0  0  0  0
   45.2890  -23.4860   33.0590 C   0  0  0  0  0
   46.4800  -23.3170   34.0210 C   0  0  0  0  0
   47.2590  -22.3660   33.9150 O   0  0  0  0  0
   45.7350  -23.1840   31.6340 C   0  0  0  0  0
   44.6640  -23.4060   30.6070 C   0  0  0  0  0
   44.8930  -22.5790   29.3540 C   0  0  0  0  0
   46.2790  -22.6550   28.9140 N   0  0  0  0  0
   46.6850  -23.1780   27.7620 C   0  0  0  0  0
   45.8080  -23.6710   26.8970 N   0  0  0  0  0
   47.9780  -23.1930   27.4690 N   0  0  0  0  0
   46.5960  -24.2270   34.9930 N   0  0  0  0  0
   47.7720  -24.4130   35.8830 C   0  0  0  0  0
   48.3740  -23.2240   36.6650 C   0  0  0  0  0
   47.6500  -22.3710   37.1790 O   0  0  0  0  0
   48.8920  -25.1240   35.1140 C   0  0  0  0  0
   49.2930  -24.3700   33.9840 O   0  0  0  0  0
   49.7150  -23.1810   36.7250 N   0  0  0  0  0
   50.4420  -22.0700   37.3320 C   0  0  0  0  0
   51.9380  -22.3710   37.4330 C   0  0  0  0  0
   52.7460  -21.6430   36.8630 O   0  0  0  0  0
   49.8830  -21.7570   38.7170 C   0  0  0  0  0
   50.6270  -20.6580   39.4300 C   0  0  0  0  0
   49.9760  -20.3200   40.7600 C   0  0  0  0  0
   50.6100  -19.0760   41.3710 C   0  0  0  0  0
   49.9110  -18.6000   42.6000 N   0  3  0  0  0
   52.2890  -23.4380   38.1610 N   0  0  0  0  0
   53.6720  -23.9150   38.3060 C   0  0  0  0  0
   54.1920  -23.3050   39.5870 C   0  0  0  0  0
   53.6540  -22.3090   40.0480 O   0  0  0  0  0
   54.4770  -23.6740   37.0310 C   0  0  0  0  0
   55.9460  -24.0980   37.0560 C   0  0  0  0  0
   56.4360  -24.2620   35.5920 C   0  0  0  0  0
   57.8570  -23.9520   35.3670 N   0  0  0  0  0
   58.4840  -24.0900   34.1960 C   0  0  0  0  0
   57.8270  -24.5390   33.1320 N   0  0  0  0  0
   59.7720  -23.7840   34.0850 N   0  0  0  0  0
   55.2400  -23.9120   40.1460 N   0  0  0  0  0
   55.7230  -23.6250   41.5090 C   0  0  0  0  0
   57.1950  -24.0040   41.6610 C   0  0  0  0  0
   57.5910  -25.0810   41.2460 O   0  0  0  0  0
   54.9720  -24.3740   42.6430 C   0  0  0  0  0
   55.9030  -24.6890   43.7790 C   0  0  0  0  0
   53.7760  -23.5770   43.1350 C   0  0  0  0  0
   58.0270  -23.1650   42.2620 N   0  0  0  0  0
   59.3790  -23.6500   42.6000 C   0  0  0  0  0
   59.9190  -23.1410   43.9500 C   0  0  0  0  0
   59.2230  -22.4310   44.6900 O   0  0  0  0  0
   60.4420  -23.4270   41.4760 C   0  0  0  0  0
   61.5790  -24.4080   41.6500 C   0  0  0  0  0
   59.8470  -23.5970   40.0910 C   0  0  0  0  0
   61.1560  -23.5230   44.2690 N   0  0  0  0  0
   61.7610  -23.1750   45.5520 C   0  0  0  0  0
   63.2780  -23.3720   45.5070 C   0  0  0  0  0
   63.9527  -22.9474   44.5312 O   0  0  0  0  0
   61.1370  -24.0020   46.7190 C   0  0  0  0  0
   60.6750  -23.0700   47.8640 C   0  0  0  0  0
   62.0940  -25.1490   47.1550 C   0  0  0  0  0
   59.3240  -23.4560   48.5270 C   0  0  0  0  0
   63.8582  -23.9649   46.4554 O   0  0  0  0  0
   31.1534  -34.8802   43.6989 H   0  0  0  0  0
   32.2360  -34.1355   42.6742 H   0  0  0  0  0
   32.5884  -35.6339   43.3123 H   0  0  0  0  0
   32.6856  -34.7664   45.4915 H   0  0  0  0  0
   34.7037  -33.4174   45.2502 H   0  0  0  0  0
   34.3393  -33.2403   43.4667 H   0  0  0  0  0
   34.6271  -35.6183   43.1880 H   0  0  0  0  0
   34.9884  -35.7907   44.9420 H   0  0  0  0  0
   36.9442  -34.3619   44.6811 H   0  0  0  0  0
   36.5822  -34.1856   42.9271 H   0  0  0  0  0
   36.8699  -36.5809   42.6245 H   0  0  0  0  0
   37.2360  -36.7560   44.3847 H   0  0  0  0  0
   39.2223  -36.7066   43.0496 H   0  0  0  0  0
   38.8145  -35.2153   42.4278 H   0  0  0  0  0
   39.1522  -35.3769   44.0516 H   0  0  0  0  0
   31.4478  -31.0429   44.1546 H   0  0  0  0  0
   32.9596  -33.1392   42.5601 H   0  0  0  0  0
   30.3513  -31.8030   41.8709 H   0  0  0  0  0
   30.7219  -33.5959   42.0413 H   0  0  0  0  0
   32.1182  -33.4478   40.0415 H   0  0  0  0  0
   31.6794  -31.7215   39.8622 H   0  0  0  0  0
   30.3517  -33.3597   38.4406 H   0  0  0  0  0
   29.3827  -32.2597   39.4851 H   0  0  0  0  0
   29.9826  -34.7984   40.7494 H   0  0  0  0  0
   26.7464  -36.0191   40.2884 H   0  0  0  0  0
   28.2867  -36.2277   41.1281 H   0  0  0  0  0
   27.7933  -33.1644   38.5049 H   0  0  0  0  0
   34.8255  -29.0501   41.7116 H   0  0  0  0  0
   37.1278  -29.7317   41.1422 H   0  0  0  0  0
   36.5875  -30.8669   39.9637 H   0  0  0  0  0
   36.6551  -31.1717   42.9689 H   0  0  0  0  0
   37.1462  -32.3169   41.7527 H   0  0  0  0  0
   34.9299  -33.0358   41.3445 H   0  0  0  0  0
   34.7318  -32.5587   42.9729 H   0  0  0  0  0
   33.5155  -27.5451   37.8978 H   0  0  0  0  0
   34.3734  -25.3297   37.9728 H   0  0  0  0  0
   35.9558  -25.8978   37.5041 H   0  0  0  0  0
   34.8332  -25.4584   40.2074 H   0  0  0  0  0
   36.4803  -25.2793   39.6393 H   0  0  0  0  0
   36.9602  -27.5917   39.9144 H   0  0  0  0  0
   35.8379  -27.3989   41.1713 H   0  0  0  0  0
   33.7568  -27.6693   35.6357 H   0  0  0  0  0
   35.5207  -29.8321   34.8586 H   0  0  0  0  0
   34.7951  -29.3569   32.5733 H   0  0  0  0  0
   33.8068  -27.9863   33.2480 H   0  0  0  0  0
   32.2630  -29.3471   34.0749 H   0  0  0  0  0
   33.4770  -30.6306   34.4977 H   0  0  0  0  0
   33.5708  -31.1561   32.0445 H   0  0  0  0  0
   32.1448  -30.0897   31.8427 H   0  0  0  0  0
   30.8804  -31.4471   33.3959 H   0  0  0  0  0
   32.3314  -32.5202   33.6338 H   0  0  0  0  0
   30.7253  -33.4769   32.1509 H   0  0  0  0  0
   30.8209  -32.1595   31.1350 H   0  0  0  0  0
   32.1492  -33.1418   31.3528 H   0  0  0  0  0
   37.2745  -29.7915   33.4304 H   0  0  0  0  0
   39.2419  -28.0315   34.3206 H   0  0  0  0  0
   39.0471  -29.5636   31.7236 H   0  0  0  0  0
   39.7602  -30.1347   33.3277 H   0  0  0  0  0
   40.9110  -27.8538   31.7700 H   0  0  0  0  0
   41.5686  -28.1485   34.1023 H   0  0  0  0  0
   42.0137  -29.8405   33.7708 H   0  0  0  0  0
   42.9201  -28.5145   33.0019 H   0  0  0  0  0
   41.5444  -30.8081   31.5182 H   0  0  0  0  0
   40.7988  -29.7856   30.2654 H   0  0  0  0  0
   42.4731  -29.4762   30.7870 H   0  0  0  0  0
   37.0070  -27.5571   31.6516 H   0  0  0  0  0
   36.6696  -25.7200   30.3096 H   0  0  0  0  0
   38.4384  -25.3871   30.4347 H   0  0  0  0  0
   35.8119  -25.4724   32.8527 H   0  0  0  0  0
   35.6951  -22.6654   33.1810 H   0  0  0  0  0
   34.7067  -23.2571   35.4485 H   0  0  0  0  0
   35.0369  -24.9986   34.9921 H   0  0  0  0  0
   33.6611  -24.4658   32.9405 H   0  0  0  0  0
   33.0708  -23.0457   33.9077 H   0  0  0  0  0
   30.5207  -25.0271   35.2184 H   0  0  0  0  0
   31.0204  -23.5343   34.4167 H   0  0  0  0  0
   37.9861  -24.9895   34.5537 H   0  0  0  0  0
   38.4683  -23.1528   36.7540 H   0  0  0  0  0
   40.2304  -24.7083   37.5416 H   0  0  0  0  0
   40.9144  -25.5503   35.3480 H   0  0  0  0  0
   39.3618  -26.5060   35.2877 H   0  0  0  0  0
   37.9730  -24.9444   38.3722 H   0  0  0  0  0
   37.5393  -25.9788   36.9892 H   0  0  0  0  0
   38.7280  -26.5465   38.1873 H   0  0  0  0  0
   41.5892  -26.8120   37.3147 H   0  0  0  0  0
   40.0736  -27.7449   37.2559 H   0  0  0  0  0
   41.2662  -27.9001   35.9426 H   0  0  0  0  0
   40.0620  -23.8603   33.6886 H   0  0  0  0  0
   41.9220  -21.6202   34.3567 H   0  0  0  0  0
   41.4139  -22.1202   32.6955 H   0  0  0  0  0
   44.1302  -21.7014   33.4148 H   0  0  0  0  0
   44.9884  -24.5261   33.1855 H   0  0  0  0  0
   46.5568  -23.8606   31.3994 H   0  0  0  0  0
   46.0104  -22.1301   31.5951 H   0  0  0  0  0
   43.7098  -23.1078   31.0413 H   0  0  0  0  0
   44.6758  -24.4591   30.3259 H   0  0  0  0  0
   44.6571  -21.5386   29.5777 H   0  0  0  0  0
   44.2557  -22.9689   28.5603 H   0  0  0  0  0
   46.9926  -22.2780   29.5377 H   0  0  0  0  0
   46.1294  -24.0597   26.0104 H   0  0  0  0  0
   44.8124  -23.6613   27.1186 H   0  0  0  0  0
   48.6544  -22.8045   28.1262 H   0  0  0  0  0
   45.8033  -24.8524   35.1376 H   0  0  0  0  0
   47.3263  -24.9970   36.6882 H   0  0  0  0  0
   48.5222  -26.0915   34.7744 H   0  0  0  0  0
   49.7494  -25.2422   35.7766 H   0  0  0  0  0
   49.9933  -24.8363   33.5216 H   0  0  0  0  0
   50.2473  -23.9564   36.3303 H   0  0  0  0  0
   50.3104  -21.2007   36.6877 H   0  0  0  0  0
   49.9756  -22.6604   39.3199 H   0  0  0  0  0
   48.8528  -21.4252   38.5876 H   0  0  0  0  0
   50.6137  -19.7672   38.8020 H   0  0  0  0  0
   51.6457  -20.9962   39.6194 H   0  0  0  0  0
   50.1157  -21.1578   41.4431 H   0  0  0  0  0
   48.9157  -20.1293   40.5944 H   0  0  0  0  0
   50.5522  -18.2790   40.6297 H   0  0  0  0  0
   51.6320  -19.3311   41.6513 H   0  0  0  0  0
   50.3823  -17.7691   42.9575 H   0  0  0  0  0
   48.9432  -18.3720   42.3725 H   0  0  0  0  0
   49.9312  -19.3346   43.3073 H   0  0  0  0  0
   51.5521  -23.9514   38.6446 H   0  0  0  0  0
   53.7568  -24.9966   38.4108 H   0  0  0  0  0
   54.4785  -22.5950   36.8762 H   0  0  0  0  0
   54.0030  -24.2787   36.2578 H   0  0  0  0  0
   56.0521  -25.0412   37.5919 H   0  0  0  0  0
   56.5430  -23.3418   37.5658 H   0  0  0  0  0
   55.8632  -23.5567   34.9899 H   0  0  0  0  0
   56.3004  -25.3120   35.3329 H   0  0  0  0  0
   58.3998  -23.6084   36.1593 H   0  0  0  0  0
   58.3117  -24.6458   32.2409 H   0  0  0  0  0
   56.8379  -24.7769   33.2063 H   0  0  0  0  0
   60.2867  -23.4419   34.8964 H   0  0  0  0  0
   55.7360  -24.6155   39.5987 H   0  0  0  0  0
   55.5468  -22.5549   41.6185 H   0  0  0  0  0
   54.6000  -25.3122   42.2314 H   0  0  0  0  0
   56.7151  -25.3196   43.4173 H   0  0  0  0  0
   56.3122  -23.7615   44.1796 H   0  0  0  0  0
   55.3548  -25.2136   44.5615 H   0  0  0  0  0
   54.1153  -22.6153   43.5199 H   0  0  0  0  0
   53.0839  -23.4153   42.3086 H   0  0  0  0  0
   53.2736  -24.1305   43.9283 H   0  0  0  0  0
   57.7408  -22.2116   42.4844 H   0  0  0  0  0
   59.2257  -24.7249   42.6963 H   0  0  0  0  0
   60.8048  -22.4031   41.5653 H   0  0  0  0  0
   62.0437  -24.2546   42.6240 H   0  0  0  0  0
   61.1925  -25.4252   41.5866 H   0  0  0  0  0
   62.3177  -24.2491   40.8644 H   0  0  0  0  0
   59.4492  -24.6067   39.9893 H   0  0  0  0  0
   59.0444  -22.8730   39.9504 H   0  0  0  0  0
   60.6214  -23.4330   39.3416 H   0  0  0  0  0
   61.6941  -24.0728   43.5993 H   0  0  0  0  0
   61.5530  -22.1217   45.7399 H   0  0  0  0  0
   63.3675  -22.5234   43.8993 H   0  0  0  0  0
   60.2316  -24.5018   46.3745 H   0  0  0  0  0
   60.5376  -22.0812   47.4264 H   0  0  0  0  0
   61.4347  -23.1313   48.6432 H   0  0  0  0  0
   62.2728  -25.8126   46.3090 H   0  0  0  0  0
   63.0397  -24.7235   47.4908 H   0  0  0  0  0
   61.6375  -25.7114   47.9695 H   0  0  0  0  0
   58.5345  -23.4404   47.7757 H   0  0  0  0  0
   59.4024  -24.4563   48.9528 H   0  0  0  0  0
   59.0906  -22.7411   49.3160 H   0  0  0  0  0
  1  2  1  0  0  0
  2  3  1  0  0  0
  2  5  1  0  0  0
  3  4  2  0  0  0
  3 10  1  0  0  0
  5  6  1  0  0  0
  6  7  1  0  0  0
  7  8  1  0  0  0
  8  9  1  0  0  0
 10 11  1  0  0  0
 11 12  1  0  0  0
 11 14  1  0  0  0
 12 13  2  0  0  0
 12 21  1  0  0  0
 14 15  1  0  0  0
 15 16  1  0  0  0
 16 17  1  0  0  0
 17 18  1  0  0  0
 18 19  1  0  0  0
 18 20  2  0  0  0
 21 22  1  0  0  0
 21 27  1  0  0  0
 22 23  1  0  0  0
 22 25  1  0  0  0
 23 24  2  0  0  0
 23 28  1  0  0  0
 25 26  1  0  0  0
 26 27  1  0  0  0
 28 29  1  0  0  0
 28 34  1  0  0  0
 29 30  1  0  0  0
 29 32  1  0  0  0
 30 31  2  0  0  0
 30 35  1  0  0  0
 32 33  1  0  0  0
 33 34  1  0  0  0
 35 36  1  0  0  0
 36 37  1  0  0  0
 36 39  1  0  0  0
 37 38  2  0  0  0
 37 44  1  0  0  0
 39 40  1  0  0  0
 40 41  1  0  0  0
 41 42  1  0  0  0
 42 43  1  0  0  0
 44 45  1  0  0  0
 45 46  1  0  0  0
 45 48  1  0  0  0
 46 47  2  0  0  0
 46 52  1  0  0  0
 48 49  1  0  0  0
 49 50  1  0  0  0
 49 51  1  0  0  0
 52 53  1  0  0  0
 53 54  1  0  0  0
 54 55  2  0  0  0
 54 56  1  0  0  0
 56 57  1  0  0  0
 57 58  1  0  0  0
 57 60  1  0  0  0
 58 59  2  0  0  0
 58 65  1  0  0  0
 60 61  1  0  0  0
 61 62  1  0  0  0
 62 63  2  0  0  0
 62 64  1  0  0  0
 65 66  1  0  0  0
 66 67  1  0  0  0
 66 69  1  0  0  0
 67 68  2  0  0  0
 67 73  1  0  0  0
 69 70  1  0  0  0
 69 71  1  0  0  0
 70 72  1  0  0  0
 73 74  1  0  0  0
 74 75  1  0  0  0
 75 76  2  0  0  0
 75 77  1  0  0  0
 77 78  1  0  0  0
 78 79  1  0  0  0
 78 81  1  0  0  0
 79 80  2  0  0  0
 79 88  1  0  0  0
 81 82  1  0  0  0
 82 83  1  0  0  0
 83 84  1  0  0  0
 84 85  1  0  0  0
 85 86  1  0  0  0
 85 87  2  0  0  0
 88 89  1  0  0  0
 89 90  1  0  0  0
 89 92  1  0  0  0
 90 91  2  0  0  0
 90 94  1  0  0  0
 92 93  1  0  0  0
 94 95  1  0  0  0
 95 96  1  0  0  0
 95 98  1  0  0  0
 96 97  2  0  0  0
 96103  1  0  0  0
 98 99  1  0  0  0
 99100  1  0  0  0
100101  1  0  0  0
101102  1  0  0  0
103104  1  0  0  0
104105  1  0  0  0
104107  1  0  0  0
105106  2  0  0  0
105114  1  0  0  0
107108  1  0  0  0
108109  1  0  0  0
109110  1  0  0  0
110111  1  0  0  0
111112  1  0  0  0
111113  2  0  0  0
114115  1  0  0  0
115116  1  0  0  0
115118  1  0  0  0
116117  2  0  0  0
116121  1  0  0  0
118119  1  0  0  0
118120  1  0  0  0
121122  1  0  0  0
122123  1  0  0  0
122125  1  0  0  0
123124  2  0  0  0
123128  1  0  0  0
125126  1  0  0  0
125127  1  0  0  0
128129  1  0  0  0
129130  1  0  0  0
129132  1  0  0  0
130131  1  0  0  0
132133  1  0  0  0
132134  1  0  0  0
133135  1  0  0  0
130136  2  0  0  0
  1137  1  0  0  0
  1138  1  0  0  0
  1139  1  0  0  0
  2140  1  0  0  0
  5141  1  0  0  0
  5142  1  0  0  0
  6143  1  0  0  0
  6144  1  0  0  0
  7145  1  0  0  0
  7146  1  0  0  0
  8147  1  0  0  0
  8148  1  0  0  0
  9149  1  0  0  0
  9150  1  0  0  0
  9151  1  0  0  0
 10152  1  0  0  0
 11153  1  0  0  0
 14154  1  0  0  0
 14155  1  0  0  0
 15156  1  0  0  0
 15157  1  0  0  0
 16158  1  0  0  0
 16159  1  0  0  0
 17160  1  0  0  0
 19161  1  0  0  0
 19162  1  0  0  0
 20163  1  0  0  0
 22164  1  0  0  0
 25165  1  0  0  0
 25166  1  0  0  0
 26167  1  0  0  0
 26168  1  0  0  0
 27169  1  0  0  0
 27170  1  0  0  0
 29171  1  0  0  0
 32172  1  0  0  0
 32173  1  0  0  0
 33174  1  0  0  0
 33175  1  0  0  0
 34176  1  0  0  0
 34177  1  0  0  0
 35178  1  0  0  0
 36179  1  0  0  0
 39180  1  0  0  0
 39181  1  0  0  0
 40182  1  0  0  0
 40183  1  0  0  0
 41184  1  0  0  0
 41185  1  0  0  0
 42186  1  0  0  0
 42187  1  0  0  0
 43188  1  0  0  0
 43189  1  0  0  0
 43190  1  0  0  0
 44191  1  0  0  0
 45192  1  0  0  0
 48193  1  0  0  0
 48194  1  0  0  0
 49195  1  0  0  0
 50196  1  0  0  0
 50197  1  0  0  0
 50198  1  0  0  0
 51199  1  0  0  0
 51200  1  0  0  0
 51201  1  0  0  0
 52202  1  0  0  0
 53203  1  0  0  0
 53204  1  0  0  0
 56205  1  0  0  0
 57206  1  0  0  0
 60207  1  0  0  0
 60208  1  0  0  0
 61209  1  0  0  0
 61210  1  0  0  0
 64211  1  0  0  0
 64212  1  0  0  0
 65213  1  0  0  0
 66214  1  0  0  0
 69215  1  0  0  0
 70216  1  0  0  0
 70217  1  0  0  0
 71218  1  0  0  0
 71219  1  0  0  0
 71220  1  0  0  0
 72221  1  0  0  0
 72222  1  0  0  0
 72223  1  0  0  0
 73224  1  0  0  0
 74225  1  0  0  0
 74226  1  0  0  0
 77227  1  0  0  0
 78228  1  0  0  0
 81229  1  0  0  0
 81230  1  0  0  0
 82231  1  0  0  0
 82232  1  0  0  0
 83233  1  0  0  0
 83234  1  0  0  0
 84235  1  0  0  0
 86236  1  0  0  0
 86237  1  0  0  0
 87238  1  0  0  0
 88239  1  0  0  0
 89240  1  0  0  0
 92241  1  0  0  0
 92242  1  0  0  0
 93243  1  0  0  0
 94244  1  0  0  0
 95245  1  0  0  0
 98246  1  0  0  0
 98247  1  0  0  0
 99248  1  0  0  0
 99249  1  0  0  0
100250  1  0  0  0
100251  1  0  0  0
101252  1  0  0  0
101253  1  0  0  0
102254  1  0  0  0
102255  1  0  0  0
102256  1  0  0  0
103257  1  0  0  0
104258  1  0  0  0
107259  1  0  0  0
107260  1  0  0  0
108261  1  0  0  0
108262  1  0  0  0
109263  1  0  0  0
109264  1  0  0  0
110265  1  0  0  0
112266  1  0  0  0
112267  1  0  0  0
113268  1  0  0  0
114269  1  0  0  0
115270  1  0  0  0
118271  1  0  0  0
119272  1  0  0  0
119273  1  0  0  0
119274  1  0  0  0
120275  1  0  0  0
120276  1  0  0  0
120277  1  0  0  0
121278  1  0  0  0
122279  1  0  0  0
125280  1  0  0  0
126281  1  0  0  0
126282  1  0  0  0
126283  1  0  0  0
127284  1  0  0  0
127285  1  0  0  0
127286  1  0  0  0
128287  1  0  0  0
129288  1  0  0  0
131289  1  0  0  0
132290  1  0  0  0
133291  1  0  0  0
133292  1  0  0  0
134293  1  0  0  0
134294  1  0  0  0
134295  1  0  0  0
135296  1  0  0  0
135297  1  0  0  0
135298  1  0  0  0
M  END
$$$$
