5to8_ligand
  -I-interpret- 

 63 67  0  0  0  0  0  0  0  0999 V2000
   -2.0610  -10.3590   40.5700 C   0  0  0  0  0
   -3.1170  -11.7950   42.6720 C   0  0  0  0  0
   -3.8640  -12.6100   43.6800 C   0  0  0  0  0
   -0.6970  -10.3290   36.5750 C   0  0  0  0  0
   -1.8210  -10.9080   35.9890 C   0  0  0  0  0
   -1.6600   -8.1940   35.9530 C   0  0  0  0  0
    2.0300   -9.0340   41.4650 N   0  0  0  0  0
    0.9390   -9.6680   41.0120 C   0  0  0  0  0
    0.7980  -10.0800   39.7250 N   0  0  0  0  0
    1.7720   -9.8430   38.8300 C   0  0  0  0  0
    2.9200   -9.1930   39.2330 C   0  0  0  0  0
    2.9910   -8.8020   40.5580 C   0  0  0  0  0
    4.0340   -8.8690   38.3150 C   0  0  0  0  0
   -0.0830   -9.8810   41.9510 N   0  0  0  0  0
   -1.3380  -10.4670   41.7760 C   0  0  0  0  0
   -3.3020  -10.9670   40.4240 C   0  0  0  0  0
   -3.8290  -11.6870   41.4760 C   0  0  0  0  0
   -1.8800  -11.1950   42.8370 C   0  0  0  0  0
   -5.0400  -12.4130   41.5840 N   0  0  0  0  0
   -5.2460  -12.6990   43.0180 C   0  0  0  0  0
    1.5160  -10.2930   37.5490 N   0  0  0  0  0
    0.4060  -11.1430   37.2090 C   0  0  0  0  0
   -2.8420  -10.2200   35.4050 N   0  0  0  0  0
   -2.7360   -8.8690   35.4000 C   0  0  0  0  0
   -0.6240   -8.9330   36.5380 C   0  0  0  0  0
   -1.9670  -12.3410   35.9950 N   0  0  0  0  0
   -2.5680  -13.0870   37.1550 C   0  0  0  0  0
   -1.4690  -13.1930   34.5670 S   0  0  0  0  0
   -4.0440  -12.7310   37.3480 C   0  0  0  0  0
   -5.9670  -12.8650   40.6430 C   0  0  0  0  0
   -6.9720  -13.5050   40.9690 O   0  0  0  0  0
   -4.6200  -13.4130   38.5900 C   0  0  0  0  0
   -5.8010  -12.6200   39.1510 C   0  0  0  0  0
   -0.5520  -12.3690   33.7940 O   0  0  0  0  0
   -1.1430  -14.5640   34.8900 O   0  0  0  0  0
   -3.0530  -13.2140   33.7590 C   0  0  0  0  0
    5.0490   -8.1440   38.8710 F   0  0  0  0  0
    4.6120   -9.9430   37.7390 F   0  0  0  0  0
    3.5350   -8.1080   37.3100 F   0  0  0  0  0
   -1.6404   -9.7905   39.7405 H   0  0  0  0  0
   -3.5204  -13.0270   44.6267 H   0  0  0  0  0
   -1.6203   -7.1049   35.9331 H   0  0  0  0  0
    3.8849   -8.2715   40.8862 H   0  0  0  0  0
    0.1210   -9.5614   42.8979 H   0  0  0  0  0
   -3.8532  -10.8759   39.4881 H   0  0  0  0  0
   -1.3390  -11.2894   43.7785 H   0  0  0  0  0
   -6.1918  -12.9279   43.5090 H   0  0  0  0  0
    2.1494  -10.0066   36.8025 H   0  0  0  0  0
    0.7408  -11.9027   36.5027 H   0  0  0  0  0
    0.0263  -11.6147   38.1153 H   0  0  0  0  0
   -3.5341   -8.2866   34.9397 H   0  0  0  0  0
    0.2384   -8.4204   36.9641 H   0  0  0  0  0
   -2.0258  -12.8124   38.0598 H   0  0  0  0  0
   -2.4945  -14.1556   36.9532 H   0  0  0  0  0
   -4.6008  -13.0709   36.4748 H   0  0  0  0  0
   -4.1279  -11.6515   37.4736 H   0  0  0  0  0
   -3.8421  -13.4685   39.3515 H   0  0  0  0  0
   -4.9665  -14.4088   38.3137 H   0  0  0  0  0
   -5.6152  -11.5580   38.9908 H   0  0  0  0  0
   -6.7097  -12.9412   38.6419 H   0  0  0  0  0
   -3.4393  -12.1969   33.6930 H   0  0  0  0  0
   -2.9427  -13.6279   32.7567 H   0  0  0  0  0
   -3.7445  -13.8301   34.3338 H   0  0  0  0  0
 15  1  4  0  0  0
  1 16  4  0  0  0
  2  3  4  0  0  0
  2 17  4  0  0  0
 18  2  4  0  0  0
  3 20  4  0  0  0
  4  5  4  0  0  0
 22  4  1  0  0  0
  4 25  4  0  0  0
  5 23  4  0  0  0
  5 26  1  0  0  0
  6 24  4  0  0  0
 25  6  4  0  0  0
  8  7  4  0  0  0
 12  7  4  0  0  0
  9  8  4  0  0  0
  8 14  1  0  0  0
 10  9  4  0  0  0
 10 11  4  0  0  0
 21 10  1  0  0  0
 11 12  4  0  0  0
 11 13  1  0  0  0
 13 37  1  0  0  0
 13 38  1  0  0  0
 13 39  1  0  0  0
 14 15  1  0  0  0
 15 18  4  0  0  0
 16 17  4  0  0  0
 17 19  4  0  0  0
 19 20  4  0  0  0
 19 30  1  0  0  0
 21 22  1  0  0  0
 23 24  4  0  0  0
 26 27  1  0  0  0
 26 28  1  0  0  0
 27 29  1  0  0  0
 28 34  2  0  0  0
 28 35  2  0  0  0
 28 36  1  0  0  0
 29 32  1  0  0  0
 30 31  2  0  0  0
 30 33  1  0  0  0
 32 33  1  0  0  0
  1 40  1  0  0  0
  3 41  1  0  0  0
  6 42  1  0  0  0
 12 43  1  0  0  0
 14 44  1  0  0  0
 16 45  1  0  0  0
 18 46  1  0  0  0
 20 47  1  0  0  0
 21 48  1  0  0  0
 22 49  1  0  0  0
 22 50  1  0  0  0
 24 51  1  0  0  0
 25 52  1  0  0  0
 27 53  1  0  0  0
 27 54  1  0  0  0
 29 55  1  0  0  0
 29 56  1  0  0  0
 32 57  1  0  0  0
 32 58  1  0  0  0
 33 59  1  0  0  0
 33 60  1  0  0  0
 36 61  1  0  0  0
 36 62  1  0  0  0
 36 63  1  0  0  0
M  END
$$$$
