6e49_ligand
  -I-interpret- 

291292  0  0  0  0  0  0  0  0999 V2000
  -32.2310   21.3820    2.7760 N   0  3  0  0  0
  -32.4210   19.9030    2.8080 C   0  0  0  0  0
  -32.2410   19.3360    4.2170 C   0  0  0  0  0
  -31.1660   19.4810    4.7970 O   0  0  0  0  0
  -31.4310   19.2090    1.8470 C   0  0  0  0  0
  -32.0670   18.8350    0.5090 C   0  0  0  0  0
  -32.8730   17.8990    0.4230 O   0  0  0  0  0
  -31.6910   19.5540   -0.5480 N   0  0  0  0  0
  -33.2920   18.7170    4.7640 N   0  0  0  0  0
  -33.1450   17.7680    5.8680 C   0  0  0  0  0
  -33.1100   16.3140    5.4050 C   0  0  0  0  0
  -33.1720   16.0350    4.2150 O   0  0  0  0  0
  -33.0130   15.3820    6.3510 N   0  0  0  0  0
  -33.2050   13.9420    6.0600 C   0  0  0  0  0
  -34.5810   13.6480    5.4520 C   0  0  0  0  0
  -34.7040   12.8130    4.5220 O   0  0  0  0  0
  -32.9410   13.0390    7.2990 C   0  0  0  0  0
  -33.1300   11.5500    6.9700 C   0  0  0  0  0
  -33.8460   13.3770    8.4640 C   0  0  0  0  0
  -32.0930   10.9800    6.0320 C   0  0  0  0  0
  -35.6100   14.3230    5.9550 N   0  0  0  0  0
  -36.9480   14.1440    5.3800 C   0  0  0  0  0
  -36.9680   14.5910    3.9310 C   0  0  0  0  0
  -37.5070   13.9050    3.0650 O   0  0  0  0  0
  -37.9890   14.9020    6.1650 C   0  0  0  0  0
  -36.3740   15.7520    3.6800 N   0  0  0  0  0
  -36.1990   16.2430    2.3290 C   0  0  0  0  0
  -35.5700   15.1800    1.4340 C   0  0  0  0  0
  -36.1090   14.8830    0.3560 O   0  0  0  0  0
  -35.3540   17.5020    2.3290 C   0  0  0  0  0
  -34.4670   14.5820    1.9000 N   0  0  0  0  0
  -33.7480   13.5720    1.1060 C   0  0  0  0  0
  -34.6350   12.3630    0.9080 C   0  0  0  0  0
  -34.6670   11.8450   -0.1900 O   0  0  0  0  0
  -32.4080   13.1530    1.7250 C   0  0  0  0  0
  -31.4320   14.3030    1.8750 C   0  0  0  0  0
  -30.0430   14.0570    2.9960 S   0  0  0  0  0
  -29.3430   12.6110    2.1570 C   0  0  0  0  0
  -35.3690   11.9290    1.9390 N   0  0  0  0  0
  -36.2470   10.7630    1.7840 C   0  0  0  0  0
  -37.3310   11.0300    0.7450 C   0  0  0  0  0
  -37.5700   10.2210   -0.1670 O   0  0  0  0  0
  -36.8580   10.3510    3.1190 C   0  0  0  0  0
  -35.8350    9.8240    4.1270 C   0  0  0  0  0
  -36.4270    9.8540    5.5250 C   0  0  0  0  0
  -35.3490    8.4190    3.7850 C   0  0  0  0  0
  -37.9400   12.2040    0.8480 N   0  0  0  0  0
  -39.0120   12.6030   -0.0530 C   0  0  0  0  0
  -38.5400   13.1470   -1.4030 C   0  0  0  0  0
  -39.3330   13.8230   -2.0150 O   0  0  0  0  0
  -39.8300   13.7520    0.5640 C   0  0  0  0  0
  -40.6670   13.4880    1.7950 C   0  0  0  0  0
  -41.3180   14.7780    2.3170 C   0  0  0  0  0
  -42.4760   14.7790    2.7250 O   0  0  0  0  0
  -40.5690   15.8840    2.2930 N   0  0  0  0  0
  -37.3100   12.9250   -1.8870 N   0  0  0  0  0
  -36.8630   13.7160   -3.0580 C   0  0  0  0  0
  -37.3700   13.2280   -4.4340 C   0  0  0  0  0
  -37.2100   13.9360   -5.4390 O   0  0  0  0  0
  -35.3500   13.9940   -3.0470 C   0  0  0  0  0
  -34.4800   13.1520   -3.9730 C   0  0  0  0  0
  -33.4510   12.3020   -3.2540 C   0  0  0  0  0
  -33.9510   10.9460   -3.0290 N   0  0  0  0  0
  -33.2070    9.8470   -3.0570 C   0  0  0  0  0
  -33.7770    8.6640   -2.8470 N   0  0  0  0  0
  -31.9000    9.9110   -3.2980 N   0  0  0  0  0
  -37.9850   12.0440   -4.4620 N   0  0  0  0  0
  -38.6700   11.5090   -5.6590 C   0  0  0  0  0
  -40.2270   11.5580   -5.5050 C   0  0  0  0  0
  -40.9280   11.9940   -6.4260 O   0  0  0  0  0
  -38.1350   10.0970   -6.0160 C   0  0  0  0  0
  -38.3610    9.0670   -4.9460 C   0  0  0  0  0
  -37.6310    9.0340   -3.7750 N   0  0  0  0  0
  -39.2490    8.0460   -4.8640 C   0  0  0  0  0
  -38.0590    8.0420   -3.0170 C   0  0  0  0  0
  -39.0350    7.4220   -3.6580 N   0  0  0  0  0
  -40.7410   11.1700   -4.3310 N   0  0  0  0  0
  -42.1920   11.1740   -4.0240 C   0  0  0  0  0
  -42.8020   12.5900   -3.7730 C   0  0  0  0  0
  -44.0010   12.7410   -3.5570 O   0  0  0  0  0
  -42.4810   10.2230   -2.8350 C   0  0  0  0  0
  -43.6010    9.3860   -3.1130 O   0  0  0  0  0
  -41.9460   13.6050   -3.7600 N   0  0  0  0  0
  -42.3310   15.0200   -3.7950 C   0  0  0  0  0
  -42.9990   15.4600   -5.1240 C   0  0  0  0  0
  -43.8430   16.3770   -5.1420 O   0  0  0  0  0
  -41.0640   15.8570   -3.6000 C   0  0  0  0  0
  -41.2450   17.1570   -2.8570 C   0  0  0  0  0
  -40.1710   18.1590   -3.2650 C   0  0  0  0  0
  -40.5970   19.0000   -4.3920 N   0  0  0  0  0
  -40.1470   18.9580   -5.6520 C   0  0  0  0  0
  -39.2110   18.1010   -6.0710 N   0  0  0  0  0
  -40.6610   19.8130   -6.5220 N   0  0  0  0  0
  -42.5800   14.8290   -6.2260 N   0  0  0  0  0
  -43.1220   15.0850   -7.5670 C   0  0  0  0  0
  -44.3320   14.1990   -7.9100 C   0  0  0  0  0
  -45.0720   14.4840   -8.8390 O   0  0  0  0  0
  -42.0220   14.9200   -8.6190 C   0  0  0  0  0
  -40.7680   15.7480   -8.3310 C   0  0  0  0  0
  -39.7290   15.6870   -9.4480 C   0  0  0  0  0
  -38.3200   15.7870   -8.8860 C   0  0  0  0  0
  -37.3600   16.2780   -9.8980 N   0  3  0  0  0
  -44.4880   13.1010   -7.1790 N   0  0  0  0  0
  -45.7090   12.2980   -7.1600 C   0  0  0  0  0
  -46.8230   12.9890   -6.3270 C   0  0  0  0  0
  -46.5970   13.4700   -5.2040 O   0  0  0  0  0
  -45.3830   10.9310   -6.5210 C   0  0  0  0  0
  -45.0710    9.7710   -7.4570 C   0  0  0  0  0
  -46.1420    8.7190   -7.2390 C   0  0  0  0  0
  -45.9710    7.5170   -8.0350 N   0  0  0  0  0
  -46.8260    6.4910   -8.0280 C   0  0  0  0  0
  -47.9190    6.5130   -7.2540 N   0  0  0  0  0
  -46.5900    5.4290   -8.7980 N   0  0  0  0  0
  -48.0390   12.9850   -6.8380 N   0  0  0  0  0
  -49.1620   13.4270   -6.0340 C   0  0  0  0  0
  -49.5700   12.3390   -5.0380 C   0  0  0  0  0
  -49.8220   11.1940   -5.4380 O   0  0  0  0  0
  -50.3490   13.7970   -6.9220 C   0  0  0  0  0
  -51.4200   14.5330   -6.1920 C   0  0  0  0  0
  -51.2560   15.8840   -5.8860 C   0  0  0  0  0
  -52.5740   13.8830   -5.7730 C   0  0  0  0  0
  -52.2390   16.5790   -5.2020 C   0  0  0  0  0
  -53.5690   14.5710   -5.0780 C   0  0  0  0  0
  -53.4030   15.9160   -4.7980 C   0  0  0  0  0
  -49.6710   12.7100   -3.7590 N   0  0  0  0  0
  -50.1700   11.8000   -2.6680 C   0  0  0  0  0
  -51.7430   11.6400   -2.6730 C   0  0  0  0  0
  -52.4630   12.4980   -2.1570 O   0  0  0  0  0
  -49.6250   12.2220   -1.2750 C   0  0  0  0  0
  -48.9150   13.5810   -1.1230 C   0  0  0  0  0
  -49.8660   14.7690   -0.9650 C   0  0  0  0  0
  -50.0340   15.5930   -1.8800 O   0  0  0  0  0
  -50.4970   14.8540    0.2040 N   0  0  0  0  0
  -52.2580   10.5270   -3.2160 N   0  0  0  0  0
  -53.5620   10.5180   -3.9950 C   0  0  0  0  0
  -54.9510   10.8980   -3.3840 C   0  0  0  0  0
  -55.1460   11.1550   -2.1970 O   0  0  0  0  0
  -53.7070    9.1900   -4.7660 C   0  0  0  0  0
  -52.8550    9.1140   -6.0580 C   0  0  0  0  0
  -52.3690    7.6920   -6.3800 C   0  0  0  0  0
  -53.5970    9.7810   -7.2310 C   0  0  0  0  0
  -55.9980   10.9810   -4.0250 O   0  0  0  0  0
  -32.8922   21.8225    3.4157 H   0  0  0  0  0
  -31.2781   21.6074    3.0617 H   0  0  0  0  0
  -32.3932   21.7240    1.8288 H   0  0  0  0  0
  -33.4439   19.7050    2.4876 H   0  0  0  0  0
  -31.0924   18.2893    2.3240 H   0  0  0  0  0
  -30.6172   19.9057    1.6462 H   0  0  0  0  0
  -32.0700   19.3409   -1.4707 H   0  0  0  0  0
  -31.0242   20.3174   -0.4344 H   0  0  0  0  0
  -34.2249   18.9122    4.4007 H   0  0  0  0  0
  -34.0071   17.8865    6.5244 H   0  0  0  0  0
  -32.1984   17.9809    6.3647 H   0  0  0  0  0
  -32.7997   15.6685    7.3064 H   0  0  0  0  0
  -32.4535   13.6913    5.3113 H   0  0  0  0  0
  -31.9052   13.2312    7.5790 H   0  0  0  0  0
  -34.0962   11.4526    6.4749 H   0  0  0  0  0
  -33.0465   11.0026    7.9088 H   0  0  0  0  0
  -33.6821   14.4128    8.7611 H   0  0  0  0  0
  -34.8858   13.2435    8.1654 H   0  0  0  0  0
  -33.6196   12.7172    9.3016 H   0  0  0  0  0
  -32.1240   11.5209    5.0862 H   0  0  0  0  0
  -31.1044   11.0837    6.4791 H   0  0  0  0  0
  -32.3047    9.9254    5.8560 H   0  0  0  0  0
  -35.4700   14.9625    6.7372 H   0  0  0  0  0
  -37.1888   13.0821    5.4298 H   0  0  0  0  0
  -38.0019   14.5400    7.1930 H   0  0  0  0  0
  -37.7467   15.9647    6.1557 H   0  0  0  0  0
  -38.9681   14.7473    5.7116 H   0  0  0  0  0
  -36.0318   16.3131    4.4600 H   0  0  0  0  0
  -37.1838   16.4816    1.9273 H   0  0  0  0  0
  -35.8479   18.2695    2.9249 H   0  0  0  0  0
  -34.3759   17.2816    2.7566 H   0  0  0  0  0
  -35.2330   17.8568    1.3055 H   0  0  0  0  0
  -34.1170   14.8314    2.8251 H   0  0  0  0  0
  -33.5096   14.0291    0.1456 H   0  0  0  0  0
  -31.9529   12.4189    1.0601 H   0  0  0  0  0
  -32.6130   12.7625    2.7218 H   0  0  0  0  0
  -32.0078   15.1293    2.2918 H   0  0  0  0  0
  -30.9946   14.4525    0.8879 H   0  0  0  0  0
  -30.0803   11.8083    2.1431 H   0  0  0  0  0
  -29.0768   12.8793    1.1346 H   0  0  0  0  0
  -28.4524   12.2788    2.6905 H   0  0  0  0  0
  -35.3182   12.4106    2.8367 H   0  0  0  0  0
  -35.6374    9.9325    1.4279 H   0  0  0  0  0
  -37.5640    9.5449    2.9194 H   0  0  0  0  0
  -37.3177   11.2381    3.5547 H   0  0  0  0  0
  -34.9647   10.4788    4.0828 H   0  0  0  0  0
  -36.6933   10.8789    5.7835 H   0  0  0  0  0
  -37.3183    9.2272    5.5543 H   0  0  0  0  0
  -35.6929    9.4774    6.2372 H   0  0  0  0  0
  -36.1971    7.7344    3.7773 H   0  0  0  0  0
  -34.8787    8.4279    2.8017 H   0  0  0  0  0
  -34.6252    8.0943    4.5325 H   0  0  0  0  0
  -37.6477   12.8485    1.5826 H   0  0  0  0  0
  -39.5808   11.6857   -0.2051 H   0  0  0  0  0
  -40.5494   14.0264   -0.2075 H   0  0  0  0  0
  -39.0863   14.4814    0.8849 H   0  0  0  0  0
  -40.0194   13.0869    2.5746 H   0  0  0  0  0
  -41.4562   12.7835    1.5326 H   0  0  0  0  0
  -40.9557   16.7690    2.6210 H   0  0  0  0  0
  -39.6105   15.8434    1.9467 H   0  0  0  0  0
  -36.6975   12.2298   -1.4605 H   0  0  0  0  0
  -37.3690   14.6722   -2.9249 H   0  0  0  0  0
  -35.0143   13.7642   -2.0357 H   0  0  0  0  0
  -35.2358   15.0229   -3.3883 H   0  0  0  0  0
  -33.9347   13.8413   -4.6176 H   0  0  0  0  0
  -35.1430   12.4717   -4.5075 H   0  0  0  0  0
  -33.2355   12.7586   -2.2880 H   0  0  0  0  0
  -32.5541   12.2448   -3.8707 H   0  0  0  0  0
  -34.9466   10.8366   -2.8360 H   0  0  0  0  0
  -34.7791    8.6057   -2.6660 H   0  0  0  0  0
  -31.3431    9.0567   -3.3206 H   0  0  0  0  0
  -31.4549   10.8143   -3.4601 H   0  0  0  0  0
  -37.9826   11.4781   -3.6134 H   0  0  0  0  0
  -38.4366   12.1550   -6.5054 H   0  0  0  0  0
  -37.0576   10.1861   -6.1556 H   0  0  0  0  0
  -38.6725    9.7633   -6.9036 H   0  0  0  0  0
  -39.9921    7.7717   -5.6127 H   0  0  0  0  0
  -37.6740    7.7791   -2.0318 H   0  0  0  0  0
  -40.0973   10.8534   -3.6058 H   0  0  0  0  0
  -42.6922   10.8124   -4.9224 H   0  0  0  0  0
  -42.7025   10.8230   -1.9524 H   0  0  0  0  0
  -41.6064    9.5941   -2.6688 H   0  0  0  0  0
  -43.7603    8.8072   -2.3639 H   0  0  0  0  0
  -40.9506   13.3853   -3.7231 H   0  0  0  0  0
  -43.0682   15.1701   -3.0062 H   0  0  0  0  0
  -40.7111   16.1188   -4.5975 H   0  0  0  0  0
  -40.3840   15.2516   -3.0006 H   0  0  0  0  0
  -41.1642   16.9674   -1.7867 H   0  0  0  0  0
  -42.2245   17.5696   -3.0987 H   0  0  0  0  0
  -39.2862   17.6017   -3.5728 H   0  0  0  0  0
  -39.9718   18.8088   -2.4129 H   0  0  0  0  0
  -41.3169   19.6942   -4.1916 H   0  0  0  0  0
  -38.9062   18.1144   -7.0443 H   0  0  0  0  0
  -38.8014   17.4335   -5.4175 H   0  0  0  0  0
  -41.3766   20.4758   -6.2238 H   0  0  0  0  0
  -41.8427   14.1308   -6.1300 H   0  0  0  0  0
  -43.4828   16.1135   -7.5704 H   0  0  0  0  0
  -42.4273   15.2620   -9.5713 H   0  0  0  0  0
  -41.7269   13.8707   -8.6208 H   0  0  0  0  0
  -40.3063   15.3416   -7.4312 H   0  0  0  0  0
  -41.0782   16.7879   -8.2282 H   0  0  0  0  0
  -39.8953   16.5234  -10.1269 H   0  0  0  0  0
  -39.8312   14.7353   -9.9696 H   0  0  0  0  0
  -38.0057   14.7926   -8.5690 H   0  0  0  0  0
  -38.3317   16.4912   -8.0541 H   0  0  0  0  0
  -36.4292   16.3312   -9.4843 H   0  0  0  0  0
  -37.3450   15.6359  -10.6904 H   0  0  0  0  0
  -37.6460   17.2044  -10.2149 H   0  0  0  0  0
  -43.7078   12.7998   -6.5951 H   0  0  0  0  0
  -46.0682   12.1793   -8.1822 H   0  0  0  0  0
  -46.2839   10.6378   -5.9821 H   0  0  0  0  0
  -44.4752   11.0893   -5.9388 H   0  0  0  0  0
  -44.0827    9.3624   -7.2461 H   0  0  0  0  0
  -45.0664   10.1052   -8.4945 H   0  0  0  0  0
  -47.0928    9.1644   -7.5316 H   0  0  0  0  0
  -46.0891    8.4202   -6.1921 H   0  0  0  0  0
  -45.1489    7.4522   -8.6353 H   0  0  0  0  0
  -48.5623    5.7214   -7.2573 H   0  0  0  0  0
  -48.1081    7.3213   -6.6613 H   0  0  0  0  0
  -45.7593    5.4022   -9.3893 H   0  0  0  0  0
  -48.1892   12.6716   -7.7970 H   0  0  0  0  0
  -48.8538   14.3129   -5.4787 H   0  0  0  0  0
  -50.7821   12.8702   -7.2983 H   0  0  0  0  0
  -49.9795   14.4495   -7.7131 H   0  0  0  0  0
  -50.3439   16.3983   -6.1887 H   0  0  0  0  0
  -52.7037   12.8227   -5.9898 H   0  0  0  0  0
  -52.1067   17.6378   -4.9793 H   0  0  0  0  0
  -54.4722   14.0519   -4.7573 H   0  0  0  0  0
  -54.1805   16.4600   -4.2617 H   0  0  0  0  0
  -49.3957   13.6595   -3.5081 H   0  0  0  0  0
  -49.7699   10.8093   -2.8836 H   0  0  0  0  0
  -48.8612   11.4811   -1.0390 H   0  0  0  0  0
  -50.5089   12.2975   -0.6416 H   0  0  0  0  0
  -48.3396   13.7477   -2.0336 H   0  0  0  0  0
  -48.3106   13.5293   -0.2174 H   0  0  0  0  0
  -51.1494   15.6187    0.3770 H   0  0  0  0  0
  -50.3281   14.1544    0.9268 H   0  0  0  0  0
  -51.7522    9.6487   -3.1009 H   0  0  0  0  0
  -53.3810   11.4154   -4.5866 H   0  0  0  0  0
  -54.7521    9.1011   -5.0626 H   0  0  0  0  0
  -53.3637    8.3938   -4.1054 H   0  0  0  0  0
  -51.9404    9.6804   -5.8823 H   0  0  0  0  0
  -51.7550    7.3244   -5.5579 H   0  0  0  0  0
  -53.2298    7.0367   -6.5135 H   0  0  0  0  0
  -51.7788    7.7099   -7.2962 H   0  0  0  0  0
  -54.5439    9.2680   -7.3990 H   0  0  0  0  0
  -53.7867   10.8273   -6.9914 H   0  0  0  0  0
  -52.9838    9.7182   -8.1299 H   0  0  0  0  0
  -55.8245   10.7771   -4.9469 H   0  0  0  0  0
  1  2  1  0  0  0
  2  3  1  0  0  0
  2  5  1  0  0  0
  3  4  2  0  0  0
  3  9  1  0  0  0
  5  6  1  0  0  0
  6  7  2  0  0  0
  6  8  1  0  0  0
  9 10  1  0  0  0
 10 11  1  0  0  0
 11 12  2  0  0  0
 11 13  1  0  0  0
 13 14  1  0  0  0
 14 15  1  0  0  0
 14 17  1  0  0  0
 15 16  2  0  0  0
 15 21  1  0  0  0
 17 18  1  0  0  0
 17 19  1  0  0  0
 18 20  1  0  0  0
 21 22  1  0  0  0
 22 23  1  0  0  0
 22 25  1  0  0  0
 23 24  2  0  0  0
 23 26  1  0  0  0
 26 27  1  0  0  0
 27 28  1  0  0  0
 27 30  1  0  0  0
 28 29  2  0  0  0
 28 31  1  0  0  0
 31 32  1  0  0  0
 32 33  1  0  0  0
 32 35  1  0  0  0
 33 34  2  0  0  0
 33 39  1  0  0  0
 35 36  1  0  0  0
 36 37  1  0  0  0
 37 38  1  0  0  0
 39 40  1  0  0  0
 40 41  1  0  0  0
 40 43  1  0  0  0
 41 42  2  0  0  0
 41 47  1  0  0  0
 43 44  1  0  0  0
 44 45  1  0  0  0
 44 46  1  0  0  0
 47 48  1  0  0  0
 48 49  1  0  0  0
 48 51  1  0  0  0
 49 50  2  0  0  0
 49 56  1  0  0  0
 51 52  1  0  0  0
 52 53  1  0  0  0
 53 54  2  0  0  0
 53 55  1  0  0  0
 56 57  1  0  0  0
 57 58  1  0  0  0
 57 60  1  0  0  0
 58 59  2  0  0  0
 58 67  1  0  0  0
 60 61  1  0  0  0
 61 62  1  0  0  0
 62 63  1  0  0  0
 63 64  1  0  0  0
 64 65  2  0  0  0
 64 66  1  0  0  0
 67 68  1  0  0  0
 68 69  1  0  0  0
 68 71  1  0  0  0
 69 70  2  0  0  0
 69 77  1  0  0  0
 71 72  1  0  0  0
 72 73  4  0  0  0
 72 74  4  0  0  0
 73 75  4  0  0  0
 74 76  4  0  0  0
 75 76  4  0  0  0
 77 78  1  0  0  0
 78 79  1  0  0  0
 78 81  1  0  0  0
 79 80  2  0  0  0
 79 83  1  0  0  0
 81 82  1  0  0  0
 83 84  1  0  0  0
 84 85  1  0  0  0
 84 87  1  0  0  0
 85 86  2  0  0  0
 85 94  1  0  0  0
 87 88  1  0  0  0
 88 89  1  0  0  0
 89 90  1  0  0  0
 90 91  1  0  0  0
 91 92  1  0  0  0
 91 93  2  0  0  0
 94 95  1  0  0  0
 95 96  1  0  0  0
 95 98  1  0  0  0
 96 97  2  0  0  0
 96103  1  0  0  0
 98 99  1  0  0  0
 99100  1  0  0  0
100101  1  0  0  0
101102  1  0  0  0
103104  1  0  0  0
104105  1  0  0  0
104107  1  0  0  0
105106  2  0  0  0
105114  1  0  0  0
107108  1  0  0  0
108109  1  0  0  0
109110  1  0  0  0
110111  1  0  0  0
111112  1  0  0  0
111113  2  0  0  0
114115  1  0  0  0
115116  1  0  0  0
115118  1  0  0  0
116117  2  0  0  0
116125  1  0  0  0
118119  1  0  0  0
119120  4  0  0  0
119121  4  0  0  0
120122  4  0  0  0
121123  4  0  0  0
122124  4  0  0  0
123124  4  0  0  0
125126  1  0  0  0
126127  1  0  0  0
126129  1  0  0  0
127128  2  0  0  0
127134  1  0  0  0
129130  1  0  0  0
130131  1  0  0  0
131132  2  0  0  0
131133  1  0  0  0
134135  1  0  0  0
135136  1  0  0  0
135138  1  0  0  0
136137  2  0  0  0
136142  1  0  0  0
138139  1  0  0  0
139140  1  0  0  0
139141  1  0  0  0
  1143  1  0  0  0
  1144  1  0  0  0
  1145  1  0  0  0
  2146  1  0  0  0
  5147  1  0  0  0
  5148  1  0  0  0
  8149  1  0  0  0
  8150  1  0  0  0
  9151  1  0  0  0
 10152  1  0  0  0
 10153  1  0  0  0
 13154  1  0  0  0
 14155  1  0  0  0
 17156  1  0  0  0
 18157  1  0  0  0
 18158  1  0  0  0
 19159  1  0  0  0
 19160  1  0  0  0
 19161  1  0  0  0
 20162  1  0  0  0
 20163  1  0  0  0
 20164  1  0  0  0
 21165  1  0  0  0
 22166  1  0  0  0
 25167  1  0  0  0
 25168  1  0  0  0
 25169  1  0  0  0
 26170  1  0  0  0
 27171  1  0  0  0
 30172  1  0  0  0
 30173  1  0  0  0
 30174  1  0  0  0
 31175  1  0  0  0
 32176  1  0  0  0
 35177  1  0  0  0
 35178  1  0  0  0
 36179  1  0  0  0
 36180  1  0  0  0
 38181  1  0  0  0
 38182  1  0  0  0
 38183  1  0  0  0
 39184  1  0  0  0
 40185  1  0  0  0
 43186  1  0  0  0
 43187  1  0  0  0
 44188  1  0  0  0
 45189  1  0  0  0
 45190  1  0  0  0
 45191  1  0  0  0
 46192  1  0  0  0
 46193  1  0  0  0
 46194  1  0  0  0
 47195  1  0  0  0
 48196  1  0  0  0
 51197  1  0  0  0
 51198  1  0  0  0
 52199  1  0  0  0
 52200  1  0  0  0
 55201  1  0  0  0
 55202  1  0  0  0
 56203  1  0  0  0
 57204  1  0  0  0
 60205  1  0  0  0
 60206  1  0  0  0
 61207  1  0  0  0
 61208  1  0  0  0
 62209  1  0  0  0
 62210  1  0  0  0
 63211  1  0  0  0
 65212  1  0  0  0
 66213  1  0  0  0
 66214  1  0  0  0
 67215  1  0  0  0
 68216  1  0  0  0
 71217  1  0  0  0
 71218  1  0  0  0
 74219  1  0  0  0
 75220  1  0  0  0
 77221  1  0  0  0
 78222  1  0  0  0
 81223  1  0  0  0
 81224  1  0  0  0
 82225  1  0  0  0
 83226  1  0  0  0
 84227  1  0  0  0
 87228  1  0  0  0
 87229  1  0  0  0
 88230  1  0  0  0
 88231  1  0  0  0
 89232  1  0  0  0
 89233  1  0  0  0
 90234  1  0  0  0
 92235  1  0  0  0
 92236  1  0  0  0
 93237  1  0  0  0
 94238  1  0  0  0
 95239  1  0  0  0
 98240  1  0  0  0
 98241  1  0  0  0
 99242  1  0  0  0
 99243  1  0  0  0
100244  1  0  0  0
100245  1  0  0  0
101246  1  0  0  0
101247  1  0  0  0
102248  1  0  0  0
102249  1  0  0  0
102250  1  0  0  0
103251  1  0  0  0
104252  1  0  0  0
107253  1  0  0  0
107254  1  0  0  0
108255  1  0  0  0
108256  1  0  0  0
109257  1  0  0  0
109258  1  0  0  0
110259  1  0  0  0
112260  1  0  0  0
112261  1  0  0  0
113262  1  0  0  0
114263  1  0  0  0
115264  1  0  0  0
118265  1  0  0  0
118266  1  0  0  0
120267  1  0  0  0
121268  1  0  0  0
122269  1  0  0  0
123270  1  0  0  0
124271  1  0  0  0
125272  1  0  0  0
126273  1  0  0  0
129274  1  0  0  0
129275  1  0  0  0
130276  1  0  0  0
130277  1  0  0  0
133278  1  0  0  0
133279  1  0  0  0
134280  1  0  0  0
135281  1  0  0  0
138282  1  0  0  0
138283  1  0  0  0
139284  1  0  0  0
140285  1  0  0  0
140286  1  0  0  0
140287  1  0  0  0
141288  1  0  0  0
141289  1  0  0  0
141290  1  0  0  0
142291  1  0  0  0
M  END
$$$$
