### 
### Created by X-TOOL on Wed Jan  1 15:39:37 2020
### 

@<TRIPOS>MOLECULE
6e49_ligand
  294   295     1     0     0
SMALL
GAST_HUCK


@<TRIPOS>ATOM
      1 N         -32.2310   21.3820    2.7760 N.4       1 ASN         0.2396
      2 CA        -32.4210   19.9030    2.8080 C.3       1 ASN         0.0818
      3 C         -32.2410   19.3360    4.2170 C.2       1 ASN         0.2289
      4 O         -31.1660   19.4810    4.7970 O.2       1 ASN        -0.3905
      5 CB        -31.4310   19.2090    1.8470 C.3       1 ASN         0.0972
      6 CG        -32.0670   18.8350    0.5090 C.2       1 ASN         0.1813
      7 OD1       -32.8730   17.8990    0.4230 O.2       1 ASN        -0.3969
      8 ND2       -31.6910   19.5540   -0.5480 N.am      1 ASN        -0.3006
      9 N         -33.2920   18.7170    4.7640 N.am      1 GLY        -0.2636
     10 CA        -33.1450   17.7680    5.8680 C.3       1 GLY         0.1202
     11 C         -33.1100   16.3140    5.4050 C.2       1 GLY         0.2008
     12 O         -33.1720   16.0350    4.2150 O.2       1 GLY        -0.3947
     13 N         -33.0130   15.3820    6.3510 N.am      1 ILE        -0.2637
     14 CA        -33.2050   13.9420    6.0600 C.3       1 ILE         0.1335
     15 C         -34.5810   13.6480    5.4520 C.2       1 ILE         0.2041
     16 O         -34.7040   12.8130    4.5220 O.2       1 ILE        -0.3944
     17 CB        -32.9410   13.0390    7.2990 C.3       1 ILE        -0.0037
     18 CG1       -33.1300   11.5500    6.9700 C.3       1 ILE        -0.0491
     19 CG2       -33.8460   13.3770    8.4640 C.3       1 ILE        -0.0582
     20 CD1       -32.0930   10.9800    6.0320 C.3       1 ILE        -0.0648
     21 N         -35.6100   14.3230    5.9550 N.am      1 ALA        -0.2640
     22 CA        -36.9480   14.1440    5.3800 C.3       1 ALA         0.1282
     23 C         -36.9680   14.5910    3.9310 C.2       1 ALA         0.2036
     24 O         -37.5070   13.9050    3.0650 O.2       1 ALA        -0.3944
     25 CB        -37.9890   14.9020    6.1650 C.3       1 ALA        -0.0244
     26 N         -36.3740   15.7520    3.6800 N.am      1 ALA        -0.2640
     27 CA        -36.1990   16.2430    2.3290 C.3       1 ALA         0.1282
     28 C         -35.5700   15.1800    1.4340 C.2       1 ALA         0.2036
     29 O         -36.1090   14.8830    0.3560 O.2       1 ALA        -0.3944
     30 CB        -35.3540   17.5020    2.3290 C.3       1 ALA        -0.0244
     31 N         -34.4670   14.5820    1.9000 N.am      1 MET        -0.2637
     32 CA        -33.7480   13.5720    1.1060 C.3       1 MET         0.1317
     33 C         -34.6350   12.3630    0.9080 C.2       1 MET         0.2039
     34 O         -34.6670   11.8450   -0.1900 O.2       1 MET        -0.3944
     35 CB        -32.4080   13.1530    1.7250 C.3       1 MET        -0.0034
     36 CG        -31.4320   14.3030    1.8750 C.3       1 MET        -0.0024
     37 SD        -30.0430   14.0570    2.9960 S.3       1 MET        -0.1639
     38 CE        -29.3430   12.6110    2.1570 C.3       1 MET        -0.0181
     39 N         -35.3690   11.9290    1.9390 N.am      1 LEU        -0.2637
     40 CA        -36.2470   10.7630    1.7840 C.3       1 LEU         0.1312
     41 C         -37.3310   11.0300    0.7450 C.2       1 LEU         0.2039
     42 O         -37.5700   10.2210   -0.1670 O.2       1 LEU        -0.3944
     43 CB        -36.8580   10.3510    3.1190 C.3       1 LEU        -0.0101
     44 CG        -35.8350    9.8240    4.1270 C.3       1 LEU        -0.0425
     45 CD1       -36.4270    9.8540    5.5250 C.3       1 LEU        -0.0625
     46 CD2       -35.3490    8.4190    3.7850 C.3       1 LEU        -0.0625
     47 N         -37.9400   12.2040    0.8480 N.am      1 GLN        -0.2636
     48 CA        -39.0120   12.6030   -0.0530 C.3       1 GLN         0.1330
     49 C         -38.5400   13.1470   -1.4030 C.2       1 GLN         0.2040
     50 O         -39.3330   13.8230   -2.0150 O.2       1 GLN        -0.3944
     51 CB        -39.8300   13.7520    0.5640 C.3       1 GLN         0.0045
     52 CG        -40.6670   13.4880    1.7950 C.3       1 GLN         0.0412
     53 CD        -41.3180   14.7780    2.3170 C.2       1 GLN         0.1737
     54 OE1       -42.4760   14.7790    2.7250 O.2       1 GLN        -0.3973
     55 NE2       -40.5690   15.8840    2.2930 N.am      1 GLN        -0.3009
     56 N         -37.3100   12.9250   -1.8870 N.am      1 ARG        -0.2637
     57 CA        -36.8630   13.7160   -3.0580 C.3       1 ARG         0.1311
     58 C         -37.3700   13.2280   -4.4340 C.2       1 ARG         0.2040
     59 O         -37.2100   13.9360   -5.4390 O.2       1 ARG        -0.3944
     60 CB        -35.3500   13.9940   -3.0470 C.3       1 ARG        -0.0092
     61 CG        -34.4800   13.1520   -3.9730 C.3       1 ARG        -0.0156
     62 CD        -33.4510   12.3020   -3.2540 C.3       1 ARG         0.0627
     63 NE        -33.9510   10.9460   -3.0290 N.pl3     1 ARG        -0.2723
     64 CZ        -33.2070    9.8470   -3.0570 C.cat     1 ARG         0.2882
     65 NH1       -33.7770    8.6640   -2.8470 N.pl3     1 ARG        -0.2849
     66 NH2       -31.9000    9.9110   -3.2980 N.pl3     1 ARG        -0.2849
     67 N         -37.9850   12.0440   -4.4620 N.am      1 HIS        -0.2625
     68 CA        -38.6700   11.5090   -5.6590 C.3       1 HIS         0.1369
     69 C         -40.2270   11.5580   -5.5050 C.2       1 HIS         0.2054
     70 O         -40.9280   11.9940   -6.4260 O.2       1 HIS        -0.3942
     71 CB        -38.1350   10.0970   -6.0160 C.3       1 HIS         0.0145
     72 CG        -38.3610    9.0670   -4.9460 C.2       1 HIS        -0.0027
     73 ND1       -37.6310    9.0340   -3.7750 N.2       1 HIS        -0.3252
     74 CD2       -39.2490    8.0460   -4.8640 C.2       1 HIS         0.0291
     75 CE1       -38.0590    8.0420   -3.0170 C.2       1 HIS         0.0907
     76 NE2       -39.0350    7.4220   -3.6580 N.pl3     1 HIS        -0.2752
     77 N         -40.7410   11.1700   -4.3310 N.am      1 SER        -0.2615
     78 CA        -42.1920   11.1740   -4.0240 C.3       1 SER         0.1539
     79 C         -42.8020   12.5900   -3.7730 C.2       1 SER         0.2062
     80 O         -44.0010   12.7410   -3.5570 O.2       1 SER        -0.3943
     81 CB        -42.4810   10.2230   -2.8350 C.3       1 SER         0.0843
     82 OG        -43.6010    9.3860   -3.1130 O.3       1 SER        -0.3903
     83 N         -41.9460   13.6050   -3.7600 N.am      1 ARG        -0.2637
     84 CA        -42.3310   15.0200   -3.7950 C.3       1 ARG         0.1311
     85 C         -42.9990   15.4600   -5.1240 C.2       1 ARG         0.2039
     86 O         -43.8430   16.3770   -5.1420 O.2       1 ARG        -0.3944
     87 CB        -41.0640   15.8570   -3.6000 C.3       1 ARG        -0.0092
     88 CG        -41.2450   17.1570   -2.8570 C.3       1 ARG        -0.0156
     89 CD        -40.1710   18.1590   -3.2650 C.3       1 ARG         0.0627
     90 NE        -40.5970   19.0000   -4.3920 N.pl3     1 ARG        -0.2723
     91 CZ        -40.1470   18.9580   -5.6520 C.cat     1 ARG         0.2882
     92 NH1       -39.2110   18.1010   -6.0710 N.pl3     1 ARG        -0.2849
     93 NH2       -40.6610   19.8130   -6.5220 N.pl3     1 ARG        -0.2849
     94 N         -42.5800   14.8290   -6.2260 N.am      1 LYS        -0.2637
     95 CA        -43.1220   15.0850   -7.5670 C.3       1 LYS         0.1310
     96 C         -44.3320   14.1990   -7.9100 C.2       1 LYS         0.2039
     97 O         -45.0720   14.4840   -8.8390 O.2       1 LYS        -0.3944
     98 CB        -42.0220   14.9200   -8.6190 C.3       1 LYS        -0.0122
     99 CG        -40.7680   15.7480   -8.3310 C.3       1 LYS        -0.0440
    100 CD        -39.7290   15.6870   -9.4480 C.3       1 LYS        -0.0124
    101 CE        -38.3200   15.7870   -8.8860 C.3       1 LYS        -0.0354
    102 NZ        -37.3600   16.2780   -9.8980 N.4       1 LYS         0.2185
    103 N         -44.4880   13.1010   -7.1790 N.am      1 ARG        -0.2637
    104 CA        -45.7090   12.2980   -7.1600 C.3       1 ARG         0.1311
    105 C         -46.8230   12.9890   -6.3270 C.2       1 ARG         0.2040
    106 O         -46.5970   13.4700   -5.2040 O.2       1 ARG        -0.3944
    107 CB        -45.3830   10.9310   -6.5210 C.3       1 ARG        -0.0092
    108 CG        -45.0710    9.7710   -7.4570 C.3       1 ARG        -0.0156
    109 CD        -46.1420    8.7190   -7.2390 C.3       1 ARG         0.0627
    110 NE        -45.9710    7.5170   -8.0350 N.pl3     1 ARG        -0.2723
    111 CZ        -46.8260    6.4910   -8.0280 C.cat     1 ARG         0.2882
    112 NH1       -47.9190    6.5130   -7.2540 N.pl3     1 ARG        -0.2849
    113 NH2       -46.5900    5.4290   -8.7980 N.pl3     1 ARG        -0.2849
    114 N         -48.0390   12.9850   -6.8380 N.am      1 PHE        -0.2619
    115 CA        -49.1620   13.4270   -6.0340 C.3       1 PHE         0.1404
    116 C         -49.5700   12.3390   -5.0380 C.2       1 PHE         0.2060
    117 O         -49.8220   11.1940   -5.4380 O.2       1 PHE        -0.3942
    118 CB        -50.3490   13.7970   -6.9220 C.3       1 PHE         0.0214
    119 CG        -51.4200   14.5330   -6.1920 C.ar      1 PHE        -0.0386
    120 CD1       -51.2560   15.8840   -5.8860 C.ar      1 PHE        -0.0601
    121 CD2       -52.5740   13.8830   -5.7730 C.ar      1 PHE        -0.0601
    122 CE1       -52.2390   16.5790   -5.2020 C.ar      1 PHE        -0.0686
    123 CE2       -53.5690   14.5710   -5.0780 C.ar      1 PHE        -0.0686
    124 CZ        -53.4030   15.9160   -4.7980 C.ar      1 PHE        -0.0687
    125 N         -49.6710   12.7100   -3.7590 N.am      1 GLN        -0.2634
    126 CA        -50.1700   11.8000   -2.6680 C.3       1 GLN         0.1330
    127 C         -51.7430   11.6400   -2.6730 C.2       1 GLN         0.2035
    128 O         -52.4630   12.4980   -2.1570 O.2       1 GLN        -0.3944
    129 CB        -49.6250   12.2220   -1.2750 C.3       1 GLN         0.0045
    130 CG        -48.9150   13.5810   -1.1230 C.3       1 GLN         0.0412
    131 CD        -49.8660   14.7690   -0.9650 C.2       1 GLN         0.1737
    132 OE1       -50.0340   15.5930   -1.8800 O.2       1 GLN        -0.3973
    133 NE2       -50.4970   14.8540    0.2040 N.am      1 GLN        -0.3009
    134 N         -52.2580   10.5270   -3.2160 N.am      1 LEU        -0.2695
    135 CA        -53.5620   10.5180   -3.9950 C.3       1 LEU         0.0946
    136 C         -54.9510   10.8980   -3.3840 C.2       1 LEU         0.0601
    137 O         -55.1460   11.1550   -2.1970 O.co2     1 LEU        -0.5666
    138 CB        -53.7070    9.1900   -4.7660 C.3       1 LEU        -0.0156
    139 CG        -52.8550    9.1140   -6.0580 C.3       1 LEU        -0.0431
    140 CD1       -52.3690    7.6920   -6.3800 C.3       1 LEU        -0.0625
    141 CD2       -53.5970    9.7810   -7.2310 C.3       1 LEU        -0.0625
    142 OXT       -55.9980   10.9810   -4.0250 O.co2     1 LEU        -0.5666
    143 H1        -32.3573   21.7166    1.8336 H         1 ASN         0.2017
    144 H2        -31.3006   21.6082    3.0910 H         1 ASN         0.2017
    145 H3        -32.9067   21.8208    3.3817 H         1 ASN         0.2017
    146 H4        -33.4459   19.6828    2.4748 H         1 ASN         0.1125
    147 H5        -31.0591   18.2921    2.3276 H         1 ASN         0.0585
    148 H6        -30.5890   19.8910    1.6573 H         1 ASN         0.0585
    149 H7        -32.0739   19.3548   -1.4500 H         1 ASN         0.1814
    150 H8        -31.0259   20.2928   -0.4392 H         1 ASN         0.1814
    151 H9        -34.2066   18.9084    4.4078 H         1 GLY         0.1882
    152 H10       -33.9938   17.8963    6.5557 H         1 GLY         0.0763
    153 H11       -32.2069   17.9896    6.3980 H         1 GLY         0.0763
    154 H12       -32.8039   15.6629    7.2877 H         1 ILE         0.1883
    155 H13       -32.4551   13.6717    5.3020 H         1 ILE         0.0803
    156 H14       -31.8985   13.1984    7.6117 H         1 ILE         0.0345
    157 H15       -34.1194   11.4234    6.5063 H         1 ILE         0.0267
    158 H16       -33.0909   10.9823    7.9114 H         1 ILE         0.0267
    159 H17       -33.7306   14.4402    8.7214 H         1 ILE         0.0235
    160 H18       -33.5736   12.7581    9.3316 H         1 ILE         0.0235
    161 H19       -34.8915   13.1785    8.1858 H         1 ILE         0.0235
    162 H20       -32.3056    9.9156    5.8536 H         1 ILE         0.0230
    163 H21       -31.0947   11.0840    6.4821 H         1 ILE         0.0230
    164 H22       -32.1233   11.5250    5.0770 H         1 ILE         0.0230
    165 H23       -35.4727   14.9500    6.7219 H         1 ALA         0.1883
    166 H24       -37.1979   13.0735    5.4182 H         1 ALA         0.0797
    167 H25       -38.9776   14.7466    5.7084 H         1 ALA         0.0277
    168 H26       -37.7457   15.9747    6.1564 H         1 ALA         0.0277
    169 H27       -38.0031   14.5375    7.2028 H         1 ALA         0.0277
    170 H28       -36.0385   16.3021    4.4447 H         1 ALA         0.1883
    171 H29       -37.1905   16.4915    1.9226 H         1 ALA         0.0797
    172 H30       -35.2311   17.8611    1.2965 H         1 ALA         0.0277
    173 H31       -34.3665   17.2809    2.7602 H         1 ALA         0.0277
    174 H32       -35.8513   18.2774    2.9301 H         1 ALA         0.0277
    175 H33       -34.1239   14.8265    2.8069 H         1 MET         0.1883
    176 H34       -33.5353   14.0104    0.1198 H         1 MET         0.0800
    177 H35       -31.9498   12.3878    1.0811 H         1 MET         0.0320
    178 H36       -32.6012   12.7268    2.7205 H         1 MET         0.0320
    179 H37       -31.9987   15.1742    2.2353 H         1 MET         0.0378
    180 H38       -31.0196   14.5203    0.8786 H         1 MET         0.0378
    181 H39       -28.4441   12.2748    2.6945 H         1 MET         0.0340
    182 H40       -29.0738   12.8804    1.1251 H         1 MET         0.0340
    183 H41       -30.0862   11.8001    2.1423 H         1 MET         0.0340
    184 H42       -35.3192   12.4011    2.8191 H         1 LEU         0.1883
    185 H43       -35.6328    9.9251    1.4226 H         1 LEU         0.0800
    186 H44       -37.6002    9.5609    2.9322 H         1 LEU         0.0315
    187 H45       -37.3578   11.2274    3.5574 H         1 LEU         0.0315
    188 H46       -34.9636   10.4950    4.1063 H         1 LEU         0.0298
    189 H47       -35.6870    9.4741    6.2448 H         1 LEU         0.0232
    190 H48       -37.3266    9.2218    5.5559 H         1 LEU         0.0232
    191 H49       -36.6962   10.8878    5.7871 H         1 LEU         0.0232
    192 H50       -34.9237    8.4150    2.7705 H         1 LEU         0.0232
    193 H51       -36.1947    7.7172    3.8308 H         1 LEU         0.0232
    194 H52       -34.5780    8.1118    4.5069 H         1 LEU         0.0232
    195 H53       -37.6534   12.8358    1.5682 H         1 GLN         0.1883
    196 H54       -39.6581   11.7290   -0.2221 H         1 GLN         0.0801
    197 H55       -40.5143   14.1141   -0.2174 H         1 GLN         0.0337
    198 H56       -39.1177   14.5484    0.8254 H         1 GLN         0.0337
    199 H57       -40.0235   13.0680    2.5821 H         1 GLN         0.0504
    200 H58       -41.4569   12.7653    1.5426 H         1 GLN         0.0504
    201 H59       -40.9456   16.7501    2.6217 H         1 GLN         0.1814
    202 H60       -39.6318   15.8457    1.9464 H         1 GLN         0.1814
    203 H61       -36.7095   12.2434   -1.4689 H         1 ARG         0.1883
    204 H62       -37.3363   14.6997   -2.9228 H         1 ARG         0.0800
    205 H63       -34.9915   13.8333   -2.0196 H         1 ARG         0.0313
    206 H64       -35.2053   15.0483   -3.3252 H         1 ARG         0.0313
    207 H65       -33.9499   13.8291   -4.6590 H         1 ARG         0.0301
    208 H66       -35.1362   12.4845   -4.5508 H         1 ARG         0.0301
    209 H67       -33.2181   12.7644   -2.2835 H         1 ARG         0.0689
    210 H68       -32.5374   12.2511   -3.8646 H         1 ARG         0.0689
    211 H69       -34.9563   10.8355   -2.8341 H         1 ARG         0.2642
    212 H70       -33.2065    7.8066   -2.8671 H         1 ARG         0.2615
    213 H71       -34.7889    8.6051   -2.6642 H         1 ARG         0.2615
    214 H72       -31.4506   10.8232   -3.4617 H         1 ARG         0.2615
    215 H73       -31.3377    9.0483   -3.3208 H         1 ARG         0.2615
    216 H74       -37.9827   11.4892   -3.6300 H         1 HIS         0.1885
    217 H75       -38.4149   12.1691   -6.5011 H         1 HIS         0.0817
    218 H76       -37.0530   10.1735   -6.1988 H         1 HIS         0.0420
    219 H77       -38.6388    9.7584   -6.9333 H         1 HIS         0.0420
    220 H78       -39.9915    7.7720   -5.6121 H         1 HIS         0.0729
    221 H79       -37.6743    7.7793   -2.0327 H         1 HIS         0.1199
    222 H80       -39.5524    6.6024   -3.3094 H         1 HIS         0.2361
    223 H81       -40.1100   10.8596   -3.6201 H         1 SER         0.1884
    224 H82       -42.7045   10.7644   -4.9069 H         1 SER         0.0823
    225 H83       -42.6937   10.8227   -1.9377 H         1 SER         0.0606
    226 H84       -41.5972    9.5935   -2.6544 H         1 SER         0.0606
    227 H85       -43.7586    8.8132   -2.3716 H         1 SER         0.2097
    228 H86       -40.9701   13.3896   -3.7238 H         1 ARG         0.1883
    229 H87       -43.0337   15.2119   -2.9707 H         1 ARG         0.0800
    230 H88       -40.6572   16.0906   -4.5949 H         1 ARG         0.0313
    231 H89       -40.3389   15.2470   -3.0413 H         1 ARG         0.0313
    232 H90       -41.1726   16.9691   -1.7756 H         1 ARG         0.0301
    233 H91       -42.2359   17.5730   -3.0914 H         1 ARG         0.0301
    234 H92       -39.2647   17.6080   -3.5567 H         1 ARG         0.0689
    235 H93       -39.9455   18.8067   -2.4050 H         1 ARG         0.0689
    236 H94       -41.3240   19.7010   -4.1897 H         1 ARG         0.2642
    237 H95       -38.9032   18.1146   -7.0538 H         1 ARG         0.2615
    238 H96       -38.7974   17.4269   -5.4111 H         1 ARG         0.2615
    239 H97       -41.3836   20.4824   -6.2208 H         1 ARG         0.2615
    240 H98       -40.3384   19.8089   -7.5002 H         1 ARG         0.2615
    241 H99       -41.8571   14.1444   -6.1319 H         1 LYS         0.1883
    242 H100      -43.4623   16.1307   -7.5918 H         1 LYS         0.0800
    243 H101      -42.4253   15.2282   -9.5948 H         1 LYS         0.0312
    244 H102      -41.7359   13.8586   -8.6591 H         1 LYS         0.0312
    245 H103      -40.3071   15.3719   -7.4058 H         1 LYS         0.0269
    246 H104      -41.0678   16.7971   -8.1911 H         1 LYS         0.0269
    247 H105      -39.8990   16.5219  -10.1437 H         1 LYS         0.0317
    248 H106      -39.8349   14.7336   -9.9864 H         1 LYS         0.0317
    249 H107      -38.0006   14.7909   -8.5457 H         1 LYS         0.0813
    250 H108      -38.3250   16.4817   -8.0332 H         1 LYS         0.0813
    251 H109      -36.4397   16.3310   -9.4902 H         1 LYS         0.1994
    252 H110      -37.6416   17.1935  -10.2119 H         1 LYS         0.1994
    253 H111      -37.3443   15.6442  -10.6816 H         1 LYS         0.1994
    254 H112      -43.7231   12.8057   -6.6065 H         1 ARG         0.1883
    255 H113      -46.0649   12.1521   -8.1905 H         1 ARG         0.0800
    256 H114      -46.2503   10.6376   -5.9113 H         1 ARG         0.0313
    257 H115      -44.5080   11.0726   -5.8697 H         1 ARG         0.0313
    258 H116      -44.0802    9.3542   -7.2236 H         1 ARG         0.0301
    259 H117      -45.0874   10.1147   -8.5018 H         1 ARG         0.0301
    260 H118      -47.1166    9.1626   -7.4904 H         1 ARG         0.0689
    261 H119      -46.1324    8.4328   -6.1769 H         1 ARG         0.0689
    262 H120      -45.1409    7.4516   -8.6412 H         1 ARG         0.2642
    263 H121      -48.5696    5.7145   -7.2588 H         1 ARG         0.2615
    264 H122      -48.1088    7.3284   -6.6540 H         1 ARG         0.2615
    265 H123      -45.7522    5.4028   -9.3966 H         1 ARG         0.2615
    266 H124      -47.2454    4.6344   -8.7945 H         1 ARG         0.2615
    267 H125      -48.1862   12.6777   -7.7782 H         1 PHE         0.1885
    268 H126      -48.8557   14.3205   -5.4702 H         1 PHE         0.0823
    269 H127      -50.7789   12.8724   -7.3346 H         1 PHE         0.0474
    270 H128      -49.9865   14.4316   -7.7441 H         1 PHE         0.0474
    271 H129      -50.3489   16.3955   -6.1870 H         1 PHE         0.0557
    272 H130      -52.7029   12.8285   -5.9886 H         1 PHE         0.0557
    273 H131      -52.1074   17.6319   -4.9805 H         1 PHE         0.0599
    274 H132      -54.4673   14.0548   -4.7591 H         1 PHE         0.0599
    275 H133      -54.1763   16.4570   -4.2646 H         1 PHE         0.0559
    276 H134      -49.4011   13.6409   -3.5130 H         1 GLN         0.1883
    277 H135      -49.7560   10.8029   -2.8789 H         1 GLN         0.0801
    278 H136      -48.9076   11.4486   -0.9634 H         1 GLN         0.0337
    279 H137      -50.4808   12.2281   -0.5840 H         1 GLN         0.0337
    280 H138      -48.2972   13.7498   -2.0173 H         1 GLN         0.0504
    281 H139      -48.2687   13.5355   -0.2341 H         1 GLN         0.0504
    282 H140      -51.1336   15.6060    0.3751 H         1 GLN         0.1814
    283 H141      -50.3345   14.1658    0.9111 H         1 GLN         0.1814
    284 H142      -51.7621    9.6660   -3.1032 H         1 LEU         0.1875
    285 H143      -53.4007   11.2955   -4.7562 H         1 LEU         0.0726
    286 H144      -54.7645    9.0638   -5.0413 H         1 LEU         0.0308
    287 H145      -53.4007    8.3690   -4.1011 H         1 LEU         0.0308
    288 H146      -51.9503    9.7125   -5.8754 H         1 LEU         0.0297
    289 H147      -51.7732    7.7087   -7.3045 H         1 LEU         0.0232
    290 H148      -53.2368    7.0297   -6.5150 H         1 LEU         0.0232
    291 H149      -51.7491    7.3198   -5.5510 H         1 LEU         0.0232
    292 H150      -53.9165   10.7913   -6.9357 H         1 LEU         0.0232
    293 H151      -54.4795    9.1802   -7.4958 H         1 LEU         0.0232
    294 H152      -52.9251    9.8481   -8.0993 H         1 LEU         0.0232
@<TRIPOS>BOND
     1    1    2 1  
     2    2    3 1  
     3    2    5 1  
     4    3    4 2  
     5    3    9 am 
     6    5    6 1  
     7    6    7 2  
     8    6    8 am 
     9    9   10 1  
    10   10   11 1  
    11   11   12 2  
    12   11   13 am 
    13   13   14 1  
    14   14   15 1  
    15   14   17 1  
    16   15   16 2  
    17   15   21 am 
    18   17   18 1  
    19   17   19 1  
    20   18   20 1  
    21   21   22 1  
    22   22   23 1  
    23   22   25 1  
    24   23   24 2  
    25   23   26 am 
    26   26   27 1  
    27   27   28 1  
    28   27   30 1  
    29   28   29 2  
    30   28   31 am 
    31   31   32 1  
    32   32   33 1  
    33   32   35 1  
    34   33   34 2  
    35   33   39 am 
    36   35   36 1  
    37   36   37 1  
    38   37   38 1  
    39   39   40 1  
    40   40   41 1  
    41   40   43 1  
    42   41   42 2  
    43   41   47 am 
    44   43   44 1  
    45   44   45 1  
    46   44   46 1  
    47   47   48 1  
    48   48   49 1  
    49   48   51 1  
    50   49   50 2  
    51   49   56 am 
    52   51   52 1  
    53   52   53 1  
    54   53   54 2  
    55   53   55 am 
    56   56   57 1  
    57   57   58 1  
    58   57   60 1  
    59   58   59 2  
    60   58   67 am 
    61   60   61 1  
    62   61   62 1  
    63   62   63 1  
    64   63   64 ar 
    65   64   65 ar 
    66   64   66 ar 
    67   67   68 1  
    68   68   69 1  
    69   68   71 1  
    70   69   70 2  
    71   69   77 am 
    72   71   72 1  
    73   72   73 1  
    74   72   74 2  
    75   73   75 2  
    76   74   76 1  
    77   75   76 1  
    78   77   78 1  
    79   78   79 1  
    80   78   81 1  
    81   79   80 2  
    82   79   83 am 
    83   81   82 1  
    84   83   84 1  
    85   84   85 1  
    86   84   87 1  
    87   85   86 2  
    88   85   94 am 
    89   87   88 1  
    90   88   89 1  
    91   89   90 1  
    92   90   91 ar 
    93   91   92 ar 
    94   91   93 ar 
    95   94   95 1  
    96   95   96 1  
    97   95   98 1  
    98   96   97 2  
    99   96  103 am 
   100   98   99 1  
   101   99  100 1  
   102  100  101 1  
   103  101  102 1  
   104  103  104 1  
   105  104  105 1  
   106  104  107 1  
   107  105  106 2  
   108  105  114 am 
   109  107  108 1  
   110  108  109 1  
   111  109  110 1  
   112  110  111 ar 
   113  111  112 ar 
   114  111  113 ar 
   115  114  115 1  
   116  115  116 1  
   117  115  118 1  
   118  116  117 2  
   119  116  125 am 
   120  118  119 1  
   121  119  120 ar 
   122  119  121 ar 
   123  120  122 ar 
   124  121  123 ar 
   125  122  124 ar 
   126  123  124 ar 
   127  125  126 1  
   128  126  127 1  
   129  126  129 1  
   130  127  128 2  
   131  127  134 am 
   132  129  130 1  
   133  130  131 1  
   134  131  132 2  
   135  131  133 am 
   136  134  135 1  
   137  135  136 1  
   138  135  138 1  
   139  136  137 ar 
   140  136  142 ar 
   141  138  139 1  
   142  139  140 1  
   143  139  141 1  
   144    1  143 1  
   145    1  144 1  
   146    1  145 1  
   147    2  146 1  
   148    5  147 1  
   149    5  148 1  
   150    8  149 1  
   151    8  150 1  
   152    9  151 1  
   153   10  152 1  
   154   10  153 1  
   155   13  154 1  
   156   14  155 1  
   157   17  156 1  
   158   18  157 1  
   159   18  158 1  
   160   19  159 1  
   161   19  160 1  
   162   19  161 1  
   163   20  162 1  
   164   20  163 1  
   165   20  164 1  
   166   21  165 1  
   167   22  166 1  
   168   25  167 1  
   169   25  168 1  
   170   25  169 1  
   171   26  170 1  
   172   27  171 1  
   173   30  172 1  
   174   30  173 1  
   175   30  174 1  
   176   31  175 1  
   177   32  176 1  
   178   35  177 1  
   179   35  178 1  
   180   36  179 1  
   181   36  180 1  
   182   38  181 1  
   183   38  182 1  
   184   38  183 1  
   185   39  184 1  
   186   40  185 1  
   187   43  186 1  
   188   43  187 1  
   189   44  188 1  
   190   45  189 1  
   191   45  190 1  
   192   45  191 1  
   193   46  192 1  
   194   46  193 1  
   195   46  194 1  
   196   47  195 1  
   197   48  196 1  
   198   51  197 1  
   199   51  198 1  
   200   52  199 1  
   201   52  200 1  
   202   55  201 1  
   203   55  202 1  
   204   56  203 1  
   205   57  204 1  
   206   60  205 1  
   207   60  206 1  
   208   61  207 1  
   209   61  208 1  
   210   62  209 1  
   211   62  210 1  
   212   63  211 1  
   213   65  212 1  
   214   65  213 1  
   215   66  214 1  
   216   66  215 1  
   217   67  216 1  
   218   68  217 1  
   219   71  218 1  
   220   71  219 1  
   221   74  220 1  
   222   75  221 1  
   223   76  222 1  
   224   77  223 1  
   225   78  224 1  
   226   81  225 1  
   227   81  226 1  
   228   82  227 1  
   229   83  228 1  
   230   84  229 1  
   231   87  230 1  
   232   87  231 1  
   233   88  232 1  
   234   88  233 1  
   235   89  234 1  
   236   89  235 1  
   237   90  236 1  
   238   92  237 1  
   239   92  238 1  
   240   93  239 1  
   241   93  240 1  
   242   94  241 1  
   243   95  242 1  
   244   98  243 1  
   245   98  244 1  
   246   99  245 1  
   247   99  246 1  
   248  100  247 1  
   249  100  248 1  
   250  101  249 1  
   251  101  250 1  
   252  102  251 1  
   253  102  252 1  
   254  102  253 1  
   255  103  254 1  
   256  104  255 1  
   257  107  256 1  
   258  107  257 1  
   259  108  258 1  
   260  108  259 1  
   261  109  260 1  
   262  109  261 1  
   263  110  262 1  
   264  112  263 1  
   265  112  264 1  
   266  113  265 1  
   267  113  266 1  
   268  114  267 1  
   269  115  268 1  
   270  118  269 1  
   271  118  270 1  
   272  120  271 1  
   273  121  272 1  
   274  122  273 1  
   275  123  274 1  
   276  124  275 1  
   277  125  276 1  
   278  126  277 1  
   279  129  278 1  
   280  129  279 1  
   281  130  280 1  
   282  130  281 1  
   283  133  282 1  
   284  133  283 1  
   285  134  284 1  
   286  135  285 1  
   287  138  286 1  
   288  138  287 1  
   289  139  288 1  
   290  140  289 1  
   291  140  290 1  
   292  140  291 1  
   293  141  292 1  
   294  141  293 1  
   295  141  294 1  
@<TRIPOS>SUBSTRUCTURE
     1 ASN         1

