2jst_ligand
  -I-interpret- 

  8  7  0  0  0  0  0  0  0  0999 V2000
    0.0250    0.4360    0.4490 F   0  0  0  0  0
    0.4320    0.6850   -0.8270 C   0  0  0  0  0
    1.0070    1.9200   -0.8610 F   0  0  0  0  0
    1.3630   -0.2420   -1.1770 F   0  0  0  0  0
   -0.8200    0.6440   -1.8120 C   0  0  0  0  0
   -0.2790    1.0460   -3.5620 Br  0  0  0  0  0
   -1.5920   -0.9480   -1.6870 Cl  0  0  0  0  0
   -1.5540    1.3993   -1.5310 H   0  0  0  0  0
  1  2  1  0  0  0
  2  3  1  0  0  0
  2  4  1  0  0  0
  2  5  1  0  0  0
  5  6  1  0  0  0
  5  7  1  0  0  0
  5  8  1  0  0  0
M  END
$$$$
