6hke_ligand
  -I-interpret- 

 15 14  0  0  0  0  0  0  0  0999 V2000
    9.1170   30.9180    2.0510 C   0  0  0  0  0
    8.7240   30.1070    1.1840 O   0  0  0  0  0
    8.4230   31.1450    3.0680 O   0  0  0  0  0
   10.4220   31.6460    1.8210 C   0  0  0  0  0
   11.5620   30.8340    1.4720 O   0  0  0  0  0
   10.8900   32.3580    3.0550 C   0  0  0  0  0
   12.1510   33.0470    2.6020 C   0  0  0  0  0
   13.0630   32.3800    2.0420 O   0  0  0  0  0
   12.1900   34.2810    2.7850 O   0  0  0  0  0
    8.8712   31.7874    3.6230 H   0  0  0  0  0
   10.1500   32.2936    0.9875 H   0  0  0  0  0
   11.3632   30.3286    0.6804 H   0  0  0  0  0
   11.0601   31.6798    3.8912 H   0  0  0  0  0
   10.1478   33.0553    3.4435 H   0  0  0  0  0
   12.8103   31.4542    2.0151 H   0  0  0  0  0
  1  2  2  0  0  0
  1  3  1  0  0  0
  1  4  1  0  0  0
  4  5  1  0  0  0
  4  6  1  0  0  0
  6  7  1  0  0  0
  7  8  1  0  0  0
  7  9  2  0  0  0
  3 10  1  0  0  0
  4 11  1  0  0  0
  5 12  1  0  0  0
  6 13  1  0  0  0
  6 14  1  0  0  0
  8 15  1  0  0  0
M  END
$$$$
