4u1b_ligand
  -I-interpret- 

 34 33  0  0  0  0  0  0  0  0999 V2000
   21.8140   -2.2070   12.1460 O   0  0  0  0  0
   21.2330   -2.6550   10.8920 P   0  0  0  0  0
   19.6990   -3.1120   10.8740 O   0  0  0  0  0
   21.3160   -1.2960   10.1010 O   0  0  0  0  0
   22.3080   -3.7340    9.8600 C   0  0  0  0  0
   23.5800   -2.9230    9.4330 N   0  3  0  0  0
   22.2890   -5.1830   10.4800 C   0  0  0  0  0
   23.3920   -6.1540    9.9670 C   0  0  0  0  0
   23.2830   -7.5250   10.5780 C   0  0  0  0  0
   23.7390   -8.6790    9.7210 C   0  0  0  0  0
   22.1020   -5.3680   12.0330 C   0  0  0  0  0
   21.6950   -6.7470   12.6580 C   0  0  0  0  0
   20.8110   -6.8060   13.9430 C   0  0  0  0  0
   19.4564   -3.3797    9.9846 H   0  0  0  0  0
   20.9597   -1.4187    9.2181 H   0  0  0  0  0
   21.9907   -4.0063    8.8534 H   0  0  0  0  0
   23.2952   -2.0159    9.0637 H   0  0  0  0  0
   24.1832   -2.7870   10.2442 H   0  0  0  0  0
   24.0862   -3.4404    8.7143 H   0  0  0  0  0
   21.3249   -5.4681   10.0588 H   0  0  0  0  0
   24.3609   -5.7386   10.2440 H   0  0  0  0  0
   23.2745   -6.2564    8.8882 H   0  0  0  0  0
   22.2220   -7.6888   10.7668 H   0  0  0  0  0
   23.9354   -7.5200   11.4512 H   0  0  0  0  0
   23.1438   -8.7096    8.8084 H   0  0  0  0  0
   24.7906   -8.5474    9.4662 H   0  0  0  0  0
   23.6111   -9.6112   10.2712 H   0  0  0  0  0
   21.2592   -4.7188   12.2702 H   0  0  0  0  0
   23.0984   -5.1865   12.4360 H   0  0  0  0  0
   22.6417   -7.1925   12.9635 H   0  0  0  0  0
   21.0826   -7.2190   11.8897 H   0  0  0  0  0
   21.3222   -6.2936   14.7580 H   0  0  0  0  0
   19.8558   -6.3185   13.7480 H   0  0  0  0  0
   20.6398   -7.8470   14.2172 H   0  0  0  0  0
  1  2  2  0  0  0
  2  3  1  0  0  0
  2  4  1  0  0  0
  2  5  1  0  0  0
  5  6  1  0  0  0
  5  7  1  0  0  0
  7  8  1  0  0  0
  7 11  1  0  0  0
  8  9  1  0  0  0
  9 10  1  0  0  0
 11 12  1  0  0  0
 12 13  1  0  0  0
  3 14  1  0  0  0
  4 15  1  0  0  0
  5 16  1  0  0  0
  6 17  1  0  0  0
  6 18  1  0  0  0
  6 19  1  0  0  0
  7 20  1  0  0  0
  8 21  1  0  0  0
  8 22  1  0  0  0
  9 23  1  0  0  0
  9 24  1  0  0  0
 10 25  1  0  0  0
 10 26  1  0  0  0
 10 27  1  0  0  0
 11 28  1  0  0  0
 11 29  1  0  0  0
 12 30  1  0  0  0
 12 31  1  0  0  0
 13 32  1  0  0  0
 13 33  1  0  0  0
 13 34  1  0  0  0
M  END
$$$$
