4az6_ligand
  -I-interpret- 

 44 45  0  0  0  0  0  0  0  0999 V2000
   16.6440   28.3000   20.6800 C   0  0  0  0  0
   16.6780   28.5570   22.1850 C   0  0  0  0  0
   17.3190   29.4780   22.6700 O   0  0  0  0  0
   15.9240   27.7410   22.9320 N   0  0  0  0  0
   15.7670   27.9320   24.3740 C   0  0  0  0  0
   14.8260   29.1540   24.5970 C   0  0  0  0  0
   13.4560   28.7200   24.5300 O   0  0  0  0  0
   15.1110   29.7540   25.9620 C   0  0  0  0  0
   14.2170   30.8200   26.2140 O   0  0  0  0  0
   16.5170   30.3370   25.8870 C   0  0  0  0  0
   16.9500   31.0220   27.1510 C   0  0  0  0  0
   16.9440   30.1440   28.2870 O   0  0  0  0  0
   17.4890   29.2220   25.6960 O   0  0  0  0  0
   17.0840   28.0710   25.1210 C   0  0  0  0  0
   17.8700   27.0350   25.2180 N   0  0  0  0  0
   19.0210   27.3280   25.9370 O   0  0  0  0  0
   19.6060   26.2770   26.5620 C   0  0  0  0  0
   19.0500   25.1810   26.6520 O   0  0  0  0  0
   20.8270   26.5840   26.9810 N   0  0  0  0  0
   21.7170   25.8240   27.7060 C   0  0  0  0  0
   22.6870   26.4880   28.4290 C   0  0  0  0  0
   23.6510   25.8660   29.2020 C   0  0  0  0  0
   23.6480   24.4710   29.2540 C   0  0  0  0  0
   22.6780   23.7710   28.5440 C   0  0  0  0  0
   21.7150   24.4560   27.7890 C   0  0  0  0  0
   16.2373   29.1747   20.1724 H   0  0  0  0  0
   17.6557   28.1085   20.3225 H   0  0  0  0  0
   16.0147   27.4340   20.4747 H   0  0  0  0  0
   15.4440   26.9618   22.4817 H   0  0  0  0  0
   15.3207   27.0325   24.7980 H   0  0  0  0  0
   15.0006   29.9044   23.8260 H   0  0  0  0  0
   13.2832   28.3420   23.6646 H   0  0  0  0  0
   15.0069   29.0016   26.7438 H   0  0  0  0  0
   13.3210   30.4792   26.2662 H   0  0  0  0  0
   16.4983   31.0585   25.0702 H   0  0  0  0  0
   16.2481   31.8318   27.3502 H   0  0  0  0  0
   17.9708   31.3760   27.0070 H   0  0  0  0  0
   17.2273   30.6284   29.0659 H   0  0  0  0  0
   21.1531   27.5173   26.7298 H   0  0  0  0  0
   22.6941   27.5772   28.3882 H   0  0  0  0  0
   24.3901   26.4472   29.7534 H   0  0  0  0  0
   24.3949   23.9380   29.8424 H   0  0  0  0  0
   22.6663   22.6815   28.5747 H   0  0  0  0  0
   20.9501   23.8895   27.2579 H   0  0  0  0  0
  1  2  1  0  0  0
  2  3  2  0  0  0
  2  4  1  0  0  0
  4  5  1  0  0  0
  5  6  1  0  0  0
  5 14  1  0  0  0
  6  7  1  0  0  0
  6  8  1  0  0  0
  8  9  1  0  0  0
  8 10  1  0  0  0
 10 11  1  0  0  0
 10 13  1  0  0  0
 11 12  1  0  0  0
 13 14  1  0  0  0
 14 15  2  0  0  0
 15 16  1  0  0  0
 16 17  1  0  0  0
 17 18  2  0  0  0
 17 19  1  0  0  0
 19 20  1  0  0  0
 20 21  4  0  0  0
 20 25  4  0  0  0
 21 22  4  0  0  0
 22 23  4  0  0  0
 23 24  4  0  0  0
 24 25  4  0  0  0
  1 26  1  0  0  0
  1 27  1  0  0  0
  1 28  1  0  0  0
  4 29  1  0  0  0
  5 30  1  0  0  0
  6 31  1  0  0  0
  7 32  1  0  0  0
  8 33  1  0  0  0
  9 34  1  0  0  0
 10 35  1  0  0  0
 11 36  1  0  0  0
 11 37  1  0  0  0
 12 38  1  0  0  0
 19 39  1  0  0  0
 21 40  1  0  0  0
 22 41  1  0  0  0
 23 42  1  0  0  0
 24 43  1  0  0  0
 25 44  1  0  0  0
M  END
$$$$
