4ykj_ligand
  -I-interpret- 

 14 13  0  0  0  0  0  0  0  0999 V2000
   10.0050   61.4600   43.6890 N   0  3  0  0  0
    8.9380   60.4690   43.9890 C   0  0  0  0  0
    8.3520   60.7200   45.3690 C   0  0  0  0  0
    7.3650   60.0720   45.7730 O   0  0  0  0  0
    9.5080   59.0820   43.9000 C   0  0  0  0  0
    8.8610   61.6020   46.0820 O   0  0  0  0  0
    9.6189   62.4022   43.7492 H   0  0  0  0  0
   10.7621   61.3577   44.3648 H   0  0  0  0  0
   10.3634   61.2976   42.7479 H   0  0  0  0  0
    8.1350   60.5724   43.2592 H   0  0  0  0  0
    7.1036   59.4375   45.1016 H   0  0  0  0  0
   10.2953   58.9656   44.6448 H   0  0  0  0  0
    8.7189   58.3536   44.0867 H   0  0  0  0  0
    9.9219   58.9239   42.9041 H   0  0  0  0  0
  1  2  1  0  0  0
  2  3  1  0  0  0
  2  5  1  0  0  0
  3  4  1  0  0  0
  3  6  2  0  0  0
  1  7  1  0  0  0
  1  8  1  0  0  0
  1  9  1  0  0  0
  2 10  1  0  0  0
  4 11  1  0  0  0
  5 12  1  0  0  0
  5 13  1  0  0  0
  5 14  1  0  0  0
M  END
$$$$
