6max_ligand
  -I-interpret- 

 27 29  0  0  0  0  0  0  0  0999 V2000
   14.6810   -9.2790  -24.9960 C   0  0  0  0  0
   13.9530  -10.2350  -25.7080 C   0  0  0  0  0
   12.9770   -9.8520  -26.6760 C   0  0  0  0  0
   12.7240   -8.4840  -26.9250 C   0  0  0  0  0
   13.4870   -7.5230  -26.2060 C   0  0  0  0  0
   11.6830   -8.0790  -27.9700 C   0  0  0  0  0
    9.1550   -9.8570  -30.4070 C   0  0  0  0  0
    9.4360  -11.1810  -30.1200 C   0  0  0  0  0
   10.4150  -11.5200  -29.1310 C   0  0  0  0  0
   12.2080  -10.9060  -27.4100 C   0  0  0  0  0
   10.6310  -12.8450  -28.9200 O   0  0  0  0  0
   11.1500  -10.5180  -28.4550 C   0  0  0  0  0
   12.4350  -12.0590  -27.1750 O   0  0  0  0  0
   14.4440   -7.9340  -25.2400 C   0  0  0  0  0
   11.4870   -6.9090  -28.1970 O   0  0  0  0  0
   10.9010   -9.1670  -28.7240 C   0  0  0  0  0
    9.8880   -8.8530  -29.7170 C   0  0  0  0  0
    9.5750   -7.5900  -30.0330 O   0  0  0  0  0
    8.7750  -12.1770  -30.7530 O   0  0  0  0  0
   15.4242   -9.5851  -24.2597 H   0  0  0  0  0
   14.1338  -11.2935  -25.5207 H   0  0  0  0  0
   13.3360   -6.4607  -26.3980 H   0  0  0  0  0
    8.3939   -9.5914  -31.1407 H   0  0  0  0  0
   11.3016  -12.9547  -28.2419 H   0  0  0  0  0
   15.0006   -7.1811  -24.6819 H   0  0  0  0  0
   10.1189   -6.9886  -29.5192 H   0  0  0  0  0
    9.0939  -13.0244  -30.4340 H   0  0  0  0  0
  2  1  4  0  0  0
  1 14  4  0  0  0
  3  2  4  0  0  0
  3  4  4  0  0  0
 10  3  1  0  0  0
  4  5  4  0  0  0
  4  6  1  0  0  0
  5 14  4  0  0  0
  6 15  2  0  0  0
  6 16  1  0  0  0
  8  7  4  0  0  0
  7 17  4  0  0  0
  9  8  4  0  0  0
  8 19  1  0  0  0
  9 11  1  0  0  0
 12  9  4  0  0  0
 10 12  1  0  0  0
 10 13  2  0  0  0
 12 16  4  0  0  0
 16 17  4  0  0  0
 17 18  1  0  0  0
  1 20  1  0  0  0
  2 21  1  0  0  0
  5 22  1  0  0  0
  7 23  1  0  0  0
 11 24  1  0  0  0
 14 25  1  0  0  0
 18 26  1  0  0  0
 19 27  1  0  0  0
M  END
$$$$
