4o3u_ligand
  -I-interpret- 

219223  0  0  0  0  0  0  0  0999 V2000
   28.9630    4.6160  -39.2540 N   0  3  0  0  0
   29.8390    5.0580  -40.3240 C   0  0  0  0  0
   30.8770    6.0720  -39.8170 C   0  0  0  0  0
   30.5410    7.2380  -39.6050 O   0  0  0  0  0
   29.0140    5.6200  -41.5300 C   0  0  0  0  0
   27.9510    4.6200  -42.0970 C   0  0  0  0  0
   29.9130    6.1930  -42.6170 C   0  0  0  0  0
   28.4610    3.3140  -42.7380 C   0  0  0  0  0
   32.1380    5.6500  -39.6510 N   0  0  0  0  0
   33.2110    6.5830  -39.2720 C   0  0  0  0  0
   33.6680    7.3270  -40.5720 C   0  0  0  0  0
   33.8500    6.6920  -41.6060 O   0  0  0  0  0
   34.3870    5.8510  -38.5680 C   0  0  0  0  0
   33.9560    5.3080  -37.2080 C   0  0  0  0  0
   35.6140    6.7550  -38.4260 C   0  0  0  0  0
   34.4460    4.0210  -36.9540 C   0  0  0  0  0
   33.7790    8.6480  -40.5080 N   0  0  0  0  0
   34.2440    9.4700  -41.6170 C   0  0  0  0  0
   33.3110    9.6250  -42.7910 C   0  0  0  0  0
   33.7570    9.9030  -43.9020 O   0  0  0  0  0
   32.0250    9.4550  -42.5550 N   0  0  0  0  0
   31.0280    9.6080  -43.6040 C   0  0  0  0  0
   30.3760   10.9720  -43.5720 C   0  0  0  0  0
   30.6300   11.7730  -42.6640 O   0  0  0  0  0
   29.5590   11.2500  -44.5920 N   0  0  0  0  0
   28.8080   12.4930  -44.7200 C   0  0  0  0  0
   27.3340   12.1390  -44.4100 C   0  0  0  0  0
   27.0040   10.9530  -44.3940 O   0  0  0  0  0
   28.9630   13.1440  -46.1080 C   0  0  0  0  0
   30.1120   12.3180  -47.2650 S   0  0  0  0  0
   26.4240   13.1070  -44.1560 N   0  0  0  0  0
   25.0230   12.7410  -43.9240 C   0  0  0  0  0
   24.3340   12.2950  -45.2180 C   0  0  0  0  0
   24.6950   12.7480  -46.2980 O   0  0  0  0  0
   24.4210   14.0310  -43.3670 C   0  0  0  0  0
   25.5930   14.9170  -43.0650 C   0  0  0  0  0
   26.5820   14.5670  -44.0870 C   0  0  0  0  0
   23.3470   11.4060  -45.1020 N   0  0  0  0  0
   22.6220   10.8230  -46.2320 C   0  0  0  0  0
   22.3080   11.7750  -47.4020 C   0  0  0  0  0
   22.5200   11.3920  -48.5490 O   0  0  0  0  0
   21.3960    9.9960  -45.7720 C   0  0  0  0  0
   20.2000   10.8360  -45.4210 C   0  0  0  0  0
   19.2410   11.1420  -46.3740 C   0  0  0  0  0
   20.0580   11.3870  -44.1540 C   0  0  0  0  0
   18.1820   11.9970  -46.0880 C   0  0  0  0  0
   18.9820   12.2180  -43.8410 C   0  0  0  0  0
   18.0450   12.5200  -44.8160 C   0  0  0  0  0
   16.9500   13.3010  -44.5420 O   0  0  0  0  0
   21.8530   13.0220  -47.1020 N   0  0  0  0  0
   21.4600   14.0660  -48.0690 C   0  0  0  0  0
   22.6190   14.7410  -48.8780 C   0  0  0  0  0
   22.3640   15.5380  -49.7840 O   0  0  0  0  0
   20.5600   15.1020  -47.3840 C   0  0  0  0  0
   21.1600   15.7090  -46.1580 C   0  0  0  0  0
   20.8510   15.4210  -44.8590 C   0  0  0  0  0
   22.2100   16.6870  -46.1140 C   0  0  0  0  0
   21.6490   16.1610  -44.0020 N   0  0  0  0  0
   22.4880   16.9460  -44.7480 C   0  0  0  0  0
   22.9430   17.3740  -47.1010 C   0  0  0  0  0
   23.4560   17.8640  -44.3490 C   0  0  0  0  0
   23.9130   18.2720  -46.7060 C   0  0  0  0  0
   24.1430   18.5340  -45.3470 C   0  0  0  0  0
   23.8750   14.4270  -48.5440 N   0  0  0  0  0
   25.0620   14.9720  -49.2010 C   0  0  0  0  0
   25.3860   14.1370  -50.4410 C   0  0  0  0  0
   25.3530   12.9060  -50.3680 O   0  0  0  0  0
   26.2490   14.9390  -48.2160 C   0  0  0  0  0
   27.4030   15.8350  -48.5860 C   0  0  0  0  0
   27.8350   16.8440  -47.1500 S   0  0  0  0  0
   29.5860   16.6510  -47.0850 C   0  0  0  0  0
   25.7250   14.8000  -51.5650 N   0  0  0  0  0
   26.1130   14.1370  -52.8170 C   0  0  0  0  0
   27.4950   13.5300  -52.6720 C   0  0  0  0  0
   28.2520   13.9430  -51.7820 O   0  0  0  0  0
   26.0820   15.1120  -54.0020 C   0  0  0  0  0
   24.6900   15.6040  -54.3810 C   0  0  0  0  0
   23.8770   15.8830  -53.4550 O   0  0  0  0  0
   24.4230   15.7560  -55.6000 O   0  0  0  0  0
   27.8180   12.5240  -53.5240 N   0  0  0  0  0
   29.1070   11.8380  -53.4610 C   0  0  0  0  0
   30.2350   12.8310  -53.6640 C   0  0  0  0  0
   31.1710   12.9090  -52.8580 O   0  0  0  0  0
   29.1840   10.7260  -54.5060 C   0  0  0  0  0
   30.4710    9.9310  -54.4010 C   0  0  0  0  0
   30.6830    8.9530  -55.5280 C   0  0  0  0  0
   31.9640    8.2550  -55.3770 N   0  0  0  0  0
   32.1380    7.1390  -54.6690 C   0  0  0  0  0
   31.1080    6.5670  -54.0530 N   0  0  0  0  0
   33.3330    6.5690  -54.6020 N   0  0  0  0  0
   30.0900   13.6400  -54.7140 N   0  0  0  0  0
   31.0750   14.6210  -55.1230 C   0  0  0  0  0
   31.4020   15.7210  -54.1230 C   0  0  0  0  0
   32.4410   16.3570  -54.2810 O   0  0  0  0  0
   30.8680   15.0840  -56.5740 C   0  0  0  0  0
   31.2460   14.0020  -57.5950 C   0  0  0  0  0
   30.3090   12.8130  -57.7870 C   0  0  0  0  0
   29.0880   12.9520  -57.5360 O   0  0  0  0  0
   30.8000   11.7420  -58.2100 O   0  0  0  0  0
   30.6090   15.8930  -53.0460 N   0  0  0  0  0
   31.0540   16.8610  -52.0530 C   0  0  0  0  0
   31.6080   16.2400  -50.7470 C   0  0  0  0  0
   31.4370   16.7850  -49.6600 O   0  0  0  0  0
   30.1720   18.1110  -51.9210 C   0  0  0  0  0
   28.8840   17.9800  -51.1320 C   0  0  0  0  0
   28.4980   19.2650  -50.4130 C   0  0  0  0  0
   29.3690   19.8650  -49.7370 O   0  0  0  0  0
   27.3140   19.6590  -50.5060 O   0  0  0  0  0
   32.3460   15.1110  -50.9000 N   0  0  0  0  0
   33.0470   14.3820  -49.8390 C   0  0  0  0  0
   34.4650   13.9350  -50.2750 C   0  0  0  0  0
   34.9030   14.1180  -51.4180 O   0  0  0  0  0
   32.2210   13.1990  -49.3480 C   0  0  0  0  0
   30.5550   13.6310  -48.7760 S   0  0  0  0  0
   35.2032   13.3611  -49.4305 O   0  0  0  0  0
   29.5251    4.2555  -38.4830 H   0  0  0  0  0
   28.4021    5.4032  -38.9283 H   0  0  0  0  0
   28.3485    3.8798  -39.6015 H   0  0  0  0  0
   30.3918    4.1904  -40.6842 H   0  0  0  0  0
   28.4308    6.4463  -41.1234 H   0  0  0  0  0
   27.4442    5.1581  -42.8981 H   0  0  0  0  0
   27.3572    4.3091  -41.2375 H   0  0  0  0  0
   30.4456    5.3808  -43.1118 H   0  0  0  0  0
   29.3040    6.7272  -43.3462 H   0  0  0  0  0
   30.6308    6.8797  -42.1684 H   0  0  0  0  0
   29.1068    3.5535  -43.5828 H   0  0  0  0  0
   29.0238    2.7437  -41.9990 H   0  0  0  0  0
   27.6117    2.7247  -43.0838 H   0  0  0  0  0
   32.3582    4.6638  -39.7899 H   0  0  0  0  0
   32.8443    7.3062  -38.5436 H   0  0  0  0  0
   34.6701    5.0096  -39.2004 H   0  0  0  0  0
   32.8672    5.2569  -37.2001 H   0  0  0  0  0
   34.3556    5.9731  -36.4425 H   0  0  0  0  0
   35.9481    7.0698  -39.4146 H   0  0  0  0  0
   35.3513    7.6315  -37.8337 H   0  0  0  0  0
   36.4132    6.2052  -37.9290 H   0  0  0  0  0
   34.0772    3.3360  -37.7174 H   0  0  0  0  0
   35.5357    4.0378  -36.9750 H   0  0  0  0  0
   34.1052    3.6910  -35.9726 H   0  0  0  0  0
   33.5252    9.1123  -39.6360 H   0  0  0  0  0
   35.1318    8.9712  -42.0058 H   0  0  0  0  0
   34.3788   10.4718  -41.2092 H   0  0  0  0  0
   31.7210    9.2099  -41.6127 H   0  0  0  0  0
   30.2536    8.8566  -43.4501 H   0  0  0  0  0
   31.5257    9.4908  -44.5667 H   0  0  0  0  0
   29.4543   10.5496  -45.3261 H   0  0  0  0  0
   29.1903   13.2406  -44.0249 H   0  0  0  0  0
   29.3715   14.1393  -45.9329 H   0  0  0  0  0
   27.9790   13.1018  -46.5750 H   0  0  0  0  0
   24.9047   11.8930  -43.2494 H   0  0  0  0  0
   23.8212   13.8419  -42.4767 H   0  0  0  0  0
   23.7398   14.4960  -44.0796 H   0  0  0  0  0
   25.9740   14.7645  -42.0552 H   0  0  0  0  0
   25.3277   15.9738  -43.0947 H   0  0  0  0  0
   26.4220   15.0698  -45.0408 H   0  0  0  0  0
   27.5952   14.8862  -43.8427 H   0  0  0  0  0
   23.0792   11.1125  -44.1626 H   0  0  0  0  0
   23.3387   10.1319  -46.6757 H   0  0  0  0  0
   21.6877    9.4517  -44.8738 H   0  0  0  0  0
   21.1088    9.3491  -46.6010 H   0  0  0  0  0
   19.3185   10.7032  -47.3687 H   0  0  0  0  0
   20.8021   11.1657  -43.3889 H   0  0  0  0  0
   17.4620   12.2539  -46.8649 H   0  0  0  0  0
   18.8791   12.6270  -42.8359 H   0  0  0  0  0
   16.9866   13.5921  -43.6279 H   0  0  0  0  0
   21.7760   13.2583  -46.1127 H   0  0  0  0  0
   20.9047   13.5374  -48.8438 H   0  0  0  0  0
   19.6486   14.5881  -47.0784 H   0  0  0  0  0
   20.3940   15.9093  -48.0973 H   0  0  0  0  0
   20.0867   14.7112  -44.5424 H   0  0  0  0  0
   22.7473   17.1992  -48.1589 H   0  0  0  0  0
   23.6642   18.0475  -43.2949 H   0  0  0  0  0
   24.5092   18.7853  -47.4605 H   0  0  0  0  0
   24.8824   19.2852  -45.0694 H   0  0  0  0  0
   24.0141   13.7642  -47.7813 H   0  0  0  0  0
   24.8764   16.0022  -49.5048 H   0  0  0  0  0
   26.6297   13.9176  -48.2136 H   0  0  0  0  0
   25.8723   15.2890  -47.2549 H   0  0  0  0  0
   27.1205   16.4781  -49.4195 H   0  0  0  0  0
   28.2596   15.2314  -48.8861 H   0  0  0  0  0
   29.8295   15.5963  -46.9567 H   0  0  0  0  0
   30.0252   17.0163  -48.0133 H   0  0  0  0  0
   29.9822   17.2215  -46.2450 H   0  0  0  0  0
   25.7113   15.8197  -51.5448 H   0  0  0  0  0
   25.3906   13.3463  -53.0197 H   0  0  0  0  0
   26.4767   14.5766  -54.8655 H   0  0  0  0  0
   26.6607   15.9880  -53.7090 H   0  0  0  0  0
   24.2827   15.6918  -52.6062 H   0  0  0  0  0
   27.1400   12.2378  -54.2303 H   0  0  0  0  0
   29.2074   11.3841  -52.4751 H   0  0  0  0  0
   29.1483   11.1853  -55.4939 H   0  0  0  0  0
   28.3496   10.0449  -54.3391 H   0  0  0  0  0
   30.4193    9.3535  -53.4780 H   0  0  0  0  0
   31.2945   10.6443  -54.4335 H   0  0  0  0  0
   30.6892    9.4993  -56.4712 H   0  0  0  0  0
   29.8781    8.2182  -55.5121 H   0  0  0  0  0
   32.7784    8.6510  -55.8464 H   0  0  0  0  0
   31.2417    5.6983  -53.5354 H   0  0  0  0  0
   30.1841    6.9969  -54.0979 H   0  0  0  0  0
   34.1244    6.9843  -55.0935 H   0  0  0  0  0
   29.2336   13.5637  -55.2627 H   0  0  0  0  0
   32.0184   14.0751  -55.1155 H   0  0  0  0  0
   31.5095   15.9482  -56.7463 H   0  0  0  0  0
   29.8112   15.3165  -56.7056 H   0  0  0  0  0
   32.1748   13.5720  -57.2201 H   0  0  0  0  0
   31.2549   14.5129  -58.5578 H   0  0  0  0  0
   28.9261   13.8457  -57.2250 H   0  0  0  0  0
   29.7402   15.3708  -52.9324 H   0  0  0  0  0
   31.9571   17.2961  -52.4810 H   0  0  0  0  0
   29.8688   18.3643  -52.9369 H   0  0  0  0  0
   30.7751   18.8392  -51.3787 H   0  0  0  0  0
   29.0323   17.2075  -50.3775 H   0  0  0  0  0
   28.0861   17.7382  -51.8341 H   0  0  0  0  0
   30.2034   19.3949  -49.8028 H   0  0  0  0  0
   32.4199   14.7334  -51.8447 H   0  0  0  0  0
   33.1750   15.0736  -49.0063 H   0  0  0  0  0
   32.7502   12.7721  -48.4960 H   0  0  0  0  0
   32.1024   12.5202  -50.1926 H   0  0  0  0  0
   34.7355   13.2884  -48.5953 H   0  0  0  0  0
  1  2  1  0  0  0
  2  3  1  0  0  0
  2  5  1  0  0  0
  3  4  2  0  0  0
  3  9  1  0  0  0
  5  6  1  0  0  0
  5  7  1  0  0  0
  6  8  1  0  0  0
  9 10  1  0  0  0
 10 11  1  0  0  0
 10 13  1  0  0  0
 11 12  2  0  0  0
 11 17  1  0  0  0
 13 14  1  0  0  0
 13 15  1  0  0  0
 14 16  1  0  0  0
 17 18  1  0  0  0
 18 19  1  0  0  0
 19 20  2  0  0  0
 19 21  1  0  0  0
 21 22  1  0  0  0
 22 23  1  0  0  0
 23 24  2  0  0  0
 23 25  1  0  0  0
 25 26  1  0  0  0
 26 27  1  0  0  0
 26 29  1  0  0  0
 27 28  2  0  0  0
 27 31  1  0  0  0
 29 30  1  0  0  0
 30114  1  0  0  0
 31 32  1  0  0  0
 31 37  1  0  0  0
 32 33  1  0  0  0
 32 35  1  0  0  0
 33 34  2  0  0  0
 33 38  1  0  0  0
 35 36  1  0  0  0
 36 37  1  0  0  0
 38 39  1  0  0  0
 39 40  1  0  0  0
 39 42  1  0  0  0
 40 41  2  0  0  0
 40 50  1  0  0  0
 42 43  1  0  0  0
 43 44  4  0  0  0
 43 45  4  0  0  0
 44 46  4  0  0  0
 45 47  4  0  0  0
 46 48  4  0  0  0
 47 48  4  0  0  0
 48 49  1  0  0  0
 50 51  1  0  0  0
 51 52  1  0  0  0
 51 54  1  0  0  0
 52 53  2  0  0  0
 52 64  1  0  0  0
 54 55  1  0  0  0
 55 56  4  0  0  0
 55 57  4  0  0  0
 56 58  4  0  0  0
 57 59  4  0  0  0
 57 60  4  0  0  0
 58 59  4  0  0  0
 59 61  4  0  0  0
 60 62  4  0  0  0
 61 63  4  0  0  0
 62 63  4  0  0  0
 64 65  1  0  0  0
 65 66  1  0  0  0
 65 68  1  0  0  0
 66 67  2  0  0  0
 66 72  1  0  0  0
 68 69  1  0  0  0
 69 70  1  0  0  0
 70 71  1  0  0  0
 72 73  1  0  0  0
 73 74  1  0  0  0
 73 76  1  0  0  0
 74 75  2  0  0  0
 74 80  1  0  0  0
 76 77  1  0  0  0
 77 78  1  0  0  0
 77 79  2  0  0  0
 80 81  1  0  0  0
 81 82  1  0  0  0
 81 84  1  0  0  0
 82 83  2  0  0  0
 82 91  1  0  0  0
 84 85  1  0  0  0
 85 86  1  0  0  0
 86 87  1  0  0  0
 87 88  1  0  0  0
 88 89  1  0  0  0
 88 90  2  0  0  0
 91 92  1  0  0  0
 92 93  1  0  0  0
 92 95  1  0  0  0
 93 94  2  0  0  0
 93100  1  0  0  0
 95 96  1  0  0  0
 96 97  1  0  0  0
 97 98  1  0  0  0
 97 99  2  0  0  0
100101  1  0  0  0
101102  1  0  0  0
101104  1  0  0  0
102103  2  0  0  0
102109  1  0  0  0
104105  1  0  0  0
105106  1  0  0  0
106107  1  0  0  0
106108  2  0  0  0
109110  1  0  0  0
110111  1  0  0  0
110113  1  0  0  0
111112  2  0  0  0
113114  1  0  0  0
111115  1  0  0  0
  1116  1  0  0  0
  1117  1  0  0  0
  1118  1  0  0  0
  2119  1  0  0  0
  5120  1  0  0  0
  6121  1  0  0  0
  6122  1  0  0  0
  7123  1  0  0  0
  7124  1  0  0  0
  7125  1  0  0  0
  8126  1  0  0  0
  8127  1  0  0  0
  8128  1  0  0  0
  9129  1  0  0  0
 10130  1  0  0  0
 13131  1  0  0  0
 14132  1  0  0  0
 14133  1  0  0  0
 15134  1  0  0  0
 15135  1  0  0  0
 15136  1  0  0  0
 16137  1  0  0  0
 16138  1  0  0  0
 16139  1  0  0  0
 17140  1  0  0  0
 18141  1  0  0  0
 18142  1  0  0  0
 21143  1  0  0  0
 22144  1  0  0  0
 22145  1  0  0  0
 25146  1  0  0  0
 26147  1  0  0  0
 29148  1  0  0  0
 29149  1  0  0  0
 32150  1  0  0  0
 35151  1  0  0  0
 35152  1  0  0  0
 36153  1  0  0  0
 36154  1  0  0  0
 37155  1  0  0  0
 37156  1  0  0  0
 38157  1  0  0  0
 39158  1  0  0  0
 42159  1  0  0  0
 42160  1  0  0  0
 44161  1  0  0  0
 45162  1  0  0  0
 46163  1  0  0  0
 47164  1  0  0  0
 49165  1  0  0  0
 50166  1  0  0  0
 51167  1  0  0  0
 54168  1  0  0  0
 54169  1  0  0  0
 56170  1  0  0  0
 60171  1  0  0  0
 61172  1  0  0  0
 62173  1  0  0  0
 63174  1  0  0  0
 64175  1  0  0  0
 65176  1  0  0  0
 68177  1  0  0  0
 68178  1  0  0  0
 69179  1  0  0  0
 69180  1  0  0  0
 71181  1  0  0  0
 71182  1  0  0  0
 71183  1  0  0  0
 72184  1  0  0  0
 73185  1  0  0  0
 76186  1  0  0  0
 76187  1  0  0  0
 78188  1  0  0  0
 80189  1  0  0  0
 81190  1  0  0  0
 84191  1  0  0  0
 84192  1  0  0  0
 85193  1  0  0  0
 85194  1  0  0  0
 86195  1  0  0  0
 86196  1  0  0  0
 87197  1  0  0  0
 89198  1  0  0  0
 89199  1  0  0  0
 90200  1  0  0  0
 91201  1  0  0  0
 92202  1  0  0  0
 95203  1  0  0  0
 95204  1  0  0  0
 96205  1  0  0  0
 96206  1  0  0  0
 98207  1  0  0  0
100208  1  0  0  0
101209  1  0  0  0
104210  1  0  0  0
104211  1  0  0  0
105212  1  0  0  0
105213  1  0  0  0
107214  1  0  0  0
109215  1  0  0  0
110216  1  0  0  0
113217  1  0  0  0
113218  1  0  0  0
115219  1  0  0  0
M  END
$$$$
