### 
### Created by X-TOOL on Mon Sep 10 21:13:19 2018
### 

@<TRIPOS>MOLECULE
4o3u_ligand
  217   221     1     0     0
SMALL
GAST_HUCK


@<TRIPOS>ATOM
      1 N          28.9630    4.6160  -39.2540 N.4       1 ILE         0.2381
      2 CA         29.8390    5.0580  -40.3240 C.3       1 ILE         0.0676
      3 C          30.8770    6.0720  -39.8170 C.2       1 ILE         0.2270
      4 O          30.5410    7.2380  -39.6050 O.2       1 ILE        -0.3907
      5 CB         29.0140    5.6200  -41.5300 C.3       1 ILE         0.0164
      6 CG1        27.9510    4.6200  -42.0970 C.3       1 ILE        -0.0460
      7 CG2        29.9130    6.1930  -42.6170 C.3       1 ILE        -0.0551
      8 CD1        28.4610    3.3140  -42.7380 C.3       1 ILE        -0.0647
      9 N          32.1380    5.6500  -39.6510 N.am      1 ILE        -0.2607
     10 CA         33.2110    6.5830  -39.2720 C.3       1 ILE         0.1336
     11 C          33.6680    7.3270  -40.5720 C.2       1 ILE         0.2040
     12 O          33.8500    6.6920  -41.6060 O.2       1 ILE        -0.3944
     13 CB         34.3870    5.8510  -38.5680 C.3       1 ILE        -0.0037
     14 CG1        33.9560    5.3080  -37.2080 C.3       1 ILE        -0.0491
     15 CG2        35.6140    6.7550  -38.4260 C.3       1 ILE        -0.0582
     16 CD1        34.4460    4.0210  -36.9540 C.3       1 ILE        -0.0648
     17 N          33.7790    8.6480  -40.5080 N.am      1 GLY        -0.2664
     18 CA         34.2440    9.4700  -41.6170 C.3       1 GLY         0.1201
     19 C          33.3110    9.6250  -42.7910 C.2       1 GLY         0.2005
     20 O          33.7570    9.9030  -43.9020 O.2       1 GLY        -0.3947
     21 N          32.0250    9.4550  -42.5550 N.am      1 GLY        -0.2666
     22 CA         31.0280    9.6080  -43.6040 C.3       1 GLY         0.1201
     23 C          30.3760   10.9720  -43.5720 C.2       1 GLY         0.2008
     24 O          30.6300   11.7730  -42.6640 O.2       1 GLY        -0.3947
     25 N          29.5590   11.2500  -44.5920 N.am      1 CYS        -0.2631
     26 CA         28.8080   12.4930  -44.7200 C.3       1 CYS         0.1408
     27 C          27.3340   12.1390  -44.4100 C.2       1 CYS         0.2072
     28 O          27.0040   10.9530  -44.3940 O.2       1 CYS        -0.3942
     29 CB         28.9630   13.1440  -46.1080 C.3       1 CYS         0.0443
     30 SG         30.1120   12.3180  -47.2650 S.3       1 CYS        -0.0882
     31 N          26.4240   13.1070  -44.1560 N.am      1 PRO        -0.2498
     32 CA         25.0230   12.7410  -43.9240 C.3       1 PRO         0.1338
     33 C          24.3340   12.2950  -45.2180 C.2       1 PRO         0.2042
     34 O          24.6950   12.7480  -46.2980 O.2       1 PRO        -0.3944
     35 CB         24.4210   14.0310  -43.3670 C.3       1 PRO        -0.0104
     36 CG         25.5930   14.9170  -43.0650 C.3       1 PRO        -0.0281
     37 CD         26.5820   14.5670  -44.0870 C.3       1 PRO         0.0369
     38 N          23.3470   11.4060  -45.1020 N.am      1 TYR        -0.2621
     39 CA         22.6220   10.8230  -46.2320 C.3       1 TYR         0.1390
     40 C          22.3080   11.7750  -47.4020 C.2       1 TYR         0.2058
     41 O          22.5200   11.3920  -48.5490 O.2       1 TYR        -0.3942
     42 CB         21.3960    9.9960  -45.7720 C.3       1 TYR         0.0163
     43 CG         20.2000   10.8360  -45.4210 C.ar      1 TYR        -0.0493
     44 CD1        19.2410   11.1420  -46.3740 C.ar      1 TYR        -0.0685
     45 CD2        20.0580   11.3870  -44.1540 C.ar      1 TYR        -0.0685
     46 CE1        18.1820   11.9970  -46.0880 C.ar      1 TYR        -0.0398
     47 CE2        18.9820   12.2180  -43.8410 C.ar      1 TYR        -0.0398
     48 CZ         18.0450   12.5200  -44.8160 C.ar      1 TYR         0.0805
     49 OH         16.9500   13.3010  -44.5420 O.3       1 TYR        -0.3376
     50 N          21.8530   13.0220  -47.1020 N.am      1 TRP        -0.2625
     51 CA         21.4600   14.0660  -48.0690 C.3       1 TRP         0.1352
     52 C          22.6190   14.7410  -48.8780 C.2       1 TRP         0.2052
     53 O          22.3640   15.5380  -49.7840 O.2       1 TRP        -0.3942
     54 CB         20.5600   15.1020  -47.3840 C.3       1 TRP         0.0042
     55 CG         21.1600   15.7090  -46.1580 C.2       1 TRP        -0.0418
     56 CD1        20.8510   15.4210  -44.8590 C.2       1 TRP         0.0167
     57 CD2        22.2100   16.6870  -46.1140 C.ar      1 TRP        -0.0214
     58 NE1        21.6490   16.1610  -44.0020 N.pl3     1 TRP        -0.2890
     59 CE2        22.4880   16.9460  -44.7480 C.ar      1 TRP         0.0603
     60 CE3        22.9430   17.3740  -47.1010 C.ar      1 TRP        -0.0747
     61 CZ2        23.4560   17.8640  -44.3490 C.ar      1 TRP        -0.0443
     62 CZ3        23.9130   18.2720  -46.7060 C.ar      1 TRP        -0.0792
     63 CH2        24.1430   18.5340  -45.3470 C.ar      1 TRP        -0.0768
     64 N          23.8750   14.4270  -48.5440 N.am      1 MET        -0.2636
     65 CA         25.0620   14.9720  -49.2010 C.3       1 MET         0.1317
     66 C          25.3860   14.1370  -50.4410 C.2       1 MET         0.2040
     67 O          25.3530   12.9060  -50.3680 O.2       1 MET        -0.3944
     68 CB         26.2490   14.9390  -48.2160 C.3       1 MET        -0.0034
     69 CG         27.4030   15.8350  -48.5860 C.3       1 MET        -0.0024
     70 SD         27.8350   16.8440  -47.1500 S.3       1 MET        -0.1639
     71 CE         29.5860   16.6510  -47.0850 C.3       1 MET        -0.0181
     72 N          25.7250   14.8000  -51.5650 N.am      1 ASP        -0.2622
     73 CA         26.1130   14.1370  -52.8170 C.3       1 ASP         0.1423
     74 C          27.4950   13.5300  -52.6720 C.2       1 ASP         0.2056
     75 O          28.2520   13.9430  -51.7820 O.2       1 ASP        -0.3943
     76 CB         26.0820   15.1120  -54.0020 C.3       1 ASP         0.0406
     77 CG         24.6900   15.6040  -54.3810 C.2       1 ASP         0.0393
     78 OD1        23.8770   15.8830  -53.4550 O.co2     1 ASP        -0.5688
     79 OD2        24.4230   15.7560  -55.6000 O.co2     1 ASP        -0.5688
     80 N          27.8180   12.5240  -53.5240 N.am      1 ARG        -0.2636
     81 CA         29.1070   11.8380  -53.4610 C.3       1 ARG         0.1311
     82 C          30.2350   12.8310  -53.6640 C.2       1 ARG         0.2039
     83 O          31.1710   12.9090  -52.8580 O.2       1 ARG        -0.3944
     84 CB         29.1840   10.7260  -54.5060 C.3       1 ARG        -0.0092
     85 CG         30.4710    9.9310  -54.4010 C.3       1 ARG        -0.0156
     86 CD         30.6830    8.9530  -55.5280 C.3       1 ARG         0.0627
     87 NE         31.9640    8.2550  -55.3770 N.pl3     1 ARG        -0.2723
     88 CZ         32.1380    7.1390  -54.6690 C.cat     1 ARG         0.2882
     89 NH1        31.1080    6.5670  -54.0530 N.pl3     1 ARG        -0.2849
     90 NH2        33.3330    6.5690  -54.6020 N.pl3     1 ARG        -0.2849
     91 N          30.0900   13.6400  -54.7140 N.am      1 GLU        -0.2636
     92 CA         31.0750   14.6210  -55.1230 C.3       1 GLU         0.1325
     93 C          31.4020   15.7210  -54.1230 C.2       1 GLU         0.2040
     94 O          32.4410   16.3570  -54.2810 O.2       1 GLU        -0.3944
     95 CB         30.8680   15.0840  -56.5740 C.3       1 GLU        -0.0008
     96 CG         31.2460   14.0020  -57.5950 C.3       1 GLU         0.0044
     97 CD         30.3090   12.8130  -57.7870 C.2       1 GLU         0.0350
     98 OE1        29.0880   12.9520  -57.5360 O.co2     1 GLU        -0.5690
     99 OE2        30.8000   11.7420  -58.2100 O.co2     1 GLU        -0.5690
    100 N          30.6090   15.8930  -53.0460 N.am      1 GLU        -0.2636
    101 CA         31.0540   16.8610  -52.0530 C.3       1 GLU         0.1324
    102 C          31.6080   16.2400  -50.7470 C.2       1 GLU         0.2035
    103 O          31.4370   16.7850  -49.6600 O.2       1 GLU        -0.3944
    104 CB         30.1720   18.1110  -51.9210 C.3       1 GLU        -0.0008
    105 CG         28.8840   17.9800  -51.1320 C.3       1 GLU         0.0044
    106 CD         28.4980   19.2650  -50.4130 C.2       1 GLU         0.0350
    107 OE1        29.3690   19.8650  -49.7370 O.co2     1 GLU        -0.5690
    108 OE2        27.3140   19.6590  -50.5060 O.co2     1 GLU        -0.5690
    109 N          32.3460   15.1110  -50.9000 N.am      1 CYS        -0.2662
    110 CA         33.0470   14.3820  -49.8390 C.3       1 CYS         0.1322
    111 C          34.4650   13.9350  -50.2750 C.2       1 CYS         0.2158
    112 O          34.9030   14.1180  -51.4180 O.co2     1 CYS        -0.4120
    113 CB         32.2210   13.1990  -49.3480 C.3       1 CYS         0.0412
    114 SG         30.5550   13.6310  -48.7760 S.3       1 CYS        -0.0888
    115 H          29.5175    4.2595  -38.4915 H         1 ILE         0.2015
    116 H          28.3552    3.8884  -39.5963 H         1 ILE         0.2015
    117 H          28.4082    5.3932  -38.9313 H         1 ILE         0.2015
    118 H          30.3906    4.1774  -40.6849 H         1 ILE         0.1101
    119 H          28.4400    6.4690  -41.1302 H         1 ILE         0.0378
    120 H          27.3718    5.1566  -42.8628 H         1 ILE         0.0269
    121 H          27.2880    4.3398  -41.2652 H         1 ILE         0.0269
    122 H          30.6379    6.8863  -42.1655 H         1 ILE         0.0236
    123 H          29.2995    6.7325  -43.3536 H         1 ILE         0.0236
    124 H          30.4511    5.3743  -43.1172 H         1 ILE         0.0236
    125 H          27.6048    2.7184  -43.0874 H         1 ILE         0.0230
    126 H          29.0291    2.7374  -41.9932 H         1 ILE         0.0230
    127 H          29.1129    3.5543  -43.5908 H         1 ILE         0.0230
    128 H          32.3538    4.6831  -39.7872 H         1 ILE         0.1885
    129 H          32.8044    7.3231  -38.5671 H         1 ILE         0.0803
    130 H          34.6727    4.9956  -39.1978 H         1 ILE         0.0345
    131 H          32.8569    5.2778  -37.1746 H         1 ILE         0.0267
    132 H          34.3282    5.9858  -36.4256 H         1 ILE         0.0267
    133 H          35.9065    7.1343  -39.4162 H         1 ILE         0.0235
    134 H          36.4456    6.1793  -37.9936 H         1 ILE         0.0235
    135 H          35.3717    7.6011  -37.7662 H         1 ILE         0.0235
    136 H          34.1028    3.6868  -35.9638 H         1 ILE         0.0230
    137 H          35.5457    4.0366  -36.9748 H         1 ILE         0.0230
    138 H          34.0744    3.3286  -37.7237 H         1 ILE         0.0230
    139 H          33.5302    9.1032  -39.6531 H         1 GLY         0.1881
    140 H          35.1777    9.0250  -41.9915 H         1 GLY         0.0763
    141 H          34.4498   10.4756  -41.2215 H         1 GLY         0.0763
    142 H          31.7270    9.2147  -41.6312 H         1 GLY         0.1881
    143 H          30.2516    8.8402  -43.4707 H         1 GLY         0.0763
    144 H          31.5158    9.4706  -44.5803 H         1 GLY         0.0763
    145 H          29.4564   10.5634  -45.3117 H         1 CYS         0.1884
    146 H          29.1724   13.2096  -43.9693 H         1 CYS         0.0809
    147 H          29.3210   14.1732  -45.9576 H         1 CYS         0.0432
    148 H          27.9700   13.1665  -46.5806 H         1 CYS         0.0432
    149 H          24.9507   11.9298  -43.1846 H         1 PRO         0.0802
    150 H          23.8480   13.8246  -42.4510 H         1 PRO         0.0313
    151 H          23.7636   14.5025  -44.1123 H         1 PRO         0.0313
    152 H          25.9853   14.7149  -42.0574 H         1 PRO         0.0287
    153 H          25.3106   15.9773  -43.1427 H         1 PRO         0.0287
    154 H          26.3497   15.0428  -45.0512 H         1 PRO         0.0524
    155 H          27.5990   14.8473  -43.7753 H         1 PRO         0.0524
    156 H          23.0844   11.1182  -44.1810 H         1 TYR         0.1885
    157 H          23.3203   10.0881  -46.6589 H         1 TYR         0.0821
    158 H          21.6833    9.4125  -44.8849 H         1 TYR         0.0453
    159 H          21.1134    9.3115  -46.5854 H         1 TYR         0.0453
    160 H          19.3181   10.7056  -47.3633 H         1 TYR         0.0530
    161 H          20.7981   11.1669  -43.3931 H         1 TYR         0.0530
    162 H          17.4659   12.2525  -46.8607 H         1 TYR         0.0525
    163 H          18.8797   12.6248  -42.8414 H         1 TYR         0.0525
    164 H          16.4260   13.3968  -45.3286 H         1 TYR         0.2458
    165 H          21.7775   13.2537  -46.1321 H         1 TRP         0.1884
    166 H          20.8385   13.5573  -48.8206 H         1 TRP         0.0815
    167 H          19.6181   14.6094  -47.1010 H         1 TRP         0.0397
    168 H          20.3508   15.9081  -48.1026 H         1 TRP         0.0397
    169 H          20.0874   14.7119  -44.5427 H         1 TRP         0.0795
    170 H          21.6168   16.1267  -42.9731 H         1 TRP         0.2216
    171 H          22.7484   17.2002  -48.1531 H         1 TRP         0.0540
    172 H          23.6630   18.0465  -43.3007 H         1 TRP         0.0541
    173 H          24.5059   18.7824  -47.4563 H         1 TRP         0.0510
    174 H          24.8784   19.2811  -45.0710 H         1 TRP         0.0530
    175 H          24.0114   13.7772  -47.7962 H         1 MET         0.1883
    176 H          24.8686   16.0118  -49.5033 H         1 MET         0.0800
    177 H          26.6216   13.9054  -48.1637 H         1 MET         0.0320
    178 H          25.8808   15.2466  -47.2261 H         1 MET         0.0320
    179 H          27.1121   16.4871  -49.4228 H         1 MET         0.0378
    180 H          28.2675   15.2225  -48.8818 H         1 MET         0.0378
    181 H          29.9871   17.2263  -46.2376 H         1 MET         0.0340
    182 H          30.0305   17.0193  -48.0213 H         1 MET         0.0340
    183 H          29.8331   15.5870  -46.9555 H         1 MET         0.0340
    184 H          25.7115   15.7997  -51.5452 H         1 ASP         0.1884
    185 H          25.3946   13.3285  -53.0174 H         1 ASP         0.0819
    186 H          26.5164   14.6043  -54.8758 H         1 ASP         0.0478
    187 H          26.6966   15.9868  -53.7431 H         1 ASP         0.0478
    188 H          27.1533   12.2434  -54.2164 H         1 ARG         0.1883
    189 H          29.2130   11.3859  -52.4638 H         1 ARG         0.0800
    190 H          29.1264   11.1765  -55.5079 H         1 ARG         0.0313
    191 H          28.3333   10.0439  -54.3612 H         1 ARG         0.0313
    192 H          30.4544    9.3698  -53.4551 H         1 ARG         0.0301
    193 H          31.3140   10.6375  -54.3935 H         1 ARG         0.0301
    194 H          30.6794    9.4976  -56.4837 H         1 ARG         0.0689
    195 H          29.8674    8.2150  -55.5234 H         1 ARG         0.0689
    196 H          32.7864    8.6549  -55.8510 H         1 ARG         0.2642
    197 H          31.2484    5.7048  -53.5073 H         1 ARG         0.2615
    198 H          30.1696    6.9861  -54.1214 H         1 ARG         0.2615
    199 H          34.1380    7.0034  -55.0754 H         1 ARG         0.2615
    200 H          33.4564    5.6918  -54.0765 H         1 ARG         0.2615
    201 H          29.2504   13.5652  -55.2520 H         1 GLU         0.1883
    202 H          32.0100   14.0431  -55.1650 H         1 GLU         0.0801
    203 H          31.4919   15.9720  -56.7535 H         1 GLU         0.0330
    204 H          29.8087   15.3459  -56.7132 H         1 GLU         0.0330
    205 H          32.2229   13.5979  -57.2912 H         1 GLU         0.0433
    206 H          31.3423   14.4987  -58.5717 H         1 GLU         0.0433
    207 H          29.7572   15.3811  -52.9346 H         1 GLU         0.1883
    208 H          31.9638   17.2726  -52.5144 H         1 GLU         0.0801
    209 H          29.9038   18.4337  -52.9378 H         1 GLU         0.0330
    210 H          30.7771   18.8913  -51.4363 H         1 GLU         0.0330
    211 H          29.0097   17.1833  -50.3841 H         1 GLU         0.0433
    212 H          28.0739   17.7082  -51.8247 H         1 GLU         0.0433
    213 H          32.4184   14.7408  -51.8261 H         1 CYS         0.1877
    214 H          33.1687   15.0737  -48.9924 H         1 CYS         0.0760
    215 O1         35.2032   13.3611  -49.4305 O.co2     1 CYS        -0.4120
    216 H          32.7593   12.7270  -48.5129 H         1 CYS         0.0426
    217 H          32.1247   12.4803  -50.1751 H         1 CYS         0.0426
@<TRIPOS>BOND
     1    1    2 1  
     2    2    3 1  
     3    2    5 1  
     4    3    4 2  
     5    3    9 am 
     6    5    6 1  
     7    5    7 1  
     8    6    8 1  
     9    9   10 1  
    10   10   11 1  
    11   10   13 1  
    12   11   12 2  
    13   11   17 am 
    14   13   14 1  
    15   13   15 1  
    16   14   16 1  
    17   17   18 1  
    18   18   19 1  
    19   19   20 2  
    20   19   21 am 
    21   21   22 1  
    22   22   23 1  
    23   23   24 2  
    24   23   25 am 
    25   25   26 1  
    26   26   27 1  
    27   26   29 1  
    28   27   28 2  
    29   27   31 am 
    30   29   30 1  
    31   30  114 1  
    32   31   32 1  
    33   31   37 1  
    34   32   33 1  
    35   32   35 1  
    36   33   34 2  
    37   33   38 am 
    38   35   36 1  
    39   36   37 1  
    40   38   39 1  
    41   39   40 1  
    42   39   42 1  
    43   40   41 2  
    44   40   50 am 
    45   42   43 1  
    46   43   44 ar 
    47   43   45 ar 
    48   44   46 ar 
    49   45   47 ar 
    50   46   48 ar 
    51   47   48 ar 
    52   48   49 1  
    53   50   51 1  
    54   51   52 1  
    55   51   54 1  
    56   52   53 2  
    57   52   64 am 
    58   54   55 1  
    59   55   56 2  
    60   55   57 1  
    61   56   58 1  
    62   57   59 ar 
    63   57   60 ar 
    64   58   59 1  
    65   59   61 ar 
    66   60   62 ar 
    67   61   63 ar 
    68   62   63 ar 
    69   64   65 1  
    70   65   66 1  
    71   65   68 1  
    72   66   67 2  
    73   66   72 am 
    74   68   69 1  
    75   69   70 1  
    76   70   71 1  
    77   72   73 1  
    78   73   74 1  
    79   73   76 1  
    80   74   75 2  
    81   74   80 am 
    82   76   77 1  
    83   77   78 ar 
    84   77   79 ar 
    85   80   81 1  
    86   81   82 1  
    87   81   84 1  
    88   82   83 2  
    89   82   91 am 
    90   84   85 1  
    91   85   86 1  
    92   86   87 1  
    93   87   88 ar 
    94   88   89 ar 
    95   88   90 ar 
    96   91   92 1  
    97   92   93 1  
    98   92   95 1  
    99   93   94 2  
   100   93  100 am 
   101   95   96 1  
   102   96   97 1  
   103   97   98 ar 
   104   97   99 ar 
   105  100  101 1  
   106  101  102 1  
   107  101  104 1  
   108  102  103 2  
   109  102  109 am 
   110  104  105 1  
   111  105  106 1  
   112  106  107 ar 
   113  106  108 ar 
   114  109  110 1  
   115  110  111 1  
   116  110  113 1  
   117  111  112 ar 
   118  113  114 1  
   119    1  115 1  
   120    1  116 1  
   121    1  117 1  
   122    2  118 1  
   123    5  119 1  
   124    6  120 1  
   125    6  121 1  
   126    7  122 1  
   127    7  123 1  
   128    7  124 1  
   129    8  125 1  
   130    8  126 1  
   131    8  127 1  
   132    9  128 1  
   133   10  129 1  
   134   13  130 1  
   135   14  131 1  
   136   14  132 1  
   137   15  133 1  
   138   15  134 1  
   139   15  135 1  
   140   16  136 1  
   141   16  137 1  
   142   16  138 1  
   143   17  139 1  
   144   18  140 1  
   145   18  141 1  
   146   21  142 1  
   147   22  143 1  
   148   22  144 1  
   149   25  145 1  
   150   26  146 1  
   151   29  147 1  
   152   29  148 1  
   153   32  149 1  
   154   35  150 1  
   155   35  151 1  
   156   36  152 1  
   157   36  153 1  
   158   37  154 1  
   159   37  155 1  
   160   38  156 1  
   161   39  157 1  
   162   42  158 1  
   163   42  159 1  
   164   44  160 1  
   165   45  161 1  
   166   46  162 1  
   167   47  163 1  
   168   49  164 1  
   169   50  165 1  
   170   51  166 1  
   171   54  167 1  
   172   54  168 1  
   173   56  169 1  
   174   58  170 1  
   175   60  171 1  
   176   61  172 1  
   177   62  173 1  
   178   63  174 1  
   179   64  175 1  
   180   65  176 1  
   181   68  177 1  
   182   68  178 1  
   183   69  179 1  
   184   69  180 1  
   185   71  181 1  
   186   71  182 1  
   187   71  183 1  
   188   72  184 1  
   189   73  185 1  
   190   76  186 1  
   191   76  187 1  
   192   80  188 1  
   193   81  189 1  
   194   84  190 1  
   195   84  191 1  
   196   85  192 1  
   197   85  193 1  
   198   86  194 1  
   199   86  195 1  
   200   87  196 1  
   201   89  197 1  
   202   89  198 1  
   203   90  199 1  
   204   90  200 1  
   205   91  201 1  
   206   92  202 1  
   207   95  203 1  
   208   95  204 1  
   209   96  205 1  
   210   96  206 1  
   211  100  207 1  
   212  101  208 1  
   213  104  209 1  
   214  104  210 1  
   215  105  211 1  
   216  105  212 1  
   217  109  213 1  
   218  110  214 1  
   219  111  215 ar 
   220  113  216 1  
   221  113  217 1  
@<TRIPOS>SUBSTRUCTURE
     1 ILE         1

