5fqp_ligand
  -I-interpret- 

 55 57  0  0  0  0  0  0  0  0999 V2000
   13.2740   23.6510   61.9190 C   0  0  0  0  0
   12.7900   23.8510   63.3500 C   0  0  0  0  0
   13.3520   25.1140   63.9830 C   0  0  0  0  0
   14.8110   24.9940   64.3280 C   0  0  0  0  0
   15.5490   26.1510   64.4580 C   0  0  0  0  0
   16.8860   26.0710   64.7810 C   0  0  0  0  0
   17.5100   24.8600   64.9720 C   0  0  0  0  0
   16.7680   23.7040   64.8370 C   0  0  0  0  0
   15.4200   23.7680   64.5190 C   0  0  0  0  0
   14.6510   22.4870   64.4000 C   0  0  0  0  0
   13.1750   22.6830   64.2090 N   0  3  0  0  0
   12.4950   21.4070   63.8360 C   0  0  0  0  0
   11.1150   21.2980   64.4580 C   0  0  0  0  0
   10.5370   19.9420   64.1120 C   0  0  0  0  0
   11.1530   21.4480   65.9600 C   0  0  0  0  0
   14.8600   21.6550   65.6330 C   0  0  0  0  0
   14.6220   22.1900   66.8860 C   0  0  0  0  0
   14.8120   21.4180   68.0150 C   0  0  0  0  0
   15.2370   20.1090   67.8960 C   0  0  0  0  0
   15.4740   19.5750   66.6460 C   0  0  0  0  0
   15.2850   20.3500   65.5180 C   0  0  0  0  0
   15.4500   19.2650   69.0670 C   0  0  0  0  0
   15.9010   19.8040   70.2030 C   0  0  0  0  0
   16.0680   18.7850   71.3150 C   0  0  0  0  0
   15.8560   17.5780   71.0120 O   0  0  0  0  0
   16.4040   19.2710   72.4300 O   0  0  0  0  0
   17.6110   27.2290   64.9200 O   0  0  0  0  0
   14.3595   23.5526   61.9144 H   0  0  0  0  0
   12.8242   22.7474   61.5076 H   0  0  0  0  0
   12.9832   24.5105   61.3150 H   0  0  0  0  0
   11.7053   23.9420   63.2927 H   0  0  0  0  0
   12.8043   25.2959   64.9077 H   0  0  0  0  0
   13.2452   25.9245   63.2621 H   0  0  0  0  0
   15.0782   27.1223   64.3063 H   0  0  0  0  0
   18.5693   24.8143   65.2249 H   0  0  0  0  0
   17.2449   22.7345   64.9813 H   0  0  0  0  0
   15.0328   21.9895   63.5084 H   0  0  0  0  0
   12.8177   22.9550   65.1248 H   0  0  0  0  0
   13.1008   20.5776   64.2011 H   0  0  0  0  0
   12.3840   21.3832   62.7519 H   0  0  0  0  0
   10.4992   22.1050   64.0610 H   0  0  0  0  0
   10.4659   19.8444   63.0287 H   0  0  0  0  0
   11.1861   19.1603   64.5067 H   0  0  0  0  0
    9.5443   19.8485   64.5524 H   0  0  0  0  0
   11.7801   20.6650   66.3863 H   0  0  0  0  0
   11.5644   22.4244   66.2161 H   0  0  0  0  0
   10.1419   21.3626   66.3581 H   0  0  0  0  0
   14.2842   23.2218   66.9824 H   0  0  0  0  0
   14.6263   21.8422   69.0018 H   0  0  0  0  0
   15.8100   18.5427   66.5486 H   0  0  0  0  0
   15.4733   19.9263   64.5315 H   0  0  0  0  0
   15.2414   18.1964   69.0149 H   0  0  0  0  0
   16.1255   20.8643   70.3190 H   0  0  0  0  0
   15.6153   17.5196   70.0845 H   0  0  0  0  0
   18.5188   27.0119   65.1442 H   0  0  0  0  0
  1  2  1  0  0  0
  2  3  1  0  0  0
  2 11  1  0  0  0
  3  4  1  0  0  0
  4  5  4  0  0  0
  4  9  4  0  0  0
  5  6  4  0  0  0
  6  7  4  0  0  0
  6 27  1  0  0  0
  7  8  4  0  0  0
  8  9  4  0  0  0
  9 10  1  0  0  0
 10 11  1  0  0  0
 10 16  1  0  0  0
 11 12  1  0  0  0
 12 13  1  0  0  0
 13 14  1  0  0  0
 13 15  1  0  0  0
 16 17  4  0  0  0
 16 21  4  0  0  0
 17 18  4  0  0  0
 18 19  4  0  0  0
 19 20  4  0  0  0
 19 22  1  0  0  0
 20 21  4  0  0  0
 22 23  2  0  0  0
 23 24  1  0  0  0
 24 25  1  0  0  0
 24 26  2  0  0  0
  1 28  1  0  0  0
  1 29  1  0  0  0
  1 30  1  0  0  0
  2 31  1  0  0  0
  3 32  1  0  0  0
  3 33  1  0  0  0
  5 34  1  0  0  0
  7 35  1  0  0  0
  8 36  1  0  0  0
 10 37  1  0  0  0
 11 38  1  0  0  0
 12 39  1  0  0  0
 12 40  1  0  0  0
 13 41  1  0  0  0
 14 42  1  0  0  0
 14 43  1  0  0  0
 14 44  1  0  0  0
 15 45  1  0  0  0
 15 46  1  0  0  0
 15 47  1  0  0  0
 17 48  1  0  0  0
 18 49  1  0  0  0
 20 50  1  0  0  0
 21 51  1  0  0  0
 22 52  1  0  0  0
 23 53  1  0  0  0
 25 54  1  0  0  0
 27 55  1  0  0  0
M  END
$$$$
