1g6s_ligand
  -I-interpret- 

 27 27  0  0  0  0  0  0  0  0999 V2000
   55.9200   12.3110   28.0800 C   0  0  0  0  0
   54.8520   11.4170   28.1900 C   0  0  0  0  0
   54.9570   10.1530   29.0090 C   0  0  0  0  0
   56.1720   10.1590   29.9640 C   0  0  0  0  0
   57.4210   10.6520   29.2270 C   0  0  0  0  0
   57.1640   12.1000   28.7920 C   0  0  0  0  0
   55.7340   13.5390   27.2470 C   0  0  0  0  0
   54.9510    8.9680   28.1100 O   0  0  0  0  0
   56.3380    8.8390   30.4950 O   0  0  0  0  0
   58.5520   10.6080   30.1070 O   0  0  0  0  0
   54.8180   13.5330   26.3810 O   0  0  0  0  0
   56.4720   14.4900   27.4930 O   0  0  0  0  0
   53.5890    8.0280   27.8830 P   0  0  0  0  0
   52.5400    8.8970   27.3000 O   0  0  0  0  0
   53.2750    7.5200   29.2850 O   0  0  0  0  0
   54.0720    6.9740   26.9310 O   0  0  0  0  0
   53.9191   11.6377   27.6713 H   0  0  0  0  0
   54.0828   10.0985   29.6578 H   0  0  0  0  0
   56.0067   10.8464   30.7936 H   0  0  0  0  0
   57.6279   10.0214   28.3623 H   0  0  0  0  0
   57.1126   12.6984   29.7016 H   0  0  0  0  0
   57.9687   12.3720   28.1089 H   0  0  0  0  0
   55.5334    8.5733   30.9462 H   0  0  0  0  0
   58.7104    9.7006   30.3776 H   0  0  0  0  0
   54.3856   12.6759   26.3801 H   0  0  0  0  0
   53.9970    6.9673   29.5930 H   0  0  0  0  0
   54.7474    6.4429   27.3592 H   0  0  0  0  0
  1  2  2  0  0  0
  1  6  1  0  0  0
  1  7  1  0  0  0
  2  3  1  0  0  0
  3  4  1  0  0  0
  3  8  1  0  0  0
  4  5  1  0  0  0
  4  9  1  0  0  0
  5  6  1  0  0  0
  5 10  1  0  0  0
  7 11  1  0  0  0
  7 12  2  0  0  0
  8 13  1  0  0  0
 13 14  2  0  0  0
 13 15  1  0  0  0
 13 16  1  0  0  0
  2 17  1  0  0  0
  3 18  1  0  0  0
  4 19  1  0  0  0
  5 20  1  0  0  0
  6 21  1  0  0  0
  6 22  1  0  0  0
  9 23  1  0  0  0
 10 24  1  0  0  0
 11 25  1  0  0  0
 15 26  1  0  0  0
 16 27  1  0  0  0
M  END
$$$$
