### 
### Created by X-TOOL on Mon Sep 10 21:12:48 2018
### 

@<TRIPOS>MOLECULE
1g6s_ligand
   24    24     1     0     0
SMALL
GAST_HUCK


@<TRIPOS>ATOM
      1 C1         55.9200   12.3110   28.0800 C.2       1 S3P        -0.0206
      2 C2         54.8520   11.4170   28.1900 C.2       1 S3P        -0.0423
      3 C3         54.9570   10.1530   29.0090 C.3       1 S3P         0.1415
      4 C4         56.1720   10.1590   29.9640 C.3       1 S3P         0.1213
      5 C5         57.4210   10.6520   29.2270 C.3       1 S3P         0.0922
      6 C6         57.1640   12.1000   28.7920 C.3       1 S3P         0.0034
      7 C7         55.7340   13.5390   27.2470 C.2       1 S3P         0.0477
      8 O1         54.9510    8.9680   28.1100 O.3       1 S3P        -0.2592
      9 O2         56.3380    8.8390   30.4950 O.3       1 S3P        -0.3840
     10 O3         58.5520   10.6080   30.1070 O.3       1 S3P        -0.3873
     11 O4         54.8180   13.5330   26.3810 O.co2     1 S3P        -0.5666
     12 O5         56.4720   14.4900   27.4930 O.co2     1 S3P        -0.5666
     13 P1         53.5890    8.0280   27.8830 P.3       1 S3P         0.2044
     14 O6         52.5400    8.8970   27.3000 O.co2     1 S3P        -0.5536
     15 O7         53.2750    7.5200   29.2850 O.co2     1 S3P        -0.5536
     16 O8         54.0720    6.9740   26.9310 O.co2     1 S3P        -0.5536
     17 H1         53.9200   11.6375   27.6717 H         1 S3P         0.0595
     18 H2         54.0567   10.0940   29.6383 H         1 S3P         0.0831
     19 H3         55.9695   10.8484   30.7968 H         1 S3P         0.0674
     20 H4         57.6126   10.0214   28.3463 H         1 S3P         0.0641
     21 H5         57.1533   12.7307   29.6931 H         1 S3P         0.0411
     22 H6         57.9903   12.4115   28.1361 H         1 S3P         0.0411
     23 H7         57.0629    8.8347   31.1090 H         1 S3P         0.2103
     24 H8         58.3768   11.1421   30.8730 H         1 S3P         0.2101
@<TRIPOS>BOND
     1    1    2 2  
     2    1    6 1  
     3    1    7 1  
     4    2    3 1  
     5    3    4 1  
     6    3    8 1  
     7    4    5 1  
     8    4    9 1  
     9    5    6 1  
    10    5   10 1  
    11    7   11 ar 
    12    7   12 ar 
    13    8   13 1  
    14   13   14 ar 
    15   13   15 ar 
    16   13   16 ar 
    17    2   17 1  
    18    3   18 1  
    19    4   19 1  
    20    5   20 1  
    21    6   21 1  
    22    6   22 1  
    23    9   23 1  
    24   10   24 1  
@<TRIPOS>SUBSTRUCTURE
     1 S3P         1

