#	Name:			6u7p_ligand
#	Creating user name:	wangrx
#	Creation time:		Thu Aug  5 18:16:46 2021

#	Modifying user name:	wangrx
#	Modification time:	Thu Aug  5 18:17:03 2021

@<TRIPOS>MOLECULE
6u7p_ligand
   82    85     1     0     0
SMALL
GAST_HUCK


@<TRIPOS>ATOM
      1 O10        17.5500   23.7880   15.0940 O.2       1 B4R        -0.1576 
      2 S8         18.6250   23.8750   16.0520 S.o2      1 B4R         0.0363 
      3 O9         19.4270   22.7010   16.2660 O.2       1 B4R        -0.1576 
      4 C5         19.6460   25.2020   15.6200 C.ar      1 B4R         0.0004 
      5 C6         19.1530   26.3390   14.9890 C.ar      1 B4R        -0.1449 
      6 C39        20.0420   27.3860   14.7270 C.ar      1 B4R        -0.1686 
      7 C4         21.0090   25.1410   15.8890 C.ar      1 B4R        -0.1449 
      8 C3         21.8780   26.1620   15.6250 C.ar      1 B4R        -0.1686 
      9 C2         21.3930   27.3000   15.0440 C.ar      1 B4R        -0.1677 
     10 B1         22.4450   28.4530   14.7880 B         1 B4R         3.0000 
     11 O3         23.8970   28.2510   15.1380 O.3       1 B4R        -0.4105 
     12 O4         21.7880   29.5810   14.2140 O.3       1 B4R        -0.4105 
     13 N11        17.9300   24.2070   17.5060 N.am      1 B4R        -0.2375 
     14 C12        18.8580   24.4720   18.6370 C.3       1 B4R         0.0315 
     15 C13        18.5360   23.7490   19.9970 C.3       1 B4R        -0.0296 
     16 C15        19.5490   24.2220   20.9820 C.3       1 B4R        -0.0612 
     17 C14        18.4590   22.2370   19.8400 C.3       1 B4R        -0.0612 
     18 C16        16.6320   24.8470   17.6260 C.3       1 B4R         0.0573 
     19 C17        15.4920   23.9690   18.0860 C.3       1 B4R         0.0967 
     20 O18        14.3670   24.7560   18.3690 O.3       1 B4R        -0.3877 
     21 C19        15.1280   22.8440   17.1000 C.3       1 B4R         0.0807 
     22 C32        14.4020   23.3350   15.7950 C.3       1 B4R         0.0064 
     23 C33        14.0740   22.1970   14.9060 C.ar      1 B4R        -0.0408 
     24 C38        12.7500   21.8140   14.7940 C.ar      1 B4R        -0.0603 
     25 C37        12.4150   20.6760   14.0060 C.ar      1 B4R        -0.0686 
     26 C36        13.4200   19.9750   13.3490 C.ar      1 B4R        -0.0687 
     27 C35        14.7020   20.4220   13.3930 C.ar      1 B4R        -0.0686 
     28 C34        15.0460   21.5360   14.1920 C.ar      1 B4R        -0.0603 
     29 N20        14.2500   21.8920   17.7560 N.am      1 B4R        -0.2550 
     30 C21        14.5910   20.6110   17.9220 C.2       1 B4R         0.3202 
     31 O22        15.7010   20.0860   17.6810 O.2       1 B4R        -0.3775 
     32 O23        13.5040   19.8860   18.3540 O.3       1 B4R        -0.2601 
     33 C24        13.7010   18.4680   18.5680 C.3       1 B4R         0.0977 
     34 C25        13.8880   18.2790   20.0260 C.3       1 B4R         0.0018 
     35 C44        12.6210   18.5930   20.8110 C.3       1 B4R         0.0533 
     36 O26        11.4500   18.0140   20.3420 O.3       1 B4R        -0.3508 
     37 C27        11.2170   17.8890   18.9490 C.3       1 B4R         0.1646 
     38 C31        12.4060   17.8040   18.0140 C.3       1 B4R         0.0428 
     39 C30        11.8910   18.2750   16.6450 C.3       1 B4R        -0.0192 
     40 O28        10.5560   19.0900   18.4720 O.3       1 B4R        -0.3509 
     41 C29        10.8720   19.3270   17.1080 C.3       1 B4R         0.0512 
     42 H1         18.1085   26.4116   14.7081 H         1 B4R         0.0060 
     43 H2         19.6669   28.2911   14.2632 H         1 B4R         0.0043 
     44 H3         21.4037   24.2339   16.3323 H         1 B4R         0.0060 
     45 H4         22.9298   26.0712   15.8712 H         1 B4R         0.0043 
     46 H6         24.0148   27.3838   15.5075 H         1 B4R         0.2052 
     47 H7         24.0148   27.3838   15.5076 H         1 B4R         0.2052 
     48 H8         20.8620   29.3918   14.1183 H         1 B4R         0.2052 
     49 H9         20.8619   29.3918   14.1183 H         1 B4R         0.2052 
     50 H10        18.8530   25.5556   18.8259 H         1 B4R         0.0480 
     51 H11        19.8647   24.1591   18.3230 H         1 B4R         0.0480 
     52 H12        17.5468   24.0838   20.3425 H         1 B4R         0.0311 
     53 H13        19.3660   23.7426   21.9550 H         1 B4R         0.0233 
     54 H14        19.4725   25.3139   21.0911 H         1 B4R         0.0233 
     55 H15        20.5563   23.9586   20.6272 H         1 B4R         0.0233 
     56 H16        17.6885   21.9843   19.0967 H         1 B4R         0.0233 
     57 H17        18.1995   21.7807   20.8067 H         1 B4R         0.0233 
     58 H18        19.4333   21.8532   19.5031 H         1 B4R         0.0233 
     59 H19        16.3656   25.2519   16.6386 H         1 B4R         0.0504 
     60 H20        16.7308   25.6724   18.3463 H         1 B4R         0.0504 
     61 H21        15.8109   23.4869   19.0219 H         1 B4R         0.0634 
     62 H22        14.1051   25.2254   17.5857 H         1 B4R         0.2100 
     63 H23        16.0591   22.3369   16.8068 H         1 B4R         0.0604 
     64 H24        15.0619   24.0319   15.2575 H         1 B4R         0.0449 
     65 H25        13.4721   23.8520   16.0743 H         1 B4R         0.0449 
     66 H26        11.9738   22.3751   15.3016 H         1 B4R         0.0557 
     67 H27        11.3823   20.3581   13.9189 H         1 B4R         0.0599 
     68 H28        13.1803   19.0709   12.8011 H         1 B4R         0.0559 
     69 H29        15.4669   19.9206   12.8110 H         1 B4R         0.0599 
     70 H30        16.0762   21.8695   14.2420 H         1 B4R         0.0557 
     71 H31        13.3624   22.2048   18.0941 H         1 B4R         0.1873 
     72 H32        14.5824   18.0937   18.0267 H         1 B4R         0.0653 
     73 H33        14.6927   18.9455   20.3699 H         1 B4R         0.0316 
     74 H34        14.1722   17.2332   20.2147 H         1 B4R         0.0316 
     75 H35        12.4826   19.6842   20.8023 H         1 B4R         0.0562 
     76 H36        12.7736   18.2509   21.8453 H         1 B4R         0.0562 
     77 H37        10.5817   17.0038   18.7980 H         1 B4R         0.0913 
     78 H38        12.6588   16.7391   17.9036 H         1 B4R         0.0379 
     79 H39        11.4125   17.4592   16.0833 H         1 B4R         0.0293 
     80 H40        12.6918   18.7193   16.0356 H         1 B4R         0.0293 
     81 H41         9.9594   19.2508   16.4987 H         1 B4R         0.0561 
     82 H42        11.3034   20.3329   16.9980 H         1 B4R         0.0561 
@<TRIPOS>BOND
     1    1    2 2    
     2    2    3 2    
     3    2    4 1    
     4    2   13 am   
     5    4    5 ar   
     6    4    7 ar   
     7    5    6 ar   
     8    6    9 ar   
     9    7    8 ar   
    10    8    9 ar   
    11    9   10 1    
    12   10   11 1    
    13   10   12 1    
    14   13   14 1    
    15   13   18 1    
    16   14   15 1    
    17   15   16 1    
    18   15   17 1    
    19   18   19 1    
    20   19   20 1    
    21   19   21 1    
    22   21   22 1    
    23   21   29 1    
    24   22   23 1    
    25   23   24 ar   
    26   23   28 ar   
    27   24   25 ar   
    28   25   26 ar   
    29   26   27 ar   
    30   27   28 ar   
    31   29   30 am   
    32   30   31 2    
    33   30   32 1    
    34   32   33 1    
    35   33   34 1    
    36   33   38 1    
    37   34   35 1    
    38   35   36 1    
    39   36   37 1    
    40   37   38 1    
    41   37   40 1    
    42   38   39 1    
    43   39   41 1    
    44   40   41 1    
    45    5   42 1    
    46    6   43 1    
    47    7   44 1    
    48    8   45 1    
    49   11   46 1    
    50   11   47 1    
    51   12   48 1    
    52   12   49 1    
    53   14   50 1    
    54   14   51 1    
    55   15   52 1    
    56   16   53 1    
    57   16   54 1    
    58   16   55 1    
    59   17   56 1    
    60   17   57 1    
    61   17   58 1    
    62   18   59 1    
    63   18   60 1    
    64   19   61 1    
    65   20   62 1    
    66   21   63 1    
    67   22   64 1    
    68   22   65 1    
    69   24   66 1    
    70   25   67 1    
    71   26   68 1    
    72   27   69 1    
    73   28   70 1    
    74   29   71 1    
    75   33   72 1    
    76   34   73 1    
    77   34   74 1    
    78   35   75 1    
    79   35   76 1    
    80   37   77 1    
    81   38   78 1    
    82   39   79 1    
    83   39   80 1    
    84   41   81 1    
    85   41   82 1    
@<TRIPOS>SUBSTRUCTURE
     1 B4R         1 PERM              0 ****  ****    0 ROOT 
