6u7p_ligand

Created by X-TOOL on Mon Aug  2 16:17:20 2021
 83 86  0  0  0  0  0  0  0  0999 V2000
   17.5500   23.7880   15.0940  O 0  0  0  1  0  1
   18.6250   23.8750   16.0520  S 0  0  0  1  0  4
   19.4270   22.7010   16.2660  O 0  0  0  1  0  1
   19.6460   25.2020   15.6200  C 0  0  0  1  0  3
   19.1530   26.3390   14.9890  C 0  0  0  2  0  3
   20.0420   27.3860   14.7270  C 0  0  0  2  0  3
   21.0090   25.1410   15.8890  C 0  0  0  2  0  3
   21.8780   26.1620   15.6250  C 0  0  0  2  0  3
   21.3930   27.3000   15.0440  C 0  0  0  2  0  4
   22.4450   28.4530   14.7880  B 0  0  0  1  0  3
   23.8970   28.2510   15.1380  O 0  0  0  3  0  3
   21.7880   29.5810   14.2140  O 0  0  0  3  0  3
   17.9300   24.2070   17.5060  N 0  0  0  1  0  3
   18.8580   24.4720   18.6370  C 0  0  0  3  0  4
   18.5360   23.7490   19.9970  C 0  0  0  2  0  4
   19.5490   24.2220   20.9820  C 0  0  0  4  0  4
   18.4590   22.2370   19.8400  C 0  0  0  4  0  4
   16.6320   24.8470   17.6260  C 0  0  0  3  0  4
   15.4920   23.9690   18.0860  C 0  0  0  2  0  4
   14.3670   24.7560   18.3690  O 0  0  0  2  0  2
   15.1280   22.8440   17.1000  C 0  0  0  2  0  4
   14.4020   23.3350   15.7950  C 0  0  0  3  0  4
   14.0740   22.1970   14.9060  C 0  0  0  1  0  3
   12.7500   21.8140   14.7940  C 0  0  0  2  0  3
   12.4150   20.6760   14.0060  C 0  0  0  2  0  3
   13.4200   19.9750   13.3490  C 0  0  0  2  0  3
   14.7020   20.4220   13.3930  C 0  0  0  2  0  3
   15.0460   21.5360   14.1920  C 0  0  0  2  0  3
   14.2500   21.8920   17.7560  N 0  0  0  2  0  3
   14.5910   20.6110   17.9220  C 0  0  0  1  0  3
   15.7010   20.0860   17.6810  O 0  0  0  1  0  1
   13.5040   19.8860   18.3540  O 0  0  0  1  0  2
   13.7010   18.4680   18.5680  C 0  0  0  2  0  4
   13.8880   18.2790   20.0260  C 0  0  0  3  0  4
   12.6210   18.5930   20.8110  C 0  0  0  3  0  4
   11.4500   18.0140   20.3420  O 0  0  0  1  0  2
   11.2170   17.8890   18.9490  C 0  0  0  2  0  4
   12.4060   17.8040   18.0140  C 0  0  0  2  0  4
   11.8910   18.2750   16.6450  C 0  0  0  3  0  4
   10.5560   19.0900   18.4720  O 0  0  0  1  0  2
   10.8720   19.3270   17.1080  C 0  0  0  3  0  4
   18.1085   26.4116   14.7081  H 0  0  0  1  0  1
   19.6669   28.2911   14.2632  H 0  0  0  1  0  1
   21.4037   24.2339   16.3323  H 0  0  0  1  0  1
   22.9298   26.0712   15.8712  H 0  0  0  1  0  1
   22.0572   28.1300   14.8318  H 0  0  0  1  0  1
   24.0148   27.3838   15.5075  H 0  0  0  1  0  1
   24.0148   27.3838   15.5076  H 0  0  0  1  0  1
   20.8620   29.3918   14.1183  H 0  0  0  1  0  1
   20.8619   29.3918   14.1183  H 0  0  0  1  0  1
   18.8530   25.5556   18.8259  H 0  0  0  1  0  1
   19.8647   24.1591   18.3230  H 0  0  0  1  0  1
   17.5468   24.0838   20.3425  H 0  0  0  1  0  1
   19.3660   23.7426   21.9550  H 0  0  0  1  0  1
   19.4725   25.3139   21.0911  H 0  0  0  1  0  1
   20.5563   23.9586   20.6272  H 0  0  0  1  0  1
   17.6885   21.9843   19.0967  H 0  0  0  1  0  1
   18.1995   21.7807   20.8067  H 0  0  0  1  0  1
   19.4333   21.8532   19.5031  H 0  0  0  1  0  1
   16.3656   25.2519   16.6386  H 0  0  0  1  0  1
   16.7308   25.6724   18.3463  H 0  0  0  1  0  1
   15.8109   23.4869   19.0219  H 0  0  0  1  0  1
   14.1051   25.2254   17.5857  H 0  0  0  1  0  1
   16.0591   22.3369   16.8068  H 0  0  0  1  0  1
   15.0619   24.0319   15.2575  H 0  0  0  1  0  1
   13.4721   23.8520   16.0743  H 0  0  0  1  0  1
   11.9738   22.3751   15.3016  H 0  0  0  1  0  1
   11.3823   20.3581   13.9189  H 0  0  0  1  0  1
   13.1803   19.0709   12.8011  H 0  0  0  1  0  1
   15.4669   19.9206   12.8110  H 0  0  0  1  0  1
   16.0762   21.8695   14.2420  H 0  0  0  1  0  1
   13.3624   22.2048   18.0941  H 0  0  0  1  0  1
   14.5824   18.0937   18.0267  H 0  0  0  1  0  1
   14.6927   18.9455   20.3699  H 0  0  0  1  0  1
   14.1722   17.2332   20.2147  H 0  0  0  1  0  1
   12.4826   19.6842   20.8023  H 0  0  0  1  0  1
   12.7736   18.2509   21.8453  H 0  0  0  1  0  1
   10.5817   17.0038   18.7980  H 0  0  0  1  0  1
   12.6588   16.7391   17.9036  H 0  0  0  1  0  1
   11.4125   17.4592   16.0833  H 0  0  0  1  0  1
   12.6918   18.7193   16.0356  H 0  0  0  1  0  1
    9.9594   19.2508   16.4987  H 0  0  0  1  0  1
   11.3034   20.3329   16.9980  H 0  0  0  1  0  1
  1  2  2  0  0  2
  2  3  2  0  0  2
  2  4  1  0  0  2
  2 13  1  0  0  2
  4  5  4  0  0  1
  4  7  4  0  0  1
  5  6  4  0  0  1
  6  9  4  0  0  1
  7  8  4  0  0  1
  8  9  4  0  0  1
  9 10  1  0  0  2
 10 11  1  0  0  2
 10 12  1  0  0  2
 13 14  1  0  0  2
 13 18  1  0  0  2
 14 15  1  0  0  2
 15 16  1  0  0  2
 15 17  1  0  0  2
 18 19  1  0  0  2
 19 20  1  0  0  2
 19 21  1  0  0  2
 21 22  1  0  0  2
 21 29  1  0  0  2
 22 23  1  0  0  2
 23 24  4  0  0  1
 23 28  4  0  0  1
 24 25  4  0  0  1
 25 26  4  0  0  1
 26 27  4  0  0  1
 27 28  4  0  0  1
 29 30  1  0  0  2
 30 31  2  0  0  2
 30 32  1  0  0  2
 32 33  1  0  0  2
 33 34  1  0  0  1
 33 38  1  0  0  1
 34 35  1  0  0  1
 35 36  1  0  0  1
 36 37  1  0  0  1
 37 38  1  0  0  1
 37 40  1  0  0  1
 38 39  1  0  0  1
 39 41  1  0  0  1
 40 41  1  0  0  1
  5 42  1  0  0  2
  6 43  1  0  0  2
  7 44  1  0  0  2
  8 45  1  0  0  2
  9 46  1  0  0  2
 11 47  1  0  0  2
 11 48  1  0  0  2
 12 49  1  0  0  2
 12 50  1  0  0  2
 14 51  1  0  0  2
 14 52  1  0  0  2
 15 53  1  0  0  2
 16 54  1  0  0  2
 16 55  1  0  0  2
 16 56  1  0  0  2
 17 57  1  0  0  2
 17 58  1  0  0  2
 17 59  1  0  0  2
 18 60  1  0  0  2
 18 61  1  0  0  2
 19 62  1  0  0  2
 20 63  1  0  0  2
 21 64  1  0  0  2
 22 65  1  0  0  2
 22 66  1  0  0  2
 24 67  1  0  0  2
 25 68  1  0  0  2
 26 69  1  0  0  2
 27 70  1  0  0  2
 28 71  1  0  0  2
 29 72  1  0  0  2
 33 73  1  0  0  2
 34 74  1  0  0  2
 34 75  1  0  0  2
 35 76  1  0  0  2
 35 77  1  0  0  2
 37 78  1  0  0  2
 38 79  1  0  0  2
 39 80  1  0  0  2
 39 81  1  0  0  2
 41 82  1  0  0  2
 41 83  1  0  0  2
M  END
> <MOLECULAR_FORMULA>
C28H42N2O9SB

> <MOLECULAR_WEIGHT>
593.2

> <NUM_HB_ATOMS>
10 

> <NUM_ROTOR>
12 

> <XLOGP2>
2.49 

$$$$
