6iht_ligand
  -I-interpret- 

 34 33  0  0  0  0  0  0  0  0999 V2000
  -19.7950    8.3260   79.8700 N   0  3  0  0  0
  -18.5400    8.2140   80.5950 C   0  0  0  0  0
  -18.3910    6.8410   81.2300 C   0  0  0  0  0
  -19.2220    6.4530   82.0590 O   0  0  0  0  0
  -17.4000    6.0960   80.7880 N   0  0  0  0  0
  -17.0730    4.7550   81.2500 C   0  0  0  0  0
  -18.0130    3.5580   81.1370 C   0  0  0  0  0
  -19.0300    3.5670   80.4170 O   0  0  0  0  0
  -17.6410    2.5600   81.9460 N   0  0  0  0  0
  -18.1820    1.2120   82.1030 C   0  0  0  0  0
  -17.1590    0.4290   82.9640 C   0  0  0  0  0
  -16.3900   -0.5670   82.2950 O   0  0  0  0  0
  -19.5740    1.1300   82.7980 C   0  0  0  0  0
  -20.1910    0.0560   82.8700 O   0  0  0  0  0
  -20.1440    2.0950   83.3330 O   0  0  0  0  0
  -14.9850   -0.1970   81.6770 P   0  0  0  0  0
  -15.1970    0.4500   80.3030 O   0  0  0  0  0
  -14.2740   -1.5380   81.3670 O   0  0  0  0  0
  -14.2160    0.6960   82.6810 O   0  0  0  0  0
  -19.8656    9.2557   79.4564 H   0  0  0  0  0
  -19.8245    7.6216   79.1329 H   0  0  0  0  0
  -20.5724    8.1790   80.5137 H   0  0  0  0  0
  -18.5267    8.9653   81.3846 H   0  0  0  0  0
  -17.7191    8.3633   79.8936 H   0  0  0  0  0
  -16.8093    6.4933   80.0575 H   0  0  0  0  0
  -16.9837    4.8883   82.3281 H   0  0  0  0  0
  -16.2461    4.4724   80.5986 H   0  0  0  0  0
  -16.8499    2.7753   82.5528 H   0  0  0  0  0
  -18.3352    0.8045   81.1037 H   0  0  0  0  0
  -17.7426   -0.0984   83.7186 H   0  0  0  0  0
  -16.4440    1.1674   83.3268 H   0  0  0  0  0
  -19.6023    2.8812   83.2323 H   0  0  0  0  0
  -14.1054   -2.0067   82.1877 H   0  0  0  0  0
  -14.1206    0.2295   83.5146 H   0  0  0  0  0
  1  2  1  0  0  0
  2  3  1  0  0  0
  3  4  2  0  0  0
  3  5  1  0  0  0
  5  6  1  0  0  0
  6  7  1  0  0  0
  7  8  2  0  0  0
  7  9  1  0  0  0
  9 10  1  0  0  0
 10 11  1  0  0  0
 10 13  1  0  0  0
 11 12  1  0  0  0
 12 16  1  0  0  0
 13 14  2  0  0  0
 13 15  1  0  0  0
 16 17  2  0  0  0
 16 18  1  0  0  0
 16 19  1  0  0  0
  1 20  1  0  0  0
  1 21  1  0  0  0
  1 22  1  0  0  0
  2 23  1  0  0  0
  2 24  1  0  0  0
  5 25  1  0  0  0
  6 26  1  0  0  0
  6 27  1  0  0  0
  9 28  1  0  0  0
 10 29  1  0  0  0
 11 30  1  0  0  0
 11 31  1  0  0  0
 15 32  1  0  0  0
 18 33  1  0  0  0
 19 34  1  0  0  0
M  END
$$$$
