### 
### Created by X-TOOL on Mon Aug  2 16:14:13 2021
### 

@<TRIPOS>MOLECULE
6iht_ligand
   31    30     1     0     0
SMALL
GAST_HUCK


@<TRIPOS>ATOM
      1 N         -19.7950    8.3260   79.8700 N.4       1 GLY         0.2357
      2 CA        -18.5400    8.2140   80.5950 C.3       1 GLY         0.0545
      3 C         -18.3910    6.8410   81.2300 C.2       1 GLY         0.2234
      4 O         -19.2220    6.4530   82.0590 O.2       1 GLY        -0.3911
      5 N         -17.4000    6.0960   80.7880 N.am      1 GLY        -0.2639
      6 CA        -17.0730    4.7550   81.2500 C.3       1 GLY         0.1202
      7 C         -18.0130    3.5580   81.1370 C.2       1 GLY         0.2003
      8 O         -19.0300    3.5670   80.4170 O.2       1 GLY        -0.3947
      9 N         -17.6410    2.5600   81.9460 N.am      1 GLY        -0.2671
     10 CA        -18.1820    1.2120   82.1030 C.3       1 GLY         0.1219
     11 CB        -17.1590    0.4290   82.9640 C.3       1 GLY         0.1129
     12 OG        -16.3900   -0.5670   82.2950 O.3       1 GLY        -0.2720
     13 C         -19.5740    1.1300   82.7980 C.2       1 GLY         0.0627
     14 O         -20.1910    0.0560   82.8700 O.co2     1 GLY        -0.5665
     15 OXT       -20.1440    2.0950   83.3330 O.co2     1 GLY        -0.5665
     16 P         -14.9850   -0.1970   81.6770 P.3       1 GLY         0.2009
     17 O1P       -15.1970    0.4500   80.3030 O.co2     1 GLY        -0.5537
     18 O2P       -14.2740   -1.5380   81.3670 O.co2     1 GLY        -0.5537
     19 O3P       -14.2160    0.6960   82.6810 O.co2     1 GLY        -0.5537
     20 H1        -19.8658    9.2445   79.4608 H         1 GLY         0.2012
     21 H2        -20.5641    8.1810   80.5052 H         1 GLY         0.2012
     22 H3        -19.8253    7.6303   79.1412 H         1 GLY         0.2012
     23 H4        -18.5127    8.9791   81.3848 H         1 GLY         0.1061
     24 H5        -17.7064    8.3782   79.8963 H         1 GLY         0.1061
     25 H6        -16.8209    6.4855   80.0719 H         1 GLY         0.1882
     26 H7        -16.8475    4.8562   82.3219 H         1 GLY         0.0763
     27 H8        -16.1595    4.4681   80.7086 H         1 GLY         0.0763
     28 H9        -16.8654    2.7711   82.5409 H         1 GLY         0.1876
     29 H10       -18.2674    0.7506   81.1081 H         1 GLY         0.0753
     30 H11       -17.7147   -0.0668   83.7736 H         1 GLY         0.0654
     31 H12       -16.4574    1.1588   83.3942 H         1 GLY         0.0654
@<TRIPOS>BOND
     1    1    2 1  
     2    2    3 1  
     3    3    4 2  
     4    3    5 am 
     5    5    6 1  
     6    6    7 1  
     7    7    8 2  
     8    7    9 am 
     9    9   10 1  
    10   10   11 1  
    11   10   13 1  
    12   11   12 1  
    13   12   16 1  
    14   13   14 ar 
    15   13   15 ar 
    16   16   17 ar 
    17   16   18 ar 
    18   16   19 ar 
    19    1   20 1  
    20    1   21 1  
    21    1   22 1  
    22    2   23 1  
    23    2   24 1  
    24    5   25 1  
    25    6   26 1  
    26    6   27 1  
    27    9   28 1  
    28   10   29 1  
    29   11   30 1  
    30   11   31 1  
@<TRIPOS>SUBSTRUCTURE
     1 GLY         1

