6b4u_ligand
  -I-interpret- 

 78 83  0  0  0  0  0  0  0  0999 V2000
  -10.2250   17.0970   -6.4580 C   0  0  0  0  0
   -7.2780   15.3410   -1.1050 C   0  0  0  0  0
   -1.7160   15.8990    0.8190 C   0  0  0  0  0
   -2.2290   13.9250    3.8350 C   0  0  0  0  0
   -4.3300   15.6720    4.0390 C   0  0  0  0  0
   -1.5300   14.9580    1.8070 C   0  0  0  0  0
  -11.0070   17.0960   -5.3250 C   0  0  0  0  0
   -2.4050   14.8950    2.8700 C   0  0  0  0  0
   -7.6600   17.6090   -0.5060 C   0  0  0  0  0
  -10.4260   16.9940   -4.0780 C   0  0  0  0  0
   -7.6940   18.8330    0.2230 C   0  0  0  0  0
   -8.2450   17.8170   -1.7520 C   0  0  0  0  0
   -8.2680   19.7820   -0.5930 C   0  0  0  0  0
   -8.1980   20.4750   -6.0920 C   0  0  0  0  0
   -8.1260   21.4590   -7.2500 C   0  0  0  0  0
   -3.0850   13.8320    4.9090 C   0  0  0  0  0
   -4.1390   14.7150    5.0090 C   0  0  0  0  0
   -8.8600   16.9840   -6.3440 C   0  0  0  0  0
   -7.1890   16.3460   -0.1690 C   0  0  0  0  0
   -8.2760   16.8790   -5.1010 C   0  0  0  0  0
   -7.8690   15.5590   -2.3270 C   0  0  0  0  0
   -2.7720   16.7840    0.8880 C   0  0  0  0  0
   -3.4610   15.7840    2.9620 C   0  0  0  0  0
   -9.0460   16.8970   -3.9590 C   0  0  0  0  0
   -8.3820   16.7910   -2.6830 C   0  0  0  0  0
   -3.6390   16.7350    1.9730 C   0  0  0  0  0
   -8.6050   21.1480   -0.2950 C   0  0  0  0  0
   -6.6450   21.9820   -4.8770 C   0  0  0  0  0
   -6.6520   22.8740   -6.1080 C   0  0  0  0  0
  -11.3520   16.9970   -2.9010 C   0  0  0  0  0
   -7.2400   19.0320    1.6180 C   0  0  0  0  0
   -5.8600   19.6420    1.7730 C   0  0  0  0  0
   -9.0430   19.9100   -2.9330 C   0  0  0  0  0
   -7.7690   20.2430   -3.7010 C   0  0  0  0  0
   -4.7430   18.7310    1.3040 C   0  0  0  0  0
   -8.6000   19.1510   -1.7680 N   0  0  0  0  0
   -7.9250   21.2130   -4.8190 N   0  3  0  0  0
   -9.7270   21.6040   -0.4380 O   0  0  0  0  0
   -6.8240   22.0470   -7.2590 O   0  0  0  0  0
   -7.5820   21.8610    0.2210 O   0  0  0  0  0
   -4.7350   17.5760    2.1410 O   0  0  0  0  0
  -10.6865   17.1870   -7.4414 H   0  0  0  0  0
   -6.8732   14.3558   -0.8736 H   0  0  0  0  0
   -1.0248   15.9449   -0.0226 H   0  0  0  0  0
   -1.4005   13.2224    3.7458 H   0  0  0  0  0
   -5.1773   16.3532    4.1174 H   0  0  0  0  0
   -0.6917   14.2638    1.7484 H   0  0  0  0  0
  -12.0904   17.1762   -5.4137 H   0  0  0  0  0
   -7.4582   19.6863   -6.2292 H   0  0  0  0  0
   -9.1882   20.0211   -6.0523 H   0  0  0  0  0
   -8.8847   22.2325   -7.1309 H   0  0  0  0  0
   -8.3091   20.9419   -8.1919 H   0  0  0  0  0
   -2.9312   13.0688    5.6718 H   0  0  0  0  0
   -4.8214   14.6550    5.8569 H   0  0  0  0  0
   -8.2382   16.9775   -7.2392 H   0  0  0  0  0
   -6.7588   16.1555    0.8142 H   0  0  0  0  0
   -7.1935   16.7807   -5.0202 H   0  0  0  0  0
   -7.9347   14.7343   -3.0367 H   0  0  0  0  0
   -2.9254   17.5173    0.0963 H   0  0  0  0  0
   -6.5464   22.5957   -3.9816 H   0  0  0  0  0
   -5.8049   21.2897   -4.9321 H   0  0  0  0  0
   -5.7125   23.4222   -6.1782 H   0  0  0  0  0
   -7.4652   23.5968   -6.0417 H   0  0  0  0  0
  -11.9187   17.9280   -2.8885 H   0  0  0  0  0
  -12.0381   16.1536   -2.9780 H   0  0  0  0  0
  -10.7708   16.9116   -1.9828 H   0  0  0  0  0
   -7.1961   18.0433    2.0748 H   0  0  0  0  0
   -7.9414   19.7288    2.0769 H   0  0  0  0  0
   -5.7032   19.8345    2.8343 H   0  0  0  0  0
   -5.8283   20.5429    1.1603 H   0  0  0  0  0
   -9.7426   19.3385   -3.5430 H   0  0  0  0  0
   -9.5853   20.8103   -2.6440 H   0  0  0  0  0
   -7.4246   19.3101   -4.1473 H   0  0  0  0  0
   -7.0882   20.7036   -2.9851 H   0  0  0  0  0
   -3.7851   19.2474    1.3658 H   0  0  0  0  0
   -4.9038   18.4421    0.2653 H   0  0  0  0  0
   -8.7105   21.8486   -4.6796 H   0  0  0  0  0
   -6.7927   21.3150    0.2446 H   0  0  0  0  0
  7  1  4  0  0  0
 18  1  4  0  0  0
 19  2  4  0  0  0
  2 21  4  0  0  0
  3  6  4  0  0  0
 22  3  4  0  0  0
  8  4  4  0  0  0
  4 16  4  0  0  0
  5 17  4  0  0  0
 23  5  4  0  0  0
  8  6  4  0  0  0
 10  7  4  0  0  0
 23  8  4  0  0  0
 11  9  4  0  0  0
  9 12  4  0  0  0
  9 19  4  0  0  0
 24 10  4  0  0  0
 10 30  1  0  0  0
 11 13  4  0  0  0
 31 11  1  0  0  0
 12 25  4  0  0  0
 36 12  4  0  0  0
 13 27  1  0  0  0
 13 36  4  0  0  0
 14 15  1  0  0  0
 37 14  1  0  0  0
 15 39  1  0  0  0
 17 16  4  0  0  0
 20 18  4  0  0  0
 24 20  4  0  0  0
 25 21  4  0  0  0
 26 22  4  0  0  0
 26 23  4  0  0  0
 25 24  1  0  0  0
 41 26  1  0  0  0
 27 38  2  0  0  0
 27 40  1  0  0  0
 28 29  1  0  0  0
 37 28  1  0  0  0
 29 39  1  0  0  0
 32 31  1  0  0  0
 35 32  1  0  0  0
 33 34  1  0  0  0
 36 33  1  0  0  0
 34 37  1  0  0  0
 35 41  1  0  0  0
  1 42  1  0  0  0
  2 43  1  0  0  0
  3 44  1  0  0  0
  4 45  1  0  0  0
  5 46  1  0  0  0
  6 47  1  0  0  0
  7 48  1  0  0  0
 14 49  1  0  0  0
 14 50  1  0  0  0
 15 51  1  0  0  0
 15 52  1  0  0  0
 16 53  1  0  0  0
 17 54  1  0  0  0
 18 55  1  0  0  0
 19 56  1  0  0  0
 20 57  1  0  0  0
 21 58  1  0  0  0
 22 59  1  0  0  0
 28 60  1  0  0  0
 28 61  1  0  0  0
 29 62  1  0  0  0
 29 63  1  0  0  0
 30 64  1  0  0  0
 30 65  1  0  0  0
 30 66  1  0  0  0
 31 67  1  0  0  0
 31 68  1  0  0  0
 32 69  1  0  0  0
 32 70  1  0  0  0
 33 71  1  0  0  0
 33 72  1  0  0  0
 34 73  1  0  0  0
 34 74  1  0  0  0
 35 75  1  0  0  0
 35 76  1  0  0  0
 37 77  1  0  0  0
 40 78  1  0  0  0
M  END
$$$$
