4y8x_ligand
  -I-interpret- 

 65 69  0  0  0  0  0  0  0  0999 V2000
   39.1580  -18.6420   29.5000 C   0  0  0  0  0
   37.4050  -14.8120   26.9790 C   0  0  0  0  0
   37.0980  -15.7730   27.9560 C   0  0  0  0  0
   37.8610  -17.0190   28.1030 C   0  0  0  0  0
   38.4140  -17.3940   29.2450 C   0  0  0  0  0
   36.6890  -13.6170   26.9340 C   0  0  0  0  0
   35.6160  -13.3990   27.8030 C   0  0  0  0  0
   35.2600  -14.3850   28.7000 C   0  0  0  0  0
   35.9900  -15.5590   28.7990 C   0  0  0  0  0
   40.9800  -23.9490   27.5350 C   0  0  0  0  0
   40.0400  -23.3120   28.3400 C   0  0  0  0  0
   38.7380  -14.9010   24.7720 C   0  0  0  0  0
   40.5310  -24.9190   30.1020 C   0  0  0  0  0
   45.7600  -20.6750   30.2360 C   0  0  0  0  0
   33.8490  -14.1580   29.7050 Cl  0  0  0  0  0
   44.6650  -20.4530   27.0650 Cl  0  0  0  0  0
   41.3290  -20.7510   28.7720 C   0  0  0  0  0
   42.0620  -20.5130   27.6910 N   0  0  0  0  0
   43.3350  -20.6350   28.1410 C   0  0  0  0  0
   43.3970  -20.9190   29.4760 C   0  0  0  0  0
   42.0860  -20.9850   29.8610 N   0  0  0  0  0
   44.4810  -21.2120   30.4170 C   0  0  0  0  0
   39.8370  -20.8730   28.8020 C   0  0  0  0  0
   39.3830  -22.0150   27.8780 C   0  0  0  0  0
   39.2000  -19.5820   28.4910 N   0  0  0  0  0
   39.7400  -18.8080   30.5760 O   0  0  0  0  0
   38.4780  -15.0370   26.0650 N   0  0  0  0  0
   41.6940  -25.0470   28.0130 C   0  0  0  0  0
   41.4660  -25.5320   29.2990 C   0  0  0  0  0
   39.8180  -23.8170   29.6240 C   0  0  0  0  0
   44.2570  -22.0630   31.4950 C   0  0  0  0  0
   45.2650  -22.3710   32.3790 C   0  0  0  0  0
   46.5590  -21.8810   32.1820 C   0  0  0  0  0
   46.8010  -21.0270   31.0920 C   0  0  0  0  0
   40.0060  -15.0580   24.5310 N   0  0  0  0  0
   40.5730  -15.2540   25.7430 N   0  0  0  0  0
   39.6720  -15.2410   26.6800 N   0  0  0  0  0
   47.5340  -22.3200   33.1190 N   0  0  0  0  0
   48.8700  -22.0220   33.1330 C   0  0  0  0  0
   49.4590  -21.3520   32.3170 O   0  0  0  0  0
   49.4450  -22.5680   34.2200 O   0  0  0  0  0
   50.8590  -22.2420   34.4440 C   0  0  0  0  0
   37.9770  -17.6640   27.2320 H   0  0  0  0  0
   38.3087  -16.7086   30.0860 H   0  0  0  0  0
   36.9680  -12.8463   26.2155 H   0  0  0  0  0
   35.0656  -12.4587   27.7722 H   0  0  0  0  0
   35.7066  -16.3169   29.5294 H   0  0  0  0  0
   41.1594  -23.5865   26.5228 H   0  0  0  0  0
   37.9876  -14.6859   24.0113 H   0  0  0  0  0
   40.3473  -25.2929   31.1092 H   0  0  0  0  0
   45.9432  -19.9764   29.4196 H   0  0  0  0  0
   39.5118  -21.1336   29.8092 H   0  0  0  0  0
   38.2984  -22.1150   27.9199 H   0  0  0  0  0
   39.6763  -21.7979   26.8509 H   0  0  0  0  0
   38.8068  -19.3911   27.5694 H   0  0  0  0  0
   42.4356  -25.5293   27.3762 H   0  0  0  0  0
   42.0250  -26.3922   29.6673 H   0  0  0  0  0
   39.0747  -23.3422   30.2644 H   0  0  0  0  0
   43.2661  -22.4928   31.6414 H   0  0  0  0  0
   45.0525  -23.0031   33.2412 H   0  0  0  0  0
   47.8046  -20.6397   30.9164 H   0  0  0  0  0
   47.1994  -22.9271   33.8672 H   0  0  0  0  0
   51.4480  -22.5806   33.5917 H   0  0  0  0  0
   50.9683  -21.1634   34.5573 H   0  0  0  0  0
   51.2066  -22.7408   35.3487 H   0  0  0  0  0
  1  5  1  0  0  0
 25  1  1  0  0  0
  1 26  2  0  0  0
  3  2  4  0  0  0
  2  6  4  0  0  0
  2 27  1  0  0  0
  4  3  1  0  0  0
  3  9  4  0  0  0
  5  4  2  0  0  0
  6  7  4  0  0  0
  8  7  4  0  0  0
  9  8  4  0  0  0
  8 15  1  0  0  0
 11 10  4  0  0  0
 10 28  4  0  0  0
 24 11  1  0  0  0
 11 30  4  0  0  0
 27 12  4  0  0  0
 12 35  4  0  0  0
 13 29  4  0  0  0
 30 13  4  0  0  0
 22 14  4  0  0  0
 14 34  4  0  0  0
 19 16  1  0  0  0
 17 18  4  0  0  0
 17 21  4  0  0  0
 23 17  1  0  0  0
 18 19  4  0  0  0
 20 19  4  0  0  0
 21 20  4  0  0  0
 20 22  1  0  0  0
 22 31  4  0  0  0
 23 24  1  0  0  0
 23 25  1  0  0  0
 27 37  4  0  0  0
 28 29  4  0  0  0
 31 32  4  0  0  0
 32 33  4  0  0  0
 33 34  4  0  0  0
 33 38  1  0  0  0
 35 36  4  0  0  0
 36 37  4  0  0  0
 38 39  1  0  0  0
 39 40  2  0  0  0
 39 41  1  0  0  0
 41 42  1  0  0  0
  4 43  1  0  0  0
  5 44  1  0  0  0
  6 45  1  0  0  0
  7 46  1  0  0  0
  9 47  1  0  0  0
 10 48  1  0  0  0
 12 49  1  0  0  0
 13 50  1  0  0  0
 14 51  1  0  0  0
 23 52  1  0  0  0
 24 53  1  0  0  0
 24 54  1  0  0  0
 25 55  1  0  0  0
 28 56  1  0  0  0
 29 57  1  0  0  0
 30 58  1  0  0  0
 31 59  1  0  0  0
 32 60  1  0  0  0
 34 61  1  0  0  0
 38 62  1  0  0  0
 42 63  1  0  0  0
 42 64  1  0  0  0
 42 65  1  0  0  0
M  END
$$$$
