6bmr_ligand
  -I-interpret- 

 48 52  0  0  0  0  0  0  0  0999 V2000
   15.6970   39.7040   29.9380 C   0  0  0  0  0
   15.6280   39.1540   31.3530 C   0  0  0  0  0
   16.0370   37.8040   31.5200 C   0  0  0  0  0
   16.0340   37.1920   32.8080 C   0  0  0  0  0
   15.5750   37.9250   33.9260 C   0  0  0  0  0
   15.1550   39.2710   33.7740 C   0  0  0  0  0
   15.2030   39.9040   32.4980 C   0  0  0  0  0
   14.5550   43.7880   29.2110 C   0  0  0  0  0
   14.2100   45.1460   28.9510 C   0  0  0  0  0
   15.1210   46.1980   29.2480 C   0  0  0  0  0
   16.3900   45.9290   29.8070 C   0  0  0  0  0
   11.5290   43.5730   27.9210 C   0  0  0  0  0
   11.6530   44.0470   26.5830 C   0  0  0  0  0
   10.7770   45.0800   26.1010 C   0  0  0  0  0
    9.9610   46.6320   24.3490 C   0  0  0  0  0
    9.7890   45.6040   26.9840 C   0  0  0  0  0
    9.6970   45.1750   28.3260 C   0  0  0  0  0
   10.5480   44.1410   28.7890 C   0  0  0  0  0
   13.7200   42.6620   28.8830 N   0  0  0  0  0
   14.0780   41.4130   29.1740 C   0  0  0  0  0
   15.3660   41.1180   29.7280 N   0  0  0  0  0
   16.5700   36.9160   30.1320 Cl  0  0  0  0  0
   16.2920   42.0910   30.0060 C   0  0  0  0  0
   15.8600   43.5180   29.7350 C   0  0  0  0  0
   16.7530   44.5850   30.0360 C   0  0  0  0  0
   17.3870   41.8800   30.5610 O   0  0  0  0  0
   13.1380   40.5090   28.8740 N   0  0  0  0  0
   12.0740   41.2450   28.3780 N   0  0  0  0  0
   12.4430   42.5330   28.4190 C   0  0  0  0  0
   10.8070   45.5780   24.8080 O   0  0  0  0  0
   12.6090   43.4860   25.7810 O   0  0  0  0  0
   14.9481   39.1464   29.3756 H   0  0  0  0  0
   16.7413   39.6057   29.6415 H   0  0  0  0  0
   16.3831   36.1666   32.9295 H   0  0  0  0  0
   15.5437   37.4540   34.9085 H   0  0  0  0  0
   14.7927   39.8256   34.6396 H   0  0  0  0  0
   14.9185   40.9510   32.3936 H   0  0  0  0  0
   13.2371   45.3816   28.5197 H   0  0  0  0  0
   14.8347   47.2291   29.0406 H   0  0  0  0  0
   17.0731   46.7411   30.0557 H   0  0  0  0  0
    8.9186   46.3312   24.4538 H   0  0  0  0  0
   10.1436   47.5275   24.9430 H   0  0  0  0  0
   10.1771   46.8393   23.3009 H   0  0  0  0  0
    9.0883   46.3530   26.6150 H   0  0  0  0  0
    8.9762   45.6361   29.0013 H   0  0  0  0  0
   10.4533   43.7776   29.8123 H   0  0  0  0  0
   17.7353   44.3595   30.4511 H   0  0  0  0  0
   12.5800   43.8979   24.9143 H   0  0  0  0  0
  1  2  1  0  0  0
 21  1  1  0  0  0
  2  3  4  0  0  0
  2  7  4  0  0  0
  3  4  4  0  0  0
  3 22  1  0  0  0
  4  5  4  0  0  0
  6  5  4  0  0  0
  7  6  4  0  0  0
  8  9  4  0  0  0
 19  8  1  0  0  0
  8 24  4  0  0  0
  9 10  4  0  0  0
 10 11  4  0  0  0
 11 25  4  0  0  0
 12 13  4  0  0  0
 12 18  4  0  0  0
 29 12  1  0  0  0
 13 14  4  0  0  0
 13 31  1  0  0  0
 14 16  4  0  0  0
 14 30  1  0  0  0
 30 15  1  0  0  0
 17 16  4  0  0  0
 18 17  4  0  0  0
 20 19  4  0  0  0
 19 29  4  0  0  0
 20 21  1  0  0  0
 20 27  4  0  0  0
 21 23  1  0  0  0
 23 24  1  0  0  0
 23 26  2  0  0  0
 24 25  4  0  0  0
 27 28  4  0  0  0
 28 29  4  0  0  0
  1 32  1  0  0  0
  1 33  1  0  0  0
  4 34  1  0  0  0
  5 35  1  0  0  0
  6 36  1  0  0  0
  7 37  1  0  0  0
  9 38  1  0  0  0
 10 39  1  0  0  0
 11 40  1  0  0  0
 15 41  1  0  0  0
 15 42  1  0  0  0
 15 43  1  0  0  0
 16 44  1  0  0  0
 17 45  1  0  0  0
 18 46  1  0  0  0
 25 47  1  0  0  0
 31 48  1  0  0  0
M  END
$$$$
