3ksq_ligand
  -I-interpret- 

 70 74  0  0  0  0  0  0  0  0999 V2000
  190.7520  128.8210   28.4600 Cl  0  0  0  0  0
  187.0420  129.7240   29.9270 C   0  0  0  0  0
  186.1500  132.2020   35.1530 N   0  0  0  0  0
  184.7380  133.3970   36.3590 O   0  0  0  0  0
  185.3960  127.7440   32.3520 C   0  0  0  0  0
  190.4640  125.8920   34.9210 N   0  0  0  0  0
  186.4650  134.4930   35.3750 O   0  0  0  0  0
  186.1740  126.6770   33.0330 C   0  0  0  0  0
  190.4160  126.6600   37.0160 N   0  0  0  0  0
  190.0190  129.4140   33.9310 O   0  0  0  0  0
  185.5730  125.3920   33.1740 C   0  0  0  0  0
  184.1290  127.4630   31.8610 N   0  0  0  0  0
  184.2510  125.1450   32.6710 C   0  0  0  0  0
  186.3060  129.9690   33.3310 N   0  3  0  0  0
  185.9490  129.1670   32.1310 C   0  0  0  0  0
  187.1250  129.0690   31.2190 C   0  0  0  0  0
  188.3730  128.3780   31.6420 C   0  0  0  0  0
  188.5560  127.7200   33.0080 C   0  0  0  0  0
  183.5630  126.2290   32.0120 C   0  0  0  0  0
  189.9360  128.0040   33.6840 C   0  0  0  0  0
  187.5530  126.9630   33.5870 C   0  0  0  0  0
  188.1580  129.6340   29.0350 C   0  0  0  0  0
  189.3610  128.9350   29.4620 C   0  0  0  0  0
  189.4710  128.3180   30.7450 C   0  0  0  0  0
  186.9780  131.2640   32.9890 C   0  0  0  0  0
  187.3380  132.0610   34.2810 C   0  0  0  0  0
  185.4520  130.9290   35.4260 C   0  0  0  0  0
  185.0750  130.2040   34.1380 C   0  0  0  0  0
  190.1440  127.6830   36.2660 C   0  0  0  0  0
  186.1680  136.1120   37.2810 C   0  0  0  0  0
  190.5620  125.0140   33.7330 C   0  0  0  0  0
  187.3840  136.6740   35.1910 C   0  0  0  0  0
  185.7250  133.3920   35.6790 C   0  0  0  0  0
  184.8020  136.3230   35.1630 C   0  0  0  0  0
  190.1870  127.2070   34.9630 C   0  0  0  0  0
  190.6110  125.5250   36.2320 C   0  0  0  0  0
  186.1740  135.8790   35.7640 C   0  0  0  0  0
  186.1460  130.2747   29.6407 H   0  0  0  0  0
  190.8602  129.6158   34.3473 H   0  0  0  0  0
  186.1218  124.5901   33.6679 H   0  0  0  0  0
  183.7811  124.1679   32.7835 H   0  0  0  0  0
  186.9860  129.4378   33.8749 H   0  0  0  0  0
  185.1140  129.7262   31.7088 H   0  0  0  0  0
  182.5596  126.0576   31.6223 H   0  0  0  0  0
  190.7183  127.6726   33.0012 H   0  0  0  0  0
  187.7831  126.5205   34.5562 H   0  0  0  0  0
  188.1072  130.0853   28.0441 H   0  0  0  0  0
  190.3893  127.8060   31.0326 H   0  0  0  0  0
  186.2974  131.8638   32.3848 H   0  0  0  0  0
  187.8959  131.0493   32.4418 H   0  0  0  0  0
  188.1136  131.5215   34.8246 H   0  0  0  0  0
  187.6886  133.0535   33.9980 H   0  0  0  0  0
  184.5371  131.1503   35.9757 H   0  0  0  0  0
  186.1213  130.2865   35.9982 H   0  0  0  0  0
  184.6070  129.2494   34.3786 H   0  0  0  0  0
  184.3734  130.8123   33.5672 H   0  0  0  0  0
  189.9275  128.7008   36.5905 H   0  0  0  0  0
  185.4076  135.4810   37.7412 H   0  0  0  0  0
  187.1467  135.8606   37.6898 H   0  0  0  0  0
  185.9455  137.1593   37.4856 H   0  0  0  0  0
  189.6095  125.0141   33.2031 H   0  0  0  0  0
  191.3465  125.3842   33.0729 H   0  0  0  0  0
  190.8020  123.9995   34.0514 H   0  0  0  0  0
  188.3061  136.3009   35.6366 H   0  0  0  0  0
  187.4231  136.5441   34.1095 H   0  0  0  0  0
  187.2669  137.7316   35.4272 H   0  0  0  0  0
  184.8440  136.2553   34.0759 H   0  0  0  0  0
  184.0139  135.6704   35.5388 H   0  0  0  0  0
  184.5942  137.3520   35.4565 H   0  0  0  0  0
  190.8397  124.5237   36.5970 H   0  0  0  0  0
 23  1  1  0  0  0
 16  2  4  0  0  0
  2 22  4  0  0  0
 26  3  1  0  0  0
  3 27  1  0  0  0
  3 33  1  0  0  0
 33  4  2  0  0  0
  5  8  4  0  0  0
  5 12  4  0  0  0
 15  5  1  0  0  0
  6 31  1  0  0  0
 35  6  4  0  0  0
  6 36  4  0  0  0
 33  7  1  0  0  0
  7 37  1  0  0  0
  8 11  4  0  0  0
  8 21  1  0  0  0
  9 29  4  0  0  0
 36  9  4  0  0  0
 20 10  1  0  0  0
 11 13  4  0  0  0
 12 19  4  0  0  0
 19 13  4  0  0  0
 14 15  1  0  0  0
 25 14  1  0  0  0
 14 28  1  0  0  0
 15 16  1  0  0  0
 16 17  4  0  0  0
 17 18  1  0  0  0
 17 24  4  0  0  0
 18 20  1  0  0  0
 18 21  2  0  0  0
 20 35  1  0  0  0
 22 23  4  0  0  0
 24 23  4  0  0  0
 25 26  1  0  0  0
 27 28  1  0  0  0
 29 35  4  0  0  0
 37 30  1  0  0  0
 37 32  1  0  0  0
 37 34  1  0  0  0
  2 38  1  0  0  0
 10 39  1  0  0  0
 11 40  1  0  0  0
 13 41  1  0  0  0
 14 42  1  0  0  0
 15 43  1  0  0  0
 19 44  1  0  0  0
 20 45  1  0  0  0
 21 46  1  0  0  0
 22 47  1  0  0  0
 24 48  1  0  0  0
 25 49  1  0  0  0
 25 50  1  0  0  0
 26 51  1  0  0  0
 26 52  1  0  0  0
 27 53  1  0  0  0
 27 54  1  0  0  0
 28 55  1  0  0  0
 28 56  1  0  0  0
 29 57  1  0  0  0
 30 58  1  0  0  0
 30 59  1  0  0  0
 30 60  1  0  0  0
 31 61  1  0  0  0
 31 62  1  0  0  0
 31 63  1  0  0  0
 32 64  1  0  0  0
 32 65  1  0  0  0
 32 66  1  0  0  0
 34 67  1  0  0  0
 34 68  1  0  0  0
 34 69  1  0  0  0
 36 70  1  0  0  0
M  END
$$$$
