### 
### Created by X-TOOL on Mon Sep 10 21:12:45 2018
### 

@<TRIPOS>MOLECULE
1fpi_ligand
   35    37     1     0     0
SMALL
GAST_HUCK


@<TRIPOS>ATOM
      1 P          35.8620   90.9570  -13.2880 P.3       1 AMP         0.2008
      2 O1P        37.2300   91.4580  -12.9470 O.co2     1 AMP        -0.5537
      3 O2P        35.4040   90.0870  -12.1570 O.co2     1 AMP        -0.5537
      4 O3P        35.7590   90.1360  -14.5640 O.co2     1 AMP        -0.5537
      5 O5'        34.8360   92.0820  -13.3630 O.3       1 AMP        -0.2734
      6 C5'        35.1210   93.1190  -14.3520 C.3       1 AMP         0.1072
      7 C4'        34.1070   94.2450  -14.1290 C.3       1 AMP         0.1182
      8 O4'        32.7750   93.7380  -13.9490 O.3       1 AMP        -0.3365
      9 C3'        34.3330   94.9390  -12.7520 C.3       1 AMP         0.1149
     10 O3'        35.3700   95.7070  -12.6890 O.3       1 AMP        -0.3864
     11 C2'        32.9970   95.6370  -12.4890 C.3       1 AMP         0.1385
     12 O2'        32.7110   96.4410  -13.5020 O.3       1 AMP        -0.3836
     13 C1'        32.3050   94.2790  -12.6900 C.3       1 AMP         0.2010
     14 N9         32.0870   93.3330  -11.5740 N.pl3     1 AMP        -0.1919
     15 C8         32.8110   92.1950  -11.3600 C.2       1 AMP         0.1123
     16 N7         32.3230   91.6590  -10.2120 N.2       1 AMP        -0.2958
     17 C5         31.3060   92.4090   -9.6820 C.ar      1 AMP         0.1045
     18 C6         30.4990   92.3560   -8.5820 C.ar      1 AMP         0.1298
     19 N6         30.6100   91.4200   -7.6070 N.pl3     1 AMP        -0.3152
     20 N1         29.6160   93.3260   -8.4080 N.ar      1 AMP        -0.2698
     21 C2         29.4600   94.3560   -9.2230 C.ar      1 AMP         0.0533
     22 N3         30.2330   94.4750  -10.3220 N.ar      1 AMP        -0.2714
     23 C4         31.1440   93.4870  -10.5370 C.ar      1 AMP         0.1613
     24 H1         35.0143   92.7110  -15.3679 H         1 AMP         0.0639
     25 H2         36.1438   93.4999  -14.2153 H         1 AMP         0.0639
     26 H3         34.1608   94.9608  -14.9625 H         1 AMP         0.0650
     27 H4         34.4783   94.1611  -11.9880 H         1 AMP         0.0648
     28 H5         36.1515   95.1973  -12.8681 H         1 AMP         0.2100
     29 H6         32.8696   96.1226  -11.5103 H         1 AMP         0.0676
     30 H7         32.6505   95.9318  -14.3017 H         1 AMP         0.2101
     31 H8         31.2679   94.5717  -12.9106 H         1 AMP         0.0996
     32 H9         33.6133   91.7995  -11.9812 H         1 AMP         0.1349
     33 H10        29.9679   91.4365   -6.8018 H         1 AMP         0.1820
     34 H11        31.3364   90.6926   -7.6717 H         1 AMP         0.1820
     35 H12        28.7086   95.1069   -9.0071 H         1 AMP         0.0996
@<TRIPOS>BOND
     1    1    2 ar 
     2    1    3 ar 
     3    1    4 ar 
     4    1    5 1  
     5    5    6 1  
     6    6    7 1  
     7    7    8 1  
     8    7    9 1  
     9    8   13 1  
    10    9   10 1  
    11    9   11 1  
    12   11   12 1  
    13   11   13 1  
    14   13   14 1  
    15   14   15 1  
    16   14   23 1  
    17   15   16 2  
    18   16   17 1  
    19   17   18 ar 
    20   17   23 ar 
    21   18   19 1  
    22   18   20 ar 
    23   20   21 ar 
    24   21   22 ar 
    25   22   23 ar 
    26    6   24 1  
    27    6   25 1  
    28    7   26 1  
    29    9   27 1  
    30   10   28 1  
    31   11   29 1  
    32   12   30 1  
    33   13   31 1  
    34   15   32 1  
    35   19   33 1  
    36   19   34 1  
    37   21   35 1  
@<TRIPOS>SUBSTRUCTURE
     1 AMP         1

