1fpi_ligand
  -I-interpret- 

 37 39  0  0  0  0  0  0  0  0999 V2000
   35.8620   90.9570  -13.2880 P   0  0  0  0  0
   37.2300   91.4580  -12.9470 O   0  0  0  0  0
   35.4040   90.0870  -12.1570 O   0  0  0  0  0
   35.7590   90.1360  -14.5640 O   0  0  0  0  0
   34.8360   92.0820  -13.3630 O   0  0  0  0  0
   35.1210   93.1190  -14.3520 C   0  0  0  0  0
   34.1070   94.2450  -14.1290 C   0  0  0  0  0
   32.7750   93.7380  -13.9490 O   0  0  0  0  0
   34.3330   94.9390  -12.7520 C   0  0  0  0  0
   35.3700   95.7070  -12.6890 O   0  0  0  0  0
   32.9970   95.6370  -12.4890 C   0  0  0  0  0
   32.7110   96.4410  -13.5020 O   0  0  0  0  0
   32.3050   94.2790  -12.6900 C   0  0  0  0  0
   32.0870   93.3330  -11.5740 N   0  0  0  0  0
   32.8110   92.1950  -11.3600 C   0  0  0  0  0
   32.3230   91.6590  -10.2120 N   0  0  0  0  0
   31.3060   92.4090   -9.6820 C   0  0  0  0  0
   30.4990   92.3560   -8.5820 C   0  0  0  0  0
   30.6100   91.4200   -7.6070 N   0  0  0  0  0
   29.6160   93.3260   -8.4080 N   0  0  0  0  0
   29.4600   94.3560   -9.2230 C   0  0  0  0  0
   30.2330   94.4750  -10.3220 N   0  0  0  0  0
   31.1440   93.4870  -10.5370 C   0  0  0  0  0
   34.5258   89.7503  -12.3491 H   0  0  0  0  0
   34.8480   89.8628  -14.6947 H   0  0  0  0  0
   35.0368   92.7201  -15.3629 H   0  0  0  0  0
   36.1394   93.4902  -14.2376 H   0  0  0  0  0
   34.2279   94.8920  -14.9979 H   0  0  0  0  0
   34.5874   94.2243  -11.9693 H   0  0  0  0  0
   35.4305   96.0897  -11.8107 H   0  0  0  0  0
   32.8248   96.2460  -11.6015 H   0  0  0  0  0
   31.8726   96.8780  -13.3354 H   0  0  0  0  0
   31.2379   94.4996  -12.7175 H   0  0  0  0  0
   33.6140   91.7992  -11.9818 H   0  0  0  0  0
   31.3293   90.6997   -7.6710 H   0  0  0  0  0
   29.9741   91.4363   -6.8096 H   0  0  0  0  0
   28.7044   95.1110   -9.0059 H   0  0  0  0  0
  1  2  2  0  0  0
  1  3  1  0  0  0
  1  4  1  0  0  0
  1  5  1  0  0  0
  5  6  1  0  0  0
  6  7  1  0  0  0
  7  8  1  0  0  0
  7  9  1  0  0  0
  8 13  1  0  0  0
  9 10  1  0  0  0
  9 11  1  0  0  0
 11 12  1  0  0  0
 11 13  1  0  0  0
 13 14  1  0  0  0
 14 15  4  0  0  0
 14 23  4  0  0  0
 15 16  4  0  0  0
 16 17  4  0  0  0
 17 18  4  0  0  0
 17 23  4  0  0  0
 18 19  1  0  0  0
 18 20  4  0  0  0
 20 21  4  0  0  0
 21 22  4  0  0  0
 22 23  4  0  0  0
  3 24  1  0  0  0
  4 25  1  0  0  0
  6 26  1  0  0  0
  6 27  1  0  0  0
  7 28  1  0  0  0
  9 29  1  0  0  0
 10 30  1  0  0  0
 11 31  1  0  0  0
 12 32  1  0  0  0
 13 33  1  0  0  0
 15 34  1  0  0  0
 19 35  1  0  0  0
 19 36  1  0  0  0
 21 37  1  0  0  0
M  END
$$$$
