4d8i_ligand
  -I-interpret- 

 76 75  0  0  0  0  0  0  0  0999 V2000
    5.9090  -13.2860   -7.9480 C   0  0  0  0  0
    5.4340  -12.9720   -6.8490 O   0  0  0  0  0
    5.0900  -13.1540   -9.2080 C   0  0  0  0  0
    6.9770  -14.0550   -8.0490 N   0  0  0  0  0
    7.9640  -14.1980   -6.9800 C   0  0  0  0  0
    9.3170  -13.8050   -7.5130 C   0  0  0  0  0
   10.2680  -14.6240   -7.5470 O   0  0  0  0  0
    8.0080  -15.6460   -6.4150 C   0  0  0  0  0
    9.4260  -12.5380   -7.9120 N   0  0  0  0  0
   10.5740  -12.1090   -8.7090 C   0  0  0  0  0
   11.5170  -11.1910   -7.9810 C   0  0  0  0  0
   12.4850  -10.6810   -8.5720 O   0  0  0  0  0
   10.1350  -11.4820  -10.0370 C   0  0  0  0  0
    9.2320  -12.3710  -10.8650 C   0  0  0  0  0
    9.9020  -13.6710  -11.2950 C   0  0  0  0  0
   11.1620  -13.7340  -11.3410 O   0  0  0  0  0
    9.1590  -14.6460  -11.5750 O   0  0  0  0  0
   11.2880  -10.9940   -6.6820 N   0  0  0  0  0
   12.2070  -10.1740   -5.8840 C   0  0  0  0  0
   13.2230  -11.1140   -5.3090 C   0  0  0  0  0
   12.8740  -11.9550   -4.4770 O   0  0  0  0  0
   11.4430   -9.3830   -4.7740 C   0  0  0  0  0
   10.2260   -8.6190   -5.3320 C   0  0  0  0  0
   12.3950   -8.4370   -4.0250 C   0  0  0  0  0
   10.5940   -7.5920   -6.4790 C   0  0  0  0  0
   16.6460  -11.4390   -4.5950 C   0  0  0  0  0
   14.4720  -10.9980   -5.7300 N   0  0  0  0  0
   17.4880  -12.3500   -4.2270 O   0  0  0  0  0
   15.4650  -11.9640   -5.3370 C   0  0  0  0  0
   16.0490  -12.6260   -6.6080 C   0  0  0  0  0
   15.4990  -14.1130   -8.6600 C   0  0  0  0  0
   14.4370  -14.7830   -9.4830 C   0  0  0  0  0
   14.9970  -13.2870   -7.4740 C   0  0  0  0  0
   14.8720  -15.8550  -10.3350 N   0  3  0  0  0
    4.1980  -13.7752   -9.1268 H   0  0  0  0  0
    4.7980  -12.1125   -9.3425 H   0  0  0  0  0
    5.6843  -13.4792  -10.0619 H   0  0  0  0  0
    7.1207  -14.5747   -8.9148 H   0  0  0  0  0
    7.6771  -13.5445   -6.1562 H   0  0  0  0  0
    8.2930  -16.3360   -7.2092 H   0  0  0  0  0
    8.7385  -15.6976   -5.6076 H   0  0  0  0  0
    7.0232  -15.9159   -6.0335 H   0  0  0  0  0
    8.7038  -11.8634   -7.6597 H   0  0  0  0  0
   11.1332  -13.0219   -8.9138 H   0  0  0  0  0
   11.0357  -11.2987  -10.6228 H   0  0  0  0  0
    9.5723  -10.5792   -9.7993 H   0  0  0  0  0
    8.9649  -11.8220  -11.7680 H   0  0  0  0  0
    8.3698  -12.6306  -10.2508 H   0  0  0  0  0
   11.5331  -12.8846  -11.0912 H   0  0  0  0  0
   10.4703  -11.4152   -6.2411 H   0  0  0  0  0
   12.6945   -9.4163   -6.4974 H   0  0  0  0  0
   11.0568  -10.1157   -4.0654 H   0  0  0  0  0
    9.7927   -8.0493   -4.5099 H   0  0  0  0  0
    9.5453   -9.3556   -5.7589 H   0  0  0  0  0
   13.1905   -9.0184   -3.5588 H   0  0  0  0  0
   12.8275   -7.7264   -4.7293 H   0  0  0  0  0
   11.8398   -7.8977   -3.2575 H   0  0  0  0  0
   11.2940   -6.8518   -6.0914 H   0  0  0  0  0
   11.0525   -8.1270   -7.3106 H   0  0  0  0  0
    9.6880   -7.0924   -6.8220 H   0  0  0  0  0
   17.1752  -10.7644   -5.2680 H   0  0  0  0  0
   16.2713  -10.9622   -3.6893 H   0  0  0  0  0
   14.7329  -10.2202   -6.3361 H   0  0  0  0  0
   18.2177  -11.9390   -3.7577 H   0  0  0  0  0
   14.9253  -12.6330   -4.6668 H   0  0  0  0  0
   16.7460  -13.3999   -6.2866 H   0  0  0  0  0
   16.5205  -11.8426   -7.2014 H   0  0  0  0  0
   16.0121  -13.4182   -9.3248 H   0  0  0  0  0
   16.1145  -14.9099   -8.2426 H   0  0  0  0  0
   14.0357  -14.0145  -10.1437 H   0  0  0  0  0
   13.7373  -15.2246   -8.7735 H   0  0  0  0  0
   14.4088  -12.4754   -7.9022 H   0  0  0  0  0
   14.4704  -13.9859   -6.8241 H   0  0  0  0  0
   14.0708  -16.2314  -10.8419 H   0  0  0  0  0
   15.5607  -15.5017  -10.9993 H   0  0  0  0  0
   15.2922  -16.5903   -9.7666 H   0  0  0  0  0
  1  2  2  0  0  0
  1  3  1  0  0  0
  4  1  1  0  0  0
  5  4  1  0  0  0
  6  5  1  0  0  0
  5  8  1  0  0  0
  6  7  2  0  0  0
  9  6  1  0  0  0
 10  9  1  0  0  0
 11 10  1  0  0  0
 10 13  1  0  0  0
 11 12  2  0  0  0
 18 11  1  0  0  0
 13 14  1  0  0  0
 14 15  1  0  0  0
 15 16  1  0  0  0
 15 17  2  0  0  0
 19 18  1  0  0  0
 20 19  1  0  0  0
 19 22  1  0  0  0
 20 21  2  0  0  0
 27 20  1  0  0  0
 22 23  1  0  0  0
 22 24  1  0  0  0
 23 25  1  0  0  0
 26 28  1  0  0  0
 29 26  1  0  0  0
 29 27  1  0  0  0
 30 29  1  0  0  0
 33 30  1  0  0  0
 31 32  1  0  0  0
 31 33  1  0  0  0
 32 34  1  0  0  0
  3 35  1  0  0  0
  3 36  1  0  0  0
  3 37  1  0  0  0
  4 38  1  0  0  0
  5 39  1  0  0  0
  8 40  1  0  0  0
  8 41  1  0  0  0
  8 42  1  0  0  0
  9 43  1  0  0  0
 10 44  1  0  0  0
 13 45  1  0  0  0
 13 46  1  0  0  0
 14 47  1  0  0  0
 14 48  1  0  0  0
 16 49  1  0  0  0
 18 50  1  0  0  0
 19 51  1  0  0  0
 22 52  1  0  0  0
 23 53  1  0  0  0
 23 54  1  0  0  0
 24 55  1  0  0  0
 24 56  1  0  0  0
 24 57  1  0  0  0
 25 58  1  0  0  0
 25 59  1  0  0  0
 25 60  1  0  0  0
 26 61  1  0  0  0
 26 62  1  0  0  0
 27 63  1  0  0  0
 28 64  1  0  0  0
 29 65  1  0  0  0
 30 66  1  0  0  0
 30 67  1  0  0  0
 31 68  1  0  0  0
 31 69  1  0  0  0
 32 70  1  0  0  0
 32 71  1  0  0  0
 33 72  1  0  0  0
 33 73  1  0  0  0
 34 74  1  0  0  0
 34 75  1  0  0  0
 34 76  1  0  0  0
M  END
$$$$
