5azf_ligand
  -I-interpret- 

 78 79  0  0  0  0  0  0  0  0999 V2000
  -24.8030   24.5270   -2.5940 N   0  3  0  0  0
  -24.1740   23.4950   -3.4610 C   0  0  0  0  0
  -22.8020   23.0870   -2.9620 C   0  0  0  0  0
  -22.0010   23.9270   -2.5620 O   0  0  0  0  0
  -24.0270   24.0070   -4.8980 C   0  0  0  0  0
  -25.3190   24.2690   -5.5780 C   0  0  0  0  0
  -25.9470   25.4720   -5.7200 C   0  0  0  0  0
  -26.1820   23.2900   -6.1600 C   0  0  0  0  0
  -27.1530   25.3040   -6.3570 N   0  0  0  0  0
  -27.3210   23.9730   -6.6390 C   0  0  0  0  0
  -26.1030   21.8990   -6.3250 C   0  0  0  0  0
  -28.3810   23.3100   -7.2690 C   0  0  0  0  0
  -27.1550   21.2400   -6.9510 C   0  0  0  0  0
  -28.2790   21.9480   -7.4160 C   0  0  0  0  0
  -22.5340   21.7890   -2.9920 N   0  0  0  0  0
  -21.2340   21.2780   -2.5860 C   0  0  0  0  0
  -20.9890   19.9330   -3.2340 C   0  0  0  0  0
  -21.9300   19.2210   -3.5810 O   0  0  0  0  0
  -21.1310   21.1450   -1.0630 C   0  0  0  0  0
  -22.0450   20.1140   -0.4360 C   0  0  0  0  0
  -21.7360   19.8960    1.0380 C   0  0  0  0  0
  -20.8200   19.1060    1.3580 O   0  0  0  0  0
  -22.4050   20.5290    1.8800 O   0  0  0  0  0
  -19.7170   19.6020   -3.4210 N   0  0  0  0  0
  -19.3310   18.3320   -4.0130 C   0  0  0  0  0
  -19.7890   17.2330   -3.0560 C   0  0  0  0  0
  -19.5560   17.3210   -1.8500 O   0  0  0  0  0
  -17.8100   18.2950   -4.1780 C   0  0  0  0  0
  -17.2500   17.0960   -4.9240 C   0  0  0  0  0
  -17.6770   17.0510   -6.3780 C   0  0  0  0  0
  -17.7680   18.1260   -7.0090 O   0  0  0  0  0
  -17.9050   15.9360   -6.8960 O   0  0  0  0  0
  -20.4540   16.2090   -3.5860 N   0  0  0  0  0
  -20.9290   15.1100   -2.7550 C   0  0  0  0  0
  -19.7530   14.3900   -2.1100 C   0  0  0  0  0
  -19.8170   14.1320   -0.8890 O   0  0  0  0  0
  -21.7290   14.1040   -3.5850 C   0  0  0  0  0
  -22.2700   12.9240   -2.7720 C   0  0  0  0  0
  -23.3710   13.4070   -1.8400 C   0  0  0  0  0
  -22.8030   11.8530   -3.7080 C   0  0  0  0  0
  -18.7900   14.0800   -2.8450 O   0  0  0  0  0
  -24.8903   24.1645   -1.6446 H   0  0  0  0  0
  -24.2208   25.3645   -2.5872 H   0  0  0  0  0
  -25.7277   24.7573   -2.9577 H   0  0  0  0  0
  -24.8344   22.6283   -3.4318 H   0  0  0  0  0
  -23.5125   23.2326   -5.4669 H   0  0  0  0  0
  -23.4876   24.9530   -4.8514 H   0  0  0  0  0
  -25.5497   26.4276   -5.3778 H   0  0  0  0  0
  -25.2338   21.3458   -5.9693 H   0  0  0  0  0
  -29.2542   23.8540   -7.6292 H   0  0  0  0  0
  -27.1086   20.1591   -7.0836 H   0  0  0  0  0
  -29.0871   21.4031   -7.9040 H   0  0  0  0  0
  -23.2526   21.1366   -3.3056 H   0  0  0  0  0
  -20.4762   21.9901   -2.9127 H   0  0  0  0  0
  -21.4198   22.1101   -0.6468 H   0  0  0  0  0
  -20.1108   20.8277   -0.8473 H   0  0  0  0  0
  -21.8989   19.1681   -0.9575 H   0  0  0  0  0
  -23.0706   20.4737   -0.5188 H   0  0  0  0  0
  -20.4352   18.7258    0.5649 H   0  0  0  0  0
  -18.9887   20.2588   -3.1408 H   0  0  0  0  0
  -19.7850   18.1940   -4.9943 H   0  0  0  0  0
  -17.3939   18.2509   -3.1715 H   0  0  0  0  0
  -17.5446   19.1731   -4.7667 H   0  0  0  0  0
  -17.6286   16.1964   -4.4387 H   0  0  0  0  0
  -16.1626   17.1676   -4.8992 H   0  0  0  0  0
  -17.7773   15.2473   -6.2395 H   0  0  0  0  0
  -20.6340   16.1932   -4.5899 H   0  0  0  0  0
  -21.5735   15.5314   -1.9835 H   0  0  0  0  0
  -21.0563   13.6974   -4.3401 H   0  0  0  0  0
  -22.5867   14.6336   -3.9997 H   0  0  0  0  0
  -21.4643   12.4965   -2.1752 H   0  0  0  0  0
  -22.9675   14.1593   -1.1623 H   0  0  0  0  0
  -24.1786   13.8421   -2.4286 H   0  0  0  0  0
  -23.7530   12.5644   -1.2636 H   0  0  0  0  0
  -23.6060   12.2702   -4.3156 H   0  0  0  0  0
  -21.9984   11.5054   -4.3560 H   0  0  0  0  0
  -23.1857   11.0176   -3.1217 H   0  0  0  0  0
  -18.9629   14.3798   -3.7404 H   0  0  0  0  0
  1  2  1  0  0  0
  2  3  1  0  0  0
  2  5  1  0  0  0
  3  4  2  0  0  0
  3 15  1  0  0  0
  5  6  1  0  0  0
  6  7  4  0  0  0
  6  8  4  0  0  0
  7  9  4  0  0  0
  8 10  4  0  0  0
  8 11  4  0  0  0
  9 10  4  0  0  0
 10 12  4  0  0  0
 11 13  4  0  0  0
 12 14  4  0  0  0
 13 14  4  0  0  0
 15 16  1  0  0  0
 16 17  1  0  0  0
 16 19  1  0  0  0
 17 18  2  0  0  0
 17 24  1  0  0  0
 19 20  1  0  0  0
 20 21  1  0  0  0
 21 22  1  0  0  0
 21 23  2  0  0  0
 24 25  1  0  0  0
 25 26  1  0  0  0
 25 28  1  0  0  0
 26 27  2  0  0  0
 26 33  1  0  0  0
 28 29  1  0  0  0
 29 30  1  0  0  0
 30 31  2  0  0  0
 30 32  1  0  0  0
 33 34  1  0  0  0
 34 35  1  0  0  0
 34 37  1  0  0  0
 35 36  2  0  0  0
 35 41  1  0  0  0
 37 38  1  0  0  0
 38 39  1  0  0  0
 38 40  1  0  0  0
  1 42  1  0  0  0
  1 43  1  0  0  0
  1 44  1  0  0  0
  2 45  1  0  0  0
  5 46  1  0  0  0
  5 47  1  0  0  0
  7 48  1  0  0  0
 11 49  1  0  0  0
 12 50  1  0  0  0
 13 51  1  0  0  0
 14 52  1  0  0  0
 15 53  1  0  0  0
 16 54  1  0  0  0
 19 55  1  0  0  0
 19 56  1  0  0  0
 20 57  1  0  0  0
 20 58  1  0  0  0
 22 59  1  0  0  0
 24 60  1  0  0  0
 25 61  1  0  0  0
 28 62  1  0  0  0
 28 63  1  0  0  0
 29 64  1  0  0  0
 29 65  1  0  0  0
 32 66  1  0  0  0
 33 67  1  0  0  0
 34 68  1  0  0  0
 37 69  1  0  0  0
 37 70  1  0  0  0
 38 71  1  0  0  0
 39 72  1  0  0  0
 39 73  1  0  0  0
 39 74  1  0  0  0
 40 75  1  0  0  0
 40 76  1  0  0  0
 40 77  1  0  0  0
 41 78  1  0  0  0
M  END
$$$$
