2xiz_ligand
  -I-interpret- 

 18 18  0  0  0  0  0  0  0  0999 V2000
  -21.7960  -31.8710    1.5970 C   0  0  0  0  0
  -21.2350  -30.9190    1.0050 O   0  0  0  0  0
  -22.3150  -31.7760    2.7390 O   0  0  0  0  0
  -21.8350  -33.1040    0.9290 C   0  0  0  0  0
  -22.4270  -34.2360    1.5060 C   0  0  0  0  0
  -22.5210  -35.4510    0.8190 C   0  0  0  0  0
  -22.1100  -35.5590   -0.5150 C   0  0  0  0  0
  -22.2430  -36.7780   -1.1800 C   0  0  0  0  0
  -23.1700  -37.7690    0.7130 C   0  0  0  0  0
  -23.0680  -36.5700    1.4380 C   0  0  0  0  0
  -22.7590  -37.8350   -0.5540 N   0  0  0  0  0
  -22.6842  -32.6250    2.9931 H   0  0  0  0  0
  -21.3935  -33.1838   -0.0644 H   0  0  0  0  0
  -22.8253  -34.1677    2.5183 H   0  0  0  0  0
  -21.6888  -34.6960   -1.0307 H   0  0  0  0  0
  -21.9228  -36.8664   -2.2182 H   0  0  0  0  0
  -23.5893  -38.6544    1.1909 H   0  0  0  0  0
  -23.4126  -36.5174    2.4708 H   0  0  0  0  0
  1  2  2  0  0  0
  1  3  1  0  0  0
  1  4  1  0  0  0
  4  5  2  0  0  0
  5  6  1  0  0  0
  6  7  4  0  0  0
  6 10  4  0  0  0
  7  8  4  0  0  0
  8 11  4  0  0  0
 10  9  4  0  0  0
  9 11  4  0  0  0
  3 12  1  0  0  0
  4 13  1  0  0  0
  5 14  1  0  0  0
  7 15  1  0  0  0
  8 16  1  0  0  0
  9 17  1  0  0  0
 10 18  1  0  0  0
M  END
$$$$
