5ma7_ligand
  -I-interpret- 

 60 60  0  0  0  0  0  0  0  0999 V2000
   14.9980   41.1770  -11.4490 C   0  0  0  0  0
   13.6130   41.5210  -10.9720 C   0  0  0  0  0
   16.1300   41.3360  -10.6140 C   0  0  0  0  0
   17.4120   41.0180  -11.0850 C   0  0  0  0  0
   17.5840   40.4930  -12.3650 C   0  0  0  0  0
   16.4650   40.3380  -13.1890 C   0  0  0  0  0
   15.1790   40.6690  -12.7430 C   0  0  0  0  0
    7.8760   41.6050   -4.2620 C   0  0  0  0  0
    7.3140   42.1900   -2.9590 C   0  0  0  0  0
    8.2480   43.0900   -2.1800 C   0  0  0  0  0
    7.5300   44.1670   -1.3580 C   0  0  0  0  0
    9.4090   37.9860   -1.1830 N   0  3  0  0  0
   11.8900   40.2780   -6.5520 C   0  0  0  0  0
   11.4160   38.6480   -5.8840 P   0  0  0  0  0
   12.4760   37.6160   -6.1110 O   0  0  0  0  0
   10.0560   38.1720   -6.4470 O   0  0  0  0  0
   11.2590   39.0440   -4.1960 N   0  0  0  0  0
   10.0290   38.5160   -3.5060 C   0  0  0  0  0
    8.8240   39.4130   -3.7140 C   0  0  0  0  0
    9.0310   40.7210   -4.0210 N   0  0  0  0  0
    9.1070   42.2560   -1.2420 C   0  0  0  0  0
    7.6990   38.9530   -3.5870 O   0  0  0  0  0
    8.2630   42.6440   -5.3530 C   0  0  0  0  0
    9.4640   42.6800   -5.7310 O   0  0  0  0  0
    7.2910   43.3000   -5.8000 O   0  0  0  0  0
   13.2450   40.5350   -9.9750 O   0  0  0  0  0
   12.5170   40.8650   -8.8870 C   0  0  0  0  0
   12.5630   40.0090   -7.8350 N   0  0  0  0  0
   11.8890   41.9100   -8.9130 O   0  0  0  0  0
   10.4690   38.5440   -2.0360 C   0  0  0  0  0
   12.9072   41.5086  -11.8025 H   0  0  0  0  0
   13.5922   42.5239  -10.5456 H   0  0  0  0  0
   16.0042   41.7084   -9.5973 H   0  0  0  0  0
   18.2797   41.1824  -10.4461 H   0  0  0  0  0
   18.5751   40.2079  -12.7179 H   0  0  0  0  0
   16.5961   39.9515  -14.1997 H   0  0  0  0  0
   14.3207   40.5318  -13.4008 H   0  0  0  0  0
    7.0334   41.0364   -4.6554 H   0  0  0  0  0
    7.0954   41.3411   -2.3112 H   0  0  0  0  0
    6.4607   42.8060   -3.2427 H   0  0  0  0  0
    8.8557   43.6044   -2.9244 H   0  0  0  0  0
    6.9485   44.8037   -2.0248 H   0  0  0  0  0
    6.8653   43.6897   -0.6380 H   0  0  0  0  0
    8.2676   44.7705   -0.8290 H   0  0  0  0  0
    9.7107   38.0090   -0.2089 H   0  0  0  0  0
    8.5602   38.5413   -1.2905 H   0  0  0  0  0
    9.2235   37.0220   -1.4601 H   0  0  0  0  0
   12.5471   40.8111   -5.8649 H   0  0  0  0  0
   11.0183   40.9178   -6.6892 H   0  0  0  0  0
    9.3922   38.8477   -6.2909 H   0  0  0  0  0
   11.9582   39.6003   -3.7039 H   0  0  0  0  0
    9.7149   37.5395   -3.8746 H   0  0  0  0  0
    9.9803   41.0888   -4.0843 H   0  0  0  0  0
    8.4644   41.7155   -0.5470 H   0  0  0  0  0
    9.6936   41.5453   -1.8241 H   0  0  0  0  0
    9.7764   42.9116   -0.6851 H   0  0  0  0  0
    9.9826   42.0676   -5.2041 H   0  0  0  0  0
   13.0872   39.1400   -7.9370 H   0  0  0  0  0
   11.3735   37.9467   -1.9210 H   0  0  0  0  0
   10.6627   39.5748   -1.7392 H   0  0  0  0  0
  2  1  1  0  0  0
  1  3  4  0  0  0
  1  7  4  0  0  0
 26  2  1  0  0  0
  3  4  4  0  0  0
  4  5  4  0  0  0
  6  5  4  0  0  0
  7  6  4  0  0  0
  8  9  1  0  0  0
 20  8  1  0  0  0
  8 23  1  0  0  0
  9 10  1  0  0  0
 10 11  1  0  0  0
 10 21  1  0  0  0
 30 12  1  0  0  0
 13 14  1  0  0  0
 28 13  1  0  0  0
 14 15  2  0  0  0
 14 16  1  0  0  0
 14 17  1  0  0  0
 17 18  1  0  0  0
 18 19  1  0  0  0
 18 30  1  0  0  0
 19 20  1  0  0  0
 19 22  2  0  0  0
 23 24  1  0  0  0
 23 25  2  0  0  0
 27 26  1  0  0  0
 27 28  1  0  0  0
 27 29  2  0  0  0
  2 31  1  0  0  0
  2 32  1  0  0  0
  3 33  1  0  0  0
  4 34  1  0  0  0
  5 35  1  0  0  0
  6 36  1  0  0  0
  7 37  1  0  0  0
  8 38  1  0  0  0
  9 39  1  0  0  0
  9 40  1  0  0  0
 10 41  1  0  0  0
 11 42  1  0  0  0
 11 43  1  0  0  0
 11 44  1  0  0  0
 12 45  1  0  0  0
 12 46  1  0  0  0
 12 47  1  0  0  0
 13 48  1  0  0  0
 13 49  1  0  0  0
 16 50  1  0  0  0
 17 51  1  0  0  0
 18 52  1  0  0  0
 20 53  1  0  0  0
 21 54  1  0  0  0
 21 55  1  0  0  0
 21 56  1  0  0  0
 24 57  1  0  0  0
 28 58  1  0  0  0
 30 59  1  0  0  0
 30 60  1  0  0  0
M  END
$$$$
