### 
### Created by X-TOOL on Mon Sep 10 21:13:30 2018
### 

@<TRIPOS>MOLECULE
5ma7_ligand
   58    58     1     0     0
SMALL
GAST_HUCK


@<TRIPOS>ATOM
      1 C1         14.9980   41.1770  -11.4490 C.ar      1 7K0        -0.0130
      2 C2         13.6130   41.5210  -10.9720 C.3       1 7K0         0.1113
      3 C8         16.1300   41.3360  -10.6140 C.ar      1 7K0        -0.0578
      4 C9         17.4120   41.0180  -11.0850 C.ar      1 7K0        -0.0685
      5 C10        17.5840   40.4930  -12.3650 C.ar      1 7K0        -0.0687
      6 C11        16.4650   40.3380  -13.1890 C.ar      1 7K0        -0.0685
      7 C12        15.1790   40.6690  -12.7430 C.ar      1 7K0        -0.0578
      8 C20         7.8760   41.6050   -4.2620 C.3       1 7K0         0.0946
      9 C21         7.3140   42.1900   -2.9590 C.3       1 7K0        -0.0156
     10 C22         8.2480   43.0900   -2.1800 C.3       1 7K0        -0.0431
     11 C24         7.5300   44.1670   -1.3580 C.3       1 7K0        -0.0625
     12 N26         9.4090   37.9860   -1.1830 N.4       1 7K0         0.2216
     13 C6         11.8900   40.2780   -6.5520 C.3       1 7K0         0.1132
     14 P13        11.4160   38.6480   -5.8840 P.3       1 7K0         0.0872
     15 O14        12.4760   37.6160   -6.1110 O.co2     1 7K0        -0.6057
     16 O15        10.0560   38.1720   -6.4470 O.co2     1 7K0        -0.6057
     17 N16        11.2590   39.0440   -4.1960 N.am      1 7K0        -0.2689
     18 C17        10.0290   38.5160   -3.5060 C.3       1 7K0         0.1623
     19 C18         8.8240   39.4130   -3.7140 C.2       1 7K0         0.2047
     20 N19         9.0310   40.7210   -4.0210 N.am      1 7K0        -0.2696
     21 C23         9.1070   42.2560   -1.2420 C.3       1 7K0        -0.0625
     22 O27         7.6990   38.9530   -3.5870 O.2       1 7K0        -0.3947
     23 C28         8.2630   42.6440   -5.3530 C.2       1 7K0         0.0601
     24 O29         9.4640   42.6800   -5.7310 O.co2     1 7K0        -0.5666
     25 O30         7.2910   43.3000   -5.8000 O.co2     1 7K0        -0.5666
     26 O3         13.2450   40.5350   -9.9750 O.3       1 7K0        -0.2506
     27 C4         12.5170   40.8650   -8.8870 C.2       1 7K0         0.3229
     28 N5         12.5630   40.0090   -7.8350 N.am      1 7K0        -0.2448
     29 O7         11.8890   41.9100   -8.9130 O.2       1 7K0        -0.3774
     30 C25        10.4690   38.5440   -2.0360 C.3       1 7K0         0.0020
     31 H1         12.9056   41.4878  -11.8137 H         1 7K0         0.0776
     32 H2         13.6067   42.5270  -10.5271 H         1 7K0         0.0776
     33 H3         16.0049   41.7063   -9.6029 H         1 7K0         0.0557
     34 H4         18.2749   41.1815  -10.4496 H         1 7K0         0.0599
     35 H5         18.5697   40.2094  -12.7159 H         1 7K0         0.0559
     36 H6         16.5954   39.9536  -14.1941 H         1 7K0         0.0599
     37 H7         14.3255   40.5326  -13.3972 H         1 7K0         0.0557
     38 H8          7.0725   40.9859   -4.6875 H         1 7K0         0.0726
     39 H9          7.0334   41.3502   -2.3063 H         1 7K0         0.0308
     40 H10         6.4166   42.7739   -3.2115 H         1 7K0         0.0308
     41 H11         8.9040   43.5969   -2.9030 H         1 7K0         0.0297
     42 H12         8.2734   44.7767   -0.8236 H         1 7K0         0.0232
     43 H13         6.8588   43.6866   -0.6309 H         1 7K0         0.0232
     44 H14         6.9428   44.8103   -2.0298 H         1 7K0         0.0232
     45 H15         9.7061   38.0082   -0.2200 H         1 7K0         0.1996
     46 H16         9.2248   37.0333   -1.4558 H         1 7K0         0.1996
     47 H17         8.5696   38.5340   -1.2883 H         1 7K0         0.1996
     48 H18        12.5753   40.7902   -5.8606 H         1 7K0         0.0743
     49 H19        10.9972   40.9004   -6.7115 H         1 7K0         0.0743
     50 H20        11.9445   39.5893   -3.7136 H         1 7K0         0.1671
     51 H21         9.7904   37.4954   -3.8398 H         1 7K0         0.0808
     52 H22         9.9616   41.0816   -4.0830 H         1 7K0         0.1875
     53 H23         9.6293   41.4778   -1.8178 H         1 7K0         0.0232
     54 H24         8.4674   41.7829   -0.4823 H         1 7K0         0.0232
     55 H25         9.8456   42.9041   -0.7475 H         1 7K0         0.0232
     56 H26        13.0769   39.1570   -7.9350 H         1 7K0         0.1884
     57 H27        11.3843   37.9453   -1.9183 H         1 7K0         0.0858
     58 H28        10.6693   39.5830   -1.7355 H         1 7K0         0.0858
@<TRIPOS>BOND
     1    2    1 1  
     2    1    3 ar 
     3    1    7 ar 
     4   26    2 1  
     5    3    4 ar 
     6    4    5 ar 
     7    6    5 ar 
     8    7    6 ar 
     9    8    9 1  
    10   20    8 1  
    11    8   23 1  
    12    9   10 1  
    13   10   11 1  
    14   10   21 1  
    15   30   12 1  
    16   13   14 1  
    17   28   13 1  
    18   14   15 ar 
    19   14   16 ar 
    20   14   17 am 
    21   17   18 1  
    22   18   19 1  
    23   18   30 1  
    24   19   20 am 
    25   19   22 2  
    26   23   24 ar 
    27   23   25 ar 
    28   27   26 1  
    29   27   28 am 
    30   27   29 2  
    31    2   31 1  
    32    2   32 1  
    33    3   33 1  
    34    4   34 1  
    35    5   35 1  
    36    6   36 1  
    37    7   37 1  
    38    8   38 1  
    39    9   39 1  
    40    9   40 1  
    41   10   41 1  
    42   11   42 1  
    43   11   43 1  
    44   11   44 1  
    45   12   45 1  
    46   12   46 1  
    47   12   47 1  
    48   13   48 1  
    49   13   49 1  
    50   17   50 1  
    51   18   51 1  
    52   20   52 1  
    53   21   53 1  
    54   21   54 1  
    55   21   55 1  
    56   28   56 1  
    57   30   57 1  
    58   30   58 1  
@<TRIPOS>SUBSTRUCTURE
     1 7K0         1

