1e2k_ligand
  -I-interpret- 

 34 36  0  0  0  0  0  0  0  0999 V2000
   50.3650   35.7730    1.2290 O   0  0  0  0  0
   50.7440   34.6090   -2.0410 O   0  0  0  0  0
   45.4850   31.6870   -1.2610 O   0  0  0  0  0
   43.1910   34.5170    1.4590 O   0  0  0  0  0
   46.6500   33.2970   -0.0480 N   0  0  0  0  0
   44.3790   33.1100    0.1630 N   0  0  0  0  0
   50.1450   33.6030    0.1970 C   0  0  0  0  0
   49.7430   34.2920   -1.1100 C   0  0  0  0  0
   48.4730   33.6530   -1.6110 C   0  0  0  0  0
   47.9650   32.7100   -0.5190 C   0  0  0  0  0
   49.0050   32.6710    0.6400 C   0  0  0  0  0
   50.3270   32.1180    0.1530 C   0  0  0  0  0
   50.8100   34.3980    1.2750 C   0  0  0  0  0
   45.5520   32.6120   -0.4750 C   0  0  0  0  0
   44.3590   34.1810    1.0470 C   0  0  0  0  0
   45.5420   34.8400    1.4210 C   0  0  0  0  0
   46.6870   34.3520    0.8440 C   0  0  0  0  0
   45.6000   35.9960    2.3980 C   0  0  0  0  0
   50.7987   36.2720    1.9251 H   0  0  0  0  0
   50.3463   35.0336   -2.8047 H   0  0  0  0  0
   43.4934   32.6482   -0.0438 H   0  0  0  0  0
   49.5282   35.3358   -0.8809 H   0  0  0  0  0
   47.7260   34.4155   -1.8315 H   0  0  0  0  0
   48.6637   33.1004   -2.5310 H   0  0  0  0  0
   47.8275   31.6889   -0.8747 H   0  0  0  0  0
   48.3881   32.4979    1.5218 H   0  0  0  0  0
   51.0649   31.3867    0.4828 H   0  0  0  0  0
   50.6737   31.3696   -0.5596 H   0  0  0  0  0
   50.5508   33.9716    2.2440 H   0  0  0  0  0
   51.8894   34.3674    1.1264 H   0  0  0  0  0
   47.6459   34.8058    1.0943 H   0  0  0  0  0
   46.2194   35.7185    3.2509 H   0  0  0  0  0
   46.0298   36.8670    1.9032 H   0  0  0  0  0
   44.5924   36.2315    2.7405 H   0  0  0  0  0
 13  1  1  0  0  0
 13  7  1  0  0  0
  7  8  1  0  0  0
  7 11  1  0  0  0
  7 12  1  0  0  0
 11 12  1  0  0  0
 11 10  1  0  0  0
 10  5  1  0  0  0
 10  9  1  0  0  0
  9  8  1  0  0  0
  8  2  1  0  0  0
  5 14  1  0  0  0
  5 17  1  0  0  0
 17 16  2  0  0  0
 16 18  1  0  0  0
 16 15  1  0  0  0
 15  4  2  0  0  0
 15  6  1  0  0  0
  6 14  1  0  0  0
 14  3  2  0  0  0
  1 19  1  0  0  0
  2 20  1  0  0  0
  6 21  1  0  0  0
  8 22  1  0  0  0
  9 23  1  0  0  0
  9 24  1  0  0  0
 10 25  1  0  0  0
 11 26  1  0  0  0
 12 27  1  0  0  0
 12 28  1  0  0  0
 13 29  1  0  0  0
 13 30  1  0  0  0
 17 31  1  0  0  0
 18 32  1  0  0  0
 18 33  1  0  0  0
 18 34  1  0  0  0
M  END
$$$$
