2x7x_ligand
  -I-interpret- 

 24 24  0  0  0  0  0  0  0  0999 V2000
   25.8010   40.7190   54.2890 C   0  0  0  0  0
   26.8970   41.7160   54.6190 C   0  0  0  0  0
   28.2900   41.1400   54.3800 C   0  0  0  0  0
   29.0760   41.7130   55.5430 C   0  0  0  0  0
   28.0460   41.6270   56.6610 C   0  0  0  0  0
   28.2760   42.5780   57.8340 C   0  0  0  0  0
   24.5520   41.3970   54.1820 O   0  0  0  0  0
   26.6650   42.9110   53.8650 O   0  0  0  0  0
   28.8230   41.4780   53.0910 O   0  0  0  0  0
   30.2760   40.9820   55.8180 O   0  0  0  0  0
   26.8320   42.0100   56.0090 O   0  0  0  0  0
   27.3100   42.3060   58.8690 O   0  0  0  0  0
   25.7406   39.9728   55.0812 H   0  0  0  0  0
   26.0297   40.2308   53.3417 H   0  0  0  0  0
   28.3152   40.0507   54.3519 H   0  0  0  0  0
   29.4563   42.7203   55.3732 H   0  0  0  0  0
   28.0689   40.6317   57.1048 H   0  0  0  0  0
   28.1647   43.6077   57.4944 H   0  0  0  0  0
   29.2818   42.4325   58.2281 H   0  0  0  0  0
   23.8619   40.7631   53.9733 H   0  0  0  0  0
   26.7094   42.7101   52.9273 H   0  0  0  0  0
   28.2774   41.0832   52.4068 H   0  0  0  0  0
   30.8823   41.0750   55.0795 H   0  0  0  0  0
   27.4552   42.9040   59.6058 H   0  0  0  0  0
  1  2  1  0  0  0
  1  7  1  0  0  0
  2  3  1  0  0  0
  2  8  1  0  0  0
  2 11  1  0  0  0
  3  4  1  0  0  0
  3  9  1  0  0  0
  4  5  1  0  0  0
  4 10  1  0  0  0
  5  6  1  0  0  0
  5 11  1  0  0  0
  6 12  1  0  0  0
  1 13  1  0  0  0
  1 14  1  0  0  0
  3 15  1  0  0  0
  4 16  1  0  0  0
  5 17  1  0  0  0
  6 18  1  0  0  0
  6 19  1  0  0  0
  7 20  1  0  0  0
  8 21  1  0  0  0
  9 22  1  0  0  0
 10 23  1  0  0  0
 12 24  1  0  0  0
M  END
$$$$
