4a4v_ligand
  -I-interpret- 

 48 48  0  0  0  0  0  0  0  0999 V2000
  -14.1320   27.8250  -50.8340 C   0  0  0  0  0
  -15.0780   26.8200  -50.1640 C   0  0  0  0  0
  -14.9800   25.4570  -50.8580 C   0  0  0  0  0
  -15.9670   24.4090  -50.2920 C   0  0  0  0  0
  -15.6960   24.1030  -48.8150 C   0  0  0  0  0
  -16.1200   22.6970  -48.3480 C   0  0  0  0  0
  -17.4260   22.1850  -48.1920 C   0  0  0  0  0
  -18.6980   23.0130  -48.5230 C   0  0  0  0  0
  -19.8150   22.4370  -48.4500 O   0  0  0  0  0
  -18.5640   24.2240  -48.8240 O   0  0  0  0  0
  -17.6070   20.8700  -47.7330 C   0  0  0  0  0
  -18.8740   20.3930  -47.6050 O   0  0  0  0  0
  -15.0650   21.8640  -48.0050 C   0  0  0  0  0
  -15.2630   20.5620  -47.5480 C   0  0  0  0  0
  -14.1640   19.8250  -47.2530 O   0  0  0  0  0
  -13.4960   19.4510  -48.4540 C   0  0  0  0  0
  -16.5450   20.0250  -47.3910 C   0  0  0  0  0
  -16.8310   18.5900  -46.8740 C   0  0  0  0  0
  -16.2230   18.3330  -45.6270 C   0  0  0  0  0
  -16.7700   17.9860  -44.3750 C   0  0  0  0  0
  -15.8350   17.7030  -43.1710 C   0  0  0  0  0
  -18.3030   17.8630  -44.1520 C   0  0  0  0  0
  -13.1072   27.4606  -50.7628 H   0  0  0  0  0
  -14.4070   27.9374  -51.8827 H   0  0  0  0  0
  -14.2121   28.7886  -50.3308 H   0  0  0  0  0
  -16.1014   27.1870  -50.2415 H   0  0  0  0  0
  -14.7964   26.7083  -49.1170 H   0  0  0  0  0
  -13.9705   25.0782  -50.6985 H   0  0  0  0  0
  -15.2244   25.6049  -51.9099 H   0  0  0  0  0
  -15.8457   23.4859  -50.8589 H   0  0  0  0  0
  -16.9765   24.8112  -50.3768 H   0  0  0  0  0
  -16.2824   24.8156  -48.2350 H   0  0  0  0  0
  -14.6170   24.1673  -48.6749 H   0  0  0  0  0
  -19.6844   21.5177  -48.2060 H   0  0  0  0  0
  -18.8434   19.4886  -47.2844 H   0  0  0  0  0
  -14.0462   22.2405  -48.0960 H   0  0  0  0  0
  -14.1702   18.8606  -49.0745 H   0  0  0  0  0
  -13.1942   20.3480  -48.9948 H   0  0  0  0  0
  -12.6142   18.8592  -48.2086 H   0  0  0  0  0
  -16.4237   17.8845  -47.5982 H   0  0  0  0  0
  -17.9089   18.4861  -46.7500 H   0  0  0  0  0
  -15.1363   18.4179  -45.6328 H   0  0  0  0  0
  -15.1771   16.8680  -43.4119 H   0  0  0  0  0
  -15.2368   18.5896  -42.9609 H   0  0  0  0  0
  -16.4361   17.4531  -42.2967 H   0  0  0  0  0
  -18.7784   18.8194  -44.3696 H   0  0  0  0  0
  -18.7050   17.0968  -44.8149 H   0  0  0  0  0
  -18.4971   17.5868  -43.1156 H   0  0  0  0  0
  1  2  1  0  0  0
  2  3  1  0  0  0
  3  4  1  0  0  0
  4  5  1  0  0  0
  5  6  1  0  0  0
  6  7  4  0  0  0
  6 13  4  0  0  0
  7  8  1  0  0  0
  7 11  4  0  0  0
  8  9  1  0  0  0
  8 10  2  0  0  0
 11 12  1  0  0  0
 11 17  4  0  0  0
 13 14  4  0  0  0
 14 15  1  0  0  0
 14 17  4  0  0  0
 15 16  1  0  0  0
 17 18  1  0  0  0
 18 19  1  0  0  0
 19 20  2  0  0  0
 20 21  1  0  0  0
 20 22  1  0  0  0
  1 23  1  0  0  0
  1 24  1  0  0  0
  1 25  1  0  0  0
  2 26  1  0  0  0
  2 27  1  0  0  0
  3 28  1  0  0  0
  3 29  1  0  0  0
  4 30  1  0  0  0
  4 31  1  0  0  0
  5 32  1  0  0  0
  5 33  1  0  0  0
  9 34  1  0  0  0
 12 35  1  0  0  0
 13 36  1  0  0  0
 16 37  1  0  0  0
 16 38  1  0  0  0
 16 39  1  0  0  0
 18 40  1  0  0  0
 18 41  1  0  0  0
 19 42  1  0  0  0
 21 43  1  0  0  0
 21 44  1  0  0  0
 21 45  1  0  0  0
 22 46  1  0  0  0
 22 47  1  0  0  0
 22 48  1  0  0  0
M  END
$$$$
