4cfl_ligand
  -I-interpret- 

 42 45  0  0  0  0  0  0  0  0999 V2000
   22.1830   49.0130   -0.2320 O   0  0  0  0  0
   23.1670   49.7020   -0.5250 C   0  0  0  0  0
   24.4840   49.4790    0.1040 C   0  0  0  0  0
   24.6710   48.5040    1.0850 C   0  0  0  0  0
   25.9230   48.3120    1.6500 C   0  0  0  0  0
   27.0040   49.0780    1.2450 C   0  0  0  0  0
   25.5810   50.2490   -0.2900 C   0  0  0  0  0
   26.8530   50.0530    0.2630 C   0  0  0  0  0
   28.0510   50.8160   -0.1930 C   0  0  0  0  0
   28.9190   51.4000    0.7270 C   0  0  0  0  0
   30.0320   52.1060    0.3000 C   0  0  0  0  0
   30.2950   52.2420   -1.0430 C   0  0  0  0  0
   29.4500   51.6690   -1.9670 C   0  0  0  0  0
   28.3370   50.9590   -1.5490 C   0  0  0  0  0
   25.4560   51.2230   -1.2570 O   0  0  0  0  0
   24.2240   51.4340   -1.8540 C   0  0  0  0  0
   23.0890   50.7370   -1.5250 C   0  0  0  0  0
   24.3730   52.4090   -2.8620 N   0  0  0  0  0
   25.6170   53.1810   -2.8980 C   0  0  0  0  0
   26.1920   53.0900   -4.2870 C   0  0  0  0  0
   25.1650   53.3610   -5.3090 N   0  3  0  0  0
   24.0290   52.4310   -5.2330 C   0  0  0  0  0
   23.3370   52.4990   -3.8940 C   0  0  0  0  0
   23.8297   47.8910    1.4084 H   0  0  0  0  0
   26.0576   47.5518    2.4194 H   0  0  0  0  0
   27.9814   48.9158    1.6993 H   0  0  0  0  0
   28.7204   51.3004    1.7941 H   0  0  0  0  0
   30.7025   52.5559    1.0322 H   0  0  0  0  0
   31.1695   52.8016   -1.3750 H   0  0  0  0  0
   29.6580   51.7747   -3.0317 H   0  0  0  0  0
   27.6771   50.5068   -2.2894 H   0  0  0  0  0
   22.1410   50.9629   -2.0133 H   0  0  0  0  0
   26.3260   52.7804   -2.1735 H   0  0  0  0  0
   25.4177   54.2221   -2.6440 H   0  0  0  0  0
   26.5757   52.0811   -4.4389 H   0  0  0  0  0
   26.9839   53.8326   -4.3846 H   0  0  0  0  0
   25.5988   53.2510   -6.2256 H   0  0  0  0  0
   24.8087   54.3038   -5.1524 H   0  0  0  0  0
   24.4060   51.4178   -5.3725 H   0  0  0  0  0
   23.3096   52.7055   -6.0045 H   0  0  0  0  0
   22.7810   53.4316   -3.7976 H   0  0  0  0  0
   22.6223   51.6825   -3.7908 H   0  0  0  0  0
  1  2  2  0  0  0
  2  3  1  0  0  0
  2 17  1  0  0  0
  3  4  4  0  0  0
  3  7  4  0  0  0
  4  5  4  0  0  0
  5  6  4  0  0  0
  6  8  4  0  0  0
  7  8  4  0  0  0
  7 15  1  0  0  0
  8  9  1  0  0  0
  9 10  4  0  0  0
  9 14  4  0  0  0
 10 11  4  0  0  0
 11 12  4  0  0  0
 12 13  4  0  0  0
 13 14  4  0  0  0
 15 16  1  0  0  0
 16 17  2  0  0  0
 16 18  1  0  0  0
 18 19  1  0  0  0
 18 23  1  0  0  0
 19 20  1  0  0  0
 20 21  1  0  0  0
 21 22  1  0  0  0
 22 23  1  0  0  0
  4 24  1  0  0  0
  5 25  1  0  0  0
  6 26  1  0  0  0
 10 27  1  0  0  0
 11 28  1  0  0  0
 12 29  1  0  0  0
 13 30  1  0  0  0
 14 31  1  0  0  0
 17 32  1  0  0  0
 19 33  1  0  0  0
 19 34  1  0  0  0
 20 35  1  0  0  0
 20 36  1  0  0  0
 21 37  1  0  0  0
 21 38  1  0  0  0
 22 39  1  0  0  0
 22 40  1  0  0  0
 23 41  1  0  0  0
 23 42  1  0  0  0
M  END
$$$$
