1t31_ligand
  -I-interpret- 

 84 90  0  0  0  0  0  0  0  0999 V2000
   -1.7640   31.3350   23.9320 O   0  0  0  0  0
   -3.3130   41.1690   21.4410 P   0  0  0  0  0
   -2.0860   41.9460   21.1950 O   0  0  0  0  0
   -4.2890   41.0870   20.2730 O   0  0  0  0  0
   -4.3500   41.7230   22.4230 O   0  0  0  0  0
   -2.9320   39.5210   21.8550 C   0  0  0  0  0
   -2.9560   39.1160   24.2720 O   0  0  0  0  0
   -2.3520   39.3740   23.2750 C   0  0  0  0  0
    2.3640   40.1760   21.0080 C   0  0  0  0  0
    3.8200   40.1850   21.1240 C   0  0  0  0  0
    4.4960   39.8120   22.4010 C   0  0  0  0  0
    3.7350   39.4290   23.5770 C   0  0  0  0  0
    2.2560   39.4040   23.5150 C   0  0  0  0  0
    1.5370   39.7920   22.1730 C   0  0  0  0  0
    0.0900   39.7690   22.1240 C   0  0  0  0  0
   -0.7500   39.4000   23.2900 C   0  0  0  0  0
    0.0220   39.0200   24.6090 C   0  0  0  0  0
    1.4490   39.0360   24.6640 C   0  0  0  0  0
   -0.7760   39.4550   26.7870 O   0  0  0  0  0
   -0.6960   38.6020   25.9180 C   0  0  0  0  0
   -6.4190   36.6120   21.5790 C   0  0  0  0  0
   -6.5570   37.8010   22.3720 C   0  0  0  0  0
   -5.4530   38.7280   22.4620 C   0  0  0  0  0
   -4.1460   38.5610   21.7900 C   0  0  0  0  0
   -3.9600   37.3090   20.9430 C   0  0  0  0  0
   -5.1740   36.3100   20.8530 C   0  0  0  0  0
   -5.0550   35.0740   20.0380 C   0  0  0  0  0
   -3.8450   34.7600   19.3260 C   0  0  0  0  0
   -2.6720   35.6700   19.3850 C   0  0  0  0  0
   -2.7350   36.9050   20.1700 C   0  0  0  0  0
   -1.2210   37.2420   26.0070 N   0  0  0  0  0
   -1.9190   36.9000   27.3000 C   0  0  0  0  0
   -0.3070   33.8180   24.2730 C   0  0  0  0  0
   -1.6750   33.6690   23.6100 N   0  0  0  0  0
   -2.2300   34.9570   23.1190 C   0  0  0  0  0
   -2.4790   35.9600   24.2500 C   0  0  0  0  0
   -1.1100   36.2310   24.9270 C   0  0  0  0  0
   -0.4050   34.8710   25.4300 C   0  0  0  0  0
   -2.2910   32.3560   23.5110 C   0  0  0  0  0
   -5.1450   31.3170   20.9010 C   0  0  0  0  0
   -3.8670   31.4490   21.5610 C   0  0  0  0  0
   -3.6940   32.2360   22.8380 C   0  0  0  0  0
   -4.9050   32.8850   23.4090 C   0  0  0  0  0
   -6.2190   32.7900   22.7900 C   0  0  0  0  0
   -6.3570   31.9620   21.4620 C   0  0  0  0  0
   -7.7030   31.8690   20.8280 C   0  0  0  0  0
   -8.8580   32.5360   21.4370 C   0  0  0  0  0
   -8.7270   33.3190   22.6980 C   0  0  0  0  0
   -7.4320   33.4430   23.3610 C   0  0  0  0  0
   -5.0512   40.5632   20.5305 H   0  0  0  0  0
   -5.0902   41.1145   22.4821 H   0  0  0  0  0
   -2.1950   39.2488   21.0995 H   0  0  0  0  0
    1.8885   40.4512   20.0666 H   0  0  0  0  0
    4.4237   40.4693   20.2622 H   0  0  0  0  0
    5.5847   39.8274   22.4522 H   0  0  0  0  0
    4.2496   39.1615   24.4999 H   0  0  0  0  0
   -0.4039   40.0345   21.1893 H   0  0  0  0  0
    1.9462   38.7642   25.5951 H   0  0  0  0  0
   -7.2556   35.9165   21.5128 H   0  0  0  0  0
   -7.4879   38.0025   22.9021 H   0  0  0  0  0
   -5.5940   39.6199   23.0725 H   0  0  0  0  0
   -5.9021   34.3906   19.9781 H   0  0  0  0  0
   -3.7882   33.8447   18.7369 H   0  0  0  0  0
   -1.7612   35.4176   18.8421 H   0  0  0  0  0
   -1.8610   37.5558   20.1948 H   0  0  0  0  0
   -1.2218   37.0166   28.1297 H   0  0  0  0  0
   -2.7683   37.5685   27.4408 H   0  0  0  0  0
   -2.2695   35.8686   27.2605 H   0  0  0  0  0
    0.4219   34.1530   23.5351 H   0  0  0  0  0
    0.0084   32.8571   24.6795 H   0  0  0  0  0
   -3.1860   34.7490   22.6384 H   0  0  0  0  0
   -1.5040   35.3962   22.4348 H   0  0  0  0  0
   -3.1923   35.5592   24.9702 H   0  0  0  0  0
   -2.9049   36.8839   23.8587 H   0  0  0  0  0
   -0.4545   36.6553   24.1665 H   0  0  0  0  0
    0.6033   35.1081   25.7694 H   0  0  0  0  0
   -1.0048   34.4467   26.2352 H   0  0  0  0  0
   -5.2195   30.7373   19.9810 H   0  0  0  0  0
   -2.9960   30.9630   21.1214 H   0  0  0  0  0
   -4.8037   33.4568   24.3315 H   0  0  0  0  0
   -7.8293   31.3016   19.9059 H   0  0  0  0  0
   -9.8335   32.4574   20.9570 H   0  0  0  0  0
   -9.6039   33.8025   23.1284 H   0  0  0  0  0
   -7.3510   34.0189   24.2829 H   0  0  0  0  0
 39  1  2  0  0  0
  2  3  2  0  0  0
  2  4  1  0  0  0
  2  5  1  0  0  0
  6  2  1  0  0  0
  8  6  1  0  0  0
  6 24  1  0  0  0
  8  7  2  0  0  0
 16  8  1  0  0  0
  9 10  4  0  0  0
 14  9  4  0  0  0
 11 10  4  0  0  0
 12 11  4  0  0  0
 13 12  4  0  0  0
 13 14  4  0  0  0
 18 13  4  0  0  0
 15 14  4  0  0  0
 16 15  4  0  0  0
 17 16  4  0  0  0
 17 18  4  0  0  0
 20 17  1  0  0  0
 20 19  2  0  0  0
 31 20  1  0  0  0
 22 21  4  0  0  0
 26 21  4  0  0  0
 23 22  4  0  0  0
 24 23  4  0  0  0
 24 25  4  0  0  0
 25 26  4  0  0  0
 25 30  4  0  0  0
 26 27  4  0  0  0
 27 28  4  0  0  0
 29 28  4  0  0  0
 30 29  4  0  0  0
 31 32  1  0  0  0
 37 31  1  0  0  0
 34 33  1  0  0  0
 33 38  1  0  0  0
 34 35  1  0  0  0
 39 34  1  0  0  0
 35 36  1  0  0  0
 36 37  1  0  0  0
 38 37  1  0  0  0
 42 39  1  0  0  0
 41 40  4  0  0  0
 40 45  4  0  0  0
 41 42  4  0  0  0
 42 43  4  0  0  0
 43 44  4  0  0  0
 44 45  4  0  0  0
 44 49  4  0  0  0
 45 46  4  0  0  0
 46 47  4  0  0  0
 47 48  4  0  0  0
 48 49  4  0  0  0
  4 50  1  0  0  0
  5 51  1  0  0  0
  6 52  1  0  0  0
  9 53  1  0  0  0
 10 54  1  0  0  0
 11 55  1  0  0  0
 12 56  1  0  0  0
 15 57  1  0  0  0
 18 58  1  0  0  0
 21 59  1  0  0  0
 22 60  1  0  0  0
 23 61  1  0  0  0
 27 62  1  0  0  0
 28 63  1  0  0  0
 29 64  1  0  0  0
 30 65  1  0  0  0
 32 66  1  0  0  0
 32 67  1  0  0  0
 32 68  1  0  0  0
 33 69  1  0  0  0
 33 70  1  0  0  0
 35 71  1  0  0  0
 35 72  1  0  0  0
 36 73  1  0  0  0
 36 74  1  0  0  0
 37 75  1  0  0  0
 38 76  1  0  0  0
 38 77  1  0  0  0
 40 78  1  0  0  0
 41 79  1  0  0  0
 43 80  1  0  0  0
 46 81  1  0  0  0
 47 82  1  0  0  0
 48 83  1  0  0  0
 49 84  1  0  0  0
M  END
$$$$
