### 
### Created by X-TOOL on Mon Sep 10 21:13:20 2018
### 

@<TRIPOS>MOLECULE
3zmq_ligand
  102   103     1     0     0
SMALL
GAST_HUCK


@<TRIPOS>ATOM
      1 N           5.0660   -4.2640  -14.1280 N.4       1 GLU         0.2380
      2 CA          5.6250   -4.3570  -12.7930 C.3       1 GLU         0.0665
      3 C           6.3040   -3.0610  -12.4010 C.2       1 GLU         0.2268
      4 O           6.8490   -2.9360  -11.3160 O.2       1 GLU        -0.3907
      5 CB          6.6130   -5.5060  -12.7090 C.3       1 GLU         0.0194
      6 CG          6.5120   -6.2910  -11.4220 C.3       1 GLU         0.0075
      7 CD          7.5100   -5.8240  -10.3970 C.2       1 GLU         0.0351
      8 OE1         8.0750   -4.7340  -10.5790 O.co2     1 GLU        -0.5690
      9 OE2         7.7240   -6.5480   -9.4110 O.co2     1 GLU        -0.5690
     10 N           6.2510   -2.0870  -13.2900 N.am      1 ALA        -0.2613
     11 CA          6.7660   -0.7690  -12.9990 C.3       1 ALA         0.1283
     12 C           5.7520   -0.1150  -12.1070 C.2       1 ALA         0.2036
     13 O           4.7090   -0.6880  -11.8520 O.2       1 ALA        -0.3944
     14 CB          6.9450    0.0280  -14.2720 C.3       1 ALA        -0.0244
     15 N           6.0800    1.0480  -11.5720 N.am      1 GLN        -0.2636
     16 CA          5.1250    1.7860  -10.7680 C.3       1 GLN         0.1330
     17 C           4.6810    3.0590  -11.4720 C.2       1 GLN         0.2042
     18 O           5.4920    3.8650  -11.8900 O.2       1 GLN        -0.3944
     19 CB          5.7280    2.1190   -9.4080 C.3       1 GLN         0.0045
     20 CG          6.4860    0.9670   -8.7850 C.3       1 GLN         0.0412
     21 CD          7.7690    1.4160   -8.1480 C.2       1 GLN         0.1737
     22 OE1         8.8320    0.8730   -8.4190 O.2       1 GLN        -0.3973
     23 NE2         7.6780    2.4200   -7.2980 N.am      1 GLN        -0.3009
     24 N           3.3800    3.2380  -11.5920 N.am      1 FTY        -0.2612
     25 CA          2.8710    4.3890  -12.2390 C.3       1 FTY         0.1451
     26 C           3.3220    5.5240  -11.4270 C.2       1 FTY         0.2068
     27 O           3.7760    6.5610  -11.9460 O.2       1 FTY        -0.3941
     28 CB          1.3990    4.2950  -12.1230 C.3       1 FTY         0.0367
     29 CG          0.6400    5.3870  -12.7910 C.ar      1 FTY        -0.0068
     30 CD1         1.1190    6.6760  -12.9050 C.ar      1 FTY        -0.0280
     31 CD2        -0.6040    5.0810  -13.2960 C.ar      1 FTY        -0.0280
     32 CE1         0.3460    7.6420  -13.5340 C.ar      1 FTY        -0.0385
     33 CE2        -1.3740    6.0410  -13.9210 C.ar      1 FTY        -0.0385
     34 CZ         -0.8990    7.3210  -14.0390 C.ar      1 FTY         0.0219
     35 C1         -1.7260    8.3410  -14.6990 C.3       1 FTY         0.2931
     36 F1         -0.9300    9.1930  -15.2700 F         1 FTY        -0.2419
     37 F2         -2.5120    8.9390  -13.8410 F         1 FTY        -0.2419
     38 P          -2.7530    7.6430  -15.9810 P.3       1 FTY         0.0966
     39 O1P        -4.2520    7.7690  -15.6640 O.co2     1 FTY        -0.5668
     40 O2P        -2.4660    8.3870  -17.3090 O.co2     1 FTY        -0.5668
     41 O3P        -2.4170    6.2130  -16.1020 O.co2     1 FTY        -0.5668
     42 N           3.2490    5.3510  -10.1220 N.am      1 GLN        -0.2634
     43 CA          3.4610    6.4480   -9.2030 C.3       1 GLN         0.1332
     44 C           4.8720    6.9620   -9.3180 C.2       1 GLN         0.2061
     45 O           5.7870    6.2100   -9.6200 O.2       1 GLN        -0.3942
     46 CB          3.1800    6.0000   -7.7760 C.3       1 GLN         0.0045
     47 CG          1.7550    6.2570   -7.3300 C.3       1 GLN         0.0412
     48 CD          0.9810    4.9850   -7.1450 C.2       1 GLN         0.1737
     49 OE1        -0.2070    5.0090   -6.8570 O.2       1 GLN        -0.3973
     50 NE2         1.6550    3.8620   -7.3100 N.am      1 GLN        -0.3009
     51 N           5.0370    8.2640   -9.0980 N.am      1 PRO        -0.2531
     52 CA          6.3500    8.8840   -9.2320 C.3       1 PRO         0.1254
     53 C           7.2610    8.0800  -10.1520 C.2       1 PRO         0.2151
     54 O           8.3810    8.5130  -10.3990 O.co2     1 PRO        -0.4120
     55 CB          6.8700    8.8560   -7.7940 C.3       1 PRO        -0.0135
     56 CG          5.6370    8.8510   -6.9350 C.3       1 PRO        -0.0287
     57 CD          4.4320    8.6360   -7.8100 C.3       1 PRO         0.0363
     58 H           4.6202   -5.1359  -14.3671 H         1 GLU         0.2015
     59 H           5.8029   -4.0714  -14.7882 H         1 GLU         0.2015
     60 H           4.3863   -3.5202  -14.1566 H         1 GLU         0.2015
     61 H           4.8044   -4.5486  -12.0859 H         1 GLU         0.1099
     62 H           7.6310   -5.0971  -12.7891 H         1 GLU         0.0363
     63 H           6.4252   -6.1896  -13.5500 H         1 GLU         0.0363
     64 H           6.6963   -7.3536  -11.6387 H         1 GLU         0.0434
     65 H           5.4986   -6.1709  -11.0114 H         1 GLU         0.0434
     66 H           5.8448   -2.2655  -14.1862 H         1 ALA         0.1884
     67 H           7.7332   -0.8464  -12.4807 H         1 ALA         0.0797
     68 H           7.3372    1.0262  -14.0275 H         1 ALA         0.0277
     69 H           5.9749    0.1297  -14.7804 H         1 ALA         0.0277
     70 H           7.6531   -0.4922  -14.9338 H         1 ALA         0.0277
     71 H           6.9949    1.4225  -11.7229 H         1 GLN         0.1883
     72 H           4.2406    1.1509  -10.6118 H         1 GLN         0.0801
     73 H           4.9136    2.4083   -8.7275 H         1 GLN         0.0337
     74 H           6.4203    2.9648   -9.5318 H         1 GLN         0.0337
     75 H           6.7174    0.2296   -9.5678 H         1 GLN         0.0504
     76 H           5.8528    0.4996   -8.0166 H         1 GLN         0.0504
     77 H           8.4982    2.7643   -6.8412 H         1 GLN         0.1814
     78 H           6.7887    2.8371   -7.1101 H         1 GLN         0.1814
     79 H           2.7488    2.5557  -11.2232 H         1 FTY         0.1886
     80 H           3.2005    4.4691  -13.2854 H         1 FTY         0.0833
     81 H           1.1405    4.3055  -11.0539 H         1 FTY         0.0547
     82 H           1.0829    3.3397  -12.5673 H         1 FTY         0.0547
     83 H           2.0935    6.9327  -12.5056 H         1 FTY         0.0652
     84 H          -0.9845    4.0704  -13.2012 H         1 FTY         0.0652
     85 H           0.7215    8.6544  -13.6295 H         1 FTY         0.0835
     86 H          -2.3499    5.7837  -14.3166 H         1 FTY         0.0835
     87 H           3.0427    4.4421   -9.7597 H         1 GLN         0.1883
     88 H           2.7674    7.2621   -9.4602 H         1 GLN         0.0801
     89 H           3.8588    6.5419   -7.1011 H         1 GLN         0.0337
     90 H           3.3773    4.9202   -7.7051 H         1 GLN         0.0337
     91 H           1.2509    6.8709   -8.0909 H         1 GLN         0.0504
     92 H           1.7756    6.8013   -6.3743 H         1 GLN         0.0504
     93 H           1.1940    2.9814   -7.2000 H         1 GLN         0.1814
     94 H           2.6266    3.8919   -7.5450 H         1 GLN         0.1814
     95 H           6.2662    9.9145   -9.6076 H         1 PRO         0.0753
     96 O1          6.8702    6.9904  -10.6496 O.co2     1 PRO        -0.4120
     97 H           7.4820    9.7462   -7.5867 H         1 PRO         0.0307
     98 H           7.4684    7.9502   -7.6167 H         1 PRO         0.0307
     99 H           5.5468    9.8153   -6.4135 H         1 PRO         0.0286
    100 H           5.7056    8.0393   -6.1958 H         1 PRO         0.0286
    101 H           3.7971    7.8267   -7.4204 H         1 PRO         0.0524
    102 H           3.8374    9.5570   -7.9012 H         1 PRO         0.0524
@<TRIPOS>BOND
     1    1    2 1  
     2    2    3 1  
     3    2    5 1  
     4    3    4 2  
     5    3   10 am 
     6    5    6 1  
     7    6    7 1  
     8    7    8 ar 
     9    7    9 ar 
    10   10   11 1  
    11   11   12 1  
    12   11   14 1  
    13   12   13 2  
    14   12   15 am 
    15   15   16 1  
    16   16   17 1  
    17   16   19 1  
    18   17   18 2  
    19   17   24 am 
    20   19   20 1  
    21   20   21 1  
    22   21   22 2  
    23   21   23 am 
    24   24   25 1  
    25   25   26 1  
    26   25   28 1  
    27   26   27 2  
    28   26   42 am 
    29   28   29 1  
    30   29   30 ar 
    31   29   31 ar 
    32   30   32 ar 
    33   31   33 ar 
    34   32   34 ar 
    35   33   34 ar 
    36   34   35 1  
    37   35   36 1  
    38   35   37 1  
    39   35   38 1  
    40   38   39 ar 
    41   38   40 ar 
    42   38   41 ar 
    43   42   43 1  
    44   43   44 1  
    45   43   46 1  
    46   44   45 2  
    47   44   51 am 
    48   46   47 1  
    49   47   48 1  
    50   48   49 2  
    51   48   50 am 
    52   51   52 1  
    53   51   57 1  
    54   52   53 1  
    55   52   55 1  
    56   53   54 ar 
    57   55   56 1  
    58   56   57 1  
    59    1   58 1  
    60    1   59 1  
    61    1   60 1  
    62    2   61 1  
    63    5   62 1  
    64    5   63 1  
    65    6   64 1  
    66    6   65 1  
    67   10   66 1  
    68   11   67 1  
    69   14   68 1  
    70   14   69 1  
    71   14   70 1  
    72   15   71 1  
    73   16   72 1  
    74   19   73 1  
    75   19   74 1  
    76   20   75 1  
    77   20   76 1  
    78   23   77 1  
    79   23   78 1  
    80   24   79 1  
    81   25   80 1  
    82   28   81 1  
    83   28   82 1  
    84   30   83 1  
    85   31   84 1  
    86   32   85 1  
    87   33   86 1  
    88   42   87 1  
    89   43   88 1  
    90   46   89 1  
    91   46   90 1  
    92   47   91 1  
    93   47   92 1  
    94   50   93 1  
    95   50   94 1  
    96   52   95 1  
    97   53   96 ar 
    98   55   97 1  
    99   55   98 1  
   100   56   99 1  
   101   56  100 1  
   102   57  101 1  
   103   57  102 1  
@<TRIPOS>SUBSTRUCTURE
     1 GLU         1

