3zmq_ligand
  -I-interpret- 

106107  0  0  0  0  0  0  0  0999 V2000
    5.0660   -4.2640  -14.1280 N   0  3  0  0  0
    5.6250   -4.3570  -12.7930 C   0  0  0  0  0
    6.3040   -3.0610  -12.4010 C   0  0  0  0  0
    6.8490   -2.9360  -11.3160 O   0  0  0  0  0
    6.6130   -5.5060  -12.7090 C   0  0  0  0  0
    6.5120   -6.2910  -11.4220 C   0  0  0  0  0
    7.5100   -5.8240  -10.3970 C   0  0  0  0  0
    8.0750   -4.7340  -10.5790 O   0  0  0  0  0
    7.7240   -6.5480   -9.4110 O   0  0  0  0  0
    6.2510   -2.0870  -13.2900 N   0  0  0  0  0
    6.7660   -0.7690  -12.9990 C   0  0  0  0  0
    5.7520   -0.1150  -12.1070 C   0  0  0  0  0
    4.7090   -0.6880  -11.8520 O   0  0  0  0  0
    6.9450    0.0280  -14.2720 C   0  0  0  0  0
    6.0800    1.0480  -11.5720 N   0  0  0  0  0
    5.1250    1.7860  -10.7680 C   0  0  0  0  0
    4.6810    3.0590  -11.4720 C   0  0  0  0  0
    5.4920    3.8650  -11.8900 O   0  0  0  0  0
    5.7280    2.1190   -9.4080 C   0  0  0  0  0
    6.4860    0.9670   -8.7850 C   0  0  0  0  0
    7.7690    1.4160   -8.1480 C   0  0  0  0  0
    8.8320    0.8730   -8.4190 O   0  0  0  0  0
    7.6780    2.4200   -7.2980 N   0  0  0  0  0
    3.3800    3.2380  -11.5920 N   0  0  0  0  0
    2.8710    4.3890  -12.2390 C   0  0  0  0  0
    3.3220    5.5240  -11.4270 C   0  0  0  0  0
    3.7760    6.5610  -11.9460 O   0  0  0  0  0
    1.3990    4.2950  -12.1230 C   0  0  0  0  0
    0.6400    5.3870  -12.7910 C   0  0  0  0  0
    1.1190    6.6760  -12.9050 C   0  0  0  0  0
   -0.6040    5.0810  -13.2960 C   0  0  0  0  0
    0.3460    7.6420  -13.5340 C   0  0  0  0  0
   -1.3740    6.0410  -13.9210 C   0  0  0  0  0
   -0.8990    7.3210  -14.0390 C   0  0  0  0  0
   -1.7260    8.3410  -14.6990 C   0  0  0  0  0
   -0.9300    9.1930  -15.2700 F   0  0  0  0  0
   -2.5120    8.9390  -13.8410 F   0  0  0  0  0
   -2.7530    7.6430  -15.9810 P   0  0  0  0  0
   -4.2520    7.7690  -15.6640 O   0  0  0  0  0
   -2.4660    8.3870  -17.3090 O   0  0  0  0  0
   -2.4170    6.2130  -16.1020 O   0  0  0  0  0
    3.2490    5.3510  -10.1220 N   0  0  0  0  0
    3.4610    6.4480   -9.2030 C   0  0  0  0  0
    4.8720    6.9620   -9.3180 C   0  0  0  0  0
    5.7870    6.2100   -9.6200 O   0  0  0  0  0
    3.1800    6.0000   -7.7760 C   0  0  0  0  0
    1.7550    6.2570   -7.3300 C   0  0  0  0  0
    0.9810    4.9850   -7.1450 C   0  0  0  0  0
   -0.2070    5.0090   -6.8570 O   0  0  0  0  0
    1.6550    3.8620   -7.3100 N   0  0  0  0  0
    5.0370    8.2640   -9.0980 N   0  0  0  0  0
    6.3500    8.8840   -9.2320 C   0  0  0  0  0
    7.2610    8.0800  -10.1520 C   0  0  0  0  0
    8.3810    8.5130  -10.3990 O   0  0  0  0  0
    6.8700    8.8560   -7.7940 C   0  0  0  0  0
    5.6370    8.8510   -6.9350 C   0  0  0  0  0
    4.4320    8.6360   -7.8100 C   0  0  0  0  0
    6.8702    6.9904  -10.6496 O   0  0  0  0  0
    4.4054   -3.4877  -14.1654 H   0  0  0  0  0
    5.8172   -4.1055  -14.7996 H   0  0  0  0  0
    4.5836   -5.1337  -14.3547 H   0  0  0  0  0
    4.8065   -4.5435  -12.0977 H   0  0  0  0  0
    7.6157   -5.0814  -12.7571 H   0  0  0  0  0
    6.3927   -6.1895  -13.5290 H   0  0  0  0  0
    6.7167   -7.3382  -11.6446 H   0  0  0  0  0
    5.5116   -6.1483  -11.0134 H   0  0  0  0  0
    7.1826   -7.3384   -9.4723 H   0  0  0  0  0
    5.8367   -2.2691  -14.2041 H   0  0  0  0  0
    7.7433   -0.8229  -12.5193 H   0  0  0  0  0
    7.6468   -0.4885  -14.9269 H   0  0  0  0  0
    5.9831    0.1280  -14.7748 H   0  0  0  0  0
    7.3337    1.0168  -14.0285 H   0  0  0  0  0
    7.0132    1.4300  -11.7259 H   0  0  0  0  0
    4.2470    1.1564  -10.6238 H   0  0  0  0  0
    4.9059    2.3705   -8.7380 H   0  0  0  0  0
    6.4353    2.9354   -9.5544 H   0  0  0  0  0
    6.7283    0.2532   -9.5724 H   0  0  0  0  0
    5.8582    0.5249   -8.0114 H   0  0  0  0  0
    8.5154    2.7746   -6.8360 H   0  0  0  0  0
    6.7702    2.8421   -7.1025 H   0  0  0  0  0
    2.7362    2.5420  -11.2159 H   0  0  0  0  0
    3.1837    4.4873  -13.2785 H   0  0  0  0  0
    1.1642    4.3553  -11.0603 H   0  0  0  0  0
    1.1052    3.3657  -12.6110 H   0  0  0  0  0
    2.0989    6.9341  -12.5034 H   0  0  0  0  0
   -0.9866    4.0648  -13.2007 H   0  0  0  0  0
    0.7236    8.6600  -13.6301 H   0  0  0  0  0
   -2.3553    5.7822  -14.3188 H   0  0  0  0  0
   -4.4838    8.6970  -15.5826 H   0  0  0  0  0
   -2.6909    9.3150  -17.2097 H   0  0  0  0  0
    3.0386    4.4239   -9.7524 H   0  0  0  0  0
    2.7742    7.2547   -9.4594 H   0  0  0  0  0
    3.8364    6.5704   -7.1188 H   0  0  0  0  0
    3.3475    4.9238   -7.7320 H   0  0  0  0  0
    1.2593    6.8465   -8.1013 H   0  0  0  0  0
    1.7878    6.7764   -6.3723 H   0  0  0  0  0
    1.1849    2.9638   -7.1974 H   0  0  0  0  0
    2.6459    3.8925   -7.5501 H   0  0  0  0  0
    6.3117    9.8806   -9.6718 H   0  0  0  0  0
    7.5090    9.7124   -7.5786 H   0  0  0  0  0
    7.4959    7.9833   -7.6076 H   0  0  0  0  0
    5.5478    9.8043   -6.4140 H   0  0  0  0  0
    5.7047    8.0498   -6.1990 H   0  0  0  0  0
    3.7522    7.8773   -7.4222 H   0  0  0  0  0
    3.7905    9.5146   -7.8772 H   0  0  0  0  0
    5.9763    6.8064  -10.3520 H   0  0  0  0  0
  1  2  1  0  0  0
  2  3  1  0  0  0
  2  5  1  0  0  0
  3  4  2  0  0  0
  3 10  1  0  0  0
  5  6  1  0  0  0
  6  7  1  0  0  0
  7  8  2  0  0  0
  7  9  1  0  0  0
 10 11  1  0  0  0
 11 12  1  0  0  0
 11 14  1  0  0  0
 12 13  2  0  0  0
 12 15  1  0  0  0
 15 16  1  0  0  0
 16 17  1  0  0  0
 16 19  1  0  0  0
 17 18  2  0  0  0
 17 24  1  0  0  0
 19 20  1  0  0  0
 20 21  1  0  0  0
 21 22  2  0  0  0
 21 23  1  0  0  0
 24 25  1  0  0  0
 25 26  1  0  0  0
 25 28  1  0  0  0
 26 27  2  0  0  0
 26 42  1  0  0  0
 28 29  1  0  0  0
 29 30  4  0  0  0
 29 31  4  0  0  0
 30 32  4  0  0  0
 31 33  4  0  0  0
 32 34  4  0  0  0
 33 34  4  0  0  0
 34 35  1  0  0  0
 35 36  1  0  0  0
 35 37  1  0  0  0
 35 38  1  0  0  0
 38 39  1  0  0  0
 38 40  1  0  0  0
 38 41  2  0  0  0
 42 43  1  0  0  0
 43 44  1  0  0  0
 43 46  1  0  0  0
 44 45  2  0  0  0
 44 51  1  0  0  0
 46 47  1  0  0  0
 47 48  1  0  0  0
 48 49  2  0  0  0
 48 50  1  0  0  0
 51 52  1  0  0  0
 51 57  1  0  0  0
 52 53  1  0  0  0
 52 55  1  0  0  0
 53 54  2  0  0  0
 55 56  1  0  0  0
 56 57  1  0  0  0
 53 58  1  0  0  0
  1 59  1  0  0  0
  1 60  1  0  0  0
  1 61  1  0  0  0
  2 62  1  0  0  0
  5 63  1  0  0  0
  5 64  1  0  0  0
  6 65  1  0  0  0
  6 66  1  0  0  0
  9 67  1  0  0  0
 10 68  1  0  0  0
 11 69  1  0  0  0
 14 70  1  0  0  0
 14 71  1  0  0  0
 14 72  1  0  0  0
 15 73  1  0  0  0
 16 74  1  0  0  0
 19 75  1  0  0  0
 19 76  1  0  0  0
 20 77  1  0  0  0
 20 78  1  0  0  0
 23 79  1  0  0  0
 23 80  1  0  0  0
 24 81  1  0  0  0
 25 82  1  0  0  0
 28 83  1  0  0  0
 28 84  1  0  0  0
 30 85  1  0  0  0
 31 86  1  0  0  0
 32 87  1  0  0  0
 33 88  1  0  0  0
 39 89  1  0  0  0
 40 90  1  0  0  0
 42 91  1  0  0  0
 43 92  1  0  0  0
 46 93  1  0  0  0
 46 94  1  0  0  0
 47 95  1  0  0  0
 47 96  1  0  0  0
 50 97  1  0  0  0
 50 98  1  0  0  0
 52 99  1  0  0  0
 55100  1  0  0  0
 55101  1  0  0  0
 56102  1  0  0  0
 56103  1  0  0  0
 57104  1  0  0  0
 57105  1  0  0  0
 58106  1  0  0  0
M  END
$$$$
