5oje_ligand
  -I-interpret- 

 53 55  0  0  0  0  0  0  0  0999 V2000
   -1.7430    0.0250   10.1140 C   0  0  0  0  0
    0.5080    3.6470    9.4120 C   0  0  0  0  0
   -0.1750    5.0040    9.5410 C   0  0  0  0  0
   -1.7380    6.5930    8.5580 C   0  0  0  0  0
   -1.4170    7.5450    7.4270 C   0  0  0  0  0
   -2.3590    8.7200    7.5590 C   0  0  0  0  0
   -3.6340    8.6610    6.9770 C   0  0  0  0  0
   -4.5030    9.7400    7.1390 C   0  0  0  0  0
   -4.1420   10.8700    7.8520 C   0  0  0  0  0
   -2.8810   10.9070    8.4230 C   0  0  0  0  0
   -1.9790    9.8520    8.2970 C   0  0  0  0  0
   -2.1140    1.3190   10.4960 C   0  0  0  0  0
   -0.6190    9.9630    8.9490 C   0  0  0  0  0
   -5.0960   12.0320    8.0020 C   0  0  0  0  0
   -4.0940    7.4540    6.1910 C   0  0  0  0  0
   -3.4760    1.5920   10.7390 C   0  0  0  0  0
   -4.4650    0.6180   10.6180 C   0  0  0  0  0
   -4.0610   -0.6480   10.2560 C   0  0  0  0  0
   -2.7190   -0.9400   10.0070 C   0  0  0  0  0
   -2.3260    3.4710   11.0820 C   0  0  0  0  0
   -1.3940    2.5450   10.7110 C   0  0  0  0  0
    0.0860    2.7460   10.5800 C   0  0  0  0  0
   -3.5790    2.9130   11.0900 N   0  0  0  0  0
    1.9730    3.9030    9.4790 N   0  3  0  0  0
   -0.9480    5.3710    8.5180 N   0  0  0  0  0
   -0.0060    5.6940   10.5460 O   0  0  0  0  0
   -0.7004   -0.2145    9.9050 H   0  0  0  0  0
    0.2351    3.1507    8.4807 H   0  0  0  0  0
   -2.7872    6.3121    8.4665 H   0  0  0  0  0
   -1.5116    7.1030    9.4943 H   0  0  0  0  0
   -1.5442    7.0547    6.4618 H   0  0  0  0  0
   -0.3793    7.8740    7.4821 H   0  0  0  0  0
   -5.4955    9.6918    6.6909 H   0  0  0  0  0
   -2.5842   11.7898    8.9893 H   0  0  0  0  0
   -0.4934    9.1508    9.6650 H   0  0  0  0  0
    0.1553    9.8982    8.1846 H   0  0  0  0  0
   -0.5422   10.9197    9.4656 H   0  0  0  0  0
   -5.3484   12.4228    7.0163 H   0  0  0  0  0
   -6.0028   11.6936    8.5032 H   0  0  0  0  0
   -4.6226   12.8150    8.5943 H   0  0  0  0  0
   -3.4278    7.2992    5.3423 H   0  0  0  0  0
   -4.0753    6.5743    6.8344 H   0  0  0  0  0
   -5.1094    7.6214    5.8317 H   0  0  0  0  0
   -5.5144    0.8483   10.8021 H   0  0  0  0  0
   -4.8052   -1.4388   10.1620 H   0  0  0  0  0
   -2.4378   -1.9537    9.7217 H   0  0  0  0  0
   -2.1055    4.5078   11.3361 H   0  0  0  0  0
    0.4229    3.2331   11.4951 H   0  0  0  0  0
    0.5253    1.7649   10.3995 H   0  0  0  0  0
    2.2482    4.5021    8.7007 H   0  0  0  0  0
    2.1963    4.3648   10.3606 H   0  0  0  0  0
    2.4748    3.0168    9.4214 H   0  0  0  0  0
   -0.9866    4.7808    7.6870 H   0  0  0  0  0
 12  1  4  0  0  0
  1 19  4  0  0  0
  2  3  1  0  0  0
 22  2  1  0  0  0
  2 24  1  0  0  0
  3 25  1  0  0  0
  3 26  2  0  0  0
  4  5  1  0  0  0
 25  4  1  0  0  0
  5  6  1  0  0  0
  6  7  4  0  0  0
  6 11  4  0  0  0
  7  8  4  0  0  0
  7 15  1  0  0  0
  8  9  4  0  0  0
 10  9  4  0  0  0
  9 14  1  0  0  0
 11 10  4  0  0  0
 11 13  1  0  0  0
 12 16  4  0  0  0
 21 12  4  0  0  0
 16 17  4  0  0  0
 23 16  4  0  0  0
 17 18  4  0  0  0
 19 18  4  0  0  0
 21 20  4  0  0  0
 20 23  4  0  0  0
 21 22  1  0  0  0
  1 27  1  0  0  0
  2 28  1  0  0  0
  4 29  1  0  0  0
  4 30  1  0  0  0
  5 31  1  0  0  0
  5 32  1  0  0  0
  8 33  1  0  0  0
 10 34  1  0  0  0
 13 35  1  0  0  0
 13 36  1  0  0  0
 13 37  1  0  0  0
 14 38  1  0  0  0
 14 39  1  0  0  0
 14 40  1  0  0  0
 15 41  1  0  0  0
 15 42  1  0  0  0
 15 43  1  0  0  0
 17 44  1  0  0  0
 18 45  1  0  0  0
 19 46  1  0  0  0
 20 47  1  0  0  0
 22 48  1  0  0  0
 22 49  1  0  0  0
 24 50  1  0  0  0
 24 51  1  0  0  0
 24 52  1  0  0  0
 25 53  1  0  0  0
M  END
$$$$
