3k5g_ligand
  -I-interpret- 

 93 96  0  0  0  0  0  0  0  0999 V2000
   27.6370    8.2520   19.5530 N   0  0  0  0  0
   28.5930    9.3660   19.2720 C   0  0  0  0  0
   29.7890    9.5810   20.2450 C   0  0  0  0  0
   30.4600    8.2180   20.5230 C   0  0  0  0  0
   29.4070    7.2850   21.1720 C   0  0  0  0  0
   28.0530    7.2720   20.4590 C   0  0  0  0  0
   27.3750    6.3040   20.7620 O   0  0  0  0  0
   26.2700    8.1580   18.8900 C   0  0  0  0  0
   26.2680    6.8450   17.9980 C   0  0  0  0  0
   27.4310    6.8230   16.9450 C   0  0  0  0  0
   27.5270    5.5230   16.1050 C   0  0  0  0  0
   26.1260    5.1630   15.4930 C   0  0  0  0  0
   25.0420    5.0610   16.6010 C   0  0  0  0  0
   24.9010    6.4230   17.3500 C   0  0  0  0  0
   28.6210    5.7200   15.0800 C   0  0  0  0  0
   28.3560    5.9510   13.9040 O   0  0  0  0  0
   29.9080    5.6310   15.5430 N   0  0  0  0  0
   31.1040    5.7940   14.7090 C   0  0  0  0  0
   31.7840    4.4230   14.4310 C   0  0  0  0  0
   32.9750    4.5940   13.6490 O   0  0  0  0  0
   30.8440    3.4930   13.6170 C   0  0  0  0  0
   31.5050    2.2430   13.1800 N   0  3  0  0  0
   30.7800    1.4800   12.1190 C   0  0  0  0  0
   30.7080    2.2840   10.7970 C   0  0  0  0  0
   31.8860    2.7240   10.1500 C   0  0  0  0  0
   31.8370    3.4630    8.9350 C   0  0  0  0  0
   30.5690    3.7540    8.3730 C   0  0  0  0  0
   29.3790    3.3170    9.0130 C   0  0  0  0  0
   29.4450    2.5830   10.2200 C   0  0  0  0  0
   33.1400    3.9240    8.2400 C   0  0  0  0  0
   33.6320    5.2620    8.8310 C   0  0  0  0  0
   34.2950    2.8890    8.2110 C   0  0  0  0  0
   32.0740    6.7870   15.4350 C   0  0  0  0  0
   31.5320    8.1840   15.7920 C   0  0  0  0  0
   30.4350    8.7880   15.1050 C   0  0  0  0  0
   29.9820   10.0820   15.4740 C   0  0  0  0  0
   30.6180   10.7780   16.5280 C   0  0  0  0  0
   31.7090   10.1870   17.2170 C   0  0  0  0  0
   32.1590    8.8950   16.8490 C   0  0  0  0  0
   25.9590    9.4170   17.9870 C   0  0  0  0  0
   25.0780    8.2000   19.9150 C   0  0  0  0  0
   27.9988   10.2769   19.3450 H   0  0  0  0  0
   29.0470    9.1170   18.3128 H   0  0  0  0  0
   29.4304   10.0123   21.1796 H   0  0  0  0  0
   30.5115   10.2622   19.7955 H   0  0  0  0  0
   31.3099    8.3479   21.1930 H   0  0  0  0  0
   30.8245    7.7825   19.5926 H   0  0  0  0  0
   29.2334    7.6518   22.1836 H   0  0  0  0  0
   29.8042    6.2711   21.1248 H   0  0  0  0  0
   26.4503    6.0691   18.7415 H   0  0  0  0  0
   28.3635    6.9076   17.5031 H   0  0  0  0  0
   27.2390    7.6369   16.2459 H   0  0  0  0  0
   27.7952    4.6621   16.7173 H   0  0  0  0  0
   26.2023    4.1992   14.9895 H   0  0  0  0  0
   25.8381    5.9485   14.7943 H   0  0  0  0  0
   25.3352    4.2915   17.3151 H   0  0  0  0  0
   24.0867    4.8078   16.1412 H   0  0  0  0  0
   24.5990    7.1884   16.6351 H   0  0  0  0  0
   24.1558    6.3159   18.1382 H   0  0  0  0  0
   30.0436    5.4382   16.5354 H   0  0  0  0  0
   30.8291    6.2028   13.7367 H   0  0  0  0  0
   32.0158    3.9851   15.4019 H   0  0  0  0  0
   33.3776    3.7372   13.4896 H   0  0  0  0  0
   30.5331    4.0344   12.7235 H   0  0  0  0  0
   30.0082    3.2194   14.2609 H   0  0  0  0  0
   31.5536    1.6351   13.9976 H   0  0  0  0  0
   32.4068    2.5101   12.7853 H   0  0  0  0  0
   29.7640    1.2870   12.4634 H   0  0  0  0  0
   31.3179    0.5508   11.9310 H   0  0  0  0  0
   32.8546    2.4915   10.5926 H   0  0  0  0  0
   30.5066    4.3177    7.4422 H   0  0  0  0  0
   28.4096    3.5485    8.5716 H   0  0  0  0  0
   28.5290    2.2476   10.7063 H   0  0  0  0  0
   32.8560    4.0501    7.1952 H   0  0  0  0  0
   32.8669    6.0248    8.6864 H   0  0  0  0  0
   33.8261    5.1376    9.8963 H   0  0  0  0  0
   34.5492    5.5653    8.3262 H   0  0  0  0  0
   34.5713    2.6261    9.2321 H   0  0  0  0  0
   33.9669    1.9951    7.6804 H   0  0  0  0  0
   35.1555    3.3210    7.7001 H   0  0  0  0  0
   32.8912    6.9611   14.7350 H   0  0  0  0  0
   32.3153    6.3153   16.3876 H   0  0  0  0  0
   29.9430    8.2526   14.2930 H   0  0  0  0  0
   29.1450   10.5384   14.9455 H   0  0  0  0  0
   30.2694   11.7709   16.8120 H   0  0  0  0  0
   32.1996   10.7259   18.0275 H   0  0  0  0  0
   32.9948    8.4424   17.3826 H   0  0  0  0  0
   26.7214    9.5046   17.2129 H   0  0  0  0  0
   24.9802    9.2967   17.5228 H   0  0  0  0  0
   25.9617   10.3151   18.6047 H   0  0  0  0  0
   24.1330    8.1664   19.3729 H   0  0  0  0  0
   25.1453    7.3421   20.5840 H   0  0  0  0  0
   25.1324    9.1206   20.4961 H   0  0  0  0  0
  1  2  1  0  0  0
  1  6  1  0  0  0
  1  8  1  0  0  0
  2  3  1  0  0  0
  3  4  1  0  0  0
  4  5  1  0  0  0
  5  6  1  0  0  0
  6  7  2  0  0  0
  8  9  1  0  0  0
  8 40  1  0  0  0
  8 41  1  0  0  0
  9 10  1  0  0  0
  9 14  1  0  0  0
 10 11  1  0  0  0
 11 12  1  0  0  0
 11 15  1  0  0  0
 12 13  1  0  0  0
 13 14  1  0  0  0
 15 16  2  0  0  0
 15 17  1  0  0  0
 17 18  1  0  0  0
 18 19  1  0  0  0
 18 33  1  0  0  0
 19 20  1  0  0  0
 19 21  1  0  0  0
 21 22  1  0  0  0
 22 23  1  0  0  0
 23 24  1  0  0  0
 24 25  4  0  0  0
 24 29  4  0  0  0
 25 26  4  0  0  0
 26 27  4  0  0  0
 26 30  1  0  0  0
 27 28  4  0  0  0
 28 29  4  0  0  0
 30 31  1  0  0  0
 30 32  1  0  0  0
 33 34  1  0  0  0
 34 35  4  0  0  0
 34 39  4  0  0  0
 35 36  4  0  0  0
 36 37  4  0  0  0
 37 38  4  0  0  0
 38 39  4  0  0  0
  2 42  1  0  0  0
  2 43  1  0  0  0
  3 44  1  0  0  0
  3 45  1  0  0  0
  4 46  1  0  0  0
  4 47  1  0  0  0
  5 48  1  0  0  0
  5 49  1  0  0  0
  9 50  1  0  0  0
 10 51  1  0  0  0
 10 52  1  0  0  0
 11 53  1  0  0  0
 12 54  1  0  0  0
 12 55  1  0  0  0
 13 56  1  0  0  0
 13 57  1  0  0  0
 14 58  1  0  0  0
 14 59  1  0  0  0
 17 60  1  0  0  0
 18 61  1  0  0  0
 19 62  1  0  0  0
 20 63  1  0  0  0
 21 64  1  0  0  0
 21 65  1  0  0  0
 22 66  1  0  0  0
 22 67  1  0  0  0
 23 68  1  0  0  0
 23 69  1  0  0  0
 25 70  1  0  0  0
 27 71  1  0  0  0
 28 72  1  0  0  0
 29 73  1  0  0  0
 30 74  1  0  0  0
 31 75  1  0  0  0
 31 76  1  0  0  0
 31 77  1  0  0  0
 32 78  1  0  0  0
 32 79  1  0  0  0
 32 80  1  0  0  0
 33 81  1  0  0  0
 33 82  1  0  0  0
 35 83  1  0  0  0
 36 84  1  0  0  0
 37 85  1  0  0  0
 38 86  1  0  0  0
 39 87  1  0  0  0
 40 88  1  0  0  0
 40 89  1  0  0  0
 40 90  1  0  0  0
 41 91  1  0  0  0
 41 92  1  0  0  0
 41 93  1  0  0  0
M  END
$$$$
