4fod_ligand
  -I-interpret- 

 87 91  0  0  0  0  0  0  0  0999 V2000
   14.6190   11.9760    9.0930 C   0  0  0  0  0
   16.1270   11.8150    9.3280 C   0  0  0  0  0
   16.4060   11.3540   10.7510 C   0  0  0  0  0
   16.6650   10.8250    8.3620 N   0  0  0  0  0
   17.5280   11.1660    7.4000 C   0  0  0  0  0
   17.9350   12.3100    7.2210 O   0  0  0  0  0
   17.9770   10.0200    6.4760 C   0  0  0  0  0
   19.0060   10.5160    5.4330 C   0  0  0  0  0
   20.4390   10.6480    5.9780 C   0  0  0  0  0
   18.5120    8.8580    7.3200 C   0  0  0  0  0
   19.9360    9.1120    7.8310 C   0  0  0  0  0
   20.8910    9.3650    6.6600 C   0  0  0  0  0
   22.2830    9.4600    7.1760 N   0  0  0  0  0
   23.2470    8.5550    6.9690 C   0  0  0  0  0
   23.3000    7.3460    6.2640 C   0  0  0  0  0
   24.4800    6.6020    6.2280 C   0  0  0  0  0
   24.5480    5.2730    5.4500 C   0  0  0  0  0
   24.4330    4.1140    6.3520 N   0  3  0  0  0
   25.4840    4.1440    7.3870 C   0  0  0  0  0
   25.3250    2.9490    8.3330 C   0  0  0  0  0
   24.5460    2.8760    5.5510 C   0  0  0  0  0
   24.4130    1.6290    6.4330 C   0  0  0  0  0
   25.4480    1.6410    7.5540 C   0  0  0  0  0
   25.3060    0.4140    8.4560 C   0  0  0  0  0
   23.9010    0.3630    9.0590 C   0  0  0  0  0
   26.3400    0.4670    9.5700 C   0  0  0  0  0
   25.5440   -0.7500    7.6370 O   0  0  0  0  0
   25.6080    7.0740    6.8950 C   0  0  0  0  0
   25.5500    8.2800    7.5920 C   0  0  0  0  0
   24.3720    9.0220    7.6370 C   0  0  0  0  0
   24.0540   10.1890    8.2260 N   0  0  0  0  0
   22.7810   10.4460    7.9250 C   0  0  0  0  0
   22.1000   11.5010    8.3620 N   0  0  0  0  0
   22.6930   12.3480    9.2130 C   0  0  0  0  0
   23.8690   12.2670    9.5720 O   0  0  0  0  0
   21.7920   13.4450    9.7610 C   0  0  0  0  0
   20.4870   13.5880    9.2990 C   0  0  0  0  0
   19.6770   14.5830    9.8330 C   0  0  0  0  0
   20.1670   15.4150   10.8300 C   0  0  0  0  0
   19.3870   16.3740   11.3570 F   0  0  0  0  0
   21.4630   15.2630   11.2980 C   0  0  0  0  0
   22.2730   14.2700   10.7710 C   0  0  0  0  0
   14.4464   12.3246    8.0748 H   0  0  0  0  0
   14.1254   11.0151    9.2380 H   0  0  0  0  0
   14.2179   12.7023    9.7999 H   0  0  0  0  0
   16.6138   12.7792    9.1818 H   0  0  0  0  0
   15.9273   10.3894   10.9195 H   0  0  0  0  0
   17.4820   11.2573   10.8959 H   0  0  0  0  0
   16.0079   12.0863   11.4534 H   0  0  0  0  0
   16.3663    9.8524    8.4346 H   0  0  0  0  0
   17.1196    9.6556    5.9102 H   0  0  0  0  0
   18.6893   11.5092    5.1145 H   0  0  0  0  0
   19.0328    9.7789    4.6305 H   0  0  0  0  0
   20.4591   11.4557    6.7096 H   0  0  0  0  0
   21.1101   10.8528    5.1439 H   0  0  0  0  0
   18.5334    7.9674    6.6919 H   0  0  0  0  0
   17.8594    8.7417    8.1852 H   0  0  0  0  0
   20.2759    8.2346    8.3812 H   0  0  0  0  0
   19.9284    9.9899    8.4770 H   0  0  0  0  0
   20.8742    8.5524    5.9338 H   0  0  0  0  0
   22.4149    6.9843    5.7407 H   0  0  0  0  0
   25.5098    5.2199    4.9400 H   0  0  0  0  0
   23.7193    5.2439    4.7425 H   0  0  0  0  0
   23.5292    4.1453    6.8237 H   0  0  0  0  0
   25.3965    5.0676    7.9592 H   0  0  0  0  0
   26.4610    4.0926    6.9065 H   0  0  0  0  0
   24.3426    2.9938    8.8030 H   0  0  0  0  0
   26.1066    2.9877    9.0918 H   0  0  0  0  0
   25.5252    2.8601    5.0724 H   0  0  0  0  0
   23.7447    2.8660    4.8122 H   0  0  0  0  0
   24.5749    0.7450    5.8163 H   0  0  0  0  0
   23.4171    1.6179    6.8759 H   0  0  0  0  0
   26.4486    1.5866    7.1251 H   0  0  0  0  0
   23.7273    1.2629    9.6490 H   0  0  0  0  0
   23.1648    0.3049    8.2573 H   0  0  0  0  0
   23.8133   -0.5151    9.6989 H   0  0  0  0  0
   27.3397    0.4806    9.1358 H   0  0  0  0  0
   26.1877    1.3689   10.1628 H   0  0  0  0  0
   26.2311   -0.4107   10.2071 H   0  0  0  0  0
   25.4621   -1.5407    8.1752 H   0  0  0  0  0
   26.5350    6.5011    6.8720 H   0  0  0  0  0
   26.4373    8.6468    8.1080 H   0  0  0  0  0
   21.1412   11.6626    8.0540 H   0  0  0  0  0
   20.1031   12.9245    8.5241 H   0  0  0  0  0
   18.6574   14.7099    9.4690 H   0  0  0  0  0
   21.8436   15.9225   12.0780 H   0  0  0  0  0
   23.2868   14.1359   11.1482 H   0  0  0  0  0
  1  2  1  0  0  0
  2  3  1  0  0  0
  2  4  1  0  0  0
  4  5  1  0  0  0
  5  6  2  0  0  0
  5  7  1  0  0  0
  7  8  1  0  0  0
  7 10  1  0  0  0
  8  9  1  0  0  0
  9 12  1  0  0  0
 10 11  1  0  0  0
 11 12  1  0  0  0
 12 13  1  0  0  0
 13 14  4  0  0  0
 13 32  4  0  0  0
 14 15  4  0  0  0
 14 30  4  0  0  0
 15 16  4  0  0  0
 16 17  1  0  0  0
 16 28  4  0  0  0
 17 18  1  0  0  0
 18 19  1  0  0  0
 18 21  1  0  0  0
 19 20  1  0  0  0
 20 23  1  0  0  0
 21 22  1  0  0  0
 22 23  1  0  0  0
 23 24  1  0  0  0
 24 25  1  0  0  0
 24 26  1  0  0  0
 24 27  1  0  0  0
 28 29  4  0  0  0
 29 30  4  0  0  0
 30 31  4  0  0  0
 31 32  4  0  0  0
 32 33  1  0  0  0
 33 34  1  0  0  0
 34 35  2  0  0  0
 34 36  1  0  0  0
 36 37  4  0  0  0
 36 42  4  0  0  0
 37 38  4  0  0  0
 38 39  4  0  0  0
 39 40  1  0  0  0
 39 41  4  0  0  0
 41 42  4  0  0  0
  1 43  1  0  0  0
  1 44  1  0  0  0
  1 45  1  0  0  0
  2 46  1  0  0  0
  3 47  1  0  0  0
  3 48  1  0  0  0
  3 49  1  0  0  0
  4 50  1  0  0  0
  7 51  1  0  0  0
  8 52  1  0  0  0
  8 53  1  0  0  0
  9 54  1  0  0  0
  9 55  1  0  0  0
 10 56  1  0  0  0
 10 57  1  0  0  0
 11 58  1  0  0  0
 11 59  1  0  0  0
 12 60  1  0  0  0
 15 61  1  0  0  0
 17 62  1  0  0  0
 17 63  1  0  0  0
 18 64  1  0  0  0
 19 65  1  0  0  0
 19 66  1  0  0  0
 20 67  1  0  0  0
 20 68  1  0  0  0
 21 69  1  0  0  0
 21 70  1  0  0  0
 22 71  1  0  0  0
 22 72  1  0  0  0
 23 73  1  0  0  0
 25 74  1  0  0  0
 25 75  1  0  0  0
 25 76  1  0  0  0
 26 77  1  0  0  0
 26 78  1  0  0  0
 26 79  1  0  0  0
 27 80  1  0  0  0
 28 81  1  0  0  0
 29 82  1  0  0  0
 33 83  1  0  0  0
 37 84  1  0  0  0
 38 85  1  0  0  0
 41 86  1  0  0  0
 42 87  1  0  0  0
M  END
$$$$
