3hu2_ligand
  -I-interpret- 

 47 49  0  0  0  0  0  0  0  0999 V2000
   -2.5980   44.3660   -4.4330 P   0  0  0  0  0
   -2.0500   43.6630   -3.2180 O   0  0  0  0  0
   -1.6770   45.1580   -5.3090 O   0  0  0  0  0
   -3.5070   42.9940   -5.5860 S   0  0  0  0  0
   -3.9400   46.7810   -3.7260 P   0  0  0  0  0
   -2.6780   47.4660   -4.1170 O   0  0  0  0  0
   -4.4630   46.8470   -2.3280 O   0  0  0  0  0
   -3.8670   45.2260   -3.9890 O   0  0  0  0  0
   -5.1360   48.7150   -5.3970 P   0  0  0  0  0
   -4.7920   49.7050   -4.3340 O   0  0  0  0  0
   -4.4450   48.7580   -6.6880 O   0  0  0  0  0
   -5.0490   47.2510   -4.7810 O   0  0  0  0  0
   -6.6920   48.7770   -5.6740 O   0  0  0  0  0
   -7.1800   48.6220   -6.9980 C   0  0  0  0  0
   -8.2890   49.6050   -7.3230 C   0  0  0  0  0
   -9.4480   49.2760   -6.5890 O   0  0  0  0  0
   -7.9490   51.0430   -7.0060 C   0  0  0  0  0
   -7.4430   51.6900   -8.1670 O   0  0  0  0  0
   -9.2480   51.6410   -6.5600 C   0  0  0  0  0
   -9.9410   52.2190   -7.6740 O   0  0  0  0  0
  -10.0550   50.4520   -6.0720 C   0  0  0  0  0
  -10.0250   50.3460   -4.5990 N   0  0  0  0  0
   -9.4860   49.3230   -3.9280 C   0  0  0  0  0
   -9.6460   49.4910   -2.5970 N   0  0  0  0  0
  -10.2380   50.6580   -2.3940 C   0  0  0  0  0
  -10.6910   51.4280   -1.2100 C   0  0  0  0  0
  -10.5060   50.9470    0.0370 N   0  0  0  0  0
  -11.2900   52.6240   -1.4070 N   0  0  0  0  0
  -11.5000   53.1060   -2.6540 C   0  0  0  0  0
  -11.1160   52.4460   -3.7710 N   0  0  0  0  0
  -10.4990   51.2290   -3.7060 C   0  0  0  0  0
   -2.7622   43.2037   -2.7670 H   0  0  0  0  0
   -4.3357   42.2690   -4.8400 H   0  0  0  0  0
   -5.2809   46.3478   -2.2696 H   0  0  0  0  0
   -5.3318   49.5397   -3.5575 H   0  0  0  0  0
   -7.5836   47.6140   -7.0933 H   0  0  0  0  0
   -6.3544   48.8048   -7.6858 H   0  0  0  0  0
   -8.4422   49.5248   -8.3992 H   0  0  0  0  0
   -7.1775   51.1450   -6.2428 H   0  0  0  0  0
   -7.2299   52.6021   -7.9565 H   0  0  0  0  0
   -9.1006   52.4176   -5.8095 H   0  0  0  0  0
  -10.7701   52.5974   -7.3723 H   0  0  0  0  0
  -11.0871   50.5742   -6.4006 H   0  0  0  0  0
   -8.9868   48.4716   -4.3905 H   0  0  0  0  0
  -10.0503   50.0447    0.1732 H   0  0  0  0  0
  -10.8219   51.4857    0.8435 H   0  0  0  0  0
  -12.0004   54.0681   -2.7633 H   0  0  0  0  0
  1  2  1  0  0  0
  1  3  2  0  0  0
  1  4  1  0  0  0
  8  1  1  0  0  0
  5  6  2  0  0  0
  5  7  1  0  0  0
  5  8  1  0  0  0
 12  5  1  0  0  0
  9 10  1  0  0  0
  9 11  2  0  0  0
  9 12  1  0  0  0
  9 13  1  0  0  0
 13 14  1  0  0  0
 14 15  1  0  0  0
 15 16  1  0  0  0
 15 17  1  0  0  0
 16 21  1  0  0  0
 17 18  1  0  0  0
 17 19  1  0  0  0
 19 20  1  0  0  0
 19 21  1  0  0  0
 21 22  1  0  0  0
 22 23  4  0  0  0
 22 31  4  0  0  0
 23 24  4  0  0  0
 24 25  4  0  0  0
 25 26  4  0  0  0
 25 31  4  0  0  0
 26 27  1  0  0  0
 26 28  4  0  0  0
 28 29  4  0  0  0
 29 30  4  0  0  0
 30 31  4  0  0  0
  2 32  1  0  0  0
  4 33  1  0  0  0
  7 34  1  0  0  0
 10 35  1  0  0  0
 14 36  1  0  0  0
 14 37  1  0  0  0
 15 38  1  0  0  0
 17 39  1  0  0  0
 18 40  1  0  0  0
 19 41  1  0  0  0
 20 42  1  0  0  0
 21 43  1  0  0  0
 23 44  1  0  0  0
 27 45  1  0  0  0
 27 46  1  0  0  0
 29 47  1  0  0  0
M  END
$$$$
