### 
### Created by X-TOOL on Mon Sep 10 21:13:04 2018
### 

@<TRIPOS>MOLECULE
3hu2_ligand
   44    46     1     0     0
SMALL
GAST_HUCK


@<TRIPOS>ATOM
      1 PG         -2.5980   44.3660   -4.4330 P.3       1 AGS         0.2197
      2 O1G        -2.0500   43.6630   -3.2180 O.co2     1 AGS        -0.6077
      3 O2G        -1.6770   45.1580   -5.3090 O.co2     1 AGS        -0.6077
      4 S3G        -3.5070   42.9940   -5.5860 S.3       1 AGS        -0.0461
      5 PB         -3.9400   46.7810   -3.7260 P.3       1 AGS         0.3347
      6 O1B        -2.6780   47.4660   -4.1170 O.co2     1 AGS        -0.6076
      7 O2B        -4.4630   46.8470   -2.3280 O.co2     1 AGS        -0.6076
      8 O3B        -3.8670   45.2260   -3.9890 O.3       1 AGS        -0.1434
      9 PA         -5.1360   48.7150   -5.3970 P.3       1 AGS         0.2978
     10 O1A        -4.7920   49.7050   -4.3340 O.co2     1 AGS        -0.6127
     11 O2A        -4.4450   48.7580   -6.6880 O.co2     1 AGS        -0.6127
     12 O3A        -5.0490   47.2510   -4.7810 O.3       1 AGS        -0.1263
     13 O5'        -6.6920   48.7770   -5.6740 O.3       1 AGS        -0.2476
     14 C5'        -7.1800   48.6220   -6.9980 C.3       1 AGS         0.1128
     15 C4'        -8.2890   49.6050   -7.3230 C.3       1 AGS         0.1189
     16 O4'        -9.4480   49.2760   -6.5890 O.3       1 AGS        -0.3364
     17 C3'        -7.9490   51.0430   -7.0060 C.3       1 AGS         0.1149
     18 O3'        -7.4430   51.6900   -8.1670 O.3       1 AGS        -0.3864
     19 C2'        -9.2480   51.6410   -6.5600 C.3       1 AGS         0.1385
     20 O2'        -9.9410   52.2190   -7.6740 O.3       1 AGS        -0.3836
     21 C1'       -10.0550   50.4520   -6.0720 C.3       1 AGS         0.2010
     22 N9        -10.0250   50.3460   -4.5990 N.pl3     1 AGS        -0.1919
     23 C8         -9.4860   49.3230   -3.9280 C.2       1 AGS         0.1123
     24 N7         -9.6460   49.4910   -2.5970 N.2       1 AGS        -0.2958
     25 C5        -10.2380   50.6580   -2.3940 C.ar      1 AGS         0.1045
     26 C6        -10.6910   51.4280   -1.2100 C.ar      1 AGS         0.1298
     27 N6        -10.5060   50.9470    0.0370 N.pl3     1 AGS        -0.3152
     28 N1        -11.2900   52.6240   -1.4070 N.ar      1 AGS        -0.2698
     29 C2        -11.5000   53.1060   -2.6540 C.ar      1 AGS         0.0533
     30 N3        -11.1160   52.4460   -3.7710 N.ar      1 AGS        -0.2714
     31 C4        -10.4990   51.2290   -3.7060 C.ar      1 AGS         0.1613
     32 H          -4.3357   42.2691   -4.8400 H         1 AGS         0.1255
     33 H          -7.5836   47.6140   -7.0933 H         1 AGS         0.0648
     34 H          -6.3544   48.8048   -7.6858 H         1 AGS         0.0648
     35 H          -8.4422   49.5248   -8.3992 H         1 AGS         0.0651
     36 H          -7.1775   51.1450   -6.2428 H         1 AGS         0.0648
     37 H          -8.1071   51.6671   -8.8598 H         1 AGS         0.2100
     38 H          -9.1006   52.4176   -5.8095 H         1 AGS         0.0676
     39 H         -10.7701   52.5974   -7.3723 H         1 AGS         0.2101
     40 H         -11.0871   50.5742   -6.4006 H         1 AGS         0.0996
     41 H          -8.9868   48.4716   -4.3905 H         1 AGS         0.1349
     42 H         -10.0503   50.0447    0.1732 H         1 AGS         0.1820
     43 H         -10.8219   51.4857    0.8435 H         1 AGS         0.1820
     44 H         -12.0004   54.0681   -2.7633 H         1 AGS         0.0996
@<TRIPOS>BOND
     1    1    2 ar 
     2    1    3 ar 
     3    1    4 1  
     4    8    1 1  
     5    5    6 ar 
     6    5    7 ar 
     7    5    8 1  
     8   12    5 1  
     9    9   10 ar 
    10    9   11 ar 
    11    9   12 1  
    12    9   13 1  
    13   13   14 1  
    14   14   15 1  
    15   15   16 1  
    16   15   17 1  
    17   16   21 1  
    18   17   18 1  
    19   17   19 1  
    20   19   20 1  
    21   19   21 1  
    22   21   22 1  
    23   22   23 1  
    24   22   31 1  
    25   23   24 2  
    26   24   25 1  
    27   25   26 ar 
    28   25   31 ar 
    29   26   27 1  
    30   26   28 ar 
    31   28   29 ar 
    32   29   30 ar 
    33   30   31 ar 
    34    4   32 1  
    35   14   33 1  
    36   14   34 1  
    37   15   35 1  
    38   17   36 1  
    39   18   37 1  
    40   19   38 1  
    41   20   39 1  
    42   21   40 1  
    43   23   41 1  
    44   27   42 1  
    45   27   43 1  
    46   29   44 1  
@<TRIPOS>SUBSTRUCTURE
     1 AGS         1

