#	Name:			4hxq_ligand
#	Creating user name:	wangrx
#	Creation time:		Wed Aug  4 17:09:41 2021

#	Modifying user name:	wangrx
#	Modification time:	Wed Aug  4 17:10:17 2021

@<TRIPOS>MOLECULE
4hxq_ligand
   55    55     1     0     0
SMALL
GAST_HUCK


@<TRIPOS>ATOM
      1 O9        -19.9800   15.9630  -10.4950 O.co2     1 X8A        -0.5422 
      2 C7        -20.2280   16.3940  -11.6250 C.2       1 X8A         0.0962 
      3 O8        -19.5570   15.9790  -12.5890 O.co2     1 X8A        -0.5422 
      4 C1        -21.3240   17.4270  -11.8700 C.3       1 X8A         0.0387 
      5 N6        -21.3190   17.8040  -13.2820 N.4       1 X8A         0.2293 
      6 C18       -22.3250   18.6340  -13.9260 C.3       1 X8A        -0.0445 
      7 C2        -22.7030   16.8710  -11.5170 C.3       1 X8A        -0.0037 
      8 C3        -22.9470   15.4360  -11.9760 C.3       1 X8A        -0.0753 
      9 C4        -24.4050   14.9910  -11.8310 C.3       1 X8A        -0.1826 
     10 C5        -24.6010   13.5360  -12.2480 C.3       1 X8A        -0.3457 
     11 B19       -26.1210   13.0630  -12.3330 B         1 X8A         3.0000 
     12 O22       -26.6270   13.6730  -13.6250 O.3       1 X8A        -0.8710 
     13 O21       -26.3980   11.6190  -12.6610 O.3       1 X8A        -0.4105 
     14 O20       -27.0820   13.6250  -11.3290 O.3       1 X8A        -0.4105 
     15 C10       -21.0870   18.6470  -10.9800 C.3       1 X8A         0.0385 
     16 C11       -19.7740   19.3590  -11.2980 C.3       1 X8A        -0.0269 
     17 N12       -19.8410   20.7660  -10.8370 N.4       1 X8A         0.2353 
     18 C17       -20.0740   20.8340   -9.3920 C.3       1 X8A        -0.0319 
     19 C16       -20.3450   22.2740   -9.0000 C.3       1 X8A        -0.0123 
     20 C15       -19.1750   23.1800   -9.3640 C.3       1 X8A        -0.0434 
     21 C14       -18.8160   22.9880  -10.8300 C.3       1 X8A        -0.0123 
     22 C13       -18.6150   21.5110  -11.1500 C.3       1 X8A        -0.0319 
     23 H1        -21.3203   16.9349  -13.7925 H         1 X8A         0.2016 
     24 H2        -20.4427   18.2796  -13.4304 H         1 X8A         0.2016 
     25 H3        -22.0733   18.7562  -14.9898 H         1 X8A         0.0777 
     26 H4        -22.3524   19.6205  -13.4401 H         1 X8A         0.0777 
     27 H5        -23.3101   18.1530  -13.8353 H         1 X8A         0.0777 
     28 H6        -23.4624   17.5145  -11.9852 H         1 X8A         0.0315 
     29 H7        -22.8169   16.9053  -10.4235 H         1 X8A         0.0315 
     30 H8        -22.3162   14.7653  -11.3741 H         1 X8A         0.0242 
     31 H9        -22.6615   15.3553  -13.0352 H         1 X8A         0.0242 
     32 H10       -25.0366   15.6306  -12.4650 H         1 X8A        -0.0084 
     33 H11       -24.7081   15.1033  -10.7796 H         1 X8A        -0.0084 
     34 H12       -24.1984   13.3875  -13.2608 H         1 X8A        -0.2101 
     35 H14       -24.0719   12.8781  -11.5429 H         1 X8A        -0.2101 
     36 H15       -27.3631   13.1546  -13.1898 H         1 X8A        -0.1290 
     37 H16       -27.2738   11.5394  -13.0204 H         1 X8A         0.2052 
     38 H17       -27.2737   11.5394  -13.0204 H         1 X8A         0.2052 
     39 H18       -26.8643   14.5337  -11.1582 H         1 X8A         0.2052 
     40 H19       -26.8643   14.5337  -11.1582 H         1 X8A         0.2052 
     41 H20       -21.0645   18.3185   -9.9304 H         1 X8A         0.0368 
     42 H21       -21.9160   19.3553  -11.1249 H         1 X8A         0.0368 
     43 H22       -19.6013   19.3386  -12.3842 H         1 X8A         0.0815 
     44 H23       -18.9470   18.8459  -10.7855 H         1 X8A         0.0815 
     45 H24       -20.6126   21.2108  -11.3090 H         1 X8A         0.2033 
     46 H25       -19.1847   20.4681   -8.8579 H         1 X8A         0.0814 
     47 H26       -20.9418   20.2112   -9.1291 H         1 X8A         0.0814 
     48 H27       -20.5115   22.3238   -7.9138 H         1 X8A         0.0317 
     49 H28       -21.2456   22.6244   -9.5255 H         1 X8A         0.0317 
     50 H29       -18.3068   22.9255   -8.7384 H         1 X8A         0.0269 
     51 H30       -19.4569   24.2290   -9.1908 H         1 X8A         0.0269 
     52 H31       -17.8862   23.5338  -11.0479 H         1 X8A         0.0317 
     53 H32       -19.6293   23.3848  -11.4553 H         1 X8A         0.0317 
     54 H33       -18.3805   21.3970  -12.2186 H         1 X8A         0.0814 
     55 H34       -17.7834   21.1163  -10.5479 H         1 X8A         0.0814 
@<TRIPOS>BOND
     1    1    2 ar   
     2    2    3 ar   
     3    2    4 1    
     4    4    5 1    
     5    4    7 1    
     6    4   15 1    
     7    5    6 1    
     8    7    8 1    
     9    8    9 1    
    10    9   10 1    
    11   10   11 1    
    12   11   13 1    
    13   11   14 1    
    14   15   16 1    
    15   16   17 1    
    16   17   18 1    
    17   17   22 1    
    18   18   19 1    
    19   19   20 1    
    20   20   21 1    
    21   21   22 1    
    22   11   12 du   
    23    5   23 1    
    24    5   24 1    
    25    6   25 1    
    26    6   26 1    
    27    6   27 1    
    28    7   28 1    
    29    7   29 1    
    30    8   30 1    
    31    8   31 1    
    32    9   32 1    
    33    9   33 1    
    34   10   34 1    
    35   10   35 1    
    36   12   36 1    
    37   13   37 1    
    38   13   38 1    
    39   14   39 1    
    40   14   40 1    
    41   15   41 1    
    42   15   42 1    
    43   16   43 1    
    44   16   44 1    
    45   17   45 1    
    46   18   46 1    
    47   18   47 1    
    48   19   48 1    
    49   19   49 1    
    50   20   50 1    
    51   20   51 1    
    52   21   52 1    
    53   21   53 1    
    54   22   54 1    
    55   22   55 1    
@<TRIPOS>SUBSTRUCTURE
     1 X8A         1 PERM              0 ****  ****    0 ROOT 
