4hxq_ligand

Created by X-TOOL on Fri Nov 18 17:30:45 2016
 56 56  0  0  0  0  0  0  0  0999 V2000
  -19.9800   15.9630  -10.4950  O 0  0  0  1  0  1
  -20.2280   16.3940  -11.6250  C 0  5  0  1  0  3
  -19.5570   15.9790  -12.5890  O 0  0  0  1  0  1
  -21.3240   17.4270  -11.8700  C 0  0  0  1  0  4
  -21.3190   17.8040  -13.2820  N 0  3  0  3  0  4
  -22.3250   18.6340  -13.9260  C 0  0  0  4  0  4
  -22.7030   16.8710  -11.5170  C 0  0  0  3  0  4
  -22.9470   15.4360  -11.9760  C 0  0  0  3  0  4
  -24.4050   14.9910  -11.8310  C 0  0  0  3  0  4
  -24.6010   13.5360  -12.2480  C 0  0  0  4  0  5
  -26.1210   13.0630  -12.3330  B 0  0  0  1  0  4
  -26.6270   13.6730  -13.6250  O 0  0  0  2  0  2
  -26.3980   11.6190  -12.6610  O 0  0  0  3  0  3
  -27.0820   13.6250  -11.3290  O 0  0  0  3  0  3
  -21.0870   18.6470  -10.9800  C 0  0  0  3  0  4
  -19.7740   19.3590  -11.2980  C 0  0  0  3  0  4
  -19.8410   20.7660  -10.8370  N 0  3  0  2  0  4
  -20.0740   20.8340   -9.3920  C 0  0  0  3  0  4
  -20.3450   22.2740   -9.0000  C 0  0  0  3  0  4
  -19.1750   23.1800   -9.3640  C 0  0  0  3  0  4
  -18.8160   22.9880  -10.8300  C 0  0  0  3  0  4
  -18.6150   21.5110  -11.1500  C 0  0  0  3  0  4
  -21.3203   16.9349  -13.7925  H 0  0  0  1  0  1
  -20.4427   18.2796  -13.4304  H 0  0  0  1  0  1
  -22.0733   18.7562  -14.9898  H 0  0  0  1  0  1
  -22.3524   19.6205  -13.4401  H 0  0  0  1  0  1
  -23.3101   18.1530  -13.8353  H 0  0  0  1  0  1
  -23.4624   17.5145  -11.9852  H 0  0  0  1  0  1
  -22.8169   16.9053  -10.4235  H 0  0  0  1  0  1
  -22.3162   14.7653  -11.3741  H 0  0  0  1  0  1
  -22.6615   15.3553  -13.0352  H 0  0  0  1  0  1
  -25.0366   15.6306  -12.4650  H 0  0  0  1  0  1
  -24.7081   15.1033  -10.7796  H 0  0  0  1  0  1
  -24.1984   13.3875  -13.2608  H 0  0  0  1  0  1
  -25.6740   13.2939  -12.2408  H 0  0  0  1  0  1
  -24.0719   12.8781  -11.5429  H 0  0  0  1  0  1
  -27.3631   13.1546  -13.1898  H 0  0  0  1  0  1
  -27.2738   11.5394  -13.0204  H 0  0  0  1  0  1
  -27.2737   11.5394  -13.0204  H 0  0  0  1  0  1
  -26.8643   14.5337  -11.1582  H 0  0  0  1  0  1
  -26.8643   14.5337  -11.1582  H 0  0  0  1  0  1
  -21.0645   18.3185   -9.9304  H 0  0  0  1  0  1
  -21.9160   19.3553  -11.1249  H 0  0  0  1  0  1
  -19.6013   19.3386  -12.3842  H 0  0  0  1  0  1
  -18.9470   18.8459  -10.7855  H 0  0  0  1  0  1
  -20.6126   21.2108  -11.3090  H 0  0  0  1  0  1
  -19.1847   20.4681   -8.8579  H 0  0  0  1  0  1
  -20.9418   20.2112   -9.1291  H 0  0  0  1  0  1
  -20.5115   22.3238   -7.9138  H 0  0  0  1  0  1
  -21.2456   22.6244   -9.5255  H 0  0  0  1  0  1
  -18.3068   22.9255   -8.7384  H 0  0  0  1  0  1
  -19.4569   24.2290   -9.1908  H 0  0  0  1  0  1
  -17.8862   23.5338  -11.0479  H 0  0  0  1  0  1
  -19.6293   23.3848  -11.4553  H 0  0  0  1  0  1
  -18.3805   21.3970  -12.2186  H 0  0  0  1  0  1
  -17.7834   21.1163  -10.5479  H 0  0  0  1  0  1
  1  2  2  0  0  2
  2  3  2  0  0  2
  2  4  1  0  0  2
  4  5  1  0  0  2
  4  7  1  0  0  2
  4 15  1  0  0  2
  5  6  1  0  0  2
  7  8  1  0  0  2
  8  9  1  0  0  2
  9 10  1  0  0  2
 10 11  1  0  0  2
 11 13  1  0  0  2
 11 14  1  0  0  2
 15 16  1  0  0  2
 16 17  1  0  0  2
 17 18  1  0  0  1
 17 22  1  0  0  1
 18 19  1  0  0  1
 19 20  1  0  0  1
 20 21  1  0  0  1
 21 22  1  0  0  1
 11 12  2  0  0  2
  5 23  1  0  0  2
  5 24  1  0  0  2
  6 25  1  0  0  2
  6 26  1  0  0  2
  6 27  1  0  0  2
  7 28  1  0  0  2
  7 29  1  0  0  2
  8 30  1  0  0  2
  8 31  1  0  0  2
  9 32  1  0  0  2
  9 33  1  0  0  2
 10 34  1  0  0  2
 10 35  1  0  0  2
 10 36  1  0  0  2
 12 37  1  0  0  2
 13 38  1  0  0  2
 13 39  1  0  0  2
 14 40  1  0  0  2
 14 41  1  0  0  2
 15 42  1  0  0  2
 15 43  1  0  0  2
 16 44  1  0  0  2
 16 45  1  0  0  2
 17 46  1  0  0  2
 18 47  1  0  0  2
 18 48  1  0  0  2
 19 49  1  0  0  2
 19 50  1  0  0  2
 20 51  1  0  0  2
 20 52  1  0  0  2
 21 53  1  0  0  2
 21 54  1  0  0  2
 22 55  1  0  0  2
 22 56  1  0  0  2
M  END
> <MOLECULAR_FORMULA>
C14H34N2O5B

> <MOLECULAR_WEIGHT>
321.0

> <NUM_HB_ATOMS>
6  

> <NUM_ROTOR>
9  

> <XLOGP2>
-1.93

$$$$
