4zow_ligand
  -I-interpret- 

 32 32  0  0  0  0  0  0  0  0999 V2000
  -17.5680   10.0890   24.5440 C   0  0  0  0  0
  -18.6100    9.9190   23.1360 Cl  0  0  0  0  0
  -15.8740    9.7580   24.1820 Cl  0  0  0  0  0
  -17.7580   11.4690   25.1950 C   0  0  0  0  0
  -17.0470   11.8100   26.1070 O   0  0  0  0  0
  -18.7840   12.3380   24.7190 N   0  0  0  0  0
  -18.9840   13.6370   25.3390 C   0  0  0  0  0
  -20.3480   13.6530   25.9080 C   0  0  0  0  0
  -21.2490   13.1750   24.9220 O   0  0  0  0  0
  -18.8380   14.7740   24.3260 C   0  0  0  0  0
  -18.7590   14.2480   23.0160 O   0  0  0  0  0
  -17.5900   15.5610   24.6540 C   0  0  0  0  0
  -16.6350   15.7850   23.6990 C   0  0  0  0  0
  -15.4810   16.5190   24.0270 C   0  0  0  0  0
  -15.3090   17.0310   25.3620 C   0  0  0  0  0
  -14.1830   17.7460   25.6890 N   0  0  0  0  0
  -13.8920   17.9880   26.9960 O   0  0  0  0  0
  -13.3630   18.2130   24.7100 O   0  0  0  0  0
  -16.2710   16.8000   26.3190 C   0  0  0  0  0
  -17.4100   16.0750   25.9950 C   0  0  0  0  0
  -17.8713    9.3296   25.2647 H   0  0  0  0  0
  -19.3781   12.0473   23.9425 H   0  0  0  0  0
  -18.2286   13.7901   26.1098 H   0  0  0  0  0
  -20.6186   14.6675   26.2006 H   0  0  0  0  0
  -20.3910   13.0176   26.7926 H   0  0  0  0  0
  -22.1412   13.1791   25.2765 H   0  0  0  0  0
  -19.7064   15.4308   24.3783 H   0  0  0  0  0
  -18.6676   14.9684   22.3881 H   0  0  0  0  0
  -16.7683   15.3964   22.6894 H   0  0  0  0  0
  -14.7170   16.7003   23.2710 H   0  0  0  0  0
  -16.1388   17.1857   27.3299 H   0  0  0  0  0
  -18.1714   15.8923   26.7533 H   0  0  0  0  0
  1  2  1  0  0  0
  1  3  1  0  0  0
  1  4  1  0  0  0
  4  5  2  0  0  0
  4  6  1  0  0  0
  6  7  1  0  0  0
  7  8  1  0  0  0
  7 10  1  0  0  0
  8  9  1  0  0  0
 10 11  1  0  0  0
 10 12  1  0  0  0
 12 13  4  0  0  0
 12 20  4  0  0  0
 13 14  4  0  0  0
 14 15  4  0  0  0
 15 16  1  0  0  0
 15 19  4  0  0  0
 16 17  2  0  0  0
 16 18  2  0  0  0
 19 20  4  0  0  0
  1 21  1  0  0  0
  6 22  1  0  0  0
  7 23  1  0  0  0
  8 24  1  0  0  0
  8 25  1  0  0  0
  9 26  1  0  0  0
 10 27  1  0  0  0
 11 28  1  0  0  0
 13 29  1  0  0  0
 14 30  1  0  0  0
 19 31  1  0  0  0
 20 32  1  0  0  0
M  END
$$$$
