3vw0_ligand
  -I-interpret- 

 77 80  0  0  0  0  0  0  0  0999 V2000
  -41.7490    0.0060  -24.5050 C   0  0  0  0  0
  -40.7870    0.4170  -23.6230 C   0  0  0  0  0
  -40.0550   -0.4850  -22.8940 C   0  0  0  0  0
  -40.3010   -1.8110  -23.0610 C   0  0  0  0  0
  -42.0010   -1.3290  -24.6490 C   0  0  0  0  0
  -41.2700   -2.2280  -23.9380 C   0  0  0  0  0
  -41.4820   -3.5500  -24.0940 C   0  0  0  0  0
  -42.4180   -3.9820  -24.9520 C   0  0  0  0  0
  -43.1530   -3.0830  -25.6510 C   0  0  0  0  0
  -42.9540   -1.7120  -25.5740 N   0  0  0  0  0
  -51.5280   -6.1200  -28.9950 C   0  0  0  0  0
  -51.4450   -4.7440  -29.4360 C   0  0  0  0  0
  -52.2910   -3.8290  -28.8710 N   0  0  0  0  0
  -53.1930   -4.2210  -27.8770 C   0  0  0  0  0
  -53.2450   -5.5400  -27.4660 C   0  0  0  0  0
  -52.4130   -6.4790  -28.0330 C   0  0  0  0  0
  -50.7210   -7.0440  -29.5710 C   0  0  0  0  0
  -49.8370   -6.6450  -30.5500 C   0  0  0  0  0
  -49.7330   -5.3410  -30.9750 C   0  0  0  0  0
  -50.5490   -4.3920  -30.4130 C   0  0  0  0  0
  -52.1360   -2.4870  -29.3520 C   0  0  0  0  0
  -50.6390   -2.3220  -29.4360 C   0  0  0  0  0
  -50.2220   -0.9840  -29.9560 C   0  0  0  0  0
  -48.7550   -0.8200  -29.6780 C   0  0  0  0  0
  -48.4720   -0.5920  -28.2150 C   0  0  0  0  0
  -47.0200   -0.2110  -28.0420 C   0  0  0  0  0
  -46.8700    0.7210  -26.8770 C   0  0  0  0  0
  -45.4290    0.8090  -26.4480 C   0  0  0  0  0
  -44.6950   -0.4820  -26.6710 C   0  0  0  0  0
  -44.1940   -0.9990  -25.3450 C   0  0  0  0  0
  -44.1680   -3.6190  -26.5890 C   0  0  0  0  0
  -54.1140   -3.2390  -27.2250 C   0  0  0  0  0
  -40.7140   -4.5280  -23.3260 N   0  0  0  0  0
  -52.4420   -7.8910  -27.6340 N   0  3  0  0  0
  -42.3093    0.7373  -25.0876 H   0  0  0  0  0
  -40.5986    1.4832  -23.4972 H   0  0  0  0  0
  -39.2912   -0.1451  -22.1946 H   0  0  0  0  0
  -39.7267   -2.5455  -22.4964 H   0  0  0  0  0
  -42.5867   -5.0504  -25.0864 H   0  0  0  0  0
  -43.1680   -2.5241  -24.7153 H   0  0  0  0  0
  -53.9486   -5.8381  -26.6887 H   0  0  0  0  0
  -53.1663   -6.0798  -27.3538 H   0  0  0  0  0
  -50.7705   -8.0887  -29.2640 H   0  0  0  0  0
  -49.1922   -7.3954  -31.0074 H   0  0  0  0  0
  -49.0135   -5.0659  -31.7462 H   0  0  0  0  0
  -50.4851   -3.3554  -30.7439 H   0  0  0  0  0
  -52.6044   -1.7498  -28.6999 H   0  0  0  0  0
  -52.6315   -2.3234  -30.3090 H   0  0  0  0  0
  -50.2618   -3.0767  -30.1262 H   0  0  0  0  0
  -50.2385   -2.4237  -28.4274 H   0  0  0  0  0
  -50.7906   -0.1936  -29.4660 H   0  0  0  0  0
  -50.4139   -0.9177  -31.0269 H   0  0  0  0  0
  -48.4013    0.0505  -30.2305 H   0  0  0  0  0
  -48.2488   -1.7363  -29.9816 H   0  0  0  0  0
  -48.6793   -1.5046  -27.6562 H   0  0  0  0  0
  -49.1074    0.2107  -27.8407 H   0  0  0  0  0
  -46.6693    0.2860  -28.9465 H   0  0  0  0  0
  -46.4323   -1.1107  -27.8596 H   0  0  0  0  0
  -47.4631    0.3427  -26.0444 H   0  0  0  0  0
  -47.2107    1.7131  -27.1732 H   0  0  0  0  0
  -45.4042    1.0351  -25.3820 H   0  0  0  0  0
  -44.9436    1.5836  -27.0417 H   0  0  0  0  0
  -43.8523   -0.3141  -27.3417 H   0  0  0  0  0
  -45.3668   -1.2135  -27.1201 H   0  0  0  0  0
  -44.0266   -0.1686  -24.6590 H   0  0  0  0  0
  -44.9325   -1.6664  -24.9007 H   0  0  0  0  0
  -43.6765   -4.2392  -27.3386 H   0  0  0  0  0
  -44.8907   -4.2192  -26.0362 H   0  0  0  0  0
  -44.6805   -2.7914  -27.0795 H   0  0  0  0  0
  -55.1467   -3.5452  -27.3920 H   0  0  0  0  0
  -53.9114   -3.2082  -26.1544 H   0  0  0  0  0
  -53.9527   -2.2506  -27.6552 H   0  0  0  0  0
  -40.8929   -5.5250  -23.4461 H   0  0  0  0  0
  -39.9991   -4.2136  -22.6699 H   0  0  0  0  0
  -53.1465   -8.0236  -26.9084 H   0  0  0  0  0
  -52.6732   -8.4671  -28.4434 H   0  0  0  0  0
  -51.5264   -8.1602  -27.2739 H   0  0  0  0  0
  1  2  4  0  0  0
  5  1  4  0  0  0
  2  3  4  0  0  0
  4  3  4  0  0  0
  6  4  4  0  0  0
  5  6  4  0  0  0
 10  5  1  0  0  0
  6  7  1  0  0  0
  8  7  2  0  0  0
  7 33  1  0  0  0
  9  8  1  0  0  0
 10  9  1  0  0  0
  9 31  1  0  0  0
 30 10  1  0  0  0
 12 11  4  0  0  0
 11 16  1  0  0  0
 11 17  4  0  0  0
 13 12  1  0  0  0
 12 20  4  0  0  0
 13 14  1  0  0  0
 21 13  1  0  0  0
 14 15  2  0  0  0
 14 32  1  0  0  0
 15 16  1  0  0  0
 16 34  1  0  0  0
 17 18  4  0  0  0
 19 18  4  0  0  0
 20 19  4  0  0  0
 22 21  1  0  0  0
 23 22  1  0  0  0
 24 23  1  0  0  0
 25 24  1  0  0  0
 26 25  1  0  0  0
 27 26  1  0  0  0
 28 27  1  0  0  0
 29 28  1  0  0  0
 29 30  1  0  0  0
  1 35  1  0  0  0
  2 36  1  0  0  0
  3 37  1  0  0  0
  4 38  1  0  0  0
  8 39  1  0  0  0
  9 40  1  0  0  0
 15 41  1  0  0  0
 16 42  1  0  0  0
 17 43  1  0  0  0
 18 44  1  0  0  0
 19 45  1  0  0  0
 20 46  1  0  0  0
 21 47  1  0  0  0
 21 48  1  0  0  0
 22 49  1  0  0  0
 22 50  1  0  0  0
 23 51  1  0  0  0
 23 52  1  0  0  0
 24 53  1  0  0  0
 24 54  1  0  0  0
 25 55  1  0  0  0
 25 56  1  0  0  0
 26 57  1  0  0  0
 26 58  1  0  0  0
 27 59  1  0  0  0
 27 60  1  0  0  0
 28 61  1  0  0  0
 28 62  1  0  0  0
 29 63  1  0  0  0
 29 64  1  0  0  0
 30 65  1  0  0  0
 30 66  1  0  0  0
 31 67  1  0  0  0
 31 68  1  0  0  0
 31 69  1  0  0  0
 32 70  1  0  0  0
 32 71  1  0  0  0
 32 72  1  0  0  0
 33 73  1  0  0  0
 33 74  1  0  0  0
 34 75  1  0  0  0
 34 76  1  0  0  0
 34 77  1  0  0  0
M  END
$$$$
