6qfu_ligand
  -I-interpret- 

 61 68  0  0  0  0  0  0  0  0999 V2000
   17.0980    8.4910   10.4000 N   0  0  0  0  0
   15.9510   10.0470    9.0190 C   0  0  0  0  0
   15.7790   -1.1040   16.1910 N   0  0  0  0  0
   14.7050    8.1260    9.4670 C   0  0  0  0  0
   15.9020    7.6490   10.2860 C   0  0  0  0  0
   15.9880    6.3890   11.0450 C   0  0  0  0  0
   15.8560    0.3340   18.1610 O   0  0  0  0  0
   20.3770    7.1250   12.3850 C   0  0  0  0  0
   20.6090    8.0730   11.1980 C   0  0  0  0  0
   21.4190    7.8050    9.9050 C   0  0  0  0  0
   19.9000    9.3860   11.5430 C   0  0  0  0  0
   19.8870   10.6540   10.6880 C   0  0  0  0  0
   19.2230    9.2290   12.8860 C   0  0  0  0  0
   18.4540   10.2890   13.6460 C   0  0  0  0  0
   20.8680    5.6710   12.5160 C   0  0  0  0  0
   19.5090    7.8610   13.4090 C   0  0  0  0  0
   19.0750    7.3020   14.7340 C   0  0  0  0  0
   19.2620    5.9380   10.1130 Cl  0  0  0  0  0
   17.0330    9.6250    9.7560 C   0  0  0  0  0
   13.7820    9.7520    8.1020 O   0  0  0  0  0
   14.8010    9.3140    8.8550 C   0  0  0  0  0
   15.2550    0.1980   16.8560 S   0  0  0  0  0
   15.8220    1.4920   15.9620 C   0  0  0  0  0
   13.8140    0.2420   16.7010 O   0  0  0  0  0
   14.9000    2.5770   15.6050 C   0  0  0  0  0
   15.3960    3.6470   14.8860 C   0  0  0  0  0
   17.1940    1.6560   15.5080 C   0  0  0  0  0
   17.5440    2.7520   14.7690 C   0  0  0  0  0
   17.2510    4.9370   12.4740 C   0  0  0  0  0
   17.0510    4.8450   13.7960 C   0  0  0  0  0
   16.6680    3.7180   14.4750 C   0  0  0  0  0
   17.2030    6.1910   11.7700 N   0  0  0  0  0
   15.0090    5.6500   10.9900 O   0  0  0  0  0
   18.5600    7.7380   11.5390 Ir  0  0  0  0  0
   16.0097   11.0223    8.5358 H   0  0  0  0  0
   16.4428   -1.6986   16.6872 H   0  0  0  0  0
   15.4593   -1.3645   15.2581 H   0  0  0  0  0
   13.8026    7.5204    9.3830 H   0  0  0  0  0
   22.4541    7.5841   10.1655 H   0  0  0  0  0
   20.9867    6.9553    9.3765 H   0  0  0  0  0
   21.3841    8.6877    9.2664 H   0  0  0  0  0
   20.9088   11.0066   10.5478 H   0  0  0  0  0
   19.4415   10.4322    9.7182 H   0  0  0  0  0
   19.3015   11.4237   11.1908 H   0  0  0  0  0
   19.1122   11.1315   13.8583 H   0  0  0  0  0
   17.6115   10.6274   13.0428 H   0  0  0  0  0
   18.0866    9.8685   14.5821 H   0  0  0  0  0
   20.4502    5.0734   11.7058 H   0  0  0  0  0
   21.9564    5.6500   12.4607 H   0  0  0  0  0
   20.5437    5.2642   13.4738 H   0  0  0  0  0
   18.4899    6.3969   14.5710 H   0  0  0  0  0
   19.9546    7.0647   15.3325 H   0  0  0  0  0
   18.4667    8.0402   15.2566 H   0  0  0  0  0
   17.8989   10.2851    9.8061 H   0  0  0  0  0
   13.0754    9.1023    8.1126 H   0  0  0  0  0
   13.8513    2.5393   15.8996 H   0  0  0  0  0
   14.7227    4.4689   14.6428 H   0  0  0  0  0
   17.9436    0.9049   15.7570 H   0  0  0  0  0
   18.5688    2.8407   14.4086 H   0  0  0  0  0
   17.4579    4.0271   11.9106 H   0  0  0  0  0
   17.2072    5.7489   14.3847 H   0  0  0  0  0
  1  5  4  0  0  0
  1 19  4  0  0  0
 19  2  4  0  0  0
  2 21  4  0  0  0
 22  3  1  0  0  0
  5  4  4  0  0  0
  4 21  4  0  0  0
  5  6  1  0  0  0
  6 32  1  0  0  0
  6 33  2  0  0  0
 22  7  2  0  0  0
  8  9  4  0  0  0
  8 15  1  0  0  0
  8 16  4  0  0  0
  9 10  1  0  0  0
  9 11  4  0  0  0
 11 12  1  0  0  0
 13 11  4  0  0  0
 13 14  1  0  0  0
 16 13  4  0  0  0
 16 17  1  0  0  0
 21 20  1  0  0  0
 23 22  1  0  0  0
 22 24  2  0  0  0
 25 23  4  0  0  0
 27 23  4  0  0  0
 26 25  4  0  0  0
 31 26  4  0  0  0
 28 27  4  0  0  0
 31 28  4  0  0  0
 29 30  2  0  0  0
 32 29  1  0  0  0
 30 31  1  0  0  0
 34  1  1  0  0  0
 34  8  1  0  0  0
 34  9  1  0  0  0
 34 11  1  0  0  0
 34 13  1  0  0  0
 34 16  1  0  0  0
 34 18  1  0  0  0
 34 32  1  0  0  0
  2 35  1  0  0  0
  3 36  1  0  0  0
  3 37  1  0  0  0
  4 38  1  0  0  0
 10 39  1  0  0  0
 10 40  1  0  0  0
 10 41  1  0  0  0
 12 42  1  0  0  0
 12 43  1  0  0  0
 12 44  1  0  0  0
 14 45  1  0  0  0
 14 46  1  0  0  0
 14 47  1  0  0  0
 15 48  1  0  0  0
 15 49  1  0  0  0
 15 50  1  0  0  0
 17 51  1  0  0  0
 17 52  1  0  0  0
 17 53  1  0  0  0
 19 54  1  0  0  0
 20 55  1  0  0  0
 25 56  1  0  0  0
 26 57  1  0  0  0
 27 58  1  0  0  0
 28 59  1  0  0  0
 29 60  1  0  0  0
 30 61  1  0  0  0
M  END
$$$$
