### 
### Created by X-TOOL on Mon Aug  2 16:17:22 2021
### 

@<TRIPOS>MOLECULE
6qfu_ligand
   63    70     1     0     0
SMALL
GAST_HUCK


@<TRIPOS>ATOM
      1 N1         17.0980    8.4910   10.4000 N.ar      1 J0K        -0.2920
      2 C2         15.9510   10.0470    9.0190 C.ar      1 J0K        -0.0016
      3 N3         15.7790   -1.1040   16.1910 N.am      1 J0K        -0.2620
      4 C4         14.7050    8.1260    9.4670 C.ar      1 J0K         0.0150
      5 C5         15.9020    7.6490   10.2860 C.ar      1 J0K         0.1204
      6 C6         15.9880    6.3890   11.0450 C.2       1 J0K         0.2594
      7 O1         15.8560    0.3340   18.1610 O.2       1 J0K        -0.1518
      8 C13        20.3770    7.1250   12.3850 C.ar      1 J0K        -0.0687
      9 C14        20.6090    8.0730   11.1980 C.ar      1 J0K        -0.0687
     10 C21        21.4190    7.8050    9.9050 C.3       1 J0K        -0.0435
     11 C15        19.9000    9.3860   11.5430 C.ar      1 J0K        -0.0687
     12 C20        19.8870   10.6540   10.6880 C.3       1 J0K        -0.0435
     13 C16        19.2230    9.2290   12.8860 C.ar      1 J0K        -0.0687
     14 C19        18.4540   10.2890   13.6460 C.3       1 J0K        -0.0435
     15 C22        20.8680    5.6710   12.5160 C.3       1 J0K        -0.0435
     16 C17        19.5090    7.8610   13.4090 C.ar      1 J0K        -0.0687
     17 C18        19.0750    7.3020   14.7340 C.3       1 J0K        -0.0435
     18 CL1        19.2620    5.9380   10.1130 Cl        1 J0K        -0.1454
     19 C1         17.0330    9.6250    9.7560 C.ar      1 J0K         0.0053
     20 O5         13.7820    9.7520    8.1020 O.3       1 J0K        -0.3220
     21 C3         14.8010    9.3140    8.8550 C.ar      1 J0K         0.1134
     22 S1         15.2550    0.1980   16.8560 S.o2      1 J0K         0.0613
     23 C10        15.8220    1.4920   15.9620 C.ar      1 J0K         0.0975
     24 O2         13.8140    0.2420   16.7010 O.2       1 J0K        -0.1518
     25 C11        14.9000    2.5770   15.6050 C.ar      1 J0K        -0.0462
     26 C12        15.3960    3.6470   14.8860 C.ar      1 J0K        -0.0687
     27 C9         17.1940    1.6560   15.5080 C.ar      1 J0K        -0.0462
     28 C8         17.5440    2.7520   14.7690 C.ar      1 J0K        -0.0687
     29 C23        17.2510    4.9370   12.4740 C.2       1 J0K         0.0412
     30 C24        17.0510    4.8450   13.7960 C.2       1 J0K        -0.0573
     31 C7         16.6680    3.7180   14.4750 C.ar      1 J0K        -0.0579
     32 N2         17.2030    6.1910   11.7700 N.am      1 J0K        -0.2242
     33 O3         15.0090    5.6500   10.9900 O.2       1 J0K        -0.3611
     34 IR1        18.5600    7.7380   11.5390 Ir        1 J0K         2.0000
     35 H1         16.0094   11.0169    8.5384 H         1 J0K         0.0667
     36 H2         15.4656   -1.3594   15.2764 H         1 J0K         0.1634
     37 H3         16.4298   -1.6870   16.6774 H         1 J0K         0.1634
     38 H4         13.8076    7.5237    9.3835 H         1 J0K         0.0688
     39 H5         21.8148    6.7789    9.9263 H         1 J0K         0.0374
     40 H6         22.2536    8.5186    9.8406 H         1 J0K         0.0374
     41 H7         20.7638    7.9271    9.0299 H         1 J0K         0.0374
     42 H8         20.4595   10.4797    9.7650 H         1 J0K         0.0374
     43 H9         20.3432   11.4811   11.2517 H         1 J0K         0.0374
     44 H10        18.8490   10.9131   10.4322 H         1 J0K         0.0374
     45 H11        18.3863   11.2014   13.0353 H         1 J0K         0.0374
     46 H12        18.9754   10.5159   14.5876 H         1 J0K         0.0374
     47 H13        17.4417    9.9198   13.8671 H         1 J0K         0.0374
     48 H14        21.4713    5.4070   11.6349 H         1 J0K         0.0374
     49 H15        20.0020    4.9961   12.5830 H         1 J0K         0.0374
     50 H16        21.4815    5.5715   13.4236 H         1 J0K         0.0374
     51 H17        19.4381    6.2684   14.8325 H         1 J0K         0.0374
     52 H18        17.9767    7.3120   14.7942 H         1 J0K         0.0374
     53 H19        19.4924    7.9161   15.5455 H         1 J0K         0.0374
     54 H20        20.0166    5.4651   10.5852 H         1 J0K         0.1454
     55 H21        17.8942   10.2815    9.8058 H         1 J0K         0.0803
     56 H22        14.0006   10.6023    7.7389 H         1 J0K         0.2528
     57 H23        13.8570    2.5395   15.8980 H         1 J0K         0.0608
     58 H24        14.7264    4.4644   14.6441 H         1 J0K         0.0527
     59 H25        17.9395    0.9090   15.7556 H         1 J0K         0.0608
     60 H26        18.5632    2.8402   14.4105 H         1 J0K         0.0527
     61 H27        17.4577    4.0280   11.9111 H         1 J0K         0.1102
     62 H28        17.2071    5.7481   14.3842 H         1 J0K         0.0239
     63 H29        17.9473    6.8586   11.7866 H         1 J0K         0.2415
@<TRIPOS>BOND
     1    1    5 ar 
     2    1   19 ar 
     3   19    2 ar 
     4    2   21 ar 
     5   22    3 am 
     6    5    4 ar 
     7    4   21 ar 
     8    5    6 1  
     9    6   32 am 
    10    6   33 2  
    11   22    7 2  
    12    8    9 ar 
    13    8   15 1  
    14    8   16 ar 
    15    9   10 1  
    16    9   11 ar 
    17   11   12 1  
    18   13   11 ar 
    19   13   14 1  
    20   16   13 ar 
    21   16   17 1  
    22   21   20 1  
    23   23   22 1  
    24   22   24 2  
    25   25   23 ar 
    26   27   23 ar 
    27   26   25 ar 
    28   31   26 ar 
    29   28   27 ar 
    30   31   28 ar 
    31   29   30 2  
    32   32   29 1  
    33   30   31 1  
    34   34    1 1  
    35   34    8 1  
    36   34    9 1  
    37   34   11 1  
    38   34   13 1  
    39   34   16 1  
    40   34   18 1  
    41   34   32 1  
    42    2   35 1  
    43    3   36 1  
    44    3   37 1  
    45    4   38 1  
    46   10   39 1  
    47   10   40 1  
    48   10   41 1  
    49   12   42 1  
    50   12   43 1  
    51   12   44 1  
    52   14   45 1  
    53   14   46 1  
    54   14   47 1  
    55   15   48 1  
    56   15   49 1  
    57   15   50 1  
    58   17   51 1  
    59   17   52 1  
    60   17   53 1  
    61   18   54 1  
    62   19   55 1  
    63   20   56 1  
    64   25   57 1  
    65   26   58 1  
    66   27   59 1  
    67   28   60 1  
    68   29   61 1  
    69   30   62 1  
    70   32   63 1  
@<TRIPOS>SUBSTRUCTURE
     1 J0K         1

