5arf_ligand
  -I-interpret- 

 57 59  0  0  0  0  0  0  0  0999 V2000
   13.6670  -16.7510   -6.3190 C   0  0  0  0  0
   14.0300  -18.0990   -6.3300 C   0  0  0  0  0
   13.6870  -18.8720   -5.1820 C   0  0  0  0  0
   14.1900  -20.4920   -5.2150 Cl  0  0  0  0  0
   13.0780  -18.2760   -4.0900 C   0  0  0  0  0
   12.7270  -16.9370   -4.1470 C   0  0  0  0  0
   13.0390  -16.1560   -5.2620 C   0  0  0  0  0
   12.7100  -14.8210   -5.3810 C   0  0  0  0  0
   13.0980  -13.9710   -6.3480 N   0  0  0  0  0
   11.7660  -14.0750   -4.4690 C   0  0  0  0  0
   12.2020  -13.9230   -3.0040 N   0  0  0  0  0
   11.1250  -14.1790   -1.9610 C   0  0  0  0  0
   10.1660  -13.0120   -1.7270 C   0  0  0  0  0
   13.4100  -13.4040   -2.7010 C   0  0  0  0  0
   14.2620  -13.2510   -3.5820 O   0  0  0  0  0
   13.7330  -13.0590   -1.2000 C   0  0  0  0  0
   15.1570  -12.9290   -0.9050 O   0  0  0  0  0
   11.7240  -12.7080   -5.0450 C   0  0  0  0  0
   12.5500  -12.8460   -6.2460 N   0  0  0  0  0
   12.9440  -11.8070   -7.0410 C   0  0  0  0  0
   12.3970  -10.5750   -6.8920 N   0  0  0  0  0
   12.8090   -9.4760   -7.6010 C   0  0  0  0  0
   13.1570   -8.5360   -8.1990 N   0  0  0  0  0
   13.9890  -12.1730   -7.8240 N   0  0  0  0  0
   14.4340  -11.5250   -8.9220 C   0  0  0  0  0
   15.7010  -11.0010   -8.9670 C   0  0  0  0  0
   13.6100  -11.4130  -10.0690 C   0  0  0  0  0
   14.0590  -10.7470  -11.2440 C   0  0  0  0  0
   15.3830  -10.2650  -11.2790 C   0  0  0  0  0
   16.1860  -10.3710  -10.1330 C   0  0  0  0  0
   17.4870   -9.8920  -10.1030 O   0  0  0  0  0
   17.7380   -8.7160  -10.9900 C   0  0  0  0  0
   18.8100   -8.0390  -10.4680 F   0  0  0  0  0
   18.0830   -9.3210  -12.0850 F   0  0  0  0  0
   13.8956  -16.1446   -7.1954 H   0  0  0  0  0
   14.5524  -18.5409   -7.1785 H   0  0  0  0  0
   12.8760  -18.8575   -3.1905 H   0  0  0  0  0
   12.1984  -16.4854   -3.3075 H   0  0  0  0  0
   10.8308  -14.6335   -4.4282 H   0  0  0  0  0
   11.6373  -14.3609   -1.0163 H   0  0  0  0  0
   10.5247  -15.0128   -2.3251 H   0  0  0  0  0
   10.7297  -12.1423   -1.3894 H   0  0  0  0  0
    9.6514  -12.7740   -2.6579 H   0  0  0  0  0
    9.4355  -13.2904   -0.9674 H   0  0  0  0  0
   13.3542  -13.8818   -0.5937 H   0  0  0  0  0
   13.2725  -12.0943   -0.9869 H   0  0  0  0  0
   15.2722  -12.7192    0.0247 H   0  0  0  0  0
   12.0905  -11.9438   -4.3596 H   0  0  0  0  0
   10.7117  -12.3654   -5.2594 H   0  0  0  0  0
   12.4788  -11.0880   -7.7154 H   0  0  0  0  0
   11.6402  -10.4600   -6.2179 H   0  0  0  0  0
   14.4882  -13.0216   -7.5572 H   0  0  0  0  0
   16.3428  -11.0723   -8.0889 H   0  0  0  0  0
   12.6101  -11.8465  -10.0512 H   0  0  0  0  0
   13.3941  -10.6128  -12.0973 H   0  0  0  0  0
   15.7798   -9.8138  -12.1884 H   0  0  0  0  0
   16.9181   -8.0082  -11.1117 H   0  0  0  0  0
  1  2  4  0  0  0
  1  7  4  0  0  0
  2  3  4  0  0  0
  3  4  1  0  0  0
  3  5  4  0  0  0
  5  6  4  0  0  0
  6  7  4  0  0  0
  7  8  1  0  0  0
  8  9  2  0  0  0
  8 10  1  0  0  0
  9 19  1  0  0  0
 10 11  1  0  0  0
 10 18  1  0  0  0
 11 12  1  0  0  0
 11 14  1  0  0  0
 12 13  1  0  0  0
 14 15  2  0  0  0
 14 16  1  0  0  0
 16 17  1  0  0  0
 18 19  1  0  0  0
 19 20  1  0  0  0
 20 21  1  0  0  0
 20 24  1  0  0  0
 21 22  1  0  0  0
 22 23  3  0  0  0
 24 25  1  0  0  0
 25 26  4  0  0  0
 25 27  4  0  0  0
 26 30  4  0  0  0
 27 28  4  0  0  0
 28 29  4  0  0  0
 29 30  4  0  0  0
 30 31  1  0  0  0
 31 32  1  0  0  0
 32 33  1  0  0  0
 32 34  1  0  0  0
  1 35  1  0  0  0
  2 36  1  0  0  0
  5 37  1  0  0  0
  6 38  1  0  0  0
 10 39  1  0  0  0
 12 40  1  0  0  0
 12 41  1  0  0  0
 13 42  1  0  0  0
 13 43  1  0  0  0
 13 44  1  0  0  0
 16 45  1  0  0  0
 16 46  1  0  0  0
 17 47  1  0  0  0
 18 48  1  0  0  0
 18 49  1  0  0  0
 20 50  1  0  0  0
 21 51  1  0  0  0
 24 52  1  0  0  0
 26 53  1  0  0  0
 27 54  1  0  0  0
 28 55  1  0  0  0
 29 56  1  0  0  0
 32 57  1  0  0  0
M  END
$$$$
