5ntt_ligand
  -I-interpret- 

 87 92  0  0  0  0  0  0  0  0999 V2000
    1.7170  -14.3480  -20.2750 C   0  0  0  0  0
    1.3440  -13.0850  -21.0300 C   0  0  0  0  0
    1.8170  -14.1460  -18.7940 C   0  0  0  0  0
    1.2710  -13.0500  -18.1700 C   0  0  0  0  0
    1.5270  -13.1860  -16.8260 N   0  0  0  0  0
    2.2070  -14.3430  -16.5810 N   0  0  0  0  0
    2.3740  -14.9240  -17.7800 C   0  0  0  0  0
    3.0980  -16.2080  -17.8970 C   0  0  0  0  0
    3.5410  -16.7290  -16.7300 N   0  0  0  0  0
    3.2890  -16.7210  -18.9960 O   0  0  0  0  0
    1.1930  -12.3180  -15.6980 C   0  0  0  0  0
    0.6400  -12.0050  -18.8510 C   0  0  0  0  0
    0.6710  -11.9860  -20.2570 C   0  0  0  0  0
    0.0650  -10.9150  -20.9100 C   0  0  0  0  0
   -0.5170   -9.9280  -20.2330 N   0  0  0  0  0
   -0.4900   -9.9970  -18.8890 C   0  0  0  0  0
    0.0780  -10.9890  -18.1850 N   0  0  0  0  0
   -1.0730   -9.0210  -18.1520 N   0  0  0  0  0
   -1.5440   -9.0690  -16.8190 C   0  0  0  0  0
   -1.5800   -7.8920  -16.0550 C   0  0  0  0  0
   -2.0500   -7.9590  -14.7570 C   0  0  0  0  0
   -2.4690   -9.1680  -14.2030 C   0  0  0  0  0
   -2.4230  -10.3250  -14.9710 C   0  0  0  0  0
   -1.9690  -10.2830  -16.2680 C   0  0  0  0  0
   -1.1400   -6.7480  -16.7160 O   0  0  0  0  0
   -2.9800   -9.2870  -12.8000 C   0  0  0  0  0
   -2.9190   -8.1620  -12.0060 N   0  0  0  0  0
   -3.4370  -10.3600  -12.4060 O   0  0  0  0  0
   -3.6230   -8.0630  -10.7220 C   0  0  0  0  0
   -2.6720   -7.6630   -9.6030 C   0  0  0  0  0
   -3.4280   -7.5440   -8.2880 C   0  0  0  0  0
   -4.5330   -6.5770   -8.3920 N   0  3  0  0  0
   -5.4760   -6.9570   -9.4550 C   0  0  0  0  0
   -4.7740   -7.0670  -10.8000 C   0  0  0  0  0
   -5.2280   -6.4180   -7.0910 C   0  0  0  0  0
   -0.9320   -5.6060  -16.0460 C   0  0  0  0  0
   -0.1940   -5.7610  -14.9600 F   0  0  0  0  0
   -2.0530   -5.0120  -15.6790 F   0  0  0  0  0
   -0.2980   -4.7490  -16.8200 F   0  0  0  0  0
    4.1950  -17.9820  -16.5410 C   0  0  0  0  0
    5.5760  -17.9940  -16.2970 C   0  0  0  0  0
    6.1920  -19.2360  -16.1190 C   0  0  0  0  0
    5.4720  -20.4100  -16.1680 C   0  0  0  0  0
    4.1160  -20.3720  -16.4070 C   0  0  0  0  0
    3.4390  -19.1640  -16.5950 C   0  0  0  0  0
    1.9460  -19.1860  -16.8510 C   0  0  0  0  0
    1.0690  -19.1170  -15.6200 C   0  0  0  0  0
    6.4080  -16.7290  -16.2480 C   0  0  0  0  0
    6.3790  -15.9800  -14.9380 C   0  0  0  0  0
    1.8945  -15.3068  -20.7622 H   0  0  0  0  0
    1.5565  -12.9791  -22.0938 H   0  0  0  0  0
    3.3909  -16.1641  -15.8941 H   0  0  0  0  0
    1.6547  -11.3414  -15.8436 H   0  0  0  0  0
    0.1107  -12.2042  -15.6368 H   0  0  0  0  0
    1.5655  -12.7635  -14.7756 H   0  0  0  0  0
    0.0676  -10.8847  -21.9996 H   0  0  0  0  0
   -1.1886   -8.1249  -18.6253 H   0  0  0  0  0
   -2.0939   -7.0508  -14.1559 H   0  0  0  0  0
   -2.7491  -11.2725  -14.5422 H   0  0  0  0  0
   -1.9402  -11.1938  -16.8661 H   0  0  0  0  0
   -2.3632   -7.3677  -12.3230 H   0  0  0  0  0
   -4.0291   -9.0499  -10.5001 H   0  0  0  0  0
   -2.2223   -6.6999   -9.8443 H   0  0  0  0  0
   -1.8991   -8.4249   -9.5024 H   0  0  0  0  0
   -2.7359   -7.1988   -7.5199 H   0  0  0  0  0
   -3.8434   -8.5200   -8.0370 H   0  0  0  0  0
   -4.1317   -5.6736   -8.6435 H   0  0  0  0  0
   -6.2469   -6.1897   -9.5267 H   0  0  0  0  0
   -5.9069   -7.9270   -9.2072 H   0  0  0  0  0
   -5.4902   -7.4115  -11.5460 H   0  0  0  0  0
   -4.3779   -6.0891  -11.0736 H   0  0  0  0  0
   -5.6340   -7.3798   -6.7775 H   0  0  0  0  0
   -4.5199   -6.0600   -6.3436 H   0  0  0  0  0
   -6.0390   -5.6978   -7.1994 H   0  0  0  0  0
    7.2660  -19.2769  -15.9374 H   0  0  0  0  0
    5.9741  -21.3658  -16.0181 H   0  0  0  0  0
    3.5574  -21.3070  -16.4506 H   0  0  0  0  0
    1.7290  -20.1398  -17.3319 H   0  0  0  0  0
    1.7206  -18.2977  -17.4411 H   0  0  0  0  0
    1.2821  -19.9697  -14.9754 H   0  0  0  0  0
    1.2740  -18.1921  -15.0808 H   0  0  0  0  0
    0.0214  -19.1396  -15.9201 H   0  0  0  0  0
    5.9930  -16.0562  -16.9985 H   0  0  0  0  0
    7.4426  -17.0325  -16.4083 H   0  0  0  0  0
    5.3546  -15.6829  -14.7134 H   0  0  0  0  0
    6.7540  -16.6253  -14.1436 H   0  0  0  0  0
    7.0076  -15.0928  -15.0142 H   0  0  0  0  0
  1  2  4  0  0  0
  1  3  4  0  0  0
  2 13  4  0  0  0
  3  4  4  0  0  0
  3  7  4  0  0  0
  4  5  4  0  0  0
  4 12  4  0  0  0
  5  6  4  0  0  0
  5 11  1  0  0  0
  6  7  4  0  0  0
  7  8  1  0  0  0
  8  9  1  0  0  0
  8 10  2  0  0  0
  9 40  1  0  0  0
 12 13  4  0  0  0
 12 17  4  0  0  0
 13 14  4  0  0  0
 14 15  4  0  0  0
 15 16  4  0  0  0
 16 17  4  0  0  0
 16 18  1  0  0  0
 18 19  1  0  0  0
 19 20  4  0  0  0
 19 24  4  0  0  0
 20 21  4  0  0  0
 20 25  1  0  0  0
 21 22  4  0  0  0
 22 23  4  0  0  0
 22 26  1  0  0  0
 23 24  4  0  0  0
 25 36  1  0  0  0
 26 27  1  0  0  0
 26 28  2  0  0  0
 27 29  1  0  0  0
 29 30  1  0  0  0
 29 34  1  0  0  0
 30 31  1  0  0  0
 31 32  1  0  0  0
 32 33  1  0  0  0
 32 35  1  0  0  0
 33 34  1  0  0  0
 36 37  1  0  0  0
 36 38  1  0  0  0
 36 39  1  0  0  0
 40 41  4  0  0  0
 40 45  4  0  0  0
 41 42  4  0  0  0
 41 48  1  0  0  0
 42 43  4  0  0  0
 43 44  4  0  0  0
 44 45  4  0  0  0
 45 46  1  0  0  0
 46 47  1  0  0  0
 48 49  1  0  0  0
  1 50  1  0  0  0
  2 51  1  0  0  0
  9 52  1  0  0  0
 11 53  1  0  0  0
 11 54  1  0  0  0
 11 55  1  0  0  0
 14 56  1  0  0  0
 18 57  1  0  0  0
 21 58  1  0  0  0
 23 59  1  0  0  0
 24 60  1  0  0  0
 27 61  1  0  0  0
 29 62  1  0  0  0
 30 63  1  0  0  0
 30 64  1  0  0  0
 31 65  1  0  0  0
 31 66  1  0  0  0
 32 67  1  0  0  0
 33 68  1  0  0  0
 33 69  1  0  0  0
 34 70  1  0  0  0
 34 71  1  0  0  0
 35 72  1  0  0  0
 35 73  1  0  0  0
 35 74  1  0  0  0
 42 75  1  0  0  0
 43 76  1  0  0  0
 44 77  1  0  0  0
 46 78  1  0  0  0
 46 79  1  0  0  0
 47 80  1  0  0  0
 47 81  1  0  0  0
 47 82  1  0  0  0
 48 83  1  0  0  0
 48 84  1  0  0  0
 49 85  1  0  0  0
 49 86  1  0  0  0
 49 87  1  0  0  0
M  END
$$$$
