6bcr_ligand
  -I-interpret- 

163164  0  0  0  0  0  0  0  0999 V2000
  -17.8270  -31.2820   46.1270 N   0  3  0  0  0
  -17.9620  -32.3670   45.1630 C   0  0  0  0  0
  -17.0730  -33.5480   45.5360 C   0  0  0  0  0
  -16.2650  -33.4640   46.4600 O   0  0  0  0  0
  -17.6170  -31.8770   43.7530 C   0  0  0  0  0
  -18.7070  -31.0470   43.1140 C   0  0  0  0  0
  -18.7460  -29.6690   43.2770 C   0  0  0  0  0
  -19.6970  -31.6440   42.3460 C   0  0  0  0  0
  -19.7420  -28.9080   42.6940 C   0  0  0  0  0
  -20.6970  -30.8930   41.7590 C   0  0  0  0  0
  -20.7150  -29.5260   41.9360 C   0  0  0  0  0
  -21.7100  -28.7750   41.3530 O   0  0  0  0  0
  -17.2350  -34.6510   44.8120 N   0  0  0  0  0
  -16.4080  -35.8250   45.0200 C   0  0  0  0  0
  -15.0670  -35.6510   44.3130 C   0  0  0  0  0
  -14.9260  -34.8630   43.3740 O   0  0  0  0  0
  -17.1160  -37.0790   44.5030 C   0  0  0  0  0
  -18.4220  -37.1970   45.0500 O   0  0  0  0  0
  -14.0740  -36.4010   44.7750 N   0  0  0  0  0
  -12.7500  -36.3650   44.1660 C   0  0  0  0  0
  -12.6790  -37.2930   42.9560 C   0  0  0  0  0
  -13.0520  -38.4620   43.0420 O   0  0  0  0  0
  -11.6770  -36.7620   45.1840 C   0  0  0  0  0
  -11.5520  -35.7700   46.3240 C   0  0  0  0  0
  -11.5240  -34.5590   46.1100 O   0  0  0  0  0
  -11.4760  -36.2820   47.5450 N   0  0  0  0  0
  -12.2030  -36.7580   41.8350 N   0  0  0  0  0
  -11.9100  -37.5440   40.6380 C   0  0  0  0  0
  -12.9680  -37.3170   39.5760 C   0  0  0  0  0
  -14.2720  -37.9820   40.0220 C   0  0  0  0  0
  -13.1140  -35.9040   39.4450 O   0  0  0  0  0
  -13.8790  -35.4850   38.0910 P   0  0  0  0  0
  -13.4040  -36.3870   36.8420 O   0  0  0  0  0
  -13.5170  -33.9510   37.7880 O   0  0  0  0  0
  -15.3450  -35.5860   38.2930 O   0  0  0  0  0
  -10.5350  -37.1550   40.1050 C   0  0  0  0  0
  -10.0290  -36.0750   40.4130 O   0  0  0  0  0
   -9.9420  -38.0280   39.2960 N   0  0  0  0  0
   -8.6360  -37.7620   38.6910 C   0  0  0  0  0
   -8.6940  -37.8600   37.1670 C   0  0  0  0  0
   -9.3590  -38.7440   36.6310 O   0  0  0  0  0
   -7.5960  -38.7420   39.2270 C   0  0  0  0  0
   -7.2750  -38.6060   40.7130 C   0  0  0  0  0
   -6.4650  -39.8030   41.1780 C   0  0  0  0  0
   -6.5300  -37.3080   40.9790 C   0  0  0  0  0
   -7.9870  -36.9630   36.4560 N   0  0  0  0  0
   -7.1420  -35.8710   36.9550 C   0  0  0  0  0
   -7.9500  -34.7020   37.5130 C   0  0  0  0  0
   -9.1780  -34.7250   37.4650 O   0  0  0  0  0
   -6.3560  -35.4440   35.7140 C   0  0  0  0  0
   -7.2450  -35.7820   34.5790 C   0  0  0  0  0
   -7.9620  -37.0390   34.9840 C   0  0  0  0  0
   -7.2550  -33.6970   38.0390 N   0  0  0  0  0
   -7.8860  -32.5230   38.6300 C   0  0  0  0  0
   -7.5910  -31.3150   37.7520 C   0  0  0  0  0
   -6.5790  -31.2700   37.0450 O   0  0  0  0  0
   -7.3830  -32.2870   40.0730 C   0  0  0  0  0
   -8.1750  -31.1790   40.7550 C   0  0  0  0  0
   -7.4600  -33.5750   40.8900 C   0  0  0  0  0
   -8.4960  -30.3380   37.7820 N   0  0  0  0  0
   -8.1680  -29.0180   37.2620 C   0  0  0  0  0
   -6.9540  -28.4610   37.9990 C   0  0  0  0  0
   -6.6630  -28.8350   39.1380 O   0  0  0  0  0
   -9.3420  -28.0520   37.4300 C   0  0  0  0  0
  -10.5150  -28.2750   36.4930 C   0  0  0  0  0
  -11.6090  -27.2380   36.7500 C   0  0  0  0  0
  -11.3800  -25.9950   36.0160 N   0  0  0  0  0
  -11.9280  -24.8220   36.3260 C   0  0  0  0  0
  -12.7340  -24.7110   37.3730 N   0  0  0  0  0
  -11.6620  -23.7510   35.5910 N   0  0  0  0  0
   -6.2450  -27.5480   37.3440 N   0  0  0  0  0
   -5.1260  -26.8770   37.9970 C   0  0  0  0  0
   -5.5840  -25.5560   38.6060 C   0  0  0  0  0
   -6.6720  -25.0660   38.3010 O   0  0  0  0  0
   -3.9790  -26.6350   37.0150 C   0  0  0  0  0
   -2.6990  -26.1180   37.6760 C   0  0  0  0  0
   -2.1770  -27.0810   38.7440 C   0  0  0  0  0
   -0.8150  -26.6560   39.2760 C   0  0  0  0  0
   -0.8400  -25.2880   39.8690 N   0  3  0  0  0
   -4.8740  -24.9560   39.4140 O   0  0  0  0  0
  -18.0601  -31.6256   47.0587 H   0  0  0  0  0
  -16.8660  -30.9402   46.1200 H   0  0  0  0  0
  -18.4607  -30.5237   45.8745 H   0  0  0  0  0
  -18.9996  -32.7004   45.1795 H   0  0  0  0  0
  -17.4703  -32.7583   43.1286 H   0  0  0  0  0
  -16.7324  -31.2455   43.8349 H   0  0  0  0  0
  -17.9780  -29.1785   43.8750 H   0  0  0  0  0
  -19.6853  -32.7246   42.2035 H   0  0  0  0  0
  -19.7585  -27.8269   42.8323 H   0  0  0  0  0
  -21.4671  -31.3784   41.1595 H   0  0  0  0  0
  -22.3009  -29.3528   40.8645 H   0  0  0  0  0
  -17.9581  -34.6726   44.0929 H   0  0  0  0  0
  -16.2338  -35.9422   46.0896 H   0  0  0  0  0
  -16.5354  -37.9525   44.7996 H   0  0  0  0  0
  -17.1991  -37.0083   43.4185 H   0  0  0  0  0
  -18.8403  -37.9907   44.7084 H   0  0  0  0  0
  -14.2407  -37.0150   45.5723 H   0  0  0  0  0
  -12.5655  -35.3433   43.8340 H   0  0  0  0  0
  -10.7196  -36.7949   44.6639 H   0  0  0  0  0
  -11.9605  -37.7248   45.6092 H   0  0  0  0  0
  -11.3905  -35.6647   48.3525 H   0  0  0  0  0
  -11.5030  -37.2931   47.6766 H   0  0  0  0  0
  -12.0346  -35.7523   41.8095 H   0  0  0  0  0
  -11.9137  -38.6027   40.8975 H   0  0  0  0  0
  -12.6938  -37.7509   38.6144 H   0  0  0  0  0
  -14.1064  -39.0512   40.1542 H   0  0  0  0  0
  -14.5975  -37.5440   40.9656 H   0  0  0  0  0
  -15.0377  -37.8228   39.2628 H   0  0  0  0  0
  -12.4538  -36.3047   36.7323 H   0  0  0  0  0
  -12.5700  -33.8672   37.6544 H   0  0  0  0  0
  -10.4116  -38.9099   39.0908 H   0  0  0  0  0
   -8.3509  -36.7443   38.9577 H   0  0  0  0  0
   -6.6703  -38.5397   38.6883 H   0  0  0  0  0
   -8.0082  -39.7413   39.0873 H   0  0  0  0  0
   -8.2072  -38.5790   41.2773 H   0  0  0  0  0
   -7.0402  -40.7145   41.0156 H   0  0  0  0  0
   -5.5350  -39.8529   40.6116 H   0  0  0  0  0
   -6.2403  -39.6979   42.2394 H   0  0  0  0  0
   -5.5987  -37.3024   40.4126 H   0  0  0  0  0
   -7.1492  -36.4655   40.6709 H   0  0  0  0  0
   -6.3098  -37.2286   42.0436 H   0  0  0  0  0
   -6.5155  -36.1902   37.7879 H   0  0  0  0  0
   -5.3937  -35.9512   35.6449 H   0  0  0  0  0
   -6.1039  -34.3838   35.7344 H   0  0  0  0  0
   -6.6779  -35.9266   33.6594 H   0  0  0  0  0
   -7.9464  -34.9744   34.3694 H   0  0  0  0  0
   -8.9606  -37.1074   34.5525 H   0  0  0  0  0
   -7.4650  -37.9385   34.6208 H   0  0  0  0  0
   -6.2364  -33.7501   38.0284 H   0  0  0  0  0
   -8.9628  -32.6825   38.6854 H   0  0  0  0  0
   -6.3404  -31.9744   40.0154 H   0  0  0  0  0
   -8.0629  -30.2535   40.1902 H   0  0  0  0  0
   -9.2281  -31.4576   40.7932 H   0  0  0  0  0
   -7.7987  -31.0358   41.7679 H   0  0  0  0  0
   -8.4939  -33.9179   40.9287 H   0  0  0  0  0
   -6.8398  -34.3389   40.4210 H   0  0  0  0  0
   -7.1010  -33.3842   41.9014 H   0  0  0  0  0
   -9.4222  -30.5152   38.1707 H   0  0  0  0  0
   -7.9477  -29.1189   36.1993 H   0  0  0  0  0
   -8.9567  -27.0561   37.2115 H   0  0  0  0  0
   -9.7215  -28.1994   38.4411 H   0  0  0  0  0
  -10.9228  -29.2709   36.6663 H   0  0  0  0  0
  -10.1698  -28.1785   35.4636 H   0  0  0  0  0
  -11.6109  -27.0059   37.8150 H   0  0  0  0  0
  -12.5577  -27.6579   36.4156 H   0  0  0  0  0
  -10.7564  -26.0286   35.2095 H   0  0  0  0  0
  -13.1439  -23.8069   37.6075 H   0  0  0  0  0
  -12.9441  -25.5297   37.9440 H   0  0  0  0  0
  -11.0375  -23.8258   34.7880 H   0  0  0  0  0
   -6.4841  -27.3151   36.3802 H   0  0  0  0  0
   -4.7607  -27.5271   38.7920 H   0  0  0  0  0
   -4.3106  -25.8737   36.3089 H   0  0  0  0  0
   -3.7414  -27.5920   36.5504 H   0  0  0  0  0
   -2.9238  -25.1656   38.1561 H   0  0  0  0  0
   -1.9346  -26.0161   36.9057 H   0  0  0  0  0
   -2.0747  -28.0681   38.2931 H   0  0  0  0  0
   -2.8824  -27.0843   39.5750 H   0  0  0  0  0
   -0.1133  -26.6500   38.4419 H   0  0  0  0  0
   -0.5235  -27.3578   40.0574 H   0  0  0  0  0
    0.0913  -25.0495   40.2099 H   0  0  0  0  0
   -1.1254  -24.6154   39.1573 H   0  0  0  0  0
   -1.5029  -25.2667   40.6439 H   0  0  0  0  0
   -4.0635  -25.4508   39.5553 H   0  0  0  0  0
  1  2  1  0  0  0
  2  3  1  0  0  0
  2  5  1  0  0  0
  3  4  2  0  0  0
  3 13  1  0  0  0
  5  6  1  0  0  0
  6  7  4  0  0  0
  6  8  4  0  0  0
  7  9  4  0  0  0
  8 10  4  0  0  0
  9 11  4  0  0  0
 10 11  4  0  0  0
 11 12  1  0  0  0
 13 14  1  0  0  0
 14 15  1  0  0  0
 14 17  1  0  0  0
 15 16  2  0  0  0
 15 19  1  0  0  0
 17 18  1  0  0  0
 19 20  1  0  0  0
 20 21  1  0  0  0
 20 23  1  0  0  0
 21 22  2  0  0  0
 21 27  1  0  0  0
 23 24  1  0  0  0
 24 25  2  0  0  0
 24 26  1  0  0  0
 27 28  1  0  0  0
 28 29  1  0  0  0
 28 36  1  0  0  0
 29 30  1  0  0  0
 29 31  1  0  0  0
 31 32  1  0  0  0
 32 33  1  0  0  0
 32 34  1  0  0  0
 32 35  2  0  0  0
 36 37  2  0  0  0
 36 38  1  0  0  0
 38 39  1  0  0  0
 39 40  1  0  0  0
 39 42  1  0  0  0
 40 41  2  0  0  0
 40 46  1  0  0  0
 42 43  1  0  0  0
 43 44  1  0  0  0
 43 45  1  0  0  0
 46 47  1  0  0  0
 46 52  1  0  0  0
 47 48  1  0  0  0
 47 50  1  0  0  0
 48 49  2  0  0  0
 48 53  1  0  0  0
 50 51  1  0  0  0
 51 52  1  0  0  0
 53 54  1  0  0  0
 54 55  1  0  0  0
 54 57  1  0  0  0
 55 56  2  0  0  0
 55 60  1  0  0  0
 57 58  1  0  0  0
 57 59  1  0  0  0
 60 61  1  0  0  0
 61 62  1  0  0  0
 61 64  1  0  0  0
 62 63  2  0  0  0
 62 71  1  0  0  0
 64 65  1  0  0  0
 65 66  1  0  0  0
 66 67  1  0  0  0
 67 68  1  0  0  0
 68 69  1  0  0  0
 68 70  2  0  0  0
 71 72  1  0  0  0
 72 73  1  0  0  0
 72 75  1  0  0  0
 73 74  2  0  0  0
 73 80  1  0  0  0
 75 76  1  0  0  0
 76 77  1  0  0  0
 77 78  1  0  0  0
 78 79  1  0  0  0
  1 81  1  0  0  0
  1 82  1  0  0  0
  1 83  1  0  0  0
  2 84  1  0  0  0
  5 85  1  0  0  0
  5 86  1  0  0  0
  7 87  1  0  0  0
  8 88  1  0  0  0
  9 89  1  0  0  0
 10 90  1  0  0  0
 12 91  1  0  0  0
 13 92  1  0  0  0
 14 93  1  0  0  0
 17 94  1  0  0  0
 17 95  1  0  0  0
 18 96  1  0  0  0
 19 97  1  0  0  0
 20 98  1  0  0  0
 23 99  1  0  0  0
 23100  1  0  0  0
 26101  1  0  0  0
 26102  1  0  0  0
 27103  1  0  0  0
 28104  1  0  0  0
 29105  1  0  0  0
 30106  1  0  0  0
 30107  1  0  0  0
 30108  1  0  0  0
 33109  1  0  0  0
 34110  1  0  0  0
 38111  1  0  0  0
 39112  1  0  0  0
 42113  1  0  0  0
 42114  1  0  0  0
 43115  1  0  0  0
 44116  1  0  0  0
 44117  1  0  0  0
 44118  1  0  0  0
 45119  1  0  0  0
 45120  1  0  0  0
 45121  1  0  0  0
 47122  1  0  0  0
 50123  1  0  0  0
 50124  1  0  0  0
 51125  1  0  0  0
 51126  1  0  0  0
 52127  1  0  0  0
 52128  1  0  0  0
 53129  1  0  0  0
 54130  1  0  0  0
 57131  1  0  0  0
 58132  1  0  0  0
 58133  1  0  0  0
 58134  1  0  0  0
 59135  1  0  0  0
 59136  1  0  0  0
 59137  1  0  0  0
 60138  1  0  0  0
 61139  1  0  0  0
 64140  1  0  0  0
 64141  1  0  0  0
 65142  1  0  0  0
 65143  1  0  0  0
 66144  1  0  0  0
 66145  1  0  0  0
 67146  1  0  0  0
 69147  1  0  0  0
 69148  1  0  0  0
 70149  1  0  0  0
 71150  1  0  0  0
 72151  1  0  0  0
 75152  1  0  0  0
 75153  1  0  0  0
 76154  1  0  0  0
 76155  1  0  0  0
 77156  1  0  0  0
 77157  1  0  0  0
 78158  1  0  0  0
 78159  1  0  0  0
 79160  1  0  0  0
 79161  1  0  0  0
 79162  1  0  0  0
 80163  1  0  0  0
M  END
$$$$
