### 
### Created by X-TOOL on Mon Aug  2 16:11:42 2021
### 

@<TRIPOS>MOLECULE
6bcr_ligand
  161   162     1     0     0
SMALL
GAST_HUCK


@<TRIPOS>ATOM
      1 N         -17.8270  -31.2820   46.1270 N.4       1 TYR         0.2392
      2 CA        -17.9620  -32.3670   45.1630 C.3       1 TYR         0.0730
      3 C         -17.0730  -33.5480   45.5360 C.2       1 TYR         0.2286
      4 O         -16.2650  -33.4640   46.4600 O.2       1 TYR        -0.3905
      5 CB        -17.6170  -31.8770   43.7530 C.3       1 TYR         0.0365
      6 CG        -18.7070  -31.0470   43.1140 C.ar      1 TYR        -0.0460
      7 CD1       -18.7460  -29.6690   43.2770 C.ar      1 TYR        -0.0684
      8 CD2       -19.6970  -31.6440   42.3460 C.ar      1 TYR        -0.0684
      9 CE1       -19.7420  -28.9080   42.6940 C.ar      1 TYR        -0.0398
     10 CE2       -20.6970  -30.8930   41.7590 C.ar      1 TYR        -0.0398
     11 CZ        -20.7150  -29.5260   41.9360 C.ar      1 TYR         0.0805
     12 OH        -21.7100  -28.7750   41.3530 O.3       1 TYR        -0.3376
     13 N         -17.2350  -34.6510   44.8120 N.am      1 TYR        -0.2587
     14 CA        -16.4080  -35.8250   45.0200 C.3       1 TYR         0.1540
     15 C         -15.0670  -35.6510   44.3130 C.2       1 TYR         0.2063
     16 O         -14.9260  -34.8630   43.3740 O.2       1 TYR        -0.3943
     17 CB        -17.1160  -37.0790   44.5030 C.3       1 TYR         0.0843
     18 OG        -18.4220  -37.1970   45.0500 O.3       1 TYR        -0.3903
     19 N         -14.0740  -36.4010   44.7750 N.am      1 TYR        -0.2615
     20 CA        -12.7500  -36.3650   44.1660 C.3       1 TYR         0.1476
     21 C         -12.6790  -37.2930   42.9560 C.2       1 TYR         0.2063
     22 O         -13.0520  -38.4620   43.0420 O.2       1 TYR        -0.3942
     23 CB        -11.6770  -36.7620   45.1840 C.3       1 TYR         0.0773
     24 CG        -11.5520  -35.7700   46.3240 C.2       1 TYR         0.1780
     25 OD1       -11.5240  -34.5590   46.1100 O.2       1 TYR        -0.3970
     26 ND2       -11.4760  -36.2820   47.5450 N.am      1 TYR        -0.3007
     27 N         -12.2030  -36.7580   41.8350 N.am      1 TYR        -0.2609
     28 CA        -11.9100  -37.5440   40.6380 C.3       1 TYR         0.1612
     29 CB        -12.9680  -37.3170   39.5760 C.3       1 TYR         0.1262
     30 CG2       -14.2720  -37.9820   40.0220 C.3       1 TYR        -0.0298
     31 OG1       -13.1140  -35.9040   39.4450 O.3       1 TYR        -0.2685
     32 P         -13.8790  -35.4850   38.0910 P.3       1 TYR         0.2014
     33 O1P       -13.4040  -36.3870   36.8420 O.co2     1 TYR        -0.5537
     34 O2P       -13.5170  -33.9510   37.7880 O.co2     1 TYR        -0.5537
     35 O3P       -15.3450  -35.5860   38.2930 O.co2     1 TYR        -0.5537
     36 C         -10.5350  -37.1550   40.1050 C.2       1 TYR         0.2068
     37 O         -10.0290  -36.0750   40.4130 O.2       1 TYR        -0.3943
     38 N          -9.9420  -38.0280   39.2960 N.am      1 TYR        -0.2636
     39 CA         -8.6360  -37.7620   38.6910 C.3       1 TYR         0.1314
     40 C          -8.6940  -37.8600   37.1670 C.2       1 TYR         0.2064
     41 O          -9.3590  -38.7440   36.6310 O.2       1 TYR        -0.3942
     42 CB         -7.5960  -38.7420   39.2270 C.3       1 TYR        -0.0101
     43 CG         -7.2750  -38.6060   40.7130 C.3       1 TYR        -0.0425
     44 CD1        -6.4650  -39.8030   41.1780 C.3       1 TYR        -0.0625
     45 CD2        -6.5300  -37.3080   40.9790 C.3       1 TYR        -0.0625
     46 N          -7.9870  -36.9630   36.4560 N.am      1 TYR        -0.2498
     47 CA         -7.1420  -35.8710   36.9550 C.3       1 TYR         0.1338
     48 C          -7.9500  -34.7020   37.5130 C.2       1 TYR         0.2041
     49 O          -9.1780  -34.7250   37.4650 O.2       1 TYR        -0.3944
     50 CB         -6.3560  -35.4440   35.7140 C.3       1 TYR        -0.0104
     51 CG         -7.2450  -35.7820   34.5790 C.3       1 TYR        -0.0281
     52 CD         -7.9620  -37.0390   34.9840 C.3       1 TYR         0.0369
     53 N          -7.2550  -33.6970   38.0390 N.am      1 TYR        -0.2635
     54 CA         -7.8860  -32.5230   38.6300 C.3       1 TYR         0.1332
     55 C          -7.5910  -31.3150   37.7520 C.2       1 TYR         0.2041
     56 O          -6.5790  -31.2700   37.0450 O.2       1 TYR        -0.3944
     57 CB         -7.3830  -32.2870   40.0730 C.3       1 TYR        -0.0063
     58 CG1        -8.1750  -31.1790   40.7550 C.3       1 TYR        -0.0584
     59 CG2        -7.4600  -33.5750   40.8900 C.3       1 TYR        -0.0584
     60 N          -8.4960  -30.3380   37.7820 N.am      1 TYR        -0.2637
     61 CA         -8.1680  -29.0180   37.2620 C.3       1 TYR         0.1310
     62 C          -6.9540  -28.4610   37.9990 C.2       1 TYR         0.2033
     63 O          -6.6630  -28.8350   39.1380 O.2       1 TYR        -0.3944
     64 CB         -9.3420  -28.0520   37.4300 C.3       1 TYR        -0.0092
     65 CG        -10.5150  -28.2750   36.4930 C.3       1 TYR        -0.0156
     66 CD        -11.6090  -27.2380   36.7500 C.3       1 TYR         0.0627
     67 NE        -11.3800  -25.9950   36.0160 N.pl3     1 TYR        -0.2723
     68 CZ        -11.9280  -24.8220   36.3260 C.cat     1 TYR         0.2882
     69 NH1       -12.7340  -24.7110   37.3730 N.pl3     1 TYR        -0.2849
     70 NH2       -11.6620  -23.7510   35.5910 N.pl3     1 TYR        -0.2849
     71 N          -6.2450  -27.5480   37.3440 N.am      1 TYR        -0.2695
     72 CA         -5.1260  -26.8770   37.9970 C.3       1 TYR         0.0944
     73 C          -5.5840  -25.5560   38.6060 C.2       1 TYR         0.0601
     74 O          -6.6720  -25.0660   38.3010 O.co2     1 TYR        -0.5666
     75 CB         -3.9790  -26.6350   37.0150 C.3       1 TYR        -0.0177
     76 CG         -2.6990  -26.1180   37.6760 C.3       1 TYR        -0.0446
     77 CD         -2.1770  -27.0810   38.7440 C.3       1 TYR        -0.0125
     78 CE         -0.8150  -26.6560   39.2760 C.3       1 TYR        -0.0354
     79 NZ         -0.8400  -25.2880   39.8690 N.4       1 TYR         0.2185
     80 OXT        -4.8740  -24.9560   39.4140 O.co2     1 TYR        -0.5666
     81 H1        -18.4241  -30.5162   45.8567 H         1 TYR         0.2017
     82 H2        -16.8690  -30.9694   46.1491 H         1 TYR         0.2017
     83 H3        -18.0946  -31.6100   47.0418 H         1 TYR         0.2017
     84 H4        -19.0086  -32.7054   45.1687 H         1 TYR         0.1120
     85 H5        -17.4305  -32.7545   43.1164 H         1 TYR         0.0486
     86 H6        -16.7044  -31.2657   43.8114 H         1 TYR         0.0486
     87 H7        -17.9822  -29.1812   43.8718 H         1 TYR         0.0530
     88 H8        -19.6854  -32.7186   42.2042 H         1 TYR         0.0530
     89 H9        -19.7584  -27.8329   42.8315 H         1 TYR         0.0525
     90 H10       -21.4629  -31.3758   41.1628 H         1 TYR         0.0525
     91 H11       -21.5814  -27.8588   41.5688 H         1 TYR         0.2458
     92 H12       -17.9439  -34.6722   44.1070 H         1 TYR         0.1885
     93 H13       -16.2271  -35.9422   46.0987 H         1 TYR         0.0823
     94 H14       -16.5279  -37.9647   44.7854 H         1 TYR         0.0606
     95 H15       -17.1904  -37.0224   43.4070 H         1 TYR         0.0606
     96 H16       -18.9363  -36.4365   44.8058 H         1 TYR         0.2097
     97 H17       -14.2375  -37.0029   45.5567 H         1 TYR         0.1885
     98 H18       -12.5514  -35.3366   43.8299 H         1 TYR         0.0826
     99 H19       -10.7084  -36.8264   44.6666 H         1 TYR         0.0551
    100 H20       -11.9358  -37.7462   45.6016 H         1 TYR         0.0551
    101 H21       -11.3923  -35.6768   48.3366 H         1 TYR         0.1814
    102 H22       -11.5024  -37.2733   47.6740 H         1 TYR         0.1814
    103 H23       -12.0379  -35.7720   41.8100 H         1 TYR         0.1884
    104 H24       -11.9016  -38.6110   40.9054 H         1 TYR         0.0830
    105 H25       -12.6476  -37.7497   38.6168 H         1 TYR         0.0695
    106 H26       -15.0456  -37.8220   39.2566 H         1 TYR         0.0260
    107 H27       -14.6016  -37.5408   40.9742 H         1 TYR         0.0260
    108 H28       -14.1062  -39.0612   40.1557 H         1 TYR         0.0260
    109 H29       -10.4024  -38.8926   39.0948 H         1 TYR         0.1883
    110 H30        -8.3309  -36.7407   38.9627 H         1 TYR         0.0800
    111 H31        -6.6639  -38.5903   38.6630 H         1 TYR         0.0315
    112 H32        -7.9686  -39.7621   39.0520 H         1 TYR         0.0315
    113 H33        -8.2201  -38.5847   41.2754 H         1 TYR         0.0298
    114 H34        -6.2376  -39.6981   42.2491 H         1 TYR         0.0232
    115 H35        -5.5261  -39.8545   40.6072 H         1 TYR         0.0232
    116 H36        -7.0444  -40.7236   41.0147 H         1 TYR         0.0232
    117 H37        -7.1379  -36.4589   40.6333 H         1 TYR         0.0232
    118 H38        -5.5722  -37.3174   40.4381 H         1 TYR         0.0232
    119 H39        -6.3408  -37.2083   42.0580 H         1 TYR         0.0232
    120 H40        -6.4637  -36.2401   37.7384 H         1 TYR         0.0802
    121 H41        -5.4083  -35.9980   35.6441 H         1 TYR         0.0313
    122 H42        -6.1486  -34.3640   35.7374 H         1 TYR         0.0313
    123 H43        -6.6542  -35.9544   33.6673 H         1 TYR         0.0287
    124 H44        -7.9654  -34.9700   34.4011 H         1 TYR         0.0287
    125 H45        -8.9826  -37.0587   34.5741 H         1 TYR         0.0524
    126 H46        -7.4137  -37.9306   34.6457 H         1 TYR         0.0524
    127 H47        -6.2564  -33.7490   38.0286 H         1 TYR         0.1883
    128 H48        -8.9738  -32.6830   38.6626 H         1 TYR         0.0802
    129 H49        -6.3297  -31.9743   40.0212 H         1 TYR         0.0343
    130 H50        -7.7962  -31.0335   41.7774 H         1 TYR         0.0234
    131 H51        -9.2380  -31.4589   40.7943 H         1 TYR         0.0234
    132 H52        -8.0627  -30.2444   40.1859 H         1 TYR         0.0234
    133 H53        -6.8839  -34.3644   40.3851 H         1 TYR         0.0234
    134 H54        -8.5102  -33.8890   40.9814 H         1 TYR         0.0234
    135 H55        -7.0412  -33.3993   41.8919 H         1 TYR         0.0234
    136 H56        -9.4041  -30.5117   38.1631 H         1 TYR         0.1883
    137 H57        -7.9310  -29.1080   36.1916 H         1 TYR         0.0800
    138 H58        -8.9666  -27.0313   37.2649 H         1 TYR         0.0313
    139 H59        -9.7112  -28.1445   38.4620 H         1 TYR         0.0313
    140 H60       -10.9247  -29.2823   36.6589 H         1 TYR         0.0301
    141 H61       -10.1693  -28.1865   35.4525 H         1 TYR         0.0301
    142 H62       -11.6370  -27.0129   37.8263 H         1 TYR         0.0689
    143 H63       -12.5760  -27.6596   36.4383 H         1 TYR         0.0689
    144 H64       -10.7503  -26.0290   35.2016 H         1 TYR         0.2642
    145 H65       -13.1536  -23.7996   37.6055 H         1 TYR         0.2615
    146 H66       -12.9405  -25.5362   37.9538 H         1 TYR         0.2615
    147 H67       -11.0370  -23.8280   34.7759 H         1 TYR         0.2615
    148 H68       -12.0804  -22.8420   35.8351 H         1 TYR         0.2615
    149 H69        -6.4794  -27.3197   36.3991 H         1 TYR         0.1875
    150 H70        -4.7582  -27.5256   38.8058 H         1 TYR         0.0726
    151 H71        -4.3091  -25.8943   36.2718 H         1 TYR         0.0305
    152 H72        -3.7491  -27.5844   36.5094 H         1 TYR         0.0305
    153 H73        -2.9096  -25.1462   38.1464 H         1 TYR         0.0269
    154 H74        -1.9263  -25.9917   36.9034 H         1 TYR         0.0269
    155 H75        -2.0893  -28.0856   38.3045 H         1 TYR         0.0317
    156 H76        -2.8924  -27.1073   39.5792 H         1 TYR         0.0317
    157 H77        -0.0919  -26.6689   38.4472 H         1 TYR         0.0813
    158 H78        -0.4988  -27.3710   40.0498 H         1 TYR         0.0813
    159 H79         0.0799  -25.0512   40.2063 H         1 TYR         0.1994
    160 H80        -1.4948  -25.2657   40.6350 H         1 TYR         0.1994
    161 H81        -1.1219  -24.6224   39.1665 H         1 TYR         0.1994
@<TRIPOS>BOND
     1    1    2 1  
     2    2    3 1  
     3    2    5 1  
     4    3    4 2  
     5    3   13 am 
     6    5    6 1  
     7    6    7 ar 
     8    6    8 ar 
     9    7    9 ar 
    10    8   10 ar 
    11    9   11 ar 
    12   10   11 ar 
    13   11   12 1  
    14   13   14 1  
    15   14   15 1  
    16   14   17 1  
    17   15   16 2  
    18   15   19 am 
    19   17   18 1  
    20   19   20 1  
    21   20   21 1  
    22   20   23 1  
    23   21   22 2  
    24   21   27 am 
    25   23   24 1  
    26   24   25 2  
    27   24   26 am 
    28   27   28 1  
    29   28   29 1  
    30   28   36 1  
    31   29   30 1  
    32   29   31 1  
    33   31   32 1  
    34   32   33 ar 
    35   32   34 ar 
    36   32   35 ar 
    37   36   37 2  
    38   36   38 am 
    39   38   39 1  
    40   39   40 1  
    41   39   42 1  
    42   40   41 2  
    43   40   46 am 
    44   42   43 1  
    45   43   44 1  
    46   43   45 1  
    47   46   47 1  
    48   46   52 1  
    49   47   48 1  
    50   47   50 1  
    51   48   49 2  
    52   48   53 am 
    53   50   51 1  
    54   51   52 1  
    55   53   54 1  
    56   54   55 1  
    57   54   57 1  
    58   55   56 2  
    59   55   60 am 
    60   57   58 1  
    61   57   59 1  
    62   60   61 1  
    63   61   62 1  
    64   61   64 1  
    65   62   63 2  
    66   62   71 am 
    67   64   65 1  
    68   65   66 1  
    69   66   67 1  
    70   67   68 ar 
    71   68   69 ar 
    72   68   70 ar 
    73   71   72 1  
    74   72   73 1  
    75   72   75 1  
    76   73   74 ar 
    77   73   80 ar 
    78   75   76 1  
    79   76   77 1  
    80   77   78 1  
    81   78   79 1  
    82    1   81 1  
    83    1   82 1  
    84    1   83 1  
    85    2   84 1  
    86    5   85 1  
    87    5   86 1  
    88    7   87 1  
    89    8   88 1  
    90    9   89 1  
    91   10   90 1  
    92   12   91 1  
    93   13   92 1  
    94   14   93 1  
    95   17   94 1  
    96   17   95 1  
    97   18   96 1  
    98   19   97 1  
    99   20   98 1  
   100   23   99 1  
   101   23  100 1  
   102   26  101 1  
   103   26  102 1  
   104   27  103 1  
   105   28  104 1  
   106   29  105 1  
   107   30  106 1  
   108   30  107 1  
   109   30  108 1  
   110   38  109 1  
   111   39  110 1  
   112   42  111 1  
   113   42  112 1  
   114   43  113 1  
   115   44  114 1  
   116   44  115 1  
   117   44  116 1  
   118   45  117 1  
   119   45  118 1  
   120   45  119 1  
   121   47  120 1  
   122   50  121 1  
   123   50  122 1  
   124   51  123 1  
   125   51  124 1  
   126   52  125 1  
   127   52  126 1  
   128   53  127 1  
   129   54  128 1  
   130   57  129 1  
   131   58  130 1  
   132   58  131 1  
   133   58  132 1  
   134   59  133 1  
   135   59  134 1  
   136   59  135 1  
   137   60  136 1  
   138   61  137 1  
   139   64  138 1  
   140   64  139 1  
   141   65  140 1  
   142   65  141 1  
   143   66  142 1  
   144   66  143 1  
   145   67  144 1  
   146   69  145 1  
   147   69  146 1  
   148   70  147 1  
   149   70  148 1  
   150   71  149 1  
   151   72  150 1  
   152   75  151 1  
   153   75  152 1  
   154   76  153 1  
   155   76  154 1  
   156   77  155 1  
   157   77  156 1  
   158   78  157 1  
   159   78  158 1  
   160   79  159 1  
   161   79  160 1  
   162   79  161 1  
@<TRIPOS>SUBSTRUCTURE
     1 TYR         1

