1jj9_ligand
  -I-interpret- 

 46 48  0  0  0  0  0  0  0  0999 V2000
   24.3150   27.4830   27.0610 N   0  0  0  0  0
   23.5950   26.3530   26.9590 C   0  0  0  0  0
   23.0520   26.1850   25.7910 O   0  0  0  0  0
   23.4720   25.4320   27.9060 N   0  0  0  0  0
   24.0080   25.6210   29.1200 C   0  0  0  0  0
   23.8690   24.8070   30.0470 O   0  0  0  0  0
   24.6160   27.0710   29.4160 C   0  0  0  0  0
   24.9740   27.8020   28.1750 C   0  0  0  0  0
   25.6600   28.8100   28.2810 O   0  0  0  0  0
   25.6280   27.0340   30.4080 N   0  3  0  0  0
   25.1780   26.9620   31.8130 C   0  0  0  0  0
   26.1970   27.4360   32.7840 C   0  0  0  0  0
   27.5310   26.7630   32.4850 C   0  0  0  0  0
   27.9500   27.0120   31.0300 C   0  0  0  0  0
   26.9280   26.4510   29.9840 C   0  0  0  0  0
   28.6030   27.2320   33.4750 C   0  0  0  0  0
   29.6880   26.1820   33.7180 C   0  0  0  0  0
   30.4180   26.8140   34.7620 O   0  0  0  0  0
   23.3870   27.9430   29.9950 C   0  0  0  0  0
   22.1090   27.4260   30.1310 C   0  0  0  0  0
   23.5610   29.2890   30.3400 C   0  0  0  0  0
   21.0090   28.2170   30.6090 C   0  0  0  0  0
   22.4990   30.1040   30.8190 C   0  0  0  0  0
   21.2050   29.5700   30.9530 C   0  0  0  0  0
   24.3586   28.1156   26.2621 H   0  0  0  0  0
   22.9637   24.5701   27.7080 H   0  0  0  0  0
   25.9615   27.9948   30.4863 H   0  0  0  0  0
   24.9711   25.9158   32.0384 H   0  0  0  0  0
   24.3050   27.6072   31.9118 H   0  0  0  0  0
   25.8806   27.1842   33.7962 H   0  0  0  0  0
   26.3069   28.5170   32.6983 H   0  0  0  0  0
   27.4162   25.6864   32.6105 H   0  0  0  0  0
   28.8991   26.5006   30.8692 H   0  0  0  0  0
   28.0098   28.0907   30.8852 H   0  0  0  0  0
   27.1902   26.7228   28.9615 H   0  0  0  0  0
   26.9078   25.3613   29.9677 H   0  0  0  0  0
   28.1124   27.4308   34.4278 H   0  0  0  0  0
   29.0826   28.1152   33.0530 H   0  0  0  0  0
   30.2827   25.9385   32.8376 H   0  0  0  0  0
   29.3070   25.1927   33.9714 H   0  0  0  0  0
   31.1513   26.2524   35.0236 H   0  0  0  0  0
   21.9319   26.3836   29.8663 H   0  0  0  0  0
   24.5523   29.7304   30.2370 H   0  0  0  0  0
   20.0198   27.7696   30.7060 H   0  0  0  0  0
   22.6882   31.1445   31.0828 H   0  0  0  0  0
   20.3787   30.1836   31.3119 H   0  0  0  0  0
  1  8  1  0  0  0
  1  2  1  0  0  0
  2  4  1  0  0  0
  2  3  2  0  0  0
  4  5  1  0  0  0
  5  7  1  0  0  0
  5  6  2  0  0  0
  7 19  1  0  0  0
  7 10  1  0  0  0
  7  8  1  0  0  0
  8  9  2  0  0  0
 10 15  1  0  0  0
 10 11  1  0  0  0
 11 12  1  0  0  0
 12 13  1  0  0  0
 13 16  1  0  0  0
 13 14  1  0  0  0
 14 15  1  0  0  0
 16 17  1  0  0  0
 17 18  1  0  0  0
 19 21  4  0  0  0
 19 20  4  0  0  0
 20 22  4  0  0  0
 22 24  4  0  0  0
 24 23  4  0  0  0
 23 21  4  0  0  0
  1 25  1  0  0  0
  4 26  1  0  0  0
 10 27  1  0  0  0
 11 28  1  0  0  0
 11 29  1  0  0  0
 12 30  1  0  0  0
 12 31  1  0  0  0
 13 32  1  0  0  0
 14 33  1  0  0  0
 14 34  1  0  0  0
 15 35  1  0  0  0
 15 36  1  0  0  0
 16 37  1  0  0  0
 16 38  1  0  0  0
 17 39  1  0  0  0
 17 40  1  0  0  0
 18 41  1  0  0  0
 20 42  1  0  0  0
 21 43  1  0  0  0
 22 44  1  0  0  0
 23 45  1  0  0  0
 24 46  1  0  0  0
M  END
$$$$
