4jn2_ligand
  -I-interpret- 

 60 63  0  0  0  0  0  0  0  0999 V2000
  -37.6250   52.8690    0.1470 C   0  0  0  0  0
  -39.0170   53.0290    0.0480 N   0  0  0  0  0
  -39.9370   52.8580    1.1890 C   0  0  0  0  0
  -39.6760   53.9330    2.2230 C   0  0  0  0  0
  -39.3420   55.1590    1.9430 N   0  0  0  0  0
  -39.1060   55.8450    3.1040 C   0  0  0  0  0
  -38.7090   57.1600    3.4110 C   0  0  0  0  0
  -38.5660   57.5290    4.7600 C   0  0  0  0  0
  -38.0740   58.8830    5.1270 C   0  0  0  0  0
  -38.3480   59.8250    4.4020 O   0  0  0  0  0
  -37.2980   59.0420    6.2420 N   0  0  0  0  0
  -36.2080   58.1760    6.4670 C   0  0  0  0  0
  -35.4870   57.5720    5.4260 C   0  0  0  0  0
  -34.4590   56.6870    5.7430 C   0  0  0  0  0
  -34.1630   56.4250    7.0800 C   0  0  0  0  0
  -34.9190   57.0470    8.0620 C   0  0  0  0  0
  -35.9100   57.8630    7.7270 N   0  0  0  0  0
  -37.0810   60.4290    6.6980 C   0  0  0  0  0
  -36.1000   61.1930    5.8010 C   0  0  0  0  0
  -35.7670   62.5420    6.4030 C   0  0  0  0  0
  -35.1340   63.3580    5.7540 O   0  0  0  0  0
  -36.1230   62.8150    7.5380 O   0  0  0  0  0
  -38.8100   56.6030    5.7830 C   0  0  0  0  0
  -39.1680   55.3150    5.4820 C   0  0  0  0  0
  -39.3240   54.9390    4.1530 C   0  0  0  0  0
  -39.6410   53.7380    3.5670 N   0  0  0  0  0
  -39.8480   52.5090    4.3280 C   0  0  0  0  0
  -37.0130   52.6210    1.3800 C   0  0  0  0  0
  -35.6350   52.4810    1.4670 C   0  0  0  0  0
  -34.8580   52.5560    0.3050 C   0  0  0  0  0
  -33.3830   52.3730    0.4070 C   0  0  0  0  0
  -32.8710   51.7260    1.4570 N   0  0  0  0  0
  -32.6080   52.8440   -0.5580 N   0  0  0  0  0
  -35.4690   52.8040   -0.9370 C   0  0  0  0  0
  -36.8470   52.9600   -1.0150 C   0  0  0  0  0
  -39.4122   53.2761   -0.8593 H   0  0  0  0  0
  -39.7756   51.8783    1.6387 H   0  0  0  0  0
  -40.9658   52.9376    0.8378 H   0  0  0  0  0
  -38.5156   57.8803    2.6161 H   0  0  0  0  0
  -35.7274   57.7917    4.3858 H   0  0  0  0  0
  -33.8893   56.2021    4.9503 H   0  0  0  0  0
  -33.3541   55.7453    7.3478 H   0  0  0  0  0
  -34.6981   56.8647    9.1137 H   0  0  0  0  0
  -36.6599   60.3915    7.7027 H   0  0  0  0  0
  -38.0393   60.9476    6.6678 H   0  0  0  0  0
  -36.5598   61.3458    4.8246 H   0  0  0  0  0
  -35.1824   60.6123    5.7063 H   0  0  0  0  0
  -36.6063   62.0726    7.9079 H   0  0  0  0  0
  -38.7144   56.9092    6.8247 H   0  0  0  0  0
  -39.3294   54.5899    6.2797 H   0  0  0  0  0
  -40.8473   52.1228    4.1272 H   0  0  0  0  0
  -39.1046   51.7694    4.0305 H   0  0  0  0  0
  -39.7460   52.7207    5.3924 H   0  0  0  0  0
  -37.6230   52.5370    2.2794 H   0  0  0  0  0
  -35.1607   52.3137    2.4340 H   0  0  0  0  0
  -31.8632   51.5858    1.5278 H   0  0  0  0  0
  -33.4878   51.3720    2.1882 H   0  0  0  0  0
  -33.0228   53.3242   -1.3566 H   0  0  0  0  0
  -34.8610   52.8738   -1.8389 H   0  0  0  0  0
  -37.3218   53.1526   -1.9771 H   0  0  0  0  0
  1  2  1  0  0  0
  1 28  4  0  0  0
  1 35  4  0  0  0
  2  3  1  0  0  0
  3  4  1  0  0  0
  4  5  4  0  0  0
  4 26  4  0  0  0
  5  6  4  0  0  0
  6  7  4  0  0  0
  6 25  4  0  0  0
  7  8  4  0  0  0
  8  9  1  0  0  0
  8 23  4  0  0  0
  9 10  2  0  0  0
  9 11  1  0  0  0
 11 12  1  0  0  0
 11 18  1  0  0  0
 12 13  4  0  0  0
 12 17  4  0  0  0
 13 14  4  0  0  0
 14 15  4  0  0  0
 15 16  4  0  0  0
 16 17  4  0  0  0
 18 19  1  0  0  0
 19 20  1  0  0  0
 20 21  2  0  0  0
 20 22  1  0  0  0
 23 24  4  0  0  0
 24 25  4  0  0  0
 25 26  4  0  0  0
 26 27  1  0  0  0
 28 29  4  0  0  0
 29 30  4  0  0  0
 30 31  1  0  0  0
 30 34  4  0  0  0
 31 32  1  0  0  0
 31 33  2  0  0  0
 34 35  4  0  0  0
  2 36  1  0  0  0
  3 37  1  0  0  0
  3 38  1  0  0  0
  7 39  1  0  0  0
 13 40  1  0  0  0
 14 41  1  0  0  0
 15 42  1  0  0  0
 16 43  1  0  0  0
 18 44  1  0  0  0
 18 45  1  0  0  0
 19 46  1  0  0  0
 19 47  1  0  0  0
 22 48  1  0  0  0
 23 49  1  0  0  0
 24 50  1  0  0  0
 27 51  1  0  0  0
 27 52  1  0  0  0
 27 53  1  0  0  0
 28 54  1  0  0  0
 29 55  1  0  0  0
 32 56  1  0  0  0
 32 57  1  0  0  0
 33 58  1  0  0  0
 34 59  1  0  0  0
 35 60  1  0  0  0
M  END
$$$$
