5gow_ligand
  -I-interpret- 

280281  0  0  0  0  0  0  0  0999 V2000
    6.0930   10.8210   15.7830 N   0  3  0  0  0
    6.4320   10.3570   17.1440 C   0  0  0  0  0
    7.3410    9.1330   17.0740 C   0  0  0  0  0
    8.0130    8.9160   16.0700 O   0  0  0  0  0
    5.1540   10.0490   17.9440 C   0  0  0  0  0
    4.1560    9.1520   17.2330 C   0  0  0  0  0
    4.2510    7.7700   17.3220 C   0  0  0  0  0
    3.1130    9.6900   16.4860 C   0  0  0  0  0
    3.3390    6.9480   16.6900 C   0  0  0  0  0
    2.1960    8.8720   15.8480 C   0  0  0  0  0
    2.3150    7.5020   15.9530 C   0  0  0  0  0
    1.4050    6.6810   15.3300 O   0  0  0  0  0
    7.3680    8.3400   18.1450 N   0  0  0  0  0
    8.1980    7.1380   18.1920 C   0  0  0  0  0
    7.7780    6.1540   17.1030 C   0  0  0  0  0
    6.6310    5.7090   17.0650 O   0  0  0  0  0
    8.1080    6.4440   19.5680 C   0  0  0  0  0
    9.1080    5.3000   19.6660 C   0  0  0  0  0
    8.3310    7.4500   20.6890 C   0  0  0  0  0
    8.7050    5.8360   16.2110 N   0  0  0  0  0
    8.4080    4.9210   15.1270 C   0  0  0  0  0
    7.8430    5.6520   13.9290 C   0  0  0  0  0
    8.5530    5.9080   12.9570 O   0  0  0  0  0
    6.5680    6.0010   14.0080 N   0  0  0  0  0
    5.9070    6.7260   12.9370 C   0  0  0  0  0
    6.0260    8.2230   13.1950 C   0  0  0  0  0
    5.5590    8.7250   14.2220 O   0  0  0  0  0
    4.4360    6.3060   12.8350 C   0  0  0  0  0
    3.6880    6.9510   11.6780 C   0  0  0  0  0
    4.4750    6.9280   10.3820 C   0  0  0  0  0
    5.2650    7.8640   10.1480 O   0  0  0  0  0
    4.3130    5.9760    9.5910 O   0  0  0  0  0
    6.6510    8.9310   12.2670 N   0  0  0  0  0
    6.8540   10.3660   12.4100 C   0  0  0  0  0
    6.5030   11.1130   11.1400 C   0  0  0  0  0
    7.1000   12.1430   10.8630 O   0  0  0  0  0
    8.3100   10.6850   12.7610 C   0  0  0  0  0
    8.4600   12.0110   13.4860 C   0  0  0  0  0
    7.9630   12.1270   14.6260 O   0  0  0  0  0
    9.0750   12.9380   12.9140 O   0  0  0  0  0
    5.5730   10.6060   10.3410 N   0  0  0  0  0
    5.2020   11.3200    9.1200 C   0  0  0  0  0
    4.6660   12.6950    9.4840 C   0  0  0  0  0
    4.9020   13.6690    8.7700 O   0  0  0  0  0
    4.1850   10.5500    8.2800 C   0  0  0  0  0
    4.6320   10.4420    6.8340 C   0  0  0  0  0
    5.0370   11.4740    6.2470 O   0  0  0  0  0
    4.6180    9.3180    6.2870 O   0  0  0  0  0
    3.9590   12.7510   10.6130 N   0  0  0  0  0
    3.4160   13.9910   11.1620 C   0  0  0  0  0
    2.4470   13.6700   12.2980 C   0  0  0  0  0
    2.8010   13.7470   13.4750 O   0  0  0  0  0
    2.7180   14.8390   10.0950 C   0  0  0  0  0
    3.1090   16.3050   10.1600 C   0  0  0  0  0
    2.7690   17.0570    8.8930 C   0  0  0  0  0
    1.5680   17.2390    8.6090 O   0  0  0  0  0
    3.7040   17.4550    8.1700 O   0  0  0  0  0
    1.2370   13.2850   11.9280 N   0  0  0  0  0
    0.2000   12.9270   12.8860 C   0  0  0  0  0
   -0.5470   11.7240   12.3610 C   0  0  0  0  0
   -1.2320   11.8080   11.3450 O   0  0  0  0  0
   -0.7780   14.0760   13.1290 C   0  0  0  0  0
   -0.9060   15.0360   11.9610 C   0  0  0  0  0
   -2.1800   15.8570   12.0020 C   0  0  0  0  0
   -2.9760   15.6750   12.9430 O   0  0  0  0  0
   -2.3930   16.6730   11.0730 O   0  0  0  0  0
   -0.4100   10.6080   13.0420 N   0  0  0  0  0
   -1.0550    9.3850   12.6110 C   0  0  0  0  0
   -1.6340    8.6490   13.8050 C   0  0  0  0  0
   -0.9960    7.7570   14.3630 O   0  0  0  0  0
   -0.0510    8.4810   11.9030 C   0  0  0  0  0
    0.8450    9.2180   10.9240 C   0  0  0  0  0
    1.8010    9.8930   11.3690 O   0  0  0  0  0
    0.5960    9.1060    9.7070 O   0  0  0  0  0
   -2.8320    9.0290   14.2010 N   0  0  0  0  0
   -3.4770    8.4190   15.3650 C   0  0  0  0  0
   -4.9630    8.1640   15.1520 C   0  0  0  0  0
   -5.4360    7.0570   15.4040 O   0  0  0  0  0
   -3.2610    9.2900   16.6080 C   0  0  0  0  0
   -3.2280   10.7760   16.2830 C   0  0  0  0  0
   -2.3430   11.4800   16.8050 O   0  0  0  0  0
   -4.0720   11.2360   15.4810 O   0  0  0  0  0
   -5.6970    9.1710   14.6830 N   0  0  0  0  0
   -7.1370    9.0260   14.4290 C   0  0  0  0  0
   -7.3690    8.1410   13.2130 C   0  0  0  0  0
   -8.4810    8.0380   12.6920 O   0  0  0  0  0
   -7.8110   10.3880   14.2230 C   0  0  0  0  0
   -7.0850   11.2680   13.2240 C   0  0  0  0  0
   -6.6920   10.7700   12.1450 O   0  0  0  0  0
   -6.8940   12.4610   13.5290 O   0  0  0  0  0
   -6.2920    7.5040   12.7900 N   0  0  0  0  0
   -6.2760    6.6070   11.6770 C   0  0  0  0  0
   -7.3240    5.5150   11.8660 C   0  0  0  0  0
   -7.2120    4.6770   12.7590 O   0  0  0  0  0
   -4.8880    6.0140   11.6150 C   0  0  0  0  0
   -4.1130    6.3750   10.4100 C   0  0  0  0  0
   -2.8390    6.8840   10.5220 C   0  0  0  0  0
   -4.6450    6.1560    9.1640 C   0  0  0  0  0
   -2.1040    7.1640    9.3990 C   0  0  0  0  0
   -3.9230    6.4420    8.0380 C   0  0  0  0  0
   -2.6480    6.9410    8.1550 C   0  0  0  0  0
   -8.3220    5.5230   11.0070 N   0  0  0  0  0
   -9.4150    4.5700   11.0950 C   0  0  0  0  0
   -9.1660    3.3650   10.2110 C   0  0  0  0  0
   -8.7850    3.5030    9.0510 O   0  0  0  0  0
  -10.7330    5.2430   10.7010 C   0  0  0  0  0
  -11.5150    5.7450   11.8990 C   0  0  0  0  0
  -12.4400    5.0860   12.3700 O   0  0  0  0  0
  -11.1410    6.9090   12.4090 N   0  0  0  0  0
   -9.3770    2.1870   10.7680 N   0  0  0  0  0
   -9.1910    0.9480   10.0360 C   0  0  0  0  0
  -10.4030    0.6660    9.1860 C   0  0  0  0  0
  -11.4030    1.3850    9.2530 O   0  0  0  0  0
   -8.9890   -0.2160   10.9960 C   0  0  0  0  0
   -7.5700   -0.3480   11.4860 C   0  0  0  0  0
   -6.6770   -1.0970   10.5180 C   0  0  0  0  0
   -7.1940   -1.6260    9.5130 O   0  0  0  0  0
   -5.4500   -1.1500   10.7660 O   0  0  0  0  0
  -10.3210   -0.3830    8.3910 N   0  0  0  0  0
  -11.4430   -0.7510    7.5590 C   0  0  0  0  0
  -11.3050   -2.1680    7.0210 C   0  0  0  0  0
  -12.2960   -2.7940    6.6530 O   0  0  0  0  0
  -11.6150    0.2430    6.4100 C   0  0  0  0  0
  -13.0630    0.6520    6.2180 C   0  0  0  0  0
  -13.7880    0.0730    5.4090 O   0  0  0  0  0
  -13.4980    1.6500    6.9710 N   0  0  0  0  0
  -10.0800   -2.6760    6.9740 N   0  0  0  0  0
   -9.8490   -4.0330    6.4880 C   0  0  0  0  0
  -10.0990   -5.0410    7.6050 C   0  0  0  0  0
  -10.2900   -6.2290    7.3470 O   0  0  0  0  0
   -8.4290   -4.1790    5.9480 C   0  0  0  0  0
   -8.3920   -4.5630    4.4810 C   0  0  0  0  0
   -8.5940   -5.7550    4.1700 O   0  0  0  0  0
   -8.1420   -3.6740    3.6400 O   0  0  0  0  0
  -10.0610   -4.5410    8.8470 N   0  0  0  0  0
  -10.3130   -5.3380   10.0500 C   0  0  0  0  0
   -9.1270   -6.2230   10.3930 C   0  0  0  0  0
   -8.0650   -6.1320    9.7670 O   0  0  0  0  0
  -11.5790   -6.1850    9.9070 C   0  0  0  0  0
  -12.6310   -5.8790   10.9570 C   0  0  0  0  0
  -12.0640   -5.8370   12.3590 C   0  0  0  0  0
  -12.0790   -4.7540   12.9760 O   0  0  0  0  0
  -11.5860   -6.8890   12.8320 O   0  0  0  0  0
   -9.3020   -7.0680   11.4000 N   0  0  0  0  0
   -8.2420   -7.9560   11.8220 C   0  0  0  0  0
   -8.1050   -9.1370   10.8770 C   0  0  0  0  0
   -8.7100  -10.1930   11.0720 O   0  0  0  0  0
   -8.4420   -8.4530   13.2530 C   0  0  0  0  0
   -7.2800   -9.3150   13.7100 C   0  0  0  0  0
   -7.4990  -10.5000   14.0280 O   0  0  0  0  0
   -6.1330   -8.8070   13.7210 O   0  0  0  0  0
   -7.3350   -8.9280    9.8270 N   0  0  0  0  0
   -7.0720   -9.9600    8.8420 C   0  0  0  0  0
   -6.0990  -10.9760    9.4210 C   0  0  0  0  0
   -6.4780  -12.1550    9.5530 O   0  0  0  0  0
   -6.4920   -9.3350    7.5770 C   0  0  0  0  0
   -6.4440  -10.2960    6.4100 C   0  0  0  0  0
   -5.4170  -10.9750    6.2380 O   0  0  0  0  0
   -7.4300  -10.3440    5.6410 O   0  0  0  0  0
   -4.9750  -10.5740    9.7880 O   0  0  0  0  0
    6.9514   11.0197   15.2692 H   0  0  0  0  0
    5.5660   10.0943   15.2988 H   0  0  0  0  0
    5.5284   11.6682   15.8447 H   0  0  0  0  0
    6.9688   11.1524   17.6610 H   0  0  0  0  0
    4.6537   11.0015   18.1190 H   0  0  0  0  0
    5.4654    9.5222   18.8460 H   0  0  0  0  0
    5.0603    7.3255   17.9013 H   0  0  0  0  0
    3.0162   10.7724   16.4017 H   0  0  0  0  0
    3.4288    5.8649   16.7738 H   0  0  0  0  0
    1.3844    9.3085   15.2659 H   0  0  0  0  0
    0.7606    7.2167   14.8616 H   0  0  0  0  0
    6.7939    8.5785   18.9536 H   0  0  0  0  0
    9.2293    7.4488   18.0251 H   0  0  0  0  0
    7.1065    6.0268   19.6735 H   0  0  0  0  0
    8.8961    4.5663   18.8883 H   0  0  0  0  0
   10.1176    5.6894   19.5346 H   0  0  0  0  0
    9.0237    4.8283   20.6450 H   0  0  0  0  0
    9.3188    7.8982   20.5820 H   0  0  0  0  0
    7.5696    8.2281   20.6340 H   0  0  0  0  0
    8.2636    6.9413   21.6507 H   0  0  0  0  0
    9.6384    6.2399   16.2882 H   0  0  0  0  0
    7.6676    4.2005   15.4744 H   0  0  0  0  0
    9.3321    4.4267   14.8274 H   0  0  0  0  0
    6.0363    5.7542   14.8427 H   0  0  0  0  0
    6.3884    6.4895   11.9881 H   0  0  0  0  0
    3.9445    6.6228   13.7549 H   0  0  0  0  0
    4.4177    5.2285   12.6716 H   0  0  0  0  0
    3.5057    7.9935   11.9388 H   0  0  0  0  0
    2.7687    6.3872   11.5198 H   0  0  0  0  0
    3.6668    5.3660    9.9542 H   0  0  0  0  0
    6.9987    8.4600   11.4318 H   0  0  0  0  0
    6.1942   10.6891   13.2152 H   0  0  0  0  0
    8.8733   10.7466   11.8299 H   0  0  0  0  0
    8.6754    9.8987   13.4216 H   0  0  0  0  0
    9.3725   12.6388   12.0517 H   0  0  0  0  0
    5.1195    9.7234   10.5771 H   0  0  0  0  0
    6.0969   11.4228    8.5063 H   0  0  0  0  0
    3.2351   11.0838    8.3103 H   0  0  0  0  0
    4.0880    9.5443    8.6889 H   0  0  0  0  0
    4.9651   12.2264    6.8388 H   0  0  0  0  0
    3.7883   11.8825   11.1199 H   0  0  0  0  0
    4.2511   14.5782   11.5441 H   0  0  0  0  0
    1.6435   14.7722   10.2656 H   0  0  0  0  0
    3.0150   14.4572    9.1182 H   0  0  0  0  0
    4.1886   16.3573   10.3004 H   0  0  0  0  0
    2.5551   16.7629   10.9795 H   0  0  0  0  0
    1.0165   16.8559    9.2950 H   0  0  0  0  0
    1.0215   13.2369   10.9322 H   0  0  0  0  0
    0.6762   12.7004   13.8399 H   0  0  0  0  0
   -0.4007   14.6475   13.9770 H   0  0  0  0  0
   -1.7609   13.6343   13.2934 H   0  0  0  0  0
   -0.9232   14.4437   11.0461 H   0  0  0  0  0
   -0.0649   15.7277   12.0073 H   0  0  0  0  0
   -1.6566   16.6547   10.4574 H   0  0  0  0  0
    0.1600   10.6033   13.8879 H   0  0  0  0  0
   -1.8580    9.6444   11.9211 H   0  0  0  0  0
   -0.6186    7.7436   11.3354 H   0  0  0  0  0
    0.5907    8.0432   12.6676 H   0  0  0  0  0
    1.8080    9.8426   12.3276 H   0  0  0  0  0
   -3.3194    9.7625   13.6864 H   0  0  0  0  0
   -3.0077    7.4464   15.5128 H   0  0  0  0  0
   -2.2987    9.0205   17.0432 H   0  0  0  0  0
   -4.0934    9.1142   17.2894 H   0  0  0  0  0
   -4.6598   10.5318   15.1979 H   0  0  0  0  0
   -5.2476   10.0672   14.4950 H   0  0  0  0  0
   -7.5845    8.5586   15.3061 H   0  0  0  0  0
   -7.8095   10.9060   15.1821 H   0  0  0  0  0
   -8.8134   10.2056   13.8356 H   0  0  0  0  0
   -6.9415    9.8436   12.1118 H   0  0  0  0  0
   -5.4165    7.6621   13.2889 H   0  0  0  0  0
   -6.5138    7.1256   10.7482 H   0  0  0  0  0
   -5.0071    4.9306   11.6017 H   0  0  0  0  0
   -4.3391    6.4032   12.4725 H   0  0  0  0  0
   -2.4123    7.0654   11.5085 H   0  0  0  0  0
   -5.6524    5.7503    9.0708 H   0  0  0  0  0
   -1.0933    7.5615    9.4913 H   0  0  0  0  0
   -4.3571    6.2748    7.0522 H   0  0  0  0  0
   -2.0660    7.1607    7.2599 H   0  0  0  0  0
   -8.3278    6.2171   10.2596 H   0  0  0  0  0
   -9.4792    4.2263   12.1274 H   0  0  0  0  0
  -11.3463    4.5026   10.1875 H   0  0  0  0  0
  -10.4956    6.1015   10.0728 H   0  0  0  0  0
  -11.6258    7.2890   13.2220 H   0  0  0  0  0
  -10.3682    7.4253   11.9887 H   0  0  0  0  0
   -9.6796    2.1465   11.7412 H   0  0  0  0  0
   -8.3083    1.0561    9.4057 H   0  0  0  0  0
   -9.2379   -1.1315   10.4594 H   0  0  0  0  0
   -9.6218   -0.0384   11.8656 H   0  0  0  0  0
   -7.5920   -0.9095   12.4200 H   0  0  0  0  0
   -7.1641    0.6568   11.6028 H   0  0  0  0  0
   -5.2693   -0.6798   11.5832 H   0  0  0  0  0
   -9.4639   -0.9354    8.3636 H   0  0  0  0  0
  -12.3353   -0.7201    8.1842 H   0  0  0  0  0
  -11.2736   -0.2367    5.4927 H   0  0  0  0  0
  -11.0385    1.1374    6.6462 H   0  0  0  0  0
  -14.4651    1.9644    6.8922 H   0  0  0  0  0
  -12.8661    2.1046    7.6301 H   0  0  0  0  0
   -9.2889   -2.1105    7.2817 H   0  0  0  0  0
  -10.5455   -4.2311    5.6733 H   0  0  0  0  0
   -7.9381   -4.9720    6.5122 H   0  0  0  0  0
   -7.9323   -3.2144    6.0523 H   0  0  0  0  0
   -8.0211   -2.8345    4.0897 H   0  0  0  0  0
   -9.8447   -3.5508    8.9615 H   0  0  0  0  0
  -10.4619   -4.6341   10.8688 H   0  0  0  0  0
  -11.2906   -7.2294   10.0257 H   0  0  0  0  0
  -12.0138   -5.9638    8.9322 H   0  0  0  0  0
  -13.3781   -6.6719   10.9224 H   0  0  0  0  0
  -13.0480   -4.8965   10.7357 H   0  0  0  0  0
  -11.6787   -7.5977   12.1911 H   0  0  0  0  0
  -10.1991   -7.0918   11.8847 H   0  0  0  0  0
   -7.3207   -7.3742   11.7953 H   0  0  0  0  0
   -9.3511   -9.0534   13.2860 H   0  0  0  0  0
   -8.5103   -7.5879   13.9125 H   0  0  0  0  0
   -6.1879   -7.8896   13.4434 H   0  0  0  0  0
   -6.9098   -8.0092    9.7032 H   0  0  0  0  0
   -8.0040  -10.4638    8.5859 H   0  0  0  0  0
   -5.4692   -9.0293    7.7971 H   0  0  0  0  0
   -7.1350   -8.5016    7.2940 H   0  0  0  0  0
   -8.1097   -9.7438    5.9562 H   0  0  0  0  0
   -4.8919   -9.6377    9.5929 H   0  0  0  0  0
  1  2  1  0  0  0
  2  3  1  0  0  0
  2  5  1  0  0  0
  3  4  2  0  0  0
  3 13  1  0  0  0
  5  6  1  0  0  0
  6  7  4  0  0  0
  6  8  4  0  0  0
  7  9  4  0  0  0
  8 10  4  0  0  0
  9 11  4  0  0  0
 10 11  4  0  0  0
 11 12  1  0  0  0
 13 14  1  0  0  0
 14 15  1  0  0  0
 14 17  1  0  0  0
 15 16  2  0  0  0
 15 20  1  0  0  0
 17 18  1  0  0  0
 17 19  1  0  0  0
 20 21  1  0  0  0
 21 22  1  0  0  0
 22 23  2  0  0  0
 22 24  1  0  0  0
 24 25  1  0  0  0
 25 26  1  0  0  0
 25 28  1  0  0  0
 26 27  2  0  0  0
 26 33  1  0  0  0
 28 29  1  0  0  0
 29 30  1  0  0  0
 30 31  2  0  0  0
 30 32  1  0  0  0
 33 34  1  0  0  0
 34 35  1  0  0  0
 34 37  1  0  0  0
 35 36  2  0  0  0
 35 41  1  0  0  0
 37 38  1  0  0  0
 38 39  2  0  0  0
 38 40  1  0  0  0
 41 42  1  0  0  0
 42 43  1  0  0  0
 42 45  1  0  0  0
 43 44  2  0  0  0
 43 49  1  0  0  0
 45 46  1  0  0  0
 46 47  1  0  0  0
 46 48  2  0  0  0
 49 50  1  0  0  0
 50 51  1  0  0  0
 50 53  1  0  0  0
 51 52  2  0  0  0
 51 58  1  0  0  0
 53 54  1  0  0  0
 54 55  1  0  0  0
 55 56  1  0  0  0
 55 57  2  0  0  0
 58 59  1  0  0  0
 59 60  1  0  0  0
 59 62  1  0  0  0
 60 61  2  0  0  0
 60 67  1  0  0  0
 62 63  1  0  0  0
 63 64  1  0  0  0
 64 65  2  0  0  0
 64 66  1  0  0  0
 67 68  1  0  0  0
 68 69  1  0  0  0
 68 71  1  0  0  0
 69 70  2  0  0  0
 69 75  1  0  0  0
 71 72  1  0  0  0
 72 73  1  0  0  0
 72 74  2  0  0  0
 75 76  1  0  0  0
 76 77  1  0  0  0
 76 79  1  0  0  0
 77 78  2  0  0  0
 77 83  1  0  0  0
 79 80  1  0  0  0
 80 81  2  0  0  0
 80 82  1  0  0  0
 83 84  1  0  0  0
 84 85  1  0  0  0
 84 87  1  0  0  0
 85 86  2  0  0  0
 85 91  1  0  0  0
 87 88  1  0  0  0
 88 89  1  0  0  0
 88 90  2  0  0  0
 91 92  1  0  0  0
 92 93  1  0  0  0
 92 95  1  0  0  0
 93 94  2  0  0  0
 93102  1  0  0  0
 95 96  1  0  0  0
 96 97  4  0  0  0
 96 98  4  0  0  0
 97 99  4  0  0  0
 98100  4  0  0  0
 99101  4  0  0  0
100101  4  0  0  0
102103  1  0  0  0
103104  1  0  0  0
103106  1  0  0  0
104105  2  0  0  0
104110  1  0  0  0
106107  1  0  0  0
107108  2  0  0  0
107109  1  0  0  0
110111  1  0  0  0
111112  1  0  0  0
111114  1  0  0  0
112113  2  0  0  0
112119  1  0  0  0
114115  1  0  0  0
115116  1  0  0  0
116117  2  0  0  0
116118  1  0  0  0
119120  1  0  0  0
120121  1  0  0  0
120123  1  0  0  0
121122  2  0  0  0
121127  1  0  0  0
123124  1  0  0  0
124125  2  0  0  0
124126  1  0  0  0
127128  1  0  0  0
128129  1  0  0  0
128131  1  0  0  0
129130  2  0  0  0
129135  1  0  0  0
131132  1  0  0  0
132133  2  0  0  0
132134  1  0  0  0
135136  1  0  0  0
136137  1  0  0  0
136139  1  0  0  0
137138  2  0  0  0
137144  1  0  0  0
139140  1  0  0  0
140141  1  0  0  0
141142  2  0  0  0
141143  1  0  0  0
144145  1  0  0  0
145146  1  0  0  0
145148  1  0  0  0
146147  2  0  0  0
146152  1  0  0  0
148149  1  0  0  0
149150  2  0  0  0
149151  1  0  0  0
152153  1  0  0  0
153154  1  0  0  0
153156  1  0  0  0
154155  2  0  0  0
154160  1  0  0  0
156157  1  0  0  0
157158  2  0  0  0
157159  1  0  0  0
  1161  1  0  0  0
  1162  1  0  0  0
  1163  1  0  0  0
  2164  1  0  0  0
  5165  1  0  0  0
  5166  1  0  0  0
  7167  1  0  0  0
  8168  1  0  0  0
  9169  1  0  0  0
 10170  1  0  0  0
 12171  1  0  0  0
 13172  1  0  0  0
 14173  1  0  0  0
 17174  1  0  0  0
 18175  1  0  0  0
 18176  1  0  0  0
 18177  1  0  0  0
 19178  1  0  0  0
 19179  1  0  0  0
 19180  1  0  0  0
 20181  1  0  0  0
 21182  1  0  0  0
 21183  1  0  0  0
 24184  1  0  0  0
 25185  1  0  0  0
 28186  1  0  0  0
 28187  1  0  0  0
 29188  1  0  0  0
 29189  1  0  0  0
 32190  1  0  0  0
 33191  1  0  0  0
 34192  1  0  0  0
 37193  1  0  0  0
 37194  1  0  0  0
 40195  1  0  0  0
 41196  1  0  0  0
 42197  1  0  0  0
 45198  1  0  0  0
 45199  1  0  0  0
 47200  1  0  0  0
 49201  1  0  0  0
 50202  1  0  0  0
 53203  1  0  0  0
 53204  1  0  0  0
 54205  1  0  0  0
 54206  1  0  0  0
 56207  1  0  0  0
 58208  1  0  0  0
 59209  1  0  0  0
 62210  1  0  0  0
 62211  1  0  0  0
 63212  1  0  0  0
 63213  1  0  0  0
 66214  1  0  0  0
 67215  1  0  0  0
 68216  1  0  0  0
 71217  1  0  0  0
 71218  1  0  0  0
 73219  1  0  0  0
 75220  1  0  0  0
 76221  1  0  0  0
 79222  1  0  0  0
 79223  1  0  0  0
 82224  1  0  0  0
 83225  1  0  0  0
 84226  1  0  0  0
 87227  1  0  0  0
 87228  1  0  0  0
 89229  1  0  0  0
 91230  1  0  0  0
 92231  1  0  0  0
 95232  1  0  0  0
 95233  1  0  0  0
 97234  1  0  0  0
 98235  1  0  0  0
 99236  1  0  0  0
100237  1  0  0  0
101238  1  0  0  0
102239  1  0  0  0
103240  1  0  0  0
106241  1  0  0  0
106242  1  0  0  0
109243  1  0  0  0
109244  1  0  0  0
110245  1  0  0  0
111246  1  0  0  0
114247  1  0  0  0
114248  1  0  0  0
115249  1  0  0  0
115250  1  0  0  0
118251  1  0  0  0
119252  1  0  0  0
120253  1  0  0  0
123254  1  0  0  0
123255  1  0  0  0
126256  1  0  0  0
126257  1  0  0  0
127258  1  0  0  0
128259  1  0  0  0
131260  1  0  0  0
131261  1  0  0  0
134262  1  0  0  0
135263  1  0  0  0
136264  1  0  0  0
139265  1  0  0  0
139266  1  0  0  0
140267  1  0  0  0
140268  1  0  0  0
143269  1  0  0  0
144270  1  0  0  0
145271  1  0  0  0
148272  1  0  0  0
148273  1  0  0  0
151274  1  0  0  0
152275  1  0  0  0
153276  1  0  0  0
156277  1  0  0  0
156278  1  0  0  0
159279  1  0  0  0
160280  1  0  0  0
M  END
$$$$
