### 
### Created by X-TOOL on Mon Sep 10 21:13:30 2018
### 

@<TRIPOS>MOLECULE
5gow_ligand
  266   267     1     0     0
SMALL
GAST_HUCK


@<TRIPOS>ATOM
      1 N           6.0930   10.8210   15.7830 N.4       1 TYR         0.2392
      2 CA          6.4320   10.3570   17.1440 C.3       1 TYR         0.0730
      3 C           7.3410    9.1330   17.0740 C.2       1 TYR         0.2286
      4 O           8.0130    8.9160   16.0700 O.2       1 TYR        -0.3905
      5 CB          5.1540   10.0490   17.9440 C.3       1 TYR         0.0365
      6 CG          4.1560    9.1520   17.2330 C.ar      1 TYR        -0.0460
      7 CD1         4.2510    7.7700   17.3220 C.ar      1 TYR        -0.0684
      8 CD2         3.1130    9.6900   16.4860 C.ar      1 TYR        -0.0684
      9 CE1         3.3390    6.9480   16.6900 C.ar      1 TYR        -0.0398
     10 CE2         2.1960    8.8720   15.8480 C.ar      1 TYR        -0.0398
     11 CZ          2.3150    7.5020   15.9530 C.ar      1 TYR         0.0805
     12 OH          1.4050    6.6810   15.3300 O.3       1 TYR        -0.3376
     13 N           7.3680    8.3400   18.1450 N.am      1 VAL        -0.2606
     14 CA          8.1980    7.1380   18.1920 C.3       1 VAL         0.1334
     15 C           7.7780    6.1540   17.1030 C.2       1 VAL         0.2040
     16 O           6.6310    5.7090   17.0650 O.2       1 VAL        -0.3944
     17 CB          8.1080    6.4440   19.5680 C.3       1 VAL        -0.0063
     18 CG1         9.1080    5.3000   19.6660 C.3       1 VAL        -0.0584
     19 CG2         8.3310    7.4500   20.6890 C.3       1 VAL        -0.0584
     20 N           8.7050    5.8360   16.2110 N.am      1 GLY        -0.2664
     21 CA          8.4080    4.9210   15.1270 C.3       1 GLY         0.1201
     22 C           7.8430    5.6520   13.9290 C.2       1 GLY         0.2007
     23 O           8.5530    5.9080   12.9570 O.2       1 GLY        -0.3947
     24 N           6.5680    6.0010   14.0080 N.am      1 GLU        -0.2639
     25 CA          5.9070    6.7260   12.9370 C.3       1 GLU         0.1325
     26 C           6.0260    8.2230   13.1950 C.2       1 GLU         0.2041
     27 O           5.5590    8.7250   14.2220 O.2       1 GLU        -0.3944
     28 CB          4.4360    6.3060   12.8350 C.3       1 GLU        -0.0008
     29 CG          3.6880    6.9510   11.6780 C.3       1 GLU         0.0044
     30 CD          4.4750    6.9280   10.3820 C.2       1 GLU         0.0350
     31 OE1         5.2650    7.8640   10.1480 O.co2     1 GLU        -0.5690
     32 OE2         4.3130    5.9760    9.5910 O.co2     1 GLU        -0.5690
     33 N           6.6510    8.9310   12.2670 N.am      1 ASP        -0.2622
     34 CA          6.8540   10.3660   12.4100 C.3       1 ASP         0.1423
     35 C           6.5030   11.1130   11.1400 C.2       1 ASP         0.2057
     36 O           7.1000   12.1430   10.8630 O.2       1 ASP        -0.3943
     37 CB          8.3100   10.6850   12.7610 C.3       1 ASP         0.0406
     38 CG          8.4600   12.0110   13.4860 C.2       1 ASP         0.0393
     39 OD1         7.9630   12.1270   14.6260 O.co2     1 ASP        -0.5688
     40 OD2         9.0750   12.9380   12.9140 O.co2     1 ASP        -0.5688
     41 N           5.5730   10.6060   10.3410 N.am      1 ASP        -0.2621
     42 CA          5.2020   11.3200    9.1200 C.3       1 ASP         0.1423
     43 C           4.6660   12.6950    9.4840 C.2       1 ASP         0.2056
     44 O           4.9020   13.6690    8.7700 O.2       1 ASP        -0.3943
     45 CB          4.1850   10.5500    8.2800 C.3       1 ASP         0.0406
     46 CG          4.6320   10.4420    6.8340 C.2       1 ASP         0.0393
     47 OD1         5.0370   11.4740    6.2470 O.co2     1 ASP        -0.5688
     48 OD2         4.6180    9.3180    6.2870 O.co2     1 ASP        -0.5688
     49 N           3.9590   12.7510   10.6130 N.am      1 GLU        -0.2635
     50 CA          3.4160   13.9910   11.1620 C.3       1 GLU         0.1325
     51 C           2.4470   13.6700   12.2980 C.2       1 GLU         0.2040
     52 O           2.8010   13.7470   13.4750 O.2       1 GLU        -0.3944
     53 CB          2.7180   14.8390   10.0950 C.3       1 GLU        -0.0008
     54 CG          3.1090   16.3050   10.1600 C.3       1 GLU         0.0044
     55 CD          2.7690   17.0570    8.8930 C.2       1 GLU         0.0350
     56 OE1         1.5680   17.2390    8.6090 O.co2     1 GLU        -0.5690
     57 OE2         3.7040   17.4550    8.1700 O.co2     1 GLU        -0.5690
     58 N           1.2370   13.2850   11.9280 N.am      1 GLU        -0.2636
     59 CA          0.2000   12.9270   12.8860 C.3       1 GLU         0.1325
     60 C          -0.5470   11.7240   12.3610 C.2       1 GLU         0.2041
     61 O          -1.2320   11.8080   11.3450 O.2       1 GLU        -0.3944
     62 CB         -0.7780   14.0760   13.1290 C.3       1 GLU        -0.0008
     63 CG         -0.9060   15.0360   11.9610 C.3       1 GLU         0.0044
     64 CD         -2.1800   15.8570   12.0020 C.2       1 GLU         0.0350
     65 OE1        -2.9760   15.6750   12.9430 O.co2     1 GLU        -0.5690
     66 OE2        -2.3930   16.6730   11.0730 O.co2     1 GLU        -0.5690
     67 N          -0.4100   10.6080   13.0420 N.am      1 ASP        -0.2622
     68 CA         -1.0550    9.3850   12.6110 C.3       1 ASP         0.1423
     69 C          -1.6340    8.6490   13.8050 C.2       1 ASP         0.2057
     70 O          -0.9960    7.7570   14.3630 O.2       1 ASP        -0.3943
     71 CB         -0.0510    8.4810   11.9030 C.3       1 ASP         0.0406
     72 CG          0.8450    9.2180   10.9240 C.2       1 ASP         0.0393
     73 OD1         1.8010    9.8930   11.3690 O.co2     1 ASP        -0.5688
     74 OD2         0.5960    9.1060    9.7070 O.co2     1 ASP        -0.5688
     75 N          -2.8320    9.0290   14.2010 N.am      1 ASP        -0.2621
     76 CA         -3.4770    8.4190   15.3650 C.3       1 ASP         0.1423
     77 C          -4.9630    8.1640   15.1520 C.2       1 ASP         0.2057
     78 O          -5.4360    7.0570   15.4040 O.2       1 ASP        -0.3943
     79 CB         -3.2610    9.2900   16.6080 C.3       1 ASP         0.0406
     80 CG         -3.2280   10.7760   16.2830 C.2       1 ASP         0.0393
     81 OD1        -2.3430   11.4800   16.8050 O.co2     1 ASP        -0.5688
     82 OD2        -4.0720   11.2360   15.4810 O.co2     1 ASP        -0.5688
     83 N          -5.6970    9.1710   14.6830 N.am      1 ASP        -0.2621
     84 CA         -7.1370    9.0260   14.4290 C.3       1 ASP         0.1423
     85 C          -7.3690    8.1410   13.2130 C.2       1 ASP         0.2057
     86 O          -8.4810    8.0380   12.6920 O.2       1 ASP        -0.3943
     87 CB         -7.8110   10.3880   14.2230 C.3       1 ASP         0.0406
     88 CG         -7.0850   11.2680   13.2240 C.2       1 ASP         0.0393
     89 OD1        -6.6920   10.7700   12.1450 O.co2     1 ASP        -0.5688
     90 OD2        -6.8940   12.4610   13.5290 O.co2     1 ASP        -0.5688
     91 N          -6.2920    7.5040   12.7900 N.am      1 PHE        -0.2618
     92 CA         -6.2760    6.6070   11.6770 C.3       1 PHE         0.1404
     93 C          -7.3240    5.5150   11.8660 C.2       1 PHE         0.2061
     94 O          -7.2120    4.6770   12.7590 O.2       1 PHE        -0.3942
     95 CB         -4.8880    6.0140   11.6150 C.3       1 PHE         0.0214
     96 CG         -4.1130    6.3750   10.4100 C.ar      1 PHE        -0.0386
     97 CD1        -2.8390    6.8840   10.5220 C.ar      1 PHE        -0.0601
     98 CD2        -4.6450    6.1560    9.1640 C.ar      1 PHE        -0.0601
     99 CE1        -2.1040    7.1640    9.3990 C.ar      1 PHE        -0.0686
    100 CE2        -3.9230    6.4420    8.0380 C.ar      1 PHE        -0.0686
    101 CZ         -2.6480    6.9410    8.1550 C.ar      1 PHE        -0.0687
    102 N          -8.3220    5.5230   11.0070 N.am      1 ASN        -0.2615
    103 CA         -9.4150    4.5700   11.0950 C.3       1 ASN         0.1476
    104 C          -9.1660    3.3650   10.2110 C.2       1 ASN         0.2063
    105 O          -8.7850    3.5030    9.0510 O.2       1 ASN        -0.3942
    106 CB        -10.7330    5.2430   10.7010 C.3       1 ASN         0.0773
    107 CG        -11.5150    5.7450   11.8990 C.2       1 ASN         0.1780
    108 OD1       -12.4400    5.0860   12.3700 O.2       1 ASN        -0.3970
    109 ND2       -11.1410    6.9090   12.4090 N.am      1 ASN        -0.3007
    110 N          -9.3770    2.1870   10.7680 N.am      1 GLU        -0.2635
    111 CA         -9.1910    0.9480   10.0360 C.3       1 GLU         0.1325
    112 C         -10.4030    0.6660    9.1860 C.2       1 GLU         0.2041
    113 O         -11.4030    1.3850    9.2530 O.2       1 GLU        -0.3944
    114 CB         -8.9890   -0.2160   10.9960 C.3       1 GLU        -0.0008
    115 CG         -7.5700   -0.3480   11.4860 C.3       1 GLU         0.0044
    116 CD         -6.6770   -1.0970   10.5180 C.2       1 GLU         0.0350
    117 OE1        -7.1940   -1.6260    9.5130 O.co2     1 GLU        -0.5690
    118 OE2        -5.4500   -1.1500   10.7660 O.co2     1 GLU        -0.5690
    119 N         -10.3210   -0.3830    8.3910 N.am      1 ASN        -0.2616
    120 CA        -11.4430   -0.7510    7.5590 C.3       1 ASN         0.1476
    121 C         -11.3050   -2.1680    7.0210 C.2       1 ASN         0.2063
    122 O         -12.2960   -2.7940    6.6530 O.2       1 ASN        -0.3942
    123 CB        -11.6150    0.2430    6.4100 C.3       1 ASN         0.0773
    124 CG        -13.0630    0.6520    6.2180 C.2       1 ASN         0.1780
    125 OD1       -13.7880    0.0730    5.4090 O.2       1 ASN        -0.3970
    126 ND2       -13.4980    1.6500    6.9710 N.am      1 ASN        -0.3007
    127 N         -10.0800   -2.6760    6.9740 N.am      1 ASP        -0.2620
    128 CA         -9.8490   -4.0330    6.4880 C.3       1 ASP         0.1423
    129 C         -10.0990   -5.0410    7.6050 C.2       1 ASP         0.2056
    130 O         -10.2900   -6.2290    7.3470 O.2       1 ASP        -0.3943
    131 CB         -8.4290   -4.1790    5.9480 C.3       1 ASP         0.0406
    132 CG         -8.3920   -4.5630    4.4810 C.2       1 ASP         0.0393
    133 OD1        -8.5940   -5.7550    4.1700 O.co2     1 ASP        -0.5688
    134 OD2        -8.1420   -3.6740    3.6400 O.co2     1 ASP        -0.5688
    135 N         -10.0610   -4.5410    8.8470 N.am      1 GLU        -0.2635
    136 CA        -10.3130   -5.3380   10.0500 C.3       1 GLU         0.1325
    137 C          -9.1270   -6.2230   10.3930 C.2       1 GLU         0.2041
    138 O          -8.0650   -6.1320    9.7670 O.2       1 GLU        -0.3944
    139 CB        -11.5790   -6.1850    9.9070 C.3       1 GLU        -0.0008
    140 CG        -12.6310   -5.8790   10.9570 C.3       1 GLU         0.0044
    141 CD        -12.0640   -5.8370   12.3590 C.2       1 GLU         0.0350
    142 OE1       -12.0790   -4.7540   12.9760 O.co2     1 GLU        -0.5690
    143 OE2       -11.5860   -6.8890   12.8320 O.co2     1 GLU        -0.5690
    144 N          -9.3020   -7.0680   11.4000 N.am      1 ASP        -0.2622
    145 CA         -8.2420   -7.9560   11.8220 C.3       1 ASP         0.1423
    146 C          -8.1050   -9.1370   10.8770 C.2       1 ASP         0.2051
    147 O          -8.7100  -10.1930   11.0720 O.2       1 ASP        -0.3943
    148 CB         -8.4420   -8.4530   13.2530 C.3       1 ASP         0.0406
    149 CG         -7.2800   -9.3150   13.7100 C.2       1 ASP         0.0393
    150 OD1        -7.4990  -10.5000   14.0280 O.co2     1 ASP        -0.5688
    151 OD2        -6.1330   -8.8070   13.7210 O.co2     1 ASP        -0.5688
    152 N          -7.3350   -8.9280    9.8270 N.am      1 ASP        -0.2678
    153 CA         -7.0720   -9.9600    8.8420 C.3       1 ASP         0.1058
    154 C          -6.0990  -10.9760    9.4210 C.2       1 ASP         0.0618
    155 O          -6.4780  -12.1550    9.5530 O.co2     1 ASP        -0.5665
    156 CB         -6.4920   -9.3350    7.5770 C.3       1 ASP         0.0351
    157 CG         -6.4440  -10.2960    6.4100 C.2       1 ASP         0.0387
    158 OD1        -5.4170  -10.9750    6.2380 O.co2     1 ASP        -0.5688
    159 OD2        -7.4300  -10.3440    5.6410 O.co2     1 ASP        -0.5688
    160 OXT        -4.9750  -10.5740    9.7880 O.co2     1 ASP        -0.5665
    161 H1          5.4930   11.6288   15.8431 H         1 TYR         0.2017
    162 H2          5.6165   10.0848   15.2860 H         1 TYR         0.2017
    163 H3          6.9381   11.0661   15.2913 H         1 TYR         0.2017
    164 H4          6.9756   11.1622   17.6599 H         1 TYR         0.1120
    165 H5          4.6550   11.0025   18.1715 H         1 TYR         0.0486
    166 H6          5.4485    9.5562   18.8823 H         1 TYR         0.0486
    167 H7          5.0558    7.3280   17.8982 H         1 TYR         0.0530
    168 H8          3.0167   10.7665   16.4021 H         1 TYR         0.0530
    169 H9          3.4283    5.8709   16.7734 H         1 TYR         0.0525
    170 H10         1.3888    9.3061   15.2691 H         1 TYR         0.0525
    171 H11         0.5350    6.8620   15.6658 H         1 TYR         0.2458
    172 H12         6.8051    8.5738   18.9378 H         1 VAL         0.1885
    173 H13         9.2431    7.4332   18.0170 H         1 VAL         0.0802
    174 H14         7.0964    6.0258   19.6765 H         1 VAL         0.0343
    175 H15         9.0239    4.8231   20.6537 H         1 VAL         0.0234
    176 H16        10.1273    5.6916   19.5336 H         1 VAL         0.0234
    177 H17         8.8952    4.5587   18.8816 H         1 VAL         0.0234
    178 H18         7.5995    8.2666   20.5997 H         1 VAL         0.0234
    179 H19         9.3491    7.8602   20.6164 H         1 VAL         0.0234
    180 H20         8.2055    6.9500   21.6607 H         1 VAL         0.0234
    181 H21         9.6201    6.2320   16.2867 H         1 GLY         0.1881
    182 H22         7.6724    4.1807   15.4745 H         1 GLY         0.0763
    183 H23         9.3334    4.4064   14.8289 H         1 GLY         0.0763
    184 H24         6.0467    5.7591   14.8264 H         1 GLU         0.1883
    185 H25         6.4059    6.4892   11.9857 H         1 GLU         0.0801
    186 H26         3.9309    6.5844   13.7717 H         1 GLU         0.0330
    187 H27         4.3959    5.2142   12.7072 H         1 GLU         0.0330
    188 H28         3.4721    7.9975   11.9392 H         1 GLU         0.0433
    189 H29         2.7432    6.4089   11.5248 H         1 GLU         0.0433
    190 H30         6.9919    8.4692   11.4481 H         1 ASP         0.1884
    191 H31         6.2049   10.7248   13.2224 H         1 ASP         0.0819
    192 H32         8.8960   10.7240   11.8309 H         1 ASP         0.0478
    193 H33         8.7000    9.8845   13.4069 H         1 ASP         0.0478
    194 H34         5.1284    9.7407   10.5724 H         1 ASP         0.1884
    195 H35         6.1096   11.4506    8.5124 H         1 ASP         0.0819
    196 H36         3.2187   11.0743    8.3179 H         1 ASP         0.0478
    197 H37         4.0698    9.5381    8.6958 H         1 ASP         0.0478
    198 H38         3.7917   11.8995   11.1100 H         1 GLU         0.1883
    199 H39         4.2511   14.5787   11.5709 H         1 GLU         0.0801
    200 H40         1.6303   14.7587   10.2382 H         1 GLU         0.0330
    201 H41         2.9872   14.4471    9.1030 H         1 GLU         0.0330
    202 H42         4.1939   16.3726   10.3288 H         1 GLU         0.0433
    203 H43         2.5771   16.7740   11.0009 H         1 GLU         0.0433
    204 H44         1.0257   13.2378   10.9517 H         1 GLU         0.1883
    205 H45         0.6774   12.6670   13.8423 H         1 GLU         0.0801
    206 H46        -0.4340   14.6431   14.0065 H         1 GLU         0.0330
    207 H47        -1.7701   13.6479   13.3349 H         1 GLU         0.0330
    208 H48        -0.8942   14.4547   11.0272 H         1 GLU         0.0433
    209 H49        -0.0467   15.7225   11.9764 H         1 GLU         0.0433
    210 H50         0.1488   10.6034   13.8713 H         1 ASP         0.1884
    211 H51        -1.8677    9.6366   11.9138 H         1 ASP         0.0819
    212 H52        -0.6070    7.7084   11.3517 H         1 ASP         0.0478
    213 H53         0.5839    8.0034   12.6638 H         1 ASP         0.0478
    214 H54        -3.3099    9.7481   13.6965 H         1 ASP         0.1884
    215 H55        -2.9945    7.4463   15.5409 H         1 ASP         0.0819
    216 H56        -2.3041    9.0098   17.0726 H         1 ASP         0.0478
    217 H57        -4.0814    9.1025   17.3164 H         1 ASP         0.0478
    218 H58        -5.2565   10.0496   14.4987 H         1 ASP         0.1884
    219 H59        -7.5946    8.5436   15.3053 H         1 ASP         0.0819
    220 H60        -7.8450   10.9112   15.1900 H         1 ASP         0.0478
    221 H61        -8.8359   10.2198   13.8608 H         1 ASP         0.0478
    222 H62        -5.4337    7.6590   13.2792 H         1 PHE         0.1885
    223 H63        -6.4896    7.1562   10.7482 H         1 PHE         0.0823
    224 H64        -4.9823    4.9185   11.6456 H         1 PHE         0.0474
    225 H65        -4.3289    6.3588   12.4973 H         1 PHE         0.0474
    226 H66        -2.4147    7.0644   11.5031 H         1 PHE         0.0557
    227 H67        -5.6469    5.7526    9.0713 H         1 PHE         0.0557
    228 H68        -1.0988    7.5593    9.4908 H         1 PHE         0.0599
    229 H69        -4.3547    6.2758    7.0577 H         1 PHE         0.0599
    230 H70        -2.0693    7.1595    7.2649 H         1 PHE         0.0559
    231 H71        -8.3277    6.2035   10.2742 H         1 ASN         0.1885
    232 H72        -9.4930    4.2266   12.1371 H         1 ASN         0.0826
    233 H73       -11.3517    4.5138   10.1575 H         1 ASN         0.0551
    234 H74       -10.5097    6.0964   10.0439 H         1 ASN         0.0551
    235 H75       -11.6229    7.2864   13.1998 H         1 ASN         0.1814
    236 H76       -10.3768    7.4103   12.0032 H         1 ASN         0.1814
    237 H77        -9.6737    2.1473   11.7222 H         1 GLU         0.1883
    238 H78        -8.3059    1.0432    9.3899 H         1 GLU         0.0801
    239 H79        -9.2675   -1.1464   10.4795 H         1 GLU         0.0330
    240 H80        -9.6460   -0.0687   11.8659 H         1 GLU         0.0330
    241 H81        -7.5788   -0.8879   12.4443 H         1 GLU         0.0433
    242 H82        -7.1560    0.6599   11.6368 H         1 GLU         0.0433
    243 H83        -9.4807   -0.9245    8.3641 H         1 ASN         0.1885
    244 H84       -12.3495   -0.7131    8.1809 H         1 ASN         0.0826
    245 H85       -11.2524   -0.2224    5.4817 H         1 ASN         0.0551
    246 H86       -11.0189    1.1417    6.6268 H         1 ASN         0.0551
    247 H87       -14.4440    1.9633    6.8882 H         1 ASN         0.1814
    248 H88       -12.8806    2.0907    7.6226 H         1 ASN         0.1814
    249 H89        -9.3044   -2.1216    7.2757 H         1 ASP         0.1884
    250 H90       -10.5552   -4.2353    5.6693 H         1 ASP         0.0819
    251 H91        -7.9113   -4.9574    6.5277 H         1 ASP         0.0478
    252 H92        -7.9056   -3.2196    6.0730 H         1 ASP         0.0478
    253 H93        -9.8489   -3.5702    8.9592 H         1 GLU         0.1883
    254 H94       -10.4662   -4.6396   10.8859 H         1 GLU         0.0801
    255 H95       -11.3002   -7.2457    9.9917 H         1 GLU         0.0330
    256 H96       -12.0132   -5.9981    8.9138 H         1 GLU         0.0330
    257 H97       -13.4069   -6.6576   10.9147 H         1 GLU         0.0433
    258 H98       -13.0803   -4.9009   10.7300 H         1 GLU         0.0433
    259 H99       -10.1816   -7.0914   11.8752 H         1 ASP         0.1884
    260 H100       -7.3012   -7.3868   11.7925 H         1 ASP         0.0819
    261 H101       -9.3670   -9.0464   13.2993 H         1 ASP         0.0478
    262 H102       -8.5289   -7.5855   13.9238 H         1 ASP         0.0478
    263 H103       -6.9181   -8.0272    9.7056 H         1 ASP         0.1877
    264 H104       -8.0149  -10.4677    8.5905 H         1 ASP         0.0745
    265 H105       -5.4686   -8.9940    7.7922 H         1 ASP         0.0471
    266 H106       -7.1142   -8.4727    7.2953 H         1 ASP         0.0471
@<TRIPOS>BOND
     1    1    2 1  
     2    2    3 1  
     3    2    5 1  
     4    3    4 2  
     5    3   13 am 
     6    5    6 1  
     7    6    7 ar 
     8    6    8 ar 
     9    7    9 ar 
    10    8   10 ar 
    11    9   11 ar 
    12   10   11 ar 
    13   11   12 1  
    14   13   14 1  
    15   14   15 1  
    16   14   17 1  
    17   15   16 2  
    18   15   20 am 
    19   17   18 1  
    20   17   19 1  
    21   20   21 1  
    22   21   22 1  
    23   22   23 2  
    24   22   24 am 
    25   24   25 1  
    26   25   26 1  
    27   25   28 1  
    28   26   27 2  
    29   26   33 am 
    30   28   29 1  
    31   29   30 1  
    32   30   31 ar 
    33   30   32 ar 
    34   33   34 1  
    35   34   35 1  
    36   34   37 1  
    37   35   36 2  
    38   35   41 am 
    39   37   38 1  
    40   38   39 ar 
    41   38   40 ar 
    42   41   42 1  
    43   42   43 1  
    44   42   45 1  
    45   43   44 2  
    46   43   49 am 
    47   45   46 1  
    48   46   47 ar 
    49   46   48 ar 
    50   49   50 1  
    51   50   51 1  
    52   50   53 1  
    53   51   52 2  
    54   51   58 am 
    55   53   54 1  
    56   54   55 1  
    57   55   56 ar 
    58   55   57 ar 
    59   58   59 1  
    60   59   60 1  
    61   59   62 1  
    62   60   61 2  
    63   60   67 am 
    64   62   63 1  
    65   63   64 1  
    66   64   65 ar 
    67   64   66 ar 
    68   67   68 1  
    69   68   69 1  
    70   68   71 1  
    71   69   70 2  
    72   69   75 am 
    73   71   72 1  
    74   72   73 ar 
    75   72   74 ar 
    76   75   76 1  
    77   76   77 1  
    78   76   79 1  
    79   77   78 2  
    80   77   83 am 
    81   79   80 1  
    82   80   81 ar 
    83   80   82 ar 
    84   83   84 1  
    85   84   85 1  
    86   84   87 1  
    87   85   86 2  
    88   85   91 am 
    89   87   88 1  
    90   88   89 ar 
    91   88   90 ar 
    92   91   92 1  
    93   92   93 1  
    94   92   95 1  
    95   93   94 2  
    96   93  102 am 
    97   95   96 1  
    98   96   97 ar 
    99   96   98 ar 
   100   97   99 ar 
   101   98  100 ar 
   102   99  101 ar 
   103  100  101 ar 
   104  102  103 1  
   105  103  104 1  
   106  103  106 1  
   107  104  105 2  
   108  104  110 am 
   109  106  107 1  
   110  107  108 2  
   111  107  109 am 
   112  110  111 1  
   113  111  112 1  
   114  111  114 1  
   115  112  113 2  
   116  112  119 am 
   117  114  115 1  
   118  115  116 1  
   119  116  117 ar 
   120  116  118 ar 
   121  119  120 1  
   122  120  121 1  
   123  120  123 1  
   124  121  122 2  
   125  121  127 am 
   126  123  124 1  
   127  124  125 2  
   128  124  126 am 
   129  127  128 1  
   130  128  129 1  
   131  128  131 1  
   132  129  130 2  
   133  129  135 am 
   134  131  132 1  
   135  132  133 ar 
   136  132  134 ar 
   137  135  136 1  
   138  136  137 1  
   139  136  139 1  
   140  137  138 2  
   141  137  144 am 
   142  139  140 1  
   143  140  141 1  
   144  141  142 ar 
   145  141  143 ar 
   146  144  145 1  
   147  145  146 1  
   148  145  148 1  
   149  146  147 2  
   150  146  152 am 
   151  148  149 1  
   152  149  150 ar 
   153  149  151 ar 
   154  152  153 1  
   155  153  154 1  
   156  153  156 1  
   157  154  155 ar 
   158  154  160 ar 
   159  156  157 1  
   160  157  158 ar 
   161  157  159 ar 
   162    1  161 1  
   163    1  162 1  
   164    1  163 1  
   165    2  164 1  
   166    5  165 1  
   167    5  166 1  
   168    7  167 1  
   169    8  168 1  
   170    9  169 1  
   171   10  170 1  
   172   12  171 1  
   173   13  172 1  
   174   14  173 1  
   175   17  174 1  
   176   18  175 1  
   177   18  176 1  
   178   18  177 1  
   179   19  178 1  
   180   19  179 1  
   181   19  180 1  
   182   20  181 1  
   183   21  182 1  
   184   21  183 1  
   185   24  184 1  
   186   25  185 1  
   187   28  186 1  
   188   28  187 1  
   189   29  188 1  
   190   29  189 1  
   191   33  190 1  
   192   34  191 1  
   193   37  192 1  
   194   37  193 1  
   195   41  194 1  
   196   42  195 1  
   197   45  196 1  
   198   45  197 1  
   199   49  198 1  
   200   50  199 1  
   201   53  200 1  
   202   53  201 1  
   203   54  202 1  
   204   54  203 1  
   205   58  204 1  
   206   59  205 1  
   207   62  206 1  
   208   62  207 1  
   209   63  208 1  
   210   63  209 1  
   211   67  210 1  
   212   68  211 1  
   213   71  212 1  
   214   71  213 1  
   215   75  214 1  
   216   76  215 1  
   217   79  216 1  
   218   79  217 1  
   219   83  218 1  
   220   84  219 1  
   221   87  220 1  
   222   87  221 1  
   223   91  222 1  
   224   92  223 1  
   225   95  224 1  
   226   95  225 1  
   227   97  226 1  
   228   98  227 1  
   229   99  228 1  
   230  100  229 1  
   231  101  230 1  
   232  102  231 1  
   233  103  232 1  
   234  106  233 1  
   235  106  234 1  
   236  109  235 1  
   237  109  236 1  
   238  110  237 1  
   239  111  238 1  
   240  114  239 1  
   241  114  240 1  
   242  115  241 1  
   243  115  242 1  
   244  119  243 1  
   245  120  244 1  
   246  123  245 1  
   247  123  246 1  
   248  126  247 1  
   249  126  248 1  
   250  127  249 1  
   251  128  250 1  
   252  131  251 1  
   253  131  252 1  
   254  135  253 1  
   255  136  254 1  
   256  139  255 1  
   257  139  256 1  
   258  140  257 1  
   259  140  258 1  
   260  144  259 1  
   261  145  260 1  
   262  148  261 1  
   263  148  262 1  
   264  152  263 1  
   265  153  264 1  
   266  156  265 1  
   267  156  266 1  
@<TRIPOS>SUBSTRUCTURE
     1 TYR         1

