5w44_ligand
  -I-interpret- 

 56 59  0  0  0  0  0  0  0  0999 V2000
   -8.4920   79.9770   14.9900 C   0  0  0  0  0
   -9.8150   80.2900   16.8560 C   0  0  0  0  0
  -10.2240   78.9870   16.8270 C   0  0  0  0  0
   -9.7350   78.1250   15.8400 C   0  0  0  0  0
  -10.3100   81.2240   17.9320 C   0  0  0  0  0
   -9.9280   83.3360   19.0640 C   0  0  0  0  0
   -9.2770   84.6770   18.8480 C   0  0  0  0  0
   -5.9100   81.6140   15.3550 C   0  0  0  0  0
   -6.0540   80.4230   14.4230 C   0  0  0  0  0
   -7.5200   80.5540   13.9870 C   0  0  0  0  0
   -6.5830   82.7220   14.5670 C   0  0  0  0  0
   -8.6090   82.6230   13.1280 C   0  0  0  0  0
   -8.2570   86.8630   12.5290 C   0  0  0  0  0
   -9.0860   86.3870   13.5170 C   0  0  0  0  0
   -9.2010   85.0230   13.7120 C   0  0  0  0  0
   -8.5000   84.1070   12.9280 C   0  0  0  0  0
   -7.6670   84.6300   11.9400 C   0  0  0  0  0
   -7.5450   85.9930   11.7360 C   0  0  0  0  0
   -5.1920   84.3610   17.5560 C   0  0  0  0  0
   -5.6820   83.4860   18.4980 C   0  0  0  0  0
   -6.9990   83.5820   18.9190 C   0  0  0  0  0
   -7.8370   84.5610   18.4060 C   0  0  0  0  0
   -7.3290   85.4310   17.4550 C   0  0  0  0  0
   -6.0120   85.3320   17.0350 C   0  0  0  0  0
   -8.9540   80.7830   15.9500 N   0  0  0  0  0
   -8.8590   78.6660   14.9270 N   0  0  0  0  0
   -9.8450   82.4730   17.8900 N   0  0  0  0  0
   -7.6400   82.0140   13.8250 N   0  0  0  0  0
  -11.0710   78.4470   17.7150 O   0  0  0  0  0
  -10.0510   76.9320   15.7410 O   0  0  0  0  0
  -11.0400   80.8140   18.8320 O   0  0  0  0  0
   -9.5630   81.9960   12.6710 O   0  0  0  0  0
  -10.2590   84.4710   14.9730 Cl  0  0  0  0  0
   -6.7550   83.5640   10.9160 Cl  0  0  0  0  0
  -10.9827   83.5072   19.2792 H   0  0  0  0  0
   -9.4064   82.8390   19.8819 H   0  0  0  0  0
   -9.2940   85.2141   19.7963 H   0  0  0  0  0
   -9.8279   85.1940   18.0623 H   0  0  0  0  0
   -4.8740   81.8368   15.6104 H   0  0  0  0  0
   -6.3591   81.4497   16.3345 H   0  0  0  0  0
   -5.8219   79.4682   14.8947 H   0  0  0  0  0
   -5.3485   80.4303   13.5922 H   0  0  0  0  0
   -7.7676   79.9915   13.0867 H   0  0  0  0  0
   -5.8915   83.2510   13.9112 H   0  0  0  0  0
   -6.9758   83.5131   15.2058 H   0  0  0  0  0
   -8.1631   87.9377   12.3728 H   0  0  0  0  0
   -9.6487   87.0801   14.1423 H   0  0  0  0  0
   -6.8898   86.3746   10.9530 H   0  0  0  0  0
   -4.1566   84.2839   17.2243 H   0  0  0  0  0
   -5.0329   82.7155   18.9141 H   0  0  0  0  0
   -7.3803   82.8806   19.6612 H   0  0  0  0  0
   -7.9727   86.2024   17.0322 H   0  0  0  0  0
   -5.6258   86.0267   16.2891 H   0  0  0  0  0
   -8.4771   78.0745   14.1890 H   0  0  0  0  0
   -9.4276   82.8284   17.0298 H   0  0  0  0  0
  -11.2136   77.5227   17.4984 H   0  0  0  0  0
  1 10  1  0  0  0
 25  1  2  0  0  0
  1 26  1  0  0  0
  2  3  2  0  0  0
  5  2  1  0  0  0
  2 25  1  0  0  0
  3  4  1  0  0  0
  3 29  1  0  0  0
  4 26  1  0  0  0
  4 30  2  0  0  0
 27  5  1  0  0  0
  5 31  2  0  0  0
  7  6  1  0  0  0
  6 27  1  0  0  0
 22  7  1  0  0  0
  9  8  1  0  0  0
 11  8  1  0  0  0
 10  9  1  0  0  0
 10 28  1  0  0  0
 28 11  1  0  0  0
 12 16  1  0  0  0
 28 12  1  0  0  0
 12 32  2  0  0  0
 14 13  4  0  0  0
 18 13  4  0  0  0
 15 14  4  0  0  0
 16 15  4  0  0  0
 15 33  1  0  0  0
 16 17  4  0  0  0
 17 18  4  0  0  0
 17 34  1  0  0  0
 20 19  4  0  0  0
 19 24  4  0  0  0
 21 20  4  0  0  0
 21 22  4  0  0  0
 22 23  4  0  0  0
 23 24  4  0  0  0
  6 35  1  0  0  0
  6 36  1  0  0  0
  7 37  1  0  0  0
  7 38  1  0  0  0
  8 39  1  0  0  0
  8 40  1  0  0  0
  9 41  1  0  0  0
  9 42  1  0  0  0
 10 43  1  0  0  0
 11 44  1  0  0  0
 11 45  1  0  0  0
 13 46  1  0  0  0
 14 47  1  0  0  0
 18 48  1  0  0  0
 19 49  1  0  0  0
 20 50  1  0  0  0
 21 51  1  0  0  0
 23 52  1  0  0  0
 24 53  1  0  0  0
 26 54  1  0  0  0
 27 55  1  0  0  0
 29 56  1  0  0  0
M  END
$$$$
