5b1s_ligand
  -I-interpret- 

 21 21  0  0  0  0  0  0  0  0999 V2000
    0.3150  -55.9680  -19.5890 C   0  0  0  0  0
    0.4380  -57.2860  -19.2250 C   0  0  0  0  0
    1.0220  -54.9160  -19.0120 C   0  0  0  0  0
    1.3160  -57.5530  -18.1850 C   0  0  0  0  0
    1.9160  -55.1770  -17.9670 C   0  0  0  0  0
    2.0090  -56.5050  -17.5950 C   0  0  0  0  0
    2.7010  -54.0290  -17.3190 C   0  0  0  0  0
    1.9690  -53.6380  -16.0380 C   0  0  0  0  0
    2.8220  -52.7960  -15.1530 N   0  3  0  0  0
    2.8870  -56.8270  -16.5590 F   0  0  0  0  0
   -0.3869  -55.7275  -20.3875 H   0  0  0  0  0
   -0.1219  -58.0768  -19.7243 H   0  0  0  0  0
    0.8802  -53.8968  -19.3715 H   0  0  0  0  0
    1.4603  -58.5750  -17.8347 H   0  0  0  0  0
    2.7621  -53.1783  -17.9978 H   0  0  0  0  0
    3.7203  -54.3433  -17.0947 H   0  0  0  0  0
    1.7081  -54.5489  -15.4991 H   0  0  0  0  0
    1.0831  -53.0639  -16.3095 H   0  0  0  0  0
    2.3011  -52.5551  -14.3098 H   0  0  0  0  0
    3.6622  -53.3153  -14.8983 H   0  0  0  0  0
    3.0847  -51.9432  -15.6471 H   0  0  0  0  0
  1  2  4  0  0  0
  1  3  4  0  0  0
  2  4  4  0  0  0
  3  5  4  0  0  0
  4  6  4  0  0  0
  5  6  4  0  0  0
  5  7  1  0  0  0
  6 10  1  0  0  0
  7  8  1  0  0  0
  8  9  1  0  0  0
  1 11  1  0  0  0
  2 12  1  0  0  0
  3 13  1  0  0  0
  4 14  1  0  0  0
  7 15  1  0  0  0
  7 16  1  0  0  0
  8 17  1  0  0  0
  8 18  1  0  0  0
  9 19  1  0  0  0
  9 20  1  0  0  0
  9 21  1  0  0  0
M  END
$$$$
