3m1s_ligand
  -I-interpret- 

 41 51  0  0  0  0  0  0  0  0999 V2000
   42.6720   79.6840   30.1730 O   0  0  0  0  0
   43.6010   80.0090   30.7560 C   0  0  0  0  0
   45.5520   82.4750   30.8590 C   0  0  0  0  0
   46.0240   81.4430   30.0160 C   0  0  0  0  0
   46.9990   80.7230   30.7110 C   0  0  0  0  0
   47.1400   81.3190   31.9730 C   0  0  0  0  0
   46.2530   82.4000   32.0710 C   0  0  0  0  0
   45.4500   78.5910   32.5090 N   0  0  0  0  0
   46.1920   77.6250   31.9590 C   0  0  0  0  0
   46.3950   76.4150   32.6290 C   0  0  0  0  0
   45.8080   76.2460   33.8810 C   0  0  0  0  0
   43.9740   80.6570   33.5550 N   0  0  0  0  0
   43.2040   81.4500   34.3420 C   0  0  0  0  0
   42.8980   80.7510   35.5150 C   0  0  0  0  0
   42.1260   81.3290   36.5250 C   0  0  0  0  0
   41.6420   82.6180   36.3090 C   0  0  0  0  0
   41.9780   83.2830   35.1230 C   0  0  0  0  0
   42.7610   82.7150   34.1170 C   0  0  0  0  0
   40.8550   83.2010   37.2580 O   0  0  0  0  0
   43.5090   79.5030   35.4230 C   0  0  0  0  0
   44.1580   79.4790   34.2200 C   0  0  0  0  0
   44.8970   78.4320   33.7260 C   0  0  0  0  0
   45.0370   77.2710   34.4460 C   0  0  0  0  0
   43.6340   78.3430   36.1860 C   0  0  0  0  0
   44.3890   77.2570   35.6880 C   0  0  0  0  0
   43.1420   77.9460   37.4430 C   0  0  0  0  0
   42.4310   78.6290   38.1740 O   0  0  0  0  0
   43.5520   76.6670   37.7710 N   0  0  0  0  0
   44.3060   76.2950   36.6820 C   0  0  0  0  0
   44.8270   75.2170   36.6500 O   0  0  0  0  0
   45.0650   80.5500   31.7320 Ru  0  0  0  0  0
   44.2486   79.6322   29.9644 H   0  0  0  0  0
   46.4791   83.2730   32.6833 H   0  0  0  0  0
   46.6429   77.7821   30.9792 H   0  0  0  0  0
   46.9974   75.6236   32.1830 H   0  0  0  0  0
   45.9491   75.3116   34.4241 H   0  0  0  0  0
   41.9099   80.7917   37.4484 H   0  0  0  0  0
   41.6083   84.2981   34.9780 H   0  0  0  0  0
   43.0036   83.2556   33.2021 H   0  0  0  0  0
   40.6028   84.0804   36.9669 H   0  0  0  0  0
   43.3460   76.1307   38.6138 H   0  0  0  0  0
  2  1  2  0  0  0
  4  3  2  0  0  0
  7  3  1  0  0  0
  5  4  1  0  0  0
  6  5  2  0  0  0
  7  6  1  0  0  0
  8  9  4  0  0  0
  8 22  4  0  0  0
  9 10  4  0  0  0
 10 11  4  0  0  0
 23 11  4  0  0  0
 12 13  4  0  0  0
 21 12  4  0  0  0
 14 13  4  0  0  0
 13 18  4  0  0  0
 14 15  4  0  0  0
 20 14  4  0  0  0
 15 16  4  0  0  0
 16 17  4  0  0  0
 16 19  1  0  0  0
 18 17  4  0  0  0
 21 20  4  0  0  0
 20 24  4  0  0  0
 22 21  4  0  0  0
 22 23  4  0  0  0
 23 25  4  0  0  0
 25 24  4  0  0  0
 24 26  1  0  0  0
 25 29  1  0  0  0
 26 27  2  0  0  0
 28 26  1  0  0  0
 29 28  1  0  0  0
 29 30  2  0  0  0
 31  2  1  0  0  0
 31  3  1  0  0  0
 31  4  1  0  0  0
 31  5  1  0  0  0
 31  6  1  0  0  0
 31  7  1  0  0  0
 31  8  1  0  0  0
 31 12  1  0  0  0
  2 32  1  0  0  0
  7 33  1  0  0  0
  9 34  1  0  0  0
 10 35  1  0  0  0
 11 36  1  0  0  0
 15 37  1  0  0  0
 17 38  1  0  0  0
 18 39  1  0  0  0
 19 40  1  0  0  0
 28 41  1  0  0  0
M  END
$$$$
