4oyp_ligand
  -I-interpret- 

 18 19  0  0  0  0  0  0  0  0999 V2000
   16.8220   30.4920   -2.2860 O   0  0  0  0  0
   15.2970   28.8720   -2.4030 O   0  0  0  0  0
   19.9780   25.7350    1.2620 C   0  0  0  0  0
   18.9420   24.8580    0.9760 C   0  0  0  0  0
   19.9450   27.0420    0.7930 C   0  0  0  0  0
   17.8620   25.2860    0.2280 C   0  0  0  0  0
   18.4670   28.6800   -0.6130 C   0  0  0  0  0
   16.8690   27.1610   -0.9860 O   0  0  0  0  0
   16.4020   29.3360   -2.0250 C   0  0  0  0  0
   17.2800   28.4580   -1.2150 C   0  0  0  0  0
   18.8570   27.4900    0.0190 C   0  0  0  0  0
   17.8480   26.5880   -0.2350 C   0  0  0  0  0
   17.6879   30.6137   -1.8898 H   0  0  0  0  0
   20.8244   25.3959    1.8593 H   0  0  0  0  0
   18.9799   23.8317    1.3412 H   0  0  0  0  0
   20.7638   27.7231    1.0247 H   0  0  0  0  0
   17.0365   24.6093    0.0072 H   0  0  0  0  0
   19.0237   29.6171   -0.6171 H   0  0  0  0  0
  9  1  1  0  0  0
  9  2  2  0  0  0
  4  3  4  0  0  0
  5  3  4  0  0  0
  6  4  4  0  0  0
 11  5  4  0  0  0
 12  6  4  0  0  0
 10  7  4  0  0  0
  7 11  4  0  0  0
 10  8  4  0  0  0
  8 12  4  0  0  0
  9 10  1  0  0  0
 11 12  4  0  0  0
  1 13  1  0  0  0
  3 14  1  0  0  0
  4 15  1  0  0  0
  5 16  1  0  0  0
  6 17  1  0  0  0
  7 18  1  0  0  0
M  END
$$$$
