5ybi_ligand
  -I-interpret- 

 48 50  0  0  0  0  0  0  0  0999 V2000
   48.8070   32.9430   61.6810 P   0  0  0  0  0
   49.0830   32.8160   60.2100 O   0  0  0  0  0
   49.7220   34.0760   62.3140 O   0  0  0  0  0
   47.2820   33.2760   61.9500 O   0  0  0  0  0
   48.5040   30.3070   61.3870 P   0  0  0  0  0
   47.0180   30.4220   61.3630 O   0  0  0  0  0
   49.1080   30.4960   59.9720 O   0  0  0  0  0
   49.1640   31.4600   62.3880 N   0  0  0  0  0
   50.3270   28.3120   61.8790 P   0  0  0  0  0
   50.3050   27.1540   60.9650 O   0  0  0  0  0
   51.3130   29.4200   61.4880 O   0  0  0  0  0
   48.8550   28.9080   61.9450 O   0  0  0  0  0
   50.6010   27.8410   63.3830 O   0  0  0  0  0
   51.0060   26.4840   63.6230 C   0  0  0  0  0
   51.3270   26.2310   65.0750 C   0  0  0  0  0
   50.3930   25.2830   65.6240 O   0  0  0  0  0
   52.7300   25.6860   65.3480 C   0  0  0  0  0
   53.3890   26.4230   66.3740 O   0  0  0  0  0
   52.5150   24.2030   65.7270 C   0  0  0  0  0
   53.0690   23.9260   67.0080 O   0  0  0  0  0
   50.9920   24.0080   65.7370 C   0  0  0  0  0
   50.4350   23.1380   64.6890 N   0  0  0  0  0
   49.4220   23.4770   63.8290 C   0  0  0  0  0
   49.0750   22.5160   63.0050 N   0  0  0  0  0
   49.9040   21.4590   63.3620 C   0  0  0  0  0
   50.0290   20.1440   62.8670 C   0  0  0  0  0
   49.2890   19.6480   61.8730 N   0  0  0  0  0
   50.9520   19.3430   63.4470 N   0  0  0  0  0
   51.6890   19.8310   64.4510 C   0  0  0  0  0
   51.6610   21.0520   64.9960 N   0  0  0  0  0
   50.7390   21.8260   64.4050 C   0  0  0  0  0
   49.5368   34.1477   63.2532 H   0  0  0  0  0
   47.1341   33.3514   62.8955 H   0  0  0  0  0
   50.0635   30.4167   60.0200 H   0  0  0  0  0
   49.6796   31.3001   63.2534 H   0  0  0  0  0
   51.2645   30.1314   62.1308 H   0  0  0  0  0
   51.9060   26.2913   63.0390 H   0  0  0  0  0
   50.1814   25.8298   63.3399 H   0  0  0  0  0
   51.2625   27.2137   65.5422 H   0  0  0  0  0
   53.3841   25.7806   64.4812 H   0  0  0  0  0
   54.2638   26.0553   66.5190 H   0  0  0  0  0
   53.0058   23.5275   65.0263 H   0  0  0  0  0
   52.9253   23.0018   67.2245 H   0  0  0  0  0
   50.7700   23.4949   66.6727 H   0  0  0  0  0
   48.9469   24.4580   63.8297 H   0  0  0  0  0
   48.5821   20.2302   61.4239 H   0  0  0  0  0
   49.4304   18.6868   61.5625 H   0  0  0  0  0
   52.4111   19.1389   64.8842 H   0  0  0  0  0
  1  2  2  0  0  0
  1  3  1  0  0  0
  1  4  1  0  0  0
  8  1  1  0  0  0
  5  6  2  0  0  0
  5  7  1  0  0  0
  5  8  1  0  0  0
 12  5  1  0  0  0
  9 10  2  0  0  0
  9 11  1  0  0  0
  9 12  1  0  0  0
  9 13  1  0  0  0
 13 14  1  0  0  0
 14 15  1  0  0  0
 15 16  1  0  0  0
 15 17  1  0  0  0
 16 21  1  0  0  0
 17 18  1  0  0  0
 17 19  1  0  0  0
 19 20  1  0  0  0
 19 21  1  0  0  0
 21 22  1  0  0  0
 22 23  4  0  0  0
 22 31  4  0  0  0
 23 24  4  0  0  0
 24 25  4  0  0  0
 25 26  4  0  0  0
 25 31  4  0  0  0
 26 27  1  0  0  0
 26 28  4  0  0  0
 28 29  4  0  0  0
 29 30  4  0  0  0
 30 31  4  0  0  0
  3 32  1  0  0  0
  4 33  1  0  0  0
  7 34  1  0  0  0
  8 35  1  0  0  0
 11 36  1  0  0  0
 14 37  1  0  0  0
 14 38  1  0  0  0
 15 39  1  0  0  0
 17 40  1  0  0  0
 18 41  1  0  0  0
 19 42  1  0  0  0
 20 43  1  0  0  0
 21 44  1  0  0  0
 23 45  1  0  0  0
 27 46  1  0  0  0
 27 47  1  0  0  0
 29 48  1  0  0  0
M  END
$$$$
