### 
### Created by X-TOOL on Wed Jan  1 15:39:36 2020
### 

@<TRIPOS>MOLECULE
5ybi_ligand
   44    46     1     0     0
SMALL
GAST_HUCK


@<TRIPOS>ATOM
      1 PG         48.8070   32.9430   61.6810 P.3       1 ANP         0.1803
      2 O1G        49.0830   32.8160   60.2100 O.co2     1 ANP        -0.5454
      3 O2G        49.7220   34.0760   62.3140 O.co2     1 ANP        -0.5454
      4 O3G        47.2820   33.2760   61.9500 O.co2     1 ANP        -0.5454
      5 PB         48.5040   30.3070   61.3870 P.3       1 ANP         0.2543
      6 O1B        47.0180   30.4220   61.3630 O.co2     1 ANP        -0.6257
      7 O2B        49.1080   30.4960   59.9720 O.co2     1 ANP        -0.6257
      8 N3B        49.1640   31.4600   62.3880 N.am      1 ANP        -0.1803
      9 PA         50.3270   28.3120   61.8790 P.3       1 ANP         0.2949
     10 O1A        50.3050   27.1540   60.9650 O.co2     1 ANP        -0.6129
     11 O2A        51.3130   29.4200   61.4880 O.co2     1 ANP        -0.6129
     12 O3A        48.8550   28.9080   61.9450 O.3       1 ANP        -0.1431
     13 O5'        50.6010   27.8410   63.3830 O.3       1 ANP        -0.2478
     14 C5'        51.0060   26.4840   63.6230 C.3       1 ANP         0.1128
     15 C4'        51.3270   26.2310   65.0750 C.3       1 ANP         0.1189
     16 O4'        50.3930   25.2830   65.6240 O.3       1 ANP        -0.3364
     17 C3'        52.7300   25.6860   65.3480 C.3       1 ANP         0.1149
     18 O3'        53.3890   26.4230   66.3740 O.3       1 ANP        -0.3864
     19 C2'        52.5150   24.2030   65.7270 C.3       1 ANP         0.1385
     20 O2'        53.0690   23.9260   67.0080 O.3       1 ANP        -0.3836
     21 C1'        50.9920   24.0080   65.7370 C.3       1 ANP         0.2010
     22 N9         50.4350   23.1380   64.6890 N.pl3     1 ANP        -0.1919
     23 C8         49.4220   23.4770   63.8290 C.2       1 ANP         0.1123
     24 N7         49.0750   22.5160   63.0050 N.2       1 ANP        -0.2958
     25 C5         49.9040   21.4590   63.3620 C.ar      1 ANP         0.1045
     26 C6         50.0290   20.1440   62.8670 C.ar      1 ANP         0.1298
     27 N6         49.2890   19.6480   61.8730 N.pl3     1 ANP        -0.3152
     28 N1         50.9520   19.3430   63.4470 N.ar      1 ANP        -0.2698
     29 C2         51.6890   19.8310   64.4510 C.ar      1 ANP         0.0533
     30 N3         51.6610   21.0520   64.9960 N.ar      1 ANP        -0.2714
     31 C4         50.7390   21.8260   64.4050 C.ar      1 ANP         0.1613
     32 H1         49.6695   31.3032   63.2364 H         1 ANP         0.2132
     33 H2         51.9010   26.2700   63.0204 H         1 ANP         0.0648
     34 H3         50.1899   25.8121   63.3189 H         1 ANP         0.0648
     35 H4         51.2242   27.1879   65.6076 H         1 ANP         0.0651
     36 H5         53.3381   25.7483   64.4335 H         1 ANP         0.0648
     37 H6         52.8839   26.3674   67.1766 H         1 ANP         0.2100
     38 H7         52.9808   23.5443   64.9793 H         1 ANP         0.0676
     39 H8         52.6475   24.4742   67.6594 H         1 ANP         0.2101
     40 H9         50.7213   23.5673   66.7078 H         1 ANP         0.0996
     41 H10        48.9473   24.4571   63.8297 H         1 ANP         0.1349
     42 H11        49.4318   18.6773   61.5595 H         1 ANP         0.1820
     43 H12        48.5751   20.2359   61.4195 H         1 ANP         0.1820
     44 H13        52.4071   19.1427   64.8818 H         1 ANP         0.0996
@<TRIPOS>BOND
     1    1    2 ar 
     2    1    3 ar 
     3    1    4 ar 
     4    8    1 am 
     5    5    6 ar 
     6    5    7 ar 
     7    5    8 1  
     8   12    5 1  
     9    9   10 ar 
    10    9   11 ar 
    11    9   12 1  
    12    9   13 1  
    13   13   14 1  
    14   14   15 1  
    15   15   16 1  
    16   15   17 1  
    17   16   21 1  
    18   17   18 1  
    19   17   19 1  
    20   19   20 1  
    21   19   21 1  
    22   21   22 1  
    23   22   23 1  
    24   22   31 1  
    25   23   24 2  
    26   24   25 1  
    27   25   26 ar 
    28   25   31 ar 
    29   26   27 1  
    30   26   28 ar 
    31   28   29 ar 
    32   29   30 ar 
    33   30   31 ar 
    34    8   32 1  
    35   14   33 1  
    36   14   34 1  
    37   15   35 1  
    38   17   36 1  
    39   18   37 1  
    40   19   38 1  
    41   20   39 1  
    42   21   40 1  
    43   23   41 1  
    44   27   42 1  
    45   27   43 1  
    46   29   44 1  
@<TRIPOS>SUBSTRUCTURE
     1 ANP         1

