4wkt_ligand

Created by X-TOOL on Fri Nov 18 17:47:46 2016
 18 17  0  0  0  0  0  0  0  0999 V2000
   23.3490   27.4750   -1.7330  C 0  0  0  4  0  4
   23.7490   26.3340   -0.8230  C 0  0  0  3  0  4
   23.3710   26.6050    0.6150  C 0  0  0  3  0  4
   24.5870   26.8010    1.4910  C 0  0  0  4  0  5
   24.2050   26.2560    2.9980  B 0  0  0  1  0  2
   22.8180   26.1630    3.3070  O 0  0  0  3  0  3
   23.6409   27.2389   -2.7670  H 0  0  0  1  0  1
   23.8558   28.3964   -1.4103  H 0  0  0  1  0  1
   22.2596   27.6190   -1.6834  H 0  0  0  1  0  1
   24.8383   26.1943   -0.8846  H 0  0  0  1  0  1
   23.2421   25.4169   -1.1577  H 0  0  0  1  0  1
   22.7915   25.7517    0.9971  H 0  0  0  1  0  1
   22.7538   27.5147    0.6549  H 0  0  0  1  0  1
   24.9138   25.8284    1.8875  H 0  0  0  1  0  1
   24.3333   27.4709    2.3258  H 0  0  0  1  0  1
   25.3987   27.2464    0.8971  H 0  0  0  1  0  1
   22.7133   25.8404    4.1944  H 0  0  0  1  0  1
   22.7134   25.8404    4.1943  H 0  0  0  1  0  1
  1  2  1  0  0  2
  2  3  1  0  0  2
  3  4  1  0  0  2
  4  5  1  0  0  2
  5  6  1  0  0  2
  1  7  1  0  0  2
  1  8  1  0  0  2
  1  9  1  0  0  2
  2 10  1  0  0  2
  2 11  1  0  0  2
  3 12  1  0  0  2
  3 13  1  0  0  2
  4 14  1  0  0  2
  4 15  1  0  0  2
  4 16  1  0  0  2
  6 17  1  0  0  2
  6 18  1  0  0  2
M  END
> <MOLECULAR_FORMULA>
C4H12OB

> <MOLECULAR_WEIGHT>
86.9 

> <NUM_HB_ATOMS>
1  

> <NUM_ROTOR>
3  

> <XLOGP2>
1.45 

$$$$
