#	Name:			4wkt_ligand
#	Creating user name:	wangrx
#	Creation time:		Thu Aug  5 16:49:36 2021

#	Modifying user name:	wangrx
#	Modification time:	Thu Aug  5 16:52:57 2021

@<TRIPOS>MOLECULE
4wkt_ligand
   17    16     1     0     0
SMALL
GAST_HUCK


@<TRIPOS>ATOM
      1 C1         23.3490   27.4750   -1.7330 C.3       1 BUB        -0.0676 
      2 C2         23.7490   26.3340   -0.8230 C.3       1 BUB        -0.0831 
      3 C6         23.3710   26.6050    0.6150 C.3       1 BUB        -0.1829 
      4 C9         24.5870   26.8010    1.4910 C.3       1 BUB        -0.3457 
      5 B12        24.2050   26.2560    2.9980 B         1 BUB         2.0000 
      6 O15        22.8180   26.1630    3.3070 O.3       1 BUB        -0.4105 
      7 H1         23.6409   27.2389   -2.7670 H         1 BUB         0.0229 
      8 H2         23.8558   28.3964   -1.4103 H         1 BUB         0.0229 
      9 H3         22.2596   27.6190   -1.6834 H         1 BUB         0.0229 
     10 H4         24.8383   26.1943   -0.8846 H         1 BUB         0.0238 
     11 H5         23.2421   25.4169   -1.1577 H         1 BUB         0.0238 
     12 H6         22.7915   25.7517    0.9971 H         1 BUB        -0.0084 
     13 H7         22.7538   27.5147    0.6549 H         1 BUB        -0.0084 
     14 H8         24.9138   25.8284    1.8875 H         1 BUB        -0.2101 
     15 H10        25.3987   27.2464    0.8971 H         1 BUB        -0.2101 
     16 H11        22.7133   25.8404    4.1944 H         1 BUB         0.2052 
     17 H12        22.7134   25.8404    4.1943 H         1 BUB         0.2052 
@<TRIPOS>BOND
     1    1    2 1    
     2    2    3 1    
     3    3    4 1    
     4    4    5 1    
     5    5    6 1    
     6    1    7 1    
     7    1    8 1    
     8    1    9 1    
     9    2   10 1    
    10    2   11 1    
    11    3   12 1    
    12    3   13 1    
    13    4   14 1    
    14    4   15 1    
    15    6   16 1    
    16    6   17 1    
@<TRIPOS>SUBSTRUCTURE
     1 BUB         1 PERM              0 ****  ****    0 ROOT 
