6cvy_ligand
  -I-interpret- 

100105  0  0  0  0  0  0  0  0999 V2000
  -13.4860   -9.9060   14.1570 C   0  0  0  0  0
  -20.0210  -11.8670   16.2510 C   0  0  0  0  0
  -21.2070  -11.6010   17.4350 C   0  0  0  0  0
  -17.6430   -7.6640   12.6870 C   0  0  0  0  0
  -18.9660   -7.8750   11.9220 C   0  0  0  0  0
  -16.0080   -8.9060   14.1070 C   0  0  0  0  0
  -13.9930  -11.7830   12.9870 C   0  0  0  0  0
  -12.8450  -10.7300   13.3190 C   0  0  0  0  0
  -15.1640  -10.8160   12.6380 C   0  0  0  0  0
  -14.4640   -3.7680   14.7800 C   0  0  0  0  0
  -13.4910   -4.2230   15.5640 C   0  0  0  0  0
  -13.5210   -5.7060   15.9750 C   0  0  0  0  0
  -12.5680   -6.1280   17.0970 C   0  0  0  0  0
  -12.2840   -6.5460   15.6560 C   0  0  0  0  0
  -13.1210   -8.4180   14.1490 C   0  0  0  0  0
  -17.3810   -8.9640   13.4780 C   0  0  0  0  0
  -18.7350  -10.4980   14.8210 C   0  0  0  0  0
  -19.0570  -12.6280   16.8360 C   0  0  0  0  0
  -17.7960   -6.4280   13.6120 C   0  0  0  0  0
  -16.4850   -7.4080   11.6850 C   0  0  0  0  0
  -13.6870  -13.6400   14.2720 C   0  0  0  0  0
  -13.8940  -14.4120   15.5500 C   0  0  0  0  0
  -12.2790  -16.1150   14.9450 C   0  0  0  0  0
  -11.5260  -17.4210   15.2480 C   0  0  0  0  0
  -10.5340  -17.9160   14.2240 C   0  0  0  0  0
  -10.3090  -17.1360   12.9370 C   0  0  0  0  0
  -11.0660  -15.8540   12.6300 C   0  0  0  0  0
  -12.0710  -15.3650   13.6640 C   0  0  0  0  0
   -9.1650  -16.8640   10.8440 C   0  0  0  0  0
  -11.0640   -5.8710   15.0590 C   0  0  0  0  0
   -8.3730   -7.0900   12.2130 C   0  0  0  0  0
   -6.9420   -6.7420   11.8020 C   0  0  0  0  0
   -7.2190   -7.9720   12.6780 C   0  0  0  0  0
  -20.4410  -11.3490   18.5430 C   0  0  0  0  0
  -19.1810  -12.3460   18.4280 C   0  0  0  0  0
   -9.3350   -7.6650   11.1580 C   0  0  0  0  0
  -12.5910   -7.9570   15.4070 N   0  0  0  0  0
  -15.0170   -9.8790   13.6000 N   0  0  0  0  0
  -18.3510   -9.1400   14.5160 N   0  0  0  0  0
  -13.2340  -15.6220   15.9020 N   0  0  0  0  0
  -12.7480  -14.1280   13.3250 N   0  0  0  0  0
  -10.3680   -6.6710   14.1020 N   0  0  0  0  0
  -13.2770   -7.6680   13.2120 O   0  0  0  0  0
  -15.7180   -8.1300   14.9870 O   0  0  0  0  0
  -18.3960  -11.4290   14.1570 O   0  0  0  0  0
  -19.5520  -10.6010   15.9500 O   0  0  0  0  0
  -14.4010  -12.4580   14.0550 O   0  0  0  0  0
   -9.4110  -17.6270   12.0240 O   0  0  0  0  0
  -10.6950   -4.7920   15.3820 O   0  0  0  0  0
   -8.0020   -5.5050   14.3810 O   0  0  0  0  0
   -9.5210   -4.7490   12.7020 O   0  0  0  0  0
   -9.0410   -5.9340   13.4310 S   0  0  0  0  0
  -15.0530  -13.7970   16.6740 Cl  0  0  0  0  0
  -13.2583  -10.2869   15.1526 H   0  0  0  0  0
  -20.3662  -12.3744   15.3501 H   0  0  0  0  0
  -21.8912  -12.4401   17.5612 H   0  0  0  0  0
  -21.8939  -10.7915   17.1881 H   0  0  0  0  0
  -18.8635   -8.7266   11.2495 H   0  0  0  0  0
  -19.7690   -8.0670   12.6336 H   0  0  0  0  0
  -19.1969   -6.9800   11.3443 H   0  0  0  0  0
  -13.6741  -12.5126   12.2427 H   0  0  0  0  0
  -11.9463  -11.1777   13.7434 H   0  0  0  0  0
  -12.4361  -10.2326   12.4395 H   0  0  0  0  0
  -16.1441  -11.2930   12.6318 H   0  0  0  0  0
  -15.1217  -10.4186   11.6239 H   0  0  0  0  0
  -15.2543   -4.4404   14.4461 H   0  0  0  0  0
  -14.4713   -2.7227   14.4713 H   0  0  0  0  0
  -12.6936   -3.5634   15.9064 H   0  0  0  0  0
  -14.5896   -5.8080   15.7857 H   0  0  0  0  0
  -12.6200   -6.5843   18.0855 H   0  0  0  0  0
  -12.0404   -5.6737   17.9357 H   0  0  0  0  0
  -17.4486   -9.8009   12.7829 H   0  0  0  0  0
  -18.0659  -12.3701   16.4627 H   0  0  0  0  0
  -19.1923  -13.6852   16.6079 H   0  0  0  0  0
  -18.6351   -6.5847   14.2898 H   0  0  0  0  0
  -16.8814   -6.2924   14.1893 H   0  0  0  0  0
  -17.9786   -5.5416   13.0045 H   0  0  0  0  0
  -15.5472   -7.3121   12.2323 H   0  0  0  0  0
  -16.4171   -8.2440   10.9889 H   0  0  0  0  0
  -16.6805   -6.4888   11.1329 H   0  0  0  0  0
  -11.7029  -17.9713   16.1721 H   0  0  0  0  0
   -9.9771  -18.8350   14.4069 H   0  0  0  0  0
  -10.8956  -15.3051   11.7038 H   0  0  0  0  0
  -10.0956  -16.7454   10.2890 H   0  0  0  0  0
   -8.7782  -15.8833   11.1210 H   0  0  0  0  0
   -8.4339  -17.3823   10.2236 H   0  0  0  0  0
   -6.2799   -5.8762   11.7899 H   0  0  0  0  0
   -6.3873   -6.4864   10.8992 H   0  0  0  0  0
   -6.9589   -9.0301   12.7081 H   0  0  0  0  0
   -6.8510   -8.4176   13.6022 H   0  0  0  0  0
  -21.0010  -11.5162   19.4631 H   0  0  0  0  0
  -20.1244  -10.3067   18.5820 H   0  0  0  0  0
  -18.2710  -11.9155   18.8459 H   0  0  0  0  0
  -19.3218  -13.2616   19.0025 H   0  0  0  0  0
   -9.4506   -6.9485   10.3447 H   0  0  0  0  0
   -8.9282   -8.5977   10.7672 H   0  0  0  0  0
  -10.3050   -7.8545   11.6176 H   0  0  0  0  0
  -12.4238   -8.6360   16.1496 H   0  0  0  0  0
  -18.7510   -8.3456   15.0153 H   0  0  0  0  0
  -10.6617   -7.6153   13.8522 H   0  0  0  0  0
  1  8  1  0  0  0
 15  1  1  0  0  0
  1 38  1  0  0  0
  2  3  1  0  0  0
  2 18  1  0  0  0
 46  2  1  0  0  0
  3 34  1  0  0  0
  4  5  1  0  0  0
 16  4  1  0  0  0
  4 19  1  0  0  0
  4 20  1  0  0  0
  6 16  1  0  0  0
 38  6  1  0  0  0
  6 44  2  0  0  0
  8  7  1  0  0  0
  9  7  1  0  0  0
  7 47  1  0  0  0
 38  9  1  0  0  0
 11 10  2  0  0  0
 12 11  1  0  0  0
 13 12  1  0  0  0
 14 12  1  0  0  0
 14 13  1  0  0  0
 30 14  1  0  0  0
 14 37  1  0  0  0
 37 15  1  0  0  0
 15 43  2  0  0  0
 16 39  1  0  0  0
 39 17  1  0  0  0
 17 45  2  0  0  0
 17 46  1  0  0  0
 18 35  1  0  0  0
 21 22  4  0  0  0
 21 41  4  0  0  0
 47 21  1  0  0  0
 22 40  4  0  0  0
 22 53  1  0  0  0
 23 24  4  0  0  0
 28 23  4  0  0  0
 40 23  4  0  0  0
 24 25  4  0  0  0
 26 25  4  0  0  0
 27 26  4  0  0  0
 26 48  1  0  0  0
 28 27  4  0  0  0
 41 28  4  0  0  0
 48 29  1  0  0  0
 42 30  1  0  0  0
 30 49  2  0  0  0
 31 32  1  0  0  0
 31 33  1  0  0  0
 31 36  1  0  0  0
 52 31  1  0  0  0
 33 32  1  0  0  0
 35 34  1  0  0  0
 42 52  1  0  0  0
 52 50  2  0  0  0
 52 51  2  0  0  0
  1 54  1  0  0  0
  2 55  1  0  0  0
  3 56  1  0  0  0
  3 57  1  0  0  0
  5 58  1  0  0  0
  5 59  1  0  0  0
  5 60  1  0  0  0
  7 61  1  0  0  0
  8 62  1  0  0  0
  8 63  1  0  0  0
  9 64  1  0  0  0
  9 65  1  0  0  0
 10 66  1  0  0  0
 10 67  1  0  0  0
 11 68  1  0  0  0
 12 69  1  0  0  0
 13 70  1  0  0  0
 13 71  1  0  0  0
 16 72  1  0  0  0
 18 73  1  0  0  0
 18 74  1  0  0  0
 19 75  1  0  0  0
 19 76  1  0  0  0
 19 77  1  0  0  0
 20 78  1  0  0  0
 20 79  1  0  0  0
 20 80  1  0  0  0
 24 81  1  0  0  0
 25 82  1  0  0  0
 27 83  1  0  0  0
 29 84  1  0  0  0
 29 85  1  0  0  0
 29 86  1  0  0  0
 32 87  1  0  0  0
 32 88  1  0  0  0
 33 89  1  0  0  0
 33 90  1  0  0  0
 34 91  1  0  0  0
 34 92  1  0  0  0
 35 93  1  0  0  0
 35 94  1  0  0  0
 36 95  1  0  0  0
 36 96  1  0  0  0
 36 97  1  0  0  0
 37 98  1  0  0  0
 39 99  1  0  0  0
 42100  1  0  0  0
M  END
$$$$
