### 
### Created by X-TOOL on Wed Jan  1 15:39:35 2020
### 

@<TRIPOS>MOLECULE
6cvy_ligand
  100   105     1     0     0
SMALL
GAST_HUCK


@<TRIPOS>ATOM
      1 C13       -13.4860   -9.9060   14.1570 C.3       1 FHD         0.1364
      2 C21       -20.0210  -11.8670   16.2510 C.3       1 FHD         0.0882
      3 C22       -21.2070  -11.6010   17.4350 C.3       1 FHD        -0.0223
      4 C24       -17.6430   -7.6640   12.6870 C.3       1 FHD         0.0025
      5 C26       -18.9660   -7.8750   11.9220 C.3       1 FHD        -0.0558
      6 C01       -16.0080   -8.9060   14.1070 C.2       1 FHD         0.2070
      7 C02       -13.9930  -11.7830   12.9870 C.3       1 FHD         0.1120
      8 C03       -12.8450  -10.7300   13.3190 C.3       1 FHD         0.0213
      9 C04       -15.1640  -10.8160   12.6380 C.3       1 FHD         0.0684
     10 C05       -14.4640   -3.7680   14.7800 C.2       1 FHD        -0.1173
     11 C06       -13.4910   -4.2230   15.5640 C.2       1 FHD        -0.0848
     12 C07       -13.5210   -5.7060   15.9750 C.3       1 FHD         0.0219
     13 C08       -12.5680   -6.1280   17.0970 C.3       1 FHD        -0.0026
     14 C09       -12.2840   -6.5460   15.6560 C.3       1 FHD         0.1495
     15 C11       -13.1210   -8.4180   14.1490 C.2       1 FHD         0.2014
     16 C16       -17.3810   -8.9640   13.4780 C.3       1 FHD         0.1378
     17 C18       -18.7350  -10.4980   14.8210 C.2       1 FHD         0.3221
     18 C23       -19.0570  -12.6280   16.8360 C.3       1 FHD        -0.0223
     19 C25       -17.7960   -6.4280   13.6120 C.3       1 FHD        -0.0558
     20 C27       -16.4850   -7.4080   11.6850 C.3       1 FHD        -0.0558
     21 C29       -13.6870  -13.6400   14.2720 C.ar      1 FHD         0.2112
     22 C30       -13.8940  -14.4120   15.5500 C.ar      1 FHD         0.1810
     23 C33       -12.2790  -16.1150   14.9450 C.ar      1 FHD         0.0552
     24 C34       -11.5260  -17.4210   15.2480 C.ar      1 FHD        -0.0397
     25 C35       -10.5340  -17.9160   14.2240 C.ar      1 FHD        -0.0217
     26 C36       -10.3090  -17.1360   12.9370 C.ar      1 FHD         0.0977
     27 C37       -11.0660  -15.8540   12.6300 C.ar      1 FHD        -0.0142
     28 C38       -12.0710  -15.3650   13.6640 C.ar      1 FHD         0.0456
     29 C41        -9.1650  -16.8640   10.8440 C.3       1 FHD         0.0609
     30 C42       -11.0640   -5.8710   15.0590 C.2       1 FHD         0.2469
     31 C48        -8.3730   -7.0900   12.2130 C.3       1 FHD         0.1085
     32 C49        -6.9420   -6.7420   11.8020 C.3       1 FHD        -0.0239
     33 C50        -7.2190   -7.9720   12.6780 C.3       1 FHD        -0.0239
     34 C51       -20.4410  -11.3490   18.5430 C.3       1 FHD        -0.0503
     35 C52       -19.1810  -12.3460   18.4280 C.3       1 FHD        -0.0503
     36 C53        -9.3350   -7.6650   11.1580 C.3       1 FHD        -0.0378
     37 N10       -12.5910   -7.9570   15.4070 N.am      1 FHD        -0.2717
     38 N14       -15.0170   -9.8790   13.6000 N.am      1 FHD        -0.2468
     39 N17       -18.3510   -9.1400   14.5160 N.am      1 FHD        -0.2407
     40 N32       -13.2340  -15.6220   15.9020 N.ar      1 FHD        -0.2655
     41 N39       -12.7480  -14.1280   13.3250 N.ar      1 FHD        -0.2622
     42 N44       -10.3680   -6.6710   14.1020 N.am      1 FHD        -0.1548
     43 O12       -13.2770   -7.6680   13.2120 O.2       1 FHD        -0.3947
     44 O15       -15.7180   -8.1300   14.9870 O.2       1 FHD        -0.3942
     45 O19       -18.3960  -11.4290   14.1570 O.2       1 FHD        -0.3774
     46 O20       -19.5520  -10.6010   15.9500 O.3       1 FHD        -0.2605
     47 O28       -14.4010  -12.4580   14.0550 O.3       1 FHD        -0.2837
     48 O40        -9.4110  -17.6270   12.0240 O.3       1 FHD        -0.3173
     49 O43       -10.6950   -4.7920   15.3820 O.2       1 FHD        -0.3401
     50 O46        -8.0020   -5.5050   14.3810 O.2       1 FHD        -0.1501
     51 O47        -9.5210   -4.7490   12.7020 O.2       1 FHD        -0.1501
     52 S45        -9.0410   -5.9340   13.4310 S.o2      1 FHD         0.0671
     53 CL        -15.0530  -13.7970   16.6740 Cl        1 FHD        -0.0312
     54 H1        -13.4124  -10.3005   15.1812 H         1 FHD         0.0803
     55 H2        -20.4259  -12.3659   15.3582 H         1 FHD         0.0647
     56 H3        -21.8380  -12.4906   17.5776 H         1 FHD         0.0293
     57 H4        -21.8409  -10.7386   17.1811 H         1 FHD         0.0293
     58 H5        -19.2001   -6.9723   11.3386 H         1 FHD         0.0237
     59 H6        -19.7773   -8.0688   12.6391 H         1 FHD         0.0237
     60 H7        -18.8639   -8.7342   11.2428 H         1 FHD         0.0237
     61 H8        -13.7139  -12.4612   12.1672 H         1 FHD         0.0684
     62 H9        -11.9843  -11.2115   13.8061 H         1 FHD         0.0343
     63 H10       -12.5070  -10.2030   12.4146 H         1 FHD         0.0343
     64 H11       -16.1393  -11.3196   12.7097 H         1 FHD         0.0554
     65 H12       -15.0468  -10.3852   11.6327 H         1 FHD         0.0554
     66 H13       -14.4713   -2.7236   14.4715 H         1 FHD         0.0290
     67 H14       -15.2535   -4.4398   14.4464 H         1 FHD         0.0290
     68 H15       -12.6943   -3.5640   15.9061 H         1 FHD         0.0674
     69 H16       -14.5352   -6.1238   15.8920 H         1 FHD         0.0489
     70 H17       -12.8857   -6.8791   17.8351 H         1 FHD         0.0307
     71 H18       -11.9302   -5.3782   17.5880 H         1 FHD         0.0307
     72 H19       -17.4321   -9.8188   12.7876 H         1 FHD         0.0805
     73 H20       -18.0620  -12.3338   16.4708 H         1 FHD         0.0293
     74 H21       -19.2263  -13.6934   16.6210 H         1 FHD         0.0293
     75 H22       -17.9803   -5.5327   13.0001 H         1 FHD         0.0237
     76 H23       -16.8736   -6.2900   14.1952 H         1 FHD         0.0237
     77 H24       -18.6426   -6.5848   14.2965 H         1 FHD         0.0237
     78 H25       -16.3710   -8.2811   11.0256 H         1 FHD         0.0237
     79 H26       -15.5497   -7.2430   12.2399 H         1 FHD         0.0237
     80 H27       -16.7139   -6.5187   11.0795 H         1 FHD         0.0237
     81 H28       -11.7019  -17.9682   16.1670 H         1 FHD         0.0651
     82 H29        -9.9801  -18.8299   14.4059 H         1 FHD         0.0612
     83 H30       -10.8966  -15.3081   11.7089 H         1 FHD         0.0511
     84 H31        -8.4273  -17.3861   10.2170 H         1 FHD         0.0580
     85 H32        -8.7745  -15.8740   11.1222 H         1 FHD         0.0580
     86 H33       -10.1034  -16.7436   10.2829 H         1 FHD         0.0580
     87 H34        -6.4443   -5.8603   12.2320 H         1 FHD         0.0288
     88 H35        -6.6222   -6.8705   10.7574 H         1 FHD         0.0288
     89 H36        -7.0967   -8.9827   12.2616 H         1 FHD         0.0288
     90 H37        -6.9188   -7.9726   13.7362 H         1 FHD         0.0288
     91 H38       -21.0119  -11.5547   19.4605 H         1 FHD         0.0266
     92 H39       -20.1040  -10.3019   18.5478 H         1 FHD         0.0266
     93 H40       -18.2677  -11.8698   18.8142 H         1 FHD         0.0266
     94 H41       -19.3685  -13.2798   18.9782 H         1 FHD         0.0266
     95 H42        -8.7848   -8.3472   10.4933 H         1 FHD         0.0251
     96 H43        -9.7639   -6.8430   10.5661 H         1 FHD         0.0251
     97 H44       -10.1437   -8.2157   11.6606 H         1 FHD         0.0251
     98 H45       -12.4271   -8.6227   16.1350 H         1 FHD         0.1841
     99 H46       -18.7431   -8.3611   15.0055 H         1 FHD         0.1899
    100 H47       -10.6559   -7.5968   13.8571 H         1 FHD         0.2148
@<TRIPOS>BOND
     1    1    8 1  
     2   15    1 1  
     3    1   38 1  
     4    2    3 1  
     5    2   18 1  
     6   46    2 1  
     7    3   34 1  
     8    4    5 1  
     9   16    4 1  
    10    4   19 1  
    11    4   20 1  
    12    6   16 1  
    13   38    6 am 
    14    6   44 2  
    15    8    7 1  
    16    9    7 1  
    17    7   47 1  
    18   38    9 1  
    19   11   10 2  
    20   12   11 1  
    21   13   12 1  
    22   14   12 1  
    23   14   13 1  
    24   30   14 1  
    25   14   37 1  
    26   37   15 am 
    27   15   43 2  
    28   16   39 1  
    29   39   17 am 
    30   17   45 2  
    31   17   46 1  
    32   18   35 1  
    33   21   22 ar 
    34   21   41 ar 
    35   47   21 1  
    36   22   40 ar 
    37   22   53 1  
    38   23   24 ar 
    39   28   23 ar 
    40   40   23 ar 
    41   24   25 ar 
    42   26   25 ar 
    43   27   26 ar 
    44   26   48 1  
    45   28   27 ar 
    46   41   28 ar 
    47   48   29 1  
    48   42   30 am 
    49   30   49 2  
    50   31   32 1  
    51   31   33 1  
    52   31   36 1  
    53   52   31 1  
    54   33   32 1  
    55   35   34 1  
    56   42   52 am 
    57   52   50 2  
    58   52   51 2  
    59    1   54 1  
    60    2   55 1  
    61    3   56 1  
    62    3   57 1  
    63    5   58 1  
    64    5   59 1  
    65    5   60 1  
    66    7   61 1  
    67    8   62 1  
    68    8   63 1  
    69    9   64 1  
    70    9   65 1  
    71   10   66 1  
    72   10   67 1  
    73   11   68 1  
    74   12   69 1  
    75   13   70 1  
    76   13   71 1  
    77   16   72 1  
    78   18   73 1  
    79   18   74 1  
    80   19   75 1  
    81   19   76 1  
    82   19   77 1  
    83   20   78 1  
    84   20   79 1  
    85   20   80 1  
    86   24   81 1  
    87   25   82 1  
    88   27   83 1  
    89   29   84 1  
    90   29   85 1  
    91   29   86 1  
    92   32   87 1  
    93   32   88 1  
    94   33   89 1  
    95   33   90 1  
    96   34   91 1  
    97   34   92 1  
    98   35   93 1  
    99   35   94 1  
   100   36   95 1  
   101   36   96 1  
   102   36   97 1  
   103   37   98 1  
   104   39   99 1  
   105   42  100 1  
@<TRIPOS>SUBSTRUCTURE
     1 FHD         1

