5j7q_ligand
  -I-interpret- 

 27 29  0  0  0  0  0  0  0  0999 V2000
  -18.6760   -0.9260  -26.0600 C   0  0  0  0  0
  -18.3390    0.1090  -26.9330 C   0  0  0  0  0
  -17.9910   -0.1620  -28.2490 C   0  0  0  0  0
  -17.8940   -1.4740  -28.6980 C   0  0  0  0  0
  -18.1700   -2.5350  -27.8230 C   0  0  0  0  0
  -18.5310   -2.2600  -26.4900 C   0  0  0  0  0
  -17.5520   -1.6920  -30.0070 O   0  0  0  0  0
  -17.7390    0.8840  -29.0860 O   0  0  0  0  0
  -18.9350   -0.5850  -24.6420 C   0  0  0  0  0
  -19.7290   -1.3420  -23.8240 N   0  0  0  0  0
  -19.6290   -0.8070  -22.6020 C   0  0  0  0  0
  -18.7770    0.2890  -22.6450 N   0  0  0  0  0
  -18.3420    0.3770  -23.9250 C   0  0  0  0  0
  -20.2000   -1.0960  -21.3770 C   0  0  0  0  0
  -19.8750   -0.3200  -20.2840 C   0  0  0  0  0
  -19.0050    0.7510  -20.3670 C   0  0  0  0  0
  -18.4600    1.0460  -21.5660 C   0  0  0  0  0
  -18.3491    1.1396  -26.5783 H   0  0  0  0  0
  -18.1055   -3.5654  -28.1725 H   0  0  0  0  0
  -18.6983   -3.0792  -25.7907 H   0  0  0  0  0
  -17.5229   -2.6366  -30.1759 H   0  0  0  0  0
  -17.5127    0.5485  -29.9565 H   0  0  0  0  0
  -17.6292    1.1080  -24.3066 H   0  0  0  0  0
  -20.8984   -1.9267  -21.2759 H   0  0  0  0  0
  -20.3208   -0.5602  -19.3188 H   0  0  0  0  0
  -18.7646    1.3437  -19.4844 H   0  0  0  0  0
  -17.7714    1.8850  -21.6658 H   0  0  0  0  0
  1  2  4  0  0  0
  1  6  4  0  0  0
  1  9  1  0  0  0
  2  3  4  0  0  0
  3  4  4  0  0  0
  3  8  1  0  0  0
  4  5  4  0  0  0
  4  7  1  0  0  0
  5  6  4  0  0  0
  9 10  4  0  0  0
  9 13  4  0  0  0
 10 11  4  0  0  0
 11 12  4  0  0  0
 11 14  4  0  0  0
 12 13  4  0  0  0
 12 17  4  0  0  0
 14 15  4  0  0  0
 15 16  4  0  0  0
 16 17  4  0  0  0
  2 18  1  0  0  0
  5 19  1  0  0  0
  6 20  1  0  0  0
  7 21  1  0  0  0
  8 22  1  0  0  0
 13 23  1  0  0  0
 14 24  1  0  0  0
 15 25  1  0  0  0
 16 26  1  0  0  0
 17 27  1  0  0  0
M  END
$$$$
