5agu_ligand
  -I-interpret- 

175178  0  0  0  0  0  0  0  0999 V2000
  -19.7150   57.1340  -28.1070 C   0  0  0  0  0
  -19.4260   57.0000  -26.9310 O   0  0  0  0  0
  -19.7940   55.9380  -29.0170 C   0  0  0  0  0
  -19.8700   58.4230  -28.6160 N   0  0  0  0  0
  -20.7250   58.5090  -29.8150 C   0  0  0  0  0
  -20.1050   59.5090  -27.5980 C   0  0  0  0  0
  -18.9950   60.5380  -27.8630 C   0  0  0  0  0
  -18.7830   61.6130  -26.7730 C   0  0  0  0  0
  -17.6720   59.8070  -28.1520 C   0  0  0  0  0
  -21.4880   60.1140  -27.7050 C   0  0  0  0  0
  -21.6380   61.2090  -28.2040 O   0  0  0  0  0
  -24.0610   61.3090  -26.5980 C   0  0  0  0  0
  -22.6010   59.3650  -27.3360 N   0  0  0  0  0
  -23.2710   61.5750  -25.6990 O   0  0  0  0  0
  -23.9630   59.9750  -27.2980 C   0  0  0  0  0
  -24.7510   58.8890  -26.5570 C   0  0  0  0  0
  -22.4120   58.4410  -26.1960 C   0  0  0  0  0
  -24.0960   56.8870  -25.0780 C   0  0  0  0  0
  -23.7750   58.3120  -25.5380 C   0  0  0  0  0
  -24.9850   62.2640  -27.0420 N   0  0  0  0  0
  -27.1010   61.9120  -25.0780 O   0  0  0  0  0
  -27.0410   64.4810  -27.2990 O   0  0  0  0  0
  -26.4220   62.9340  -25.0220 C   0  0  0  0  0
  -25.3480   63.3100  -26.0280 C   0  0  0  0  0
  -25.7360   64.6190  -26.7340 C   0  0  0  0  0
  -24.7470   64.9430  -27.8460 C   0  0  0  0  0
  -26.1020   61.6980  -27.8730 C   0  0  0  0  0
  -26.5840   63.8160  -24.0470 N   0  0  0  0  0
  -27.7170   63.7910  -23.1470 C   0  0  0  0  0
  -27.6030   65.0580  -22.3110 C   0  0  0  0  0
  -27.2080   65.0290  -20.8170 C   0  0  0  0  0
  -26.3290   66.2360  -20.4420 C   0  0  0  0  0
  -26.7220   63.7110  -20.2230 C   0  0  0  0  0
  -29.0120   63.8950  -23.9180 C   0  0  0  0  0
  -29.0710   64.5380  -24.9500 O   0  0  0  0  0
  -32.0600   64.5460  -24.2370 C   0  0  0  0  0
  -30.1990   63.3890  -23.4320 N   0  0  0  0  0
  -33.2310   64.5450  -23.8900 O   0  0  0  0  0
  -31.2950   63.2620  -24.4250 C   0  0  0  0  0
  -32.1320   62.0790  -23.9260 C   0  0  0  0  0
  -30.1550   62.2010  -22.5620 C   0  0  0  0  0
  -31.9560   60.5420  -21.8390 C   0  0  0  0  0
  -31.6520   61.9080  -22.4690 C   0  0  0  0  0
  -31.3790   65.6650  -24.4330 N   0  0  0  0  0
  -32.0130   66.9640  -24.4990 C   0  0  0  0  0
  -30.9210   68.0170  -24.6020 C   0  0  0  0  0
  -30.0980   68.0980  -23.3090 C   0  0  0  0  0
  -30.8740   68.7720  -22.1740 C   0  0  0  0  0
  -28.7470   68.7830  -23.5580 C   0  0  0  0  0
  -32.9230   67.0650  -25.6980 C   0  0  0  0  0
  -32.4550   66.8320  -26.7970 O   0  0  0  0  0
  -34.2680   67.3530  -25.5170 N   0  0  0  0  0
  -34.4810   68.3120  -24.4020 C   0  0  0  0  0
  -35.0750   67.6270  -26.7550 C   0  0  0  0  0
  -36.3320   66.7780  -26.6110 C   0  0  0  0  0
  -35.9530   65.3250  -26.3760 C   0  0  0  0  0
  -37.2530   66.8950  -27.8190 C   0  0  0  0  0
  -35.4950   69.0640  -26.9380 C   0  0  0  0  0
  -36.4050   69.5500  -26.2900 O   0  0  0  0  0
  -32.6810   69.3230  -28.4820 C   0  0  0  0  0
  -32.4650   69.6740  -27.3390 O   0  0  0  0  0
  -34.1100   69.2920  -28.9240 C   0  0  0  0  0
  -34.2700   70.2930  -30.0760 C   0  0  0  0  0
  -34.7530   71.5770  -29.4140 C   0  0  0  0  0
  -35.5880   71.0800  -28.2430 C   0  0  0  0  0
  -34.8140   69.9100  -27.7830 N   0  0  0  0  0
  -31.6280   69.0640  -29.3420 N   0  0  0  0  0
  -31.8610   67.9000  -30.2470 C   0  0  0  0  0
  -30.3170   69.0490  -28.6380 C   0  0  0  0  0
  -29.5810   67.7310  -28.7920 C   0  0  0  0  0
  -28.6640   67.5910  -29.5850 O   0  0  0  0  0
  -29.4610   70.1260  -29.2830 C   0  0  0  0  0
  -28.7840   71.1230  -28.3450 C   0  0  0  0  0
  -27.3760   71.4240  -28.8440 C   0  0  0  0  0
  -28.7950   70.7360  -26.8650 C   0  0  0  0  0
  -27.8450   65.6650  -27.3720 C   0  0  0  0  0
  -27.4050   66.7240  -26.9470 O   0  0  0  0  0
  -29.2130   65.5080  -28.0090 C   0  0  0  0  0
  -29.9680   66.7290  -28.0200 N   0  0  0  0  0
  -18.8252   55.4391  -29.0442 H   0  0  0  0  0
  -20.5494   55.2473  -28.6424 H   0  0  0  0  0
  -20.0644   56.2644  -30.0212 H   0  0  0  0  0
  -21.7719   58.4437  -29.5186 H   0  0  0  0  0
  -20.5473   59.4590  -30.3190 H   0  0  0  0  0
  -20.4853   57.6876  -30.4903 H   0  0  0  0  0
  -20.0656   59.1224  -26.5796 H   0  0  0  0  0
  -19.3398   61.1021  -28.7296 H   0  0  0  0  0
  -18.4305   61.1365  -25.8583 H   0  0  0  0  0
  -18.0427   62.3356  -27.1163 H   0  0  0  0  0
  -19.7268   62.1223  -26.5784 H   0  0  0  0  0
  -16.9293   60.5258  -28.4983 H   0  0  0  0  0
  -17.3171   59.3266  -27.2402 H   0  0  0  0  0
  -17.8358   59.0526  -28.9215 H   0  0  0  0  0
  -24.3236   60.2276  -28.2951 H   0  0  0  0  0
  -25.1193   58.1231  -27.2395 H   0  0  0  0  0
  -25.6409   59.2952  -26.0762 H   0  0  0  0  0
  -21.6681   58.8215  -25.4961 H   0  0  0  0  0
  -22.0386   57.4723  -26.5282 H   0  0  0  0  0
  -25.0824   56.8697  -24.6145 H   0  0  0  0  0
  -24.0856   56.2178  -25.9384 H   0  0  0  0  0
  -23.3476   56.5628  -24.3549 H   0  0  0  0  0
  -23.8307   58.8602  -24.5975 H   0  0  0  0  0
  -24.4427   63.4268  -25.4322 H   0  0  0  0  0
  -25.7233   65.4268  -26.0023 H   0  0  0  0  0
  -24.7481   64.1355  -28.5781 H   0  0  0  0  0
  -25.0393   65.8747  -28.3304 H   0  0  0  0  0
  -23.7483   65.0499  -27.4225 H   0  0  0  0  0
  -25.6866   61.2170  -28.7585 H   0  0  0  0  0
  -26.6549   60.9650  -27.2854 H   0  0  0  0  0
  -26.7718   62.5029  -28.1756 H   0  0  0  0  0
  -25.8800   64.5440  -23.9254 H   0  0  0  0  0
  -27.7176   62.8708  -22.5628 H   0  0  0  0  0
  -28.6219   65.4451  -22.2966 H   0  0  0  0  0
  -26.7811   65.5986  -22.7803 H   0  0  0  0  0
  -28.1691   65.1221  -20.3114 H   0  0  0  0  0
  -25.4182   66.2205  -21.0406 H   0  0  0  0  0
  -26.8775   67.1577  -20.6365 H   0  0  0  0  0
  -26.0712   66.1815  -19.3843 H   0  0  0  0  0
  -27.5050   62.9590  -20.3213 H   0  0  0  0  0
  -25.8303   63.3807  -20.7558 H   0  0  0  0  0
  -26.4846   63.8546  -19.1689 H   0  0  0  0  0
  -31.0022   63.1079  -25.4636 H   0  0  0  0  0
  -31.9936   61.1794  -24.5258 H   0  0  0  0  0
  -33.2046   62.2580  -24.0002 H   0  0  0  0  0
  -29.6589   62.3544  -21.6037 H   0  0  0  0  0
  -29.5509   61.3776  -22.9429 H   0  0  0  0  0
  -33.0335   60.3775  -21.8336 H   0  0  0  0  0
  -31.4705   59.7587  -22.4211 H   0  0  0  0  0
  -31.5791   60.5230  -20.8164 H   0  0  0  0  0
  -32.1867   62.5758  -21.7936 H   0  0  0  0  0
  -30.3664   65.6087  -24.5418 H   0  0  0  0  0
  -32.6182   67.1153  -23.6052 H   0  0  0  0  0
  -31.3894   68.9858  -24.7756 H   0  0  0  0  0
  -30.2543   67.7456  -25.4205 H   0  0  0  0  0
  -29.8983   67.0762  -22.9861 H   0  0  0  0  0
  -31.1419   69.7860  -22.4709 H   0  0  0  0  0
  -31.7793   68.2018  -21.9659 H   0  0  0  0  0
  -30.2512   68.8063  -21.2801 H   0  0  0  0  0
  -28.1830   68.2135  -24.2967 H   0  0  0  0  0
  -28.9165   69.7939  -23.9288 H   0  0  0  0  0
  -28.1856   68.8263  -22.6247 H   0  0  0  0  0
  -34.0943   67.8837  -23.4773 H   0  0  0  0  0
  -33.9571   69.2427  -24.6198 H   0  0  0  0  0
  -35.5473   68.5105  -24.2939 H   0  0  0  0  0
  -34.4579   67.3947  -27.6230 H   0  0  0  0  0
  -36.8838   67.1562  -25.7504 H   0  0  0  0  0
  -35.3689   64.9619  -27.2216 H   0  0  0  0  0
  -35.3609   65.2482  -25.4640 H   0  0  0  0  0
  -36.8583   64.7266  -26.2744 H   0  0  0  0  0
  -37.5597   67.9338  -27.9412 H   0  0  0  0  0
  -36.7228   66.5639  -28.7119 H   0  0  0  0  0
  -38.1331   66.2707  -27.6651 H   0  0  0  0  0
  -34.4506   68.2978  -29.2132 H   0  0  0  0  0
  -34.9732   69.9358  -30.8284 H   0  0  0  0  0
  -33.3348   70.4424  -30.6157 H   0  0  0  0  0
  -35.3226   72.2095  -30.0948 H   0  0  0  0  0
  -33.9309   72.2193  -29.0983 H   0  0  0  0  0
  -36.6137   70.8355  -28.5193 H   0  0  0  0  0
  -35.7319   71.8323  -27.4675 H   0  0  0  0  0
  -32.0193   67.0025  -29.6491 H   0  0  0  0  0
  -32.7417   68.0892  -30.8608 H   0  0  0  0  0
  -30.9916   67.7613  -30.8896 H   0  0  0  0  0
  -30.4952   69.2083  -27.5745 H   0  0  0  0  0
  -30.1372   70.7126  -29.9049 H   0  0  0  0  0
  -28.6539   69.6004  -29.7933 H   0  0  0  0  0
  -29.3895   72.0288  -28.3779 H   0  0  0  0  0
  -26.7963   70.5013  -28.8706 H   0  0  0  0  0
  -27.4303   71.8495  -29.8460 H   0  0  0  0  0
  -26.8978   72.1357  -28.1710 H   0  0  0  0  0
  -29.8257   70.6387  -26.5239 H   0  0  0  0  0
  -28.2768   69.7859  -26.7354 H   0  0  0  0  0
  -28.2904   71.5087  -26.2850 H   0  0  0  0  0
  -29.7708   64.7771  -27.4236 H   0  0  0  0  0
  -29.0648   65.1991  -29.0437 H   0  0  0  0  0
  -30.7986   66.8234  -27.4355 H   0  0  0  0  0
  1  2  2  0  0  0
  1  3  1  0  0  0
  4  1  1  0  0  0
  4  5  1  0  0  0
  6  4  1  0  0  0
  6  7  1  0  0  0
 10  6  1  0  0  0
  7  8  1  0  0  0
  7  9  1  0  0  0
 10 11  2  0  0  0
 13 10  1  0  0  0
 12 14  2  0  0  0
 12 15  1  0  0  0
 20 12  1  0  0  0
 15 13  1  0  0  0
 13 17  1  0  0  0
 15 16  1  0  0  0
 16 19  1  0  0  0
 19 17  1  0  0  0
 19 18  1  0  0  0
 24 20  1  0  0  0
 20 27  1  0  0  0
 23 21  2  0  0  0
 25 22  1  0  0  0
 22 76  1  0  0  0
 23 24  1  0  0  0
 28 23  1  0  0  0
 24 25  1  0  0  0
 25 26  1  0  0  0
 29 28  1  0  0  0
 29 30  1  0  0  0
 34 29  1  0  0  0
 30 31  1  0  0  0
 31 32  1  0  0  0
 31 33  1  0  0  0
 34 35  2  0  0  0
 37 34  1  0  0  0
 36 38  2  0  0  0
 36 39  1  0  0  0
 44 36  1  0  0  0
 39 37  1  0  0  0
 37 41  1  0  0  0
 39 40  1  0  0  0
 40 43  1  0  0  0
 43 41  1  0  0  0
 43 42  1  0  0  0
 45 44  1  0  0  0
 45 46  1  0  0  0
 50 45  1  0  0  0
 46 47  1  0  0  0
 47 48  1  0  0  0
 47 49  1  0  0  0
 50 51  2  0  0  0
 52 50  1  0  0  0
 52 53  1  0  0  0
 54 52  1  0  0  0
 54 55  1  0  0  0
 58 54  1  0  0  0
 55 56  1  0  0  0
 55 57  1  0  0  0
 58 59  2  0  0  0
 66 58  1  0  0  0
 60 61  2  0  0  0
 62 60  1  0  0  0
 60 67  1  0  0  0
 62 63  1  0  0  0
 62 66  1  0  0  0
 63 64  1  0  0  0
 64 65  1  0  0  0
 65 66  1  0  0  0
 67 68  1  0  0  0
 67 69  1  0  0  0
 69 70  1  0  0  0
 69 72  1  0  0  0
 70 71  2  0  0  0
 70 79  1  0  0  0
 72 73  1  0  0  0
 73 74  1  0  0  0
 73 75  1  0  0  0
 76 77  2  0  0  0
 76 78  1  0  0  0
 78 79  1  0  0  0
  3 80  1  0  0  0
  3 81  1  0  0  0
  3 82  1  0  0  0
  5 83  1  0  0  0
  5 84  1  0  0  0
  5 85  1  0  0  0
  6 86  1  0  0  0
  7 87  1  0  0  0
  8 88  1  0  0  0
  8 89  1  0  0  0
  8 90  1  0  0  0
  9 91  1  0  0  0
  9 92  1  0  0  0
  9 93  1  0  0  0
 15 94  1  0  0  0
 16 95  1  0  0  0
 16 96  1  0  0  0
 17 97  1  0  0  0
 17 98  1  0  0  0
 18 99  1  0  0  0
 18100  1  0  0  0
 18101  1  0  0  0
 19102  1  0  0  0
 24103  1  0  0  0
 25104  1  0  0  0
 26105  1  0  0  0
 26106  1  0  0  0
 26107  1  0  0  0
 27108  1  0  0  0
 27109  1  0  0  0
 27110  1  0  0  0
 28111  1  0  0  0
 29112  1  0  0  0
 30113  1  0  0  0
 30114  1  0  0  0
 31115  1  0  0  0
 32116  1  0  0  0
 32117  1  0  0  0
 32118  1  0  0  0
 33119  1  0  0  0
 33120  1  0  0  0
 33121  1  0  0  0
 39122  1  0  0  0
 40123  1  0  0  0
 40124  1  0  0  0
 41125  1  0  0  0
 41126  1  0  0  0
 42127  1  0  0  0
 42128  1  0  0  0
 42129  1  0  0  0
 43130  1  0  0  0
 44131  1  0  0  0
 45132  1  0  0  0
 46133  1  0  0  0
 46134  1  0  0  0
 47135  1  0  0  0
 48136  1  0  0  0
 48137  1  0  0  0
 48138  1  0  0  0
 49139  1  0  0  0
 49140  1  0  0  0
 49141  1  0  0  0
 53142  1  0  0  0
 53143  1  0  0  0
 53144  1  0  0  0
 54145  1  0  0  0
 55146  1  0  0  0
 56147  1  0  0  0
 56148  1  0  0  0
 56149  1  0  0  0
 57150  1  0  0  0
 57151  1  0  0  0
 57152  1  0  0  0
 62153  1  0  0  0
 63154  1  0  0  0
 63155  1  0  0  0
 64156  1  0  0  0
 64157  1  0  0  0
 65158  1  0  0  0
 65159  1  0  0  0
 68160  1  0  0  0
 68161  1  0  0  0
 68162  1  0  0  0
 69163  1  0  0  0
 72164  1  0  0  0
 72165  1  0  0  0
 73166  1  0  0  0
 74167  1  0  0  0
 74168  1  0  0  0
 74169  1  0  0  0
 75170  1  0  0  0
 75171  1  0  0  0
 75172  1  0  0  0
 78173  1  0  0  0
 78174  1  0  0  0
 79175  1  0  0  0
M  END
$$$$
