### 
### Created by X-TOOL on Mon Sep 10 21:13:23 2018
### 

@<TRIPOS>MOLECULE
5agu_ligand
  175   178     1     0     0
SMALL
GAST_HUCK


@<TRIPOS>ATOM
      1 C         -19.7150   57.1340  -28.1070 C.2       1 ACE         0.1774
      2 O         -19.4260   57.0000  -26.9310 O.2       1 ACE        -0.3970
      3 CH3       -19.7940   55.9380  -29.0170 C.3       1 ACE         0.0260
      4 N         -19.8700   58.4230  -28.6160 N.am      1 MVA        -0.2547
      5 CN        -20.7250   58.5090  -29.8150 C.3       1 MVA         0.0254
      6 CA        -20.1050   59.5090  -27.5980 C.3       1 MVA         0.1358
      7 CB        -18.9950   60.5380  -27.8630 C.3       1 MVA        -0.0061
      8 CG1       -18.7830   61.6130  -26.7730 C.3       1 MVA        -0.0584
      9 CG2       -17.6720   59.8070  -28.1520 C.3       1 MVA        -0.0584
     10 C         -21.4880   60.1140  -27.7050 C.2       1 MVA         0.2069
     11 O         -21.6380   61.2090  -28.2040 O.2       1 MVA        -0.3942
     12 C         -24.0610   61.3090  -26.5980 C.2       1 MP8         0.2065
     13 N         -22.6010   59.3650  -27.3360 N.am      1 MP8        -0.2495
     14 O         -23.2710   61.5750  -25.6990 O.2       1 MP8        -0.3942
     15 CA        -23.9630   59.9750  -27.2980 C.3       1 MP8         0.1342
     16 CB        -24.7510   58.8890  -26.5570 C.3       1 MP8        -0.0078
     17 CD        -22.4120   58.4410  -26.1960 C.3       1 MP8         0.0395
     18 CE        -24.0960   56.8870  -25.0780 C.3       1 MP8        -0.0604
     19 CG        -23.7750   58.3120  -25.5380 C.3       1 MP8        -0.0190
     20 N         -24.9850   62.2640  -27.0420 N.am      1 NZC        -0.2500
     21 O         -27.1010   61.9120  -25.0780 O.2       1 NZC        -0.3943
     22 OG1       -27.0410   64.4810  -27.2990 O.3       1 NZC        -0.2675
     23 C         -26.4220   62.9340  -25.0220 C.2       1 NZC         0.2070
     24 CA        -25.3480   63.3100  -26.0280 C.3       1 NZC         0.1634
     25 CB        -25.7360   64.6190  -26.7340 C.3       1 NZC         0.1249
     26 CG2       -24.7470   64.9430  -27.8460 C.3       1 NZC        -0.0298
     27 C40       -26.1020   61.6980  -27.8730 C.3       1 NZC         0.0255
     28 N4        -26.5840   63.8160  -24.0470 N.am      1 LEU        -0.2636
     29 C15       -27.7170   63.7910  -23.1470 C.3       1 LEU         0.1314
     30 C16       -27.6030   65.0580  -22.3110 C.3       1 LEU        -0.0101
     31 C17       -27.2080   65.0290  -20.8170 C.3       1 LEU        -0.0425
     32 C39       -26.3290   66.2360  -20.4420 C.3       1 LEU        -0.0625
     33 C38       -26.7220   63.7110  -20.2230 C.3       1 LEU        -0.0625
     34 C14       -29.0120   63.8950  -23.9180 C.2       1 LEU         0.2064
     35 O6        -29.0710   64.5380  -24.9500 O.2       1 LEU        -0.3942
     36 C         -32.0600   64.5460  -24.2370 C.2       1 MP8         0.2041
     37 N         -30.1990   63.3890  -23.4320 N.am      1 MP8        -0.2496
     38 O         -33.2310   64.5450  -23.8900 O.2       1 MP8        -0.3944
     39 CA        -31.2950   63.2620  -24.4250 C.3       1 MP8         0.1340
     40 CB        -32.1320   62.0790  -23.9260 C.3       1 MP8        -0.0078
     41 CD        -30.1550   62.2010  -22.5620 C.3       1 MP8         0.0395
     42 CE        -31.9560   60.5420  -21.8390 C.3       1 MP8        -0.0604
     43 CG        -31.6520   61.9080  -22.4690 C.3       1 MP8        -0.0190
     44 N7        -31.3790   65.6650  -24.4330 N.am      1 LEU        -0.2637
     45 C32       -32.0130   66.9640  -24.4990 C.3       1 LEU         0.1314
     46 C53       -30.9210   68.0170  -24.6020 C.3       1 LEU        -0.0101
     47 C54       -30.0980   68.0980  -23.3090 C.3       1 LEU        -0.0425
     48 C56       -30.8740   68.7720  -22.1740 C.3       1 LEU        -0.0625
     49 C55       -28.7470   68.7830  -23.5580 C.3       1 LEU        -0.0625
     50 C12       -32.9230   67.0650  -25.6980 C.2       1 LEU         0.2062
     51 O4        -32.4550   66.8320  -26.7970 O.2       1 LEU        -0.3942
     52 N         -34.2680   67.3530  -25.5170 N.am      1 MVA        -0.2526
     53 CN        -34.4810   68.3120  -24.4020 C.3       1 MVA         0.0254
     54 CA        -35.0750   67.6270  -26.7550 C.3       1 MVA         0.1359
     55 CB        -36.3320   66.7780  -26.6110 C.3       1 MVA        -0.0061
     56 CG1       -35.9530   65.3250  -26.3760 C.3       1 MVA        -0.0584
     57 CG2       -37.2530   66.8950  -27.8190 C.3       1 MVA        -0.0584
     58 C         -35.4950   69.0640  -26.9380 C.2       1 MVA         0.2068
     59 O         -36.4050   69.5500  -26.2900 O.2       1 MVA        -0.3942
     60 C5        -32.6810   69.3230  -28.4820 C.2       1 PRO         0.2064
     61 O2        -32.4650   69.6740  -27.3390 O.2       1 PRO        -0.3942
     62 C26       -34.1100   69.2920  -28.9240 C.3       1 PRO         0.1340
     63 C27       -34.2700   70.2930  -30.0760 C.3       1 PRO        -0.0104
     64 C28       -34.7530   71.5770  -29.4140 C.3       1 PRO        -0.0281
     65 C29       -35.5880   71.0800  -28.2430 C.3       1 PRO         0.0369
     66 N6        -34.8140   69.9100  -27.7830 N.am      1 PRO        -0.2498
     67 N         -31.6280   69.0640  -29.3420 N.am      1 MLU        -0.2529
     68 CN        -31.8610   67.9000  -30.2470 C.3       1 MLU         0.0254
     69 CA        -30.3170   69.0490  -28.6380 C.3       1 MLU         0.1336
     70 C         -29.5810   67.7310  -28.7920 C.2       1 MLU         0.2040
     71 O         -28.6640   67.5910  -29.5850 O.2       1 MLU        -0.3944
     72 CB        -29.4610   70.1260  -29.2830 C.3       1 MLU        -0.0099
     73 CG        -28.7840   71.1230  -28.3450 C.3       1 MLU        -0.0425
     74 CD1       -27.3760   71.4240  -28.8440 C.3       1 MLU        -0.0625
     75 CD2       -28.7950   70.7360  -26.8650 C.3       1 MLU        -0.0625
     76 C11       -27.8450   65.6650  -27.3720 C.2       1 GLY         0.2569
     77 O9        -27.4050   66.7240  -26.9470 O.2       1 GLY        -0.3681
     78 C10       -29.2130   65.5080  -28.0090 C.3       1 GLY         0.1314
     79 N3        -29.9680   66.7290  -28.0200 N.am      1 GLY        -0.2650
     80 H1        -20.0668   56.2661  -30.0309 H         1 ACE         0.0467
     81 H2        -20.5561   55.2401  -28.6400 H         1 ACE         0.0467
     82 H3        -18.8169   55.4336  -29.0454 H         1 ACE         0.0467
     83 H4        -20.4841   57.6805  -30.4973 H         1 MVA         0.0488
     84 H5        -20.5466   59.4673  -30.3246 H         1 MVA         0.0488
     85 H6        -21.7819   58.4432  -29.5172 H         1 MVA         0.0488
     86 H7        -19.9909   59.0956  -26.5851 H         1 MVA         0.0804
     87 H8        -19.2837   61.0779  -28.7769 H         1 MVA         0.0343
     88 H9        -17.9673   62.2861  -27.0756 H         1 MVA         0.0234
     89 H10       -18.5220   61.1249  -25.8224 H         1 MVA         0.0234
     90 H11       -19.7088   62.1932  -26.6452 H         1 MVA         0.0234
     91 H12       -17.8360   59.0454  -28.9285 H         1 MVA         0.0234
     92 H13       -17.3127   59.3217  -27.2325 H         1 MVA         0.0234
     93 H14       -16.9216   60.5313  -28.5016 H         1 MVA         0.0234
     94 H15       -24.3444   60.1024  -28.3218 H         1 MP8         0.0802
     95 H16       -25.0840   58.1085  -27.2570 H         1 MP8         0.0316
     96 H17       -25.6250   59.3243  -26.0504 H         1 MP8         0.0316
     97 H18       -21.6810   58.8539  -25.4852 H         1 MP8         0.0527
     98 H19       -22.0639   57.4600  -26.5516 H         1 MP8         0.0527
     99 H20       -25.0928   56.8676  -24.6132 H         1 MP8         0.0233
    100 H21       -23.3434   56.5599  -24.3455 H         1 MP8         0.0233
    101 H22       -24.0825   56.2100  -25.9449 H         1 MP8         0.0233
    102 H23       -23.7946   58.9467  -24.6398 H         1 MP8         0.0320
    103 H24       -24.4347   63.5044  -25.4466 H         1 NZC         0.0832
    104 H25       -25.7378   65.4386  -26.0003 H         1 NZC         0.0696
    105 H26       -23.7387   65.0511  -27.4199 H         1 NZC         0.0260
    106 H27       -25.0408   65.8832  -28.3356 H         1 NZC         0.0260
    107 H28       -24.7471   64.1287  -28.5856 H         1 NZC         0.0260
    108 H29       -25.6976   60.9482  -28.5689 H         1 NZC         0.0488
    109 H30       -26.5809   62.5073  -28.4437 H         1 NZC         0.0488
    110 H31       -26.8450   61.2242  -27.2147 H         1 NZC         0.0488
    111 H32       -25.8938   64.5297  -23.9278 H         1 LEU         0.1883
    112 H33       -27.7054   62.8857  -22.5223 H         1 LEU         0.0800
    113 H34       -28.5877   65.5459  -22.3581 H         1 LEU         0.0315
    114 H35       -26.8560   65.6903  -22.8132 H         1 LEU         0.0315
    115 H36       -28.1591   65.2059  -20.2935 H         1 LEU         0.0298
    116 H37       -26.0681   66.1821  -19.3747 H         1 LEU         0.0232
    117 H38       -26.8814   67.1668  -20.6378 H         1 LEU         0.0232
    118 H39       -25.4094   66.2215  -21.0454 H         1 LEU         0.0232
    119 H40       -27.3960   62.8987  -20.5326 H         1 LEU         0.0232
    120 H41       -26.7155   63.7837  -19.1254 H         1 LEU         0.0232
    121 H42       -25.7041   63.4999  -20.5826 H         1 LEU         0.0232
    122 H43       -30.9458   63.1217  -25.4586 H         1 MP8         0.0802
    123 H44       -31.9306   61.1740  -24.5179 H         1 MP8         0.0316
    124 H45       -33.2067   62.3104  -23.9641 H         1 MP8         0.0316
    125 H46       -29.7184   62.4277  -21.5781 H         1 MP8         0.0527
    126 H47       -29.6017   61.3714  -23.0264 H         1 MP8         0.0527
    127 H48       -33.0448   60.3903  -21.8001 H         1 MP8         0.0233
    128 H49       -31.5445   60.5087  -20.8194 H         1 MP8         0.0233
    129 H50       -31.4967   59.7479  -22.4459 H         1 MP8         0.0233
    130 H51       -32.1364   62.6696  -21.8402 H         1 MP8         0.0320
    131 H52       -30.3862   65.6099  -24.5397 H         1 LEU         0.1883
    132 H53       -32.6025   67.1291  -23.5851 H         1 LEU         0.0800
    133 H54       -31.3846   68.9960  -24.7931 H         1 LEU         0.0315
    134 H55       -30.2523   67.7588  -25.4363 H         1 LEU         0.0315
    135 H56       -29.8885   67.0663  -22.9902 H         1 LEU         0.0298
    136 H57       -30.2465   68.8073  -21.2713 H         1 LEU         0.0232
    137 H58       -31.7880   68.1974  -21.9630 H         1 LEU         0.0232
    138 H59       -31.1450   69.7955  -22.4723 H         1 LEU         0.0232
    139 H60       -28.2220   68.2711  -24.3779 H         1 LEU         0.0232
    140 H61       -28.1367   68.7332  -22.6442 H         1 LEU         0.0232
    141 H62       -28.9142   69.8355  -23.8304 H         1 LEU         0.0232
    142 H63       -33.8494   68.0271  -23.5477 H         1 MVA         0.0488
    143 H64       -35.5382   68.2929  -24.0988 H         1 MVA         0.0488
    144 H65       -34.2130   69.3258  -24.7341 H         1 MVA         0.0488
    145 H66       -34.4978   67.3155  -27.6381 H         1 MVA         0.0805
    146 H67       -36.8841   67.1380  -25.7304 H         1 MVA         0.0343
    147 H68       -36.8659   64.7200  -26.2733 H         1 MVA         0.0234
    148 H69       -35.3554   65.2461  -25.4559 H         1 MVA         0.0234
    149 H70       -35.3635   64.9573  -27.2288 H         1 MVA         0.0234
    150 H71       -37.5186   67.9507  -27.9767 H         1 MVA         0.0234
    151 H72       -38.1672   66.3096  -27.6412 H         1 MVA         0.0234
    152 H73       -36.7383   66.5092  -28.7113 H         1 MVA         0.0234
    153 H74       -34.4674   68.2834  -29.1788 H         1 PRO         0.0802
    154 H75       -35.0107   69.9304  -30.8039 H         1 PRO         0.0313
    155 H76       -33.3076   70.4571  -30.5828 H         1 PRO         0.0313
    156 H77       -35.3645   72.1716  -30.1086 H         1 PRO         0.0287
    157 H78       -33.9040   72.1819  -29.0628 H         1 PRO         0.0287
    158 H79       -36.5973   70.7877  -28.5684 H         1 PRO         0.0524
    159 H80       -35.6636   71.8433  -27.4545 H         1 PRO         0.0524
    160 H81       -32.8490   67.9961  -30.7209 H         1 MLU         0.0488
    161 H82       -31.8234   66.9684  -29.6633 H         1 MLU         0.0488
    162 H83       -31.0824   67.8778  -31.0237 H         1 MLU         0.0488
    163 H84       -30.4694   69.2613  -27.5695 H         1 MLU         0.0802
    164 H85       -30.1055   70.6978  -29.9669 H         1 MLU         0.0315
    165 H86       -28.6709   69.6222  -29.8590 H         1 MLU         0.0315
    166 H87       -29.3590   72.0579  -28.4178 H         1 MLU         0.0298
    167 H88       -26.8923   72.1422  -28.1656 H         1 MLU         0.0232
    168 H89       -27.4294   71.8535  -29.8552 H         1 MLU         0.0232
    169 H90       -26.7899   70.4936  -28.8713 H         1 MLU         0.0232
    170 H91       -29.8276   70.5280  -26.5481 H         1 MLU         0.0232
    171 H92       -28.3875   71.5640  -26.2664 H         1 MLU         0.0232
    172 H93       -28.1779   69.8377  -26.7163 H         1 MLU         0.0232
    173 H94       -29.7780   64.7512  -27.4450 H         1 GLY         0.0780
    174 H95       -29.0800   65.1684  -29.0468 H         1 GLY         0.0780
    175 H96       -30.7823   66.8215  -27.4470 H         1 GLY         0.1882
@<TRIPOS>BOND
     1    1    2 2  
     2    1    3 1  
     3    4    1 am 
     4    4    5 1  
     5    6    4 1  
     6    6    7 1  
     7   10    6 1  
     8    7    8 1  
     9    7    9 1  
    10   10   11 2  
    11   13   10 am 
    12   12   14 2  
    13   12   15 1  
    14   20   12 am 
    15   15   13 1  
    16   13   17 1  
    17   15   16 1  
    18   16   19 1  
    19   19   17 1  
    20   19   18 1  
    21   24   20 1  
    22   20   27 1  
    23   23   21 2  
    24   25   22 1  
    25   22   76 1  
    26   23   24 1  
    27   28   23 am 
    28   24   25 1  
    29   25   26 1  
    30   29   28 1  
    31   29   30 1  
    32   34   29 1  
    33   30   31 1  
    34   31   32 1  
    35   31   33 1  
    36   34   35 2  
    37   37   34 am 
    38   36   38 2  
    39   36   39 1  
    40   44   36 am 
    41   39   37 1  
    42   37   41 1  
    43   39   40 1  
    44   40   43 1  
    45   43   41 1  
    46   43   42 1  
    47   45   44 1  
    48   45   46 1  
    49   50   45 1  
    50   46   47 1  
    51   47   48 1  
    52   47   49 1  
    53   50   51 2  
    54   52   50 am 
    55   52   53 1  
    56   54   52 1  
    57   54   55 1  
    58   58   54 1  
    59   55   56 1  
    60   55   57 1  
    61   58   59 2  
    62   66   58 am 
    63   60   61 2  
    64   62   60 1  
    65   60   67 am 
    66   62   63 1  
    67   62   66 1  
    68   63   64 1  
    69   64   65 1  
    70   65   66 1  
    71   67   68 1  
    72   67   69 1  
    73   69   70 1  
    74   69   72 1  
    75   70   71 2  
    76   70   79 am 
    77   72   73 1  
    78   73   74 1  
    79   73   75 1  
    80   76   77 2  
    81   76   78 1  
    82   78   79 1  
    83    3   80 1  
    84    3   81 1  
    85    3   82 1  
    86    5   83 1  
    87    5   84 1  
    88    5   85 1  
    89    6   86 1  
    90    7   87 1  
    91    8   88 1  
    92    8   89 1  
    93    8   90 1  
    94    9   91 1  
    95    9   92 1  
    96    9   93 1  
    97   15   94 1  
    98   16   95 1  
    99   16   96 1  
   100   17   97 1  
   101   17   98 1  
   102   18   99 1  
   103   18  100 1  
   104   18  101 1  
   105   19  102 1  
   106   24  103 1  
   107   25  104 1  
   108   26  105 1  
   109   26  106 1  
   110   26  107 1  
   111   27  108 1  
   112   27  109 1  
   113   27  110 1  
   114   28  111 1  
   115   29  112 1  
   116   30  113 1  
   117   30  114 1  
   118   31  115 1  
   119   32  116 1  
   120   32  117 1  
   121   32  118 1  
   122   33  119 1  
   123   33  120 1  
   124   33  121 1  
   125   39  122 1  
   126   40  123 1  
   127   40  124 1  
   128   41  125 1  
   129   41  126 1  
   130   42  127 1  
   131   42  128 1  
   132   42  129 1  
   133   43  130 1  
   134   44  131 1  
   135   45  132 1  
   136   46  133 1  
   137   46  134 1  
   138   47  135 1  
   139   48  136 1  
   140   48  137 1  
   141   48  138 1  
   142   49  139 1  
   143   49  140 1  
   144   49  141 1  
   145   53  142 1  
   146   53  143 1  
   147   53  144 1  
   148   54  145 1  
   149   55  146 1  
   150   56  147 1  
   151   56  148 1  
   152   56  149 1  
   153   57  150 1  
   154   57  151 1  
   155   57  152 1  
   156   62  153 1  
   157   63  154 1  
   158   63  155 1  
   159   64  156 1  
   160   64  157 1  
   161   65  158 1  
   162   65  159 1  
   163   68  160 1  
   164   68  161 1  
   165   68  162 1  
   166   69  163 1  
   167   72  164 1  
   168   72  165 1  
   169   73  166 1  
   170   74  167 1  
   171   74  168 1  
   172   74  169 1  
   173   75  170 1  
   174   75  171 1  
   175   75  172 1  
   176   78  173 1  
   177   78  174 1  
   178   79  175 1  
@<TRIPOS>SUBSTRUCTURE
     1 ACE         1

