4hw2_ligand
  -I-interpret- 

 44 46  0  0  0  0  0  0  0  0999 V2000
    3.7600  -49.5330    7.5860 O   0  0  0  0  0
    2.9430  -48.9400    6.7730 C   0  0  0  0  0
    3.5330  -47.9320    6.2220 O   0  0  0  0  0
    1.7290  -49.2630    6.5600 C   0  0  0  0  0
    1.2340  -50.5470    6.7450 N   0  0  0  0  0
   -0.1110  -50.6150    6.4660 C   0  0  0  0  0
   -0.9270  -51.6300    6.5230 C   0  0  0  0  0
   -2.2910  -51.4890    6.2030 C   0  0  0  0  0
   -3.3730  -52.8300    6.2960 Cl  0  0  0  0  0
   -2.7220  -50.2300    5.8260 C   0  0  0  0  0
   -1.7440  -49.1970    5.7920 C   0  0  0  0  0
   -0.4770  -49.3850    6.1030 C   0  0  0  0  0
    0.6300  -48.6620    6.1910 C   0  0  0  0  0
    0.6710  -47.1110    5.7890 C   0  0  0  0  0
    0.5970  -46.0940    6.9260 C   0  0  0  0  0
   -0.8190  -45.8160    7.4150 C   0  0  0  0  0
   -1.7580  -45.6270    6.3100 O   0  0  0  0  0
   -2.9990  -45.3600    6.6860 C   0  0  0  0  0
   -3.5450  -45.8500    7.8670 C   0  0  0  0  0
   -4.9010  -45.5940    8.2350 C   0  0  0  0  0
   -5.3490  -46.0550    9.3820 C   0  0  0  0  0
   -5.6660  -44.8270    7.3110 C   0  0  0  0  0
   -7.2880  -44.4330    7.6530 Cl  0  0  0  0  0
   -5.1630  -44.3310    6.0660 C   0  0  0  0  0
   -5.8960  -43.6320    5.2320 C   0  0  0  0  0
   -3.8090  -44.6640    5.7800 C   0  0  0  0  0
    3.3175  -50.2813    7.9932 H   0  0  0  0  0
   -0.5464  -52.6060    6.8240 H   0  0  0  0  0
   -3.7632  -50.0379    5.5668 H   0  0  0  0  0
   -2.0593  -48.1974    5.4930 H   0  0  0  0  0
   -0.2164  -46.9393    5.1797 H   0  0  0  0  0
    1.6391  -46.9537    5.3134 H   0  0  0  0  0
    0.9992  -45.1545    6.5471 H   0  0  0  0  0
    1.1549  -46.5066    7.7666 H   0  0  0  0  0
   -0.8003  -44.8994    8.0046 H   0  0  0  0  0
   -1.1508  -46.6746    7.9988 H   0  0  0  0  0
   -2.9200  -46.4468    8.5313 H   0  0  0  0  0
   -5.2626  -47.1415    9.3941 H   0  0  0  0  0
   -4.7601  -45.6333   10.1965 H   0  0  0  0  0
   -6.3944  -45.7710    9.5029 H   0  0  0  0  0
   -6.7553  -44.2257    4.9201 H   0  0  0  0  0
   -6.2405  -42.7237    5.7264 H   0  0  0  0  0
   -5.2990  -43.3680    4.3591 H   0  0  0  0  0
   -3.3869  -44.3662    4.8202 H   0  0  0  0  0
  1  2  1  0  0  0
  2  3  2  0  0  0
  2  4  1  0  0  0
  4  5  4  0  0  0
  4 13  4  0  0  0
  5  6  4  0  0  0
  6  7  4  0  0  0
  6 12  4  0  0  0
  7  8  4  0  0  0
  8  9  1  0  0  0
  8 10  4  0  0  0
 10 11  4  0  0  0
 11 12  4  0  0  0
 12 13  4  0  0  0
 13 14  1  0  0  0
 14 15  1  0  0  0
 15 16  1  0  0  0
 16 17  1  0  0  0
 17 18  1  0  0  0
 18 19  4  0  0  0
 18 26  4  0  0  0
 19 20  4  0  0  0
 20 21  1  0  0  0
 20 22  4  0  0  0
 22 23  1  0  0  0
 22 24  4  0  0  0
 24 25  1  0  0  0
 24 26  4  0  0  0
  1 27  1  0  0  0
  7 28  1  0  0  0
 10 29  1  0  0  0
 11 30  1  0  0  0
 14 31  1  0  0  0
 14 32  1  0  0  0
 15 33  1  0  0  0
 15 34  1  0  0  0
 16 35  1  0  0  0
 16 36  1  0  0  0
 19 37  1  0  0  0
 21 38  1  0  0  0
 21 39  1  0  0  0
 21 40  1  0  0  0
 25 41  1  0  0  0
 25 42  1  0  0  0
 25 43  1  0  0  0
 26 44  1  0  0  0
M  END
$$$$
