4b70_ligand
  -I-interpret- 

 38 40  0  0  0  0  0  0  0  0999 V2000
    5.1590    3.2290  -22.1330 C   0  0  0  0  0
    5.3060    2.4910  -20.8120 C   0  0  0  0  0
    4.0000    2.7320  -20.2080 N   0  0  0  0  0
    3.9710    3.1560  -18.9830 C   0  0  0  0  0
    5.1890    3.3470  -18.1090 C   0  0  0  0  0
    6.4300    2.7420  -18.7410 C   0  0  0  0  0
    6.4230    3.0850  -20.1310 O   0  0  0  0  0
    2.7830    3.4370  -18.3740 N   0  0  0  0  0
    5.6270    1.0350  -21.0740 C   0  0  0  0  0
    6.5180    0.6920  -22.0750 C   0  0  0  0  0
    6.8260   -0.6320  -22.3100 C   0  0  0  0  0
    6.2790   -1.6340  -21.5300 C   0  0  0  0  0
    5.3790   -1.3330  -20.5230 C   0  0  0  0  0
    5.0750    0.0130  -20.3220 C   0  0  0  0  0
    4.8630   -2.3730  -19.6370 C   0  0  0  0  0
    5.5920   -3.5290  -19.3780 C   0  0  0  0  0
    5.1790   -4.4970  -18.4770 C   0  0  0  0  0
    3.9940   -4.3350  -17.7880 C   0  0  0  0  0
    3.2430   -3.2060  -18.0530 C   0  0  0  0  0
    3.6620   -2.2450  -18.9650 C   0  0  0  0  0
    1.7800   -2.9500  -17.1960 Cl  0  0  0  0  0
    4.9786    4.2863  -21.9389 H   0  0  0  0  0
    6.0739    3.1160  -22.7146 H   0  0  0  0  0
    4.3195    2.8120  -22.6892 H   0  0  0  0  0
    3.1392    2.5724  -20.7314 H   0  0  0  0  0
    5.0105    2.8498  -17.1556 H   0  0  0  0  0
    5.3552    4.4163  -17.9783 H   0  0  0  0  0
    6.4284    1.6590  -18.6179 H   0  0  0  0  0
    7.3278    3.1296  -18.2595 H   0  0  0  0  0
    2.7689    3.7485  -17.4028 H   0  0  0  0  0
    6.9791    1.4718  -22.6811 H   0  0  0  0  0
    7.5082   -0.8911  -23.1197 H   0  0  0  0  0
    6.5596   -2.6717  -21.7102 H   0  0  0  0  0
    4.3680    0.2727  -19.5341 H   0  0  0  0  0
    6.5320   -3.6803  -19.9087 H   0  0  0  0  0
    5.7890   -5.3852  -18.3125 H   0  0  0  0  0
    3.6616   -5.0737  -17.0586 H   0  0  0  0  0
    3.0327   -1.3752  -19.1537 H   0  0  0  0  0
  1  2  1  0  0  0
  2  3  1  0  0  0
  2  7  1  0  0  0
  2  9  1  0  0  0
  3  4  1  0  0  0
  4  5  1  0  0  0
  4  8  2  0  0  0
  5  6  1  0  0  0
  6  7  1  0  0  0
  9 10  4  0  0  0
  9 14  4  0  0  0
 10 11  4  0  0  0
 11 12  4  0  0  0
 12 13  4  0  0  0
 13 14  4  0  0  0
 13 15  1  0  0  0
 15 16  4  0  0  0
 15 20  4  0  0  0
 16 17  4  0  0  0
 17 18  4  0  0  0
 18 19  4  0  0  0
 19 20  4  0  0  0
 19 21  1  0  0  0
  1 22  1  0  0  0
  1 23  1  0  0  0
  1 24  1  0  0  0
  3 25  1  0  0  0
  5 26  1  0  0  0
  5 27  1  0  0  0
  6 28  1  0  0  0
  6 29  1  0  0  0
  8 30  1  0  0  0
 10 31  1  0  0  0
 11 32  1  0  0  0
 12 33  1  0  0  0
 14 34  1  0  0  0
 16 35  1  0  0  0
 17 36  1  0  0  0
 18 37  1  0  0  0
 20 38  1  0  0  0
M  END
$$$$
