2las_ligand
  -I-interpret- 

235236  0  0  0  0  0  0  0  0999 V2000
   13.8700   -0.2400   10.8560 N   0  3  0  0  0
   15.2980   -0.0200   10.5120 C   0  0  0  0  0
   16.0530   -1.3430   10.4570 C   0  0  0  0  0
   16.6140   -1.7050    9.4220 O   0  0  0  0  0
   15.9470    0.9110   11.5400 C   0  0  0  0  0
   17.4260    1.1270   11.2830 C   0  0  0  0  0
   17.7630    1.8590   10.3300 O   0  0  0  0  0
   18.2480    0.5620   12.0360 O   0  0  0  0  0
   16.0540   -2.0640   11.5740 N   0  0  0  0  0
   16.7470   -3.3430   11.6580 C   0  0  0  0  0
   15.9170   -4.4640   11.0380 C   0  0  0  0  0
   16.3710   -5.1450   10.1170 O   0  0  0  0  0
   17.0700   -3.6710   13.1200 C   0  0  0  0  0
   17.9500   -4.9000   13.2640 C   0  0  0  0  0
   17.4570   -6.0190   13.3970 O   0  0  0  0  0
   19.2620   -4.6950   13.2420 N   0  0  0  0  0
   14.6990   -4.6470   11.5400 N   0  0  0  0  0
   13.8160   -5.6960   11.0380 C   0  0  0  0  0
   13.0450   -5.2280    9.8030 C   0  0  0  0  0
   13.3400   -5.6410    8.6820 O   0  0  0  0  0
   12.8330   -6.1340   12.1310 C   0  0  0  0  0
   13.4930   -6.4310   13.4700 C   0  0  0  0  0
   13.2650   -5.3290   14.4890 C   0  0  0  0  0
   13.9920   -4.3140   14.4420 O   0  0  0  0  0
   12.3570   -5.4800   15.3330 O   0  0  0  0  0
   12.0620   -4.3570   10.0170 N   0  0  0  0  0
   11.2440   -3.8330    8.9260 C   0  0  0  0  0
   11.2790   -2.3080    8.9120 C   0  0  0  0  0
   11.4330   -1.6780    9.9580 O   0  0  0  0  0
    9.7770   -4.3150    9.0310 C   0  0  0  0  0
    9.2530   -4.1760   10.4660 C   0  0  0  0  0
    9.6560   -5.7590    8.5650 C   0  0  0  0  0
    8.3560   -2.9750   10.6760 C   0  0  0  0  0
   11.1400   -1.7150    7.7270 N   0  0  0  0  0
   11.1650   -0.2610    7.6100 C   0  0  0  0  0
   10.3750    0.2270    6.4030 C   0  0  0  0  0
   10.6380   -0.1690    5.2660 O   0  0  0  0  0
   12.6090    0.2340    7.5220 C   0  0  0  0  0
   12.7430    1.7440    7.6260 C   0  0  0  0  0
   14.1640    2.1800    7.9150 C   0  0  0  0  0
   15.0530    1.9010    7.0840 O   0  0  0  0  0
   14.3900    2.7930    8.9790 O   0  0  0  0  0
    9.4050    1.0980    6.6710 N   0  0  0  0  0
    8.5630    1.6770    5.6310 C   0  0  0  0  0
    8.3580    3.1660    5.8980 C   0  0  0  0  0
    7.8210    3.5530    6.9380 O   0  0  0  0  0
    7.1850    0.9780    5.5460 C   0  0  0  0  0
    6.2900    1.6630    4.5230 C   0  0  0  0  0
    7.3440   -0.4980    5.2060 C   0  0  0  0  0
    8.7960    3.9980    4.9580 N   0  0  0  0  0
    8.6640    5.4450    5.0930 C   0  0  0  0  0
    7.5920    5.9840    4.1630 C   0  0  0  0  0
    7.6670    5.8060    2.9490 O   0  0  0  0  0
    9.9890    6.1760    4.8020 C   0  0  0  0  0
   10.9910    5.2440    4.1080 C   0  0  0  0  0
   10.5680    6.7240    6.0920 C   0  0  0  0  0
   12.2530    5.9410    3.6480 C   0  0  0  0  0
    6.5940    6.6490    4.7310 N   0  0  0  0  0
    5.5070    7.1870    3.9300 C   0  0  0  0  0
    5.2880    8.6810    4.1700 C   0  0  0  0  0
    4.8840    9.1030    5.2550 O   0  0  0  0  0
    4.1870    6.4140    4.1810 C   0  0  0  0  0
    3.6980    6.5800    5.6240 C   0  0  0  0  0
    4.3880    4.9420    3.8730 C   0  0  0  0  0
    2.2390    6.2250    5.8110 C   0  0  0  0  0
    5.5700    9.4830    3.1450 N   0  0  0  0  0
    5.3750   10.9000    3.2070 C   0  0  0  0  0
    5.0220   11.4370    1.8260 C   0  0  0  0  0
    5.8370   11.4010    0.9010 O   0  0  0  0  0
    6.6200   11.6650    3.7400 C   0  0  0  0  0
    6.4530   13.1680    3.5460 C   0  0  0  0  0
    6.8850   11.3570    5.2070 C   0  0  0  0  0
    3.7920   11.9120    1.6930 N   0  0  0  0  0
    3.3150   12.4880    0.4470 C   0  0  0  0  0
    3.5220   13.9980    0.4190 C   0  0  0  0  0
    4.0650   14.5840    1.3560 O   0  0  0  0  0
    1.8400   12.1530    0.2420 C   0  0  0  0  0
    1.3680   12.3820   -1.1660 C   0  0  0  0  0
    1.9130   11.8860   -2.3160 C   0  0  0  0  0
    0.2690   13.1940   -1.5650 C   0  0  0  0  0
    1.2130   12.3440   -3.4040 N   0  0  0  0  0
    0.1960   13.1480   -2.9680 C   0  0  0  0  0
   -0.6650   13.9530   -0.8650 C   0  0  0  0  0
   -0.7780   13.8400   -3.6840 C   0  0  0  0  0
   -1.6280   14.6330   -1.5730 C   0  0  0  0  0
   -1.6810   14.5760   -2.9680 C   0  0  0  0  0
    3.0750   14.6120   -0.6670 N   0  0  0  0  0
    3.1350   16.0450   -0.8290 C   0  0  0  0  0
    1.9620   16.4980   -1.6990 C   0  0  0  0  0
    1.7260   15.9330   -2.7670 O   0  0  0  0  0
    4.4640   16.4670   -1.4580 C   0  0  0  0  0
    4.6480   17.9720   -1.5360 C   0  0  0  0  0
    5.8970   18.3660   -2.2970 C   0  0  0  0  0
    6.9900   18.3560   -1.6920 O   0  0  0  0  0
    5.7840   18.6840   -3.4990 O   0  0  0  0  0
    1.2330   17.5200   -1.2540 N   0  0  0  0  0
    0.0790   18.0120   -2.0080 C   0  0  0  0  0
    0.5020   18.9680   -3.1140 C   0  0  0  0  0
    1.4970   19.6840   -2.9880 O   0  0  0  0  0
   -0.9340   18.6910   -1.0810 C   0  0  0  0  0
   -2.0830   17.7800   -0.6620 C   0  0  0  0  0
   -3.0740   17.5370   -1.7970 C   0  0  0  0  0
   -3.9700   18.7440   -2.0280 C   0  0  0  0  0
   -4.9480   18.5050   -3.1220 N   0  3  0  0  0
   -0.2650   18.9620   -4.2010 N   0  0  0  0  0
    0.0120   19.8150   -5.3520 C   0  0  0  0  0
   -0.7860   21.1150   -5.2710 C   0  0  0  0  0
   -1.9950   21.0890   -5.5910 O   0  0  0  0  0
   -0.3330   19.0680   -6.6450 C   0  0  0  0  0
    0.1600   19.7630   -7.9080 C   0  0  0  0  0
   -0.5710   19.2610   -9.1460 C   0  0  0  0  0
   -1.3510   20.3760   -9.8280 C   0  0  0  0  0
   -2.4300   20.9180   -8.9570 N   0  3  0  0  0
   -0.1960   22.1480   -4.8920 O   0  0  0  0  0
   13.4470   -0.8608   10.1660 H   0  0  0  0  0
   13.8059   -0.6642   11.7814 H   0  0  0  0  0
   13.3798    0.6545   10.8560 H   0  0  0  0  0
   15.3461    0.4438    9.5268 H   0  0  0  0  0
   15.8419    0.4500   12.5221 H   0  0  0  0  0
   15.4511    1.8794   11.4743 H   0  0  0  0  0
   17.7757    0.0510   12.6974 H   0  0  0  0  0
   15.5572   -1.7130   12.3928 H   0  0  0  0  0
   17.6766   -3.2618   11.0947 H   0  0  0  0  0
   16.1297   -3.8705   13.6339 H   0  0  0  0  0
   17.6083   -2.8225   13.5424 H   0  0  0  0  0
   19.9029   -5.4827   13.3375 H   0  0  0  0  0
   19.6287   -3.7499   13.1296 H   0  0  0  0  0
   14.3742   -4.0405   12.2931 H   0  0  0  0  0
   14.4369   -6.5451   10.7521 H   0  0  0  0  0
   12.3595   -7.0551   11.7913 H   0  0  0  0  0
   12.1354   -5.3114   12.2885 H   0  0  0  0  0
   14.5667   -6.5175   13.3034 H   0  0  0  0  0
   13.0556   -7.3484   13.8639 H   0  0  0  0  0
   14.6198   -4.4045   13.7214 H   0  0  0  0  0
   11.8743   -4.0463   10.9702 H   0  0  0  0  0
   11.6655   -4.2136    7.9957 H   0  0  0  0  0
    9.1689   -3.6840    8.3828 H   0  0  0  0  0
   10.1184   -4.0529   11.1172 H   0  0  0  0  0
    8.6613   -5.0652   10.6832 H   0  0  0  0  0
    9.9803   -5.8328    7.5270 H   0  0  0  0  0
   10.2839   -6.3947    9.1893 H   0  0  0  0  0
    8.6175   -6.0798    8.6462 H   0  0  0  0  0
    8.9091   -2.0650   10.4436 H   0  0  0  0  0
    7.4886   -3.0519   10.0205 H   0  0  0  0  0
    8.0267   -2.9463   11.7147 H   0  0  0  0  0
   11.0145   -2.2851    6.8906 H   0  0  0  0  0
   10.6914    0.1476    8.5027 H   0  0  0  0  0
   12.9966   -0.0617    6.5471 H   0  0  0  0  0
   13.1547   -0.2006    8.3596 H   0  0  0  0  0
   12.1130    2.0822    8.4487 H   0  0  0  0  0
   12.4462    2.1751    6.6699 H   0  0  0  0  0
   13.5695    2.9002    9.4657 H   0  0  0  0  0
    9.2446    1.3708    7.6407 H   0  0  0  0  0
    9.0739    1.5324    4.6791 H   0  0  0  0  0
    6.7113    1.0565    6.5245 H   0  0  0  0  0
    6.1386    2.7028    4.8130 H   0  0  0  0  0
    6.7646    1.6233    3.5425 H   0  0  0  0  0
    5.3281    1.1518    4.4835 H   0  0  0  0  0
    7.8470   -0.5958    4.2440 H   0  0  0  0  0
    7.9378   -0.9857    5.9791 H   0  0  0  0  0
    6.3606   -0.9652    5.1525 H   0  0  0  0  0
    9.2356    3.6151    4.1210 H   0  0  0  0  0
    8.3811    5.6329    6.1288 H   0  0  0  0  0
    9.7873    7.0063    4.1252 H   0  0  0  0  0
   10.5006    4.8401    3.2223 H   0  0  0  0  0
   11.2842    4.4838    4.8320 H   0  0  0  0  0
    9.8606    7.4231    6.5381 H   0  0  0  0  0
   10.7536    5.9021    6.7834 H   0  0  0  0  0
   11.5044    7.2393    5.8784 H   0  0  0  0  0
   11.9945    6.7267    2.9381 H   0  0  0  0  0
   12.7588    6.3791    4.5084 H   0  0  0  0  0
   12.9115    5.2175    3.1673 H   0  0  0  0  0
    6.5896    6.7843    5.7420 H   0  0  0  0  0
    5.8025    7.0573    2.8889 H   0  0  0  0  0
    3.4258    6.8298    3.5209 H   0  0  0  0  0
    3.8168    7.6299    5.8916 H   0  0  0  0  0
    4.2824    5.9038    6.2480 H   0  0  0  0  0
    4.6812    4.8272    2.8295 H   0  0  0  0  0
    5.1700    4.5407    4.5177 H   0  0  0  0  0
    3.4568    4.4043    4.0514 H   0  0  0  0  0
    1.6259    6.8700    5.1816 H   0  0  0  0  0
    2.0808    5.1839    5.5297 H   0  0  0  0  0
    1.9631    6.3663    6.8560 H   0  0  0  0  0
    5.9376    9.0736    2.2861 H   0  0  0  0  0
    4.5591   11.0683    3.9099 H   0  0  0  0  0
    7.4797   11.3243    3.1631 H   0  0  0  0  0
    6.3333   13.3850    2.4845 H   0  0  0  0  0
    5.5711   13.5074    4.0892 H   0  0  0  0  0
    7.3357   13.6824    3.9260 H   0  0  0  0  0
    6.0200   11.6523    5.8009 H   0  0  0  0  0
    7.0615   10.2880    5.3264 H   0  0  0  0  0
    7.7625   11.9109    5.5405 H   0  0  0  0  0
    3.1590   11.8720    2.4918 H   0  0  0  0  0
    3.8956   12.0549   -0.3675 H   0  0  0  0  0
    1.2603   12.8065    0.8939 H   0  0  0  0  0
    1.7088   11.0942    0.4651 H   0  0  0  0  0
    2.7773   11.2235   -2.3628 H   0  0  0  0  0
   -0.6335   14.0072    0.2232 H   0  0  0  0  0
   -0.8188   13.7965   -4.7724 H   0  0  0  0  0
   -2.3652   15.2288   -1.0348 H   0  0  0  0  0
   -2.4576   15.1292   -3.4961 H   0  0  0  0  0
    2.6730   14.0502   -1.4174 H   0  0  0  0  0
    3.0672   16.5195    0.1500 H   0  0  0  0  0
    4.4800   16.0823   -2.4777 H   0  0  0  0  0
    5.2629   16.0719   -0.8305 H   0  0  0  0  0
    4.7405   18.3523   -0.5187 H   0  0  0  0  0
    3.7889   18.3887   -2.0617 H   0  0  0  0  0
    6.8486   18.0826   -0.7827 H   0  0  0  0  0
    1.4833   17.9676   -0.3723 H   0  0  0  0  0
   -0.3972   17.1476   -2.4707 H   0  0  0  0  0
   -1.3646   19.5310   -1.6261 H   0  0  0  0  0
   -0.4030   18.9853   -0.1757 H   0  0  0  0  0
   -2.6174   18.2643    0.1553 H   0  0  0  0  0
   -1.6621   16.8181   -0.3692 H   0  0  0  0  0
   -3.7030   16.6883   -1.5284 H   0  0  0  0  0
   -2.5106   17.3471   -2.7106 H   0  0  0  0  0
   -3.3410   19.5885   -2.3095 H   0  0  0  0  0
   -4.5242   18.9398   -1.1100 H   0  0  0  0  0
   -5.5280   19.3349   -3.2452 H   0  0  0  0  0
   -4.4463   18.3077   -3.9879 H   0  0  0  0  0
   -5.5383   17.7089   -2.8808 H   0  0  0  0  0
   -1.0733   18.3406   -4.2308 H   0  0  0  0  0
    1.0729   20.0651   -5.3499 H   0  0  0  0  0
   -2.2375   20.1967   -5.8489 H   0  0  0  0  0
   -1.4198   19.0127   -6.7080 H   0  0  0  0  0
    0.1557   18.0948   -6.5981 H   0  0  0  0  0
    1.2226   19.5503   -8.0256 H   0  0  0  0  0
   -0.0266   20.8322   -7.8078 H   0  0  0  0  0
   -1.2743   18.4866   -8.8399 H   0  0  0  0  0
    0.1677   18.8776   -9.8499 H   0  0  0  0  0
   -1.8126   19.9675  -10.7270 H   0  0  0  0  0
   -0.6580   21.1862  -10.0551 H   0  0  0  0  0
   -2.9247   21.6598   -9.4523 H   0  0  0  0  0
   -3.0829   20.1706   -8.7216 H   0  0  0  0  0
   -2.0189   21.2936   -8.1024 H   0  0  0  0  0
  1  2  1  0  0  0
  2  3  1  0  0  0
  2  5  1  0  0  0
  3  4  2  0  0  0
  3  9  1  0  0  0
  5  6  1  0  0  0
  6  7  2  0  0  0
  6  8  1  0  0  0
  9 10  1  0  0  0
 10 11  1  0  0  0
 10 13  1  0  0  0
 11 12  2  0  0  0
 11 17  1  0  0  0
 13 14  1  0  0  0
 14 15  2  0  0  0
 14 16  1  0  0  0
 17 18  1  0  0  0
 18 19  1  0  0  0
 18 21  1  0  0  0
 19 20  2  0  0  0
 19 26  1  0  0  0
 21 22  1  0  0  0
 22 23  1  0  0  0
 23 24  1  0  0  0
 23 25  2  0  0  0
 26 27  1  0  0  0
 27 28  1  0  0  0
 27 30  1  0  0  0
 28 29  2  0  0  0
 28 34  1  0  0  0
 30 31  1  0  0  0
 30 32  1  0  0  0
 31 33  1  0  0  0
 34 35  1  0  0  0
 35 36  1  0  0  0
 35 38  1  0  0  0
 36 37  2  0  0  0
 36 43  1  0  0  0
 38 39  1  0  0  0
 39 40  1  0  0  0
 40 41  2  0  0  0
 40 42  1  0  0  0
 43 44  1  0  0  0
 44 45  1  0  0  0
 44 47  1  0  0  0
 45 46  2  0  0  0
 45 50  1  0  0  0
 47 48  1  0  0  0
 47 49  1  0  0  0
 50 51  1  0  0  0
 51 52  1  0  0  0
 51 54  1  0  0  0
 52 53  2  0  0  0
 52 58  1  0  0  0
 54 55  1  0  0  0
 54 56  1  0  0  0
 55 57  1  0  0  0
 58 59  1  0  0  0
 59 60  1  0  0  0
 59 62  1  0  0  0
 60 61  2  0  0  0
 60 66  1  0  0  0
 62 63  1  0  0  0
 62 64  1  0  0  0
 63 65  1  0  0  0
 66 67  1  0  0  0
 67 68  1  0  0  0
 67 70  1  0  0  0
 68 69  2  0  0  0
 68 73  1  0  0  0
 70 71  1  0  0  0
 70 72  1  0  0  0
 73 74  1  0  0  0
 74 75  1  0  0  0
 74 77  1  0  0  0
 75 76  2  0  0  0
 75 87  1  0  0  0
 77 78  1  0  0  0
 78 79  4  0  0  0
 78 80  4  0  0  0
 79 81  4  0  0  0
 80 82  4  0  0  0
 80 83  4  0  0  0
 81 82  4  0  0  0
 82 84  4  0  0  0
 83 85  4  0  0  0
 84 86  4  0  0  0
 85 86  4  0  0  0
 87 88  1  0  0  0
 88 89  1  0  0  0
 88 91  1  0  0  0
 89 90  2  0  0  0
 89 96  1  0  0  0
 91 92  1  0  0  0
 92 93  1  0  0  0
 93 94  1  0  0  0
 93 95  2  0  0  0
 96 97  1  0  0  0
 97 98  1  0  0  0
 97100  1  0  0  0
 98 99  2  0  0  0
 98105  1  0  0  0
100101  1  0  0  0
101102  1  0  0  0
102103  1  0  0  0
103104  1  0  0  0
105106  1  0  0  0
106107  1  0  0  0
106109  1  0  0  0
107108  1  0  0  0
107114  2  0  0  0
109110  1  0  0  0
110111  1  0  0  0
111112  1  0  0  0
112113  1  0  0  0
  1115  1  0  0  0
  1116  1  0  0  0
  1117  1  0  0  0
  2118  1  0  0  0
  5119  1  0  0  0
  5120  1  0  0  0
  8121  1  0  0  0
  9122  1  0  0  0
 10123  1  0  0  0
 13124  1  0  0  0
 13125  1  0  0  0
 16126  1  0  0  0
 16127  1  0  0  0
 17128  1  0  0  0
 18129  1  0  0  0
 21130  1  0  0  0
 21131  1  0  0  0
 22132  1  0  0  0
 22133  1  0  0  0
 24134  1  0  0  0
 26135  1  0  0  0
 27136  1  0  0  0
 30137  1  0  0  0
 31138  1  0  0  0
 31139  1  0  0  0
 32140  1  0  0  0
 32141  1  0  0  0
 32142  1  0  0  0
 33143  1  0  0  0
 33144  1  0  0  0
 33145  1  0  0  0
 34146  1  0  0  0
 35147  1  0  0  0
 38148  1  0  0  0
 38149  1  0  0  0
 39150  1  0  0  0
 39151  1  0  0  0
 42152  1  0  0  0
 43153  1  0  0  0
 44154  1  0  0  0
 47155  1  0  0  0
 48156  1  0  0  0
 48157  1  0  0  0
 48158  1  0  0  0
 49159  1  0  0  0
 49160  1  0  0  0
 49161  1  0  0  0
 50162  1  0  0  0
 51163  1  0  0  0
 54164  1  0  0  0
 55165  1  0  0  0
 55166  1  0  0  0
 56167  1  0  0  0
 56168  1  0  0  0
 56169  1  0  0  0
 57170  1  0  0  0
 57171  1  0  0  0
 57172  1  0  0  0
 58173  1  0  0  0
 59174  1  0  0  0
 62175  1  0  0  0
 63176  1  0  0  0
 63177  1  0  0  0
 64178  1  0  0  0
 64179  1  0  0  0
 64180  1  0  0  0
 65181  1  0  0  0
 65182  1  0  0  0
 65183  1  0  0  0
 66184  1  0  0  0
 67185  1  0  0  0
 70186  1  0  0  0
 71187  1  0  0  0
 71188  1  0  0  0
 71189  1  0  0  0
 72190  1  0  0  0
 72191  1  0  0  0
 72192  1  0  0  0
 73193  1  0  0  0
 74194  1  0  0  0
 77195  1  0  0  0
 77196  1  0  0  0
 79197  1  0  0  0
 83198  1  0  0  0
 84199  1  0  0  0
 85200  1  0  0  0
 86201  1  0  0  0
 87202  1  0  0  0
 88203  1  0  0  0
 91204  1  0  0  0
 91205  1  0  0  0
 92206  1  0  0  0
 92207  1  0  0  0
 94208  1  0  0  0
 96209  1  0  0  0
 97210  1  0  0  0
100211  1  0  0  0
100212  1  0  0  0
101213  1  0  0  0
101214  1  0  0  0
102215  1  0  0  0
102216  1  0  0  0
103217  1  0  0  0
103218  1  0  0  0
104219  1  0  0  0
104220  1  0  0  0
104221  1  0  0  0
105222  1  0  0  0
106223  1  0  0  0
108224  1  0  0  0
109225  1  0  0  0
109226  1  0  0  0
110227  1  0  0  0
110228  1  0  0  0
111229  1  0  0  0
111230  1  0  0  0
112231  1  0  0  0
112232  1  0  0  0
113233  1  0  0  0
113234  1  0  0  0
113235  1  0  0  0
M  END
$$$$
