### 
### Created by X-TOOL on Mon Sep 10 21:13:08 2018
### 

@<TRIPOS>MOLECULE
2las_ligand
  231   232     1     0     0
SMALL
GAST_HUCK


@<TRIPOS>ATOM
      1 N          13.8700   -0.2400   10.8560 N.4       1 ASP         0.2391
      2 CA         15.2980   -0.0200   10.5120 C.3       1 ASP         0.0765
      3 C          16.0530   -1.3430   10.4570 C.2       1 ASP         0.2285
      4 O          16.6140   -1.7050    9.4220 O.2       1 ASP        -0.3906
      5 CB         15.9470    0.9110   11.5400 C.3       1 ASP         0.0607
      6 CG         17.4260    1.1270   11.2830 C.2       1 ASP         0.0425
      7 OD1        17.7630    1.8590   10.3300 O.co2     1 ASP        -0.5686
      8 OD2        18.2480    0.5620   12.0360 O.co2     1 ASP        -0.5686
      9 N          16.0540   -2.0640   11.5740 N.am      1 ASN        -0.2588
     10 CA         16.7470   -3.3430   11.6580 C.3       1 ASN         0.1477
     11 C          15.9170   -4.4640   11.0380 C.2       1 ASN         0.2063
     12 O          16.3710   -5.1450   10.1170 O.2       1 ASN        -0.3942
     13 CB         17.0700   -3.6710   13.1200 C.3       1 ASN         0.0773
     14 CG         17.9500   -4.9000   13.2640 C.2       1 ASN         0.1780
     15 OD1        17.4570   -6.0190   13.3970 O.2       1 ASN        -0.3970
     16 ND2        19.2620   -4.6950   13.2420 N.am      1 ASN        -0.3007
     17 N          14.6990   -4.6470   11.5400 N.am      1 GLU        -0.2635
     18 CA         13.8160   -5.6960   11.0380 C.3       1 GLU         0.1325
     19 C          13.0450   -5.2280    9.8030 C.2       1 GLU         0.2040
     20 O          13.3400   -5.6410    8.6820 O.2       1 GLU        -0.3944
     21 CB         12.8330   -6.1340   12.1310 C.3       1 GLU        -0.0008
     22 CG         13.4930   -6.4310   13.4700 C.3       1 GLU         0.0044
     23 CD         13.2650   -5.3290   14.4890 C.2       1 GLU         0.0350
     24 OE1        13.9920   -4.3140   14.4420 O.co2     1 GLU        -0.5690
     25 OE2        12.3570   -5.4800   15.3330 O.co2     1 GLU        -0.5690
     26 N          12.0620   -4.3570   10.0170 N.am      1 ILE        -0.2635
     27 CA         11.2440   -3.8330    8.9260 C.3       1 ILE         0.1335
     28 C          11.2790   -2.3080    8.9120 C.2       1 ILE         0.2042
     29 O          11.4330   -1.6780    9.9580 O.2       1 ILE        -0.3944
     30 CB          9.7770   -4.3150    9.0310 C.3       1 ILE        -0.0037
     31 CG1         9.2530   -4.1760   10.4660 C.3       1 ILE        -0.0491
     32 CG2         9.6560   -5.7590    8.5650 C.3       1 ILE        -0.0582
     33 CD1         8.3560   -2.9750   10.6760 C.3       1 ILE        -0.0648
     34 N          11.1400   -1.7150    7.7270 N.am      1 GLU        -0.2636
     35 CA         11.1650   -0.2610    7.6100 C.3       1 GLU         0.1325
     36 C          10.3750    0.2270    6.4030 C.2       1 GLU         0.2040
     37 O          10.6380   -0.1690    5.2660 O.2       1 GLU        -0.3944
     38 CB         12.6090    0.2340    7.5220 C.3       1 GLU        -0.0008
     39 CG         12.7430    1.7440    7.6260 C.3       1 GLU         0.0044
     40 CD         14.1640    2.1800    7.9150 C.2       1 GLU         0.0350
     41 OE1        15.0530    1.9010    7.0840 O.co2     1 GLU        -0.5690
     42 OE2        14.3900    2.7930    8.9790 O.co2     1 GLU        -0.5690
     43 N           9.4050    1.0980    6.6710 N.am      1 VAL        -0.2635
     44 CA          8.5630    1.6770    5.6310 C.3       1 VAL         0.1332
     45 C           8.3580    3.1660    5.8980 C.2       1 VAL         0.2042
     46 O           7.8210    3.5530    6.9380 O.2       1 VAL        -0.3944
     47 CB          7.1850    0.9780    5.5460 C.3       1 VAL        -0.0063
     48 CG1         6.2900    1.6630    4.5230 C.3       1 VAL        -0.0584
     49 CG2         7.3440   -0.4980    5.2060 C.3       1 VAL        -0.0584
     50 N           8.7960    3.9980    4.9580 N.am      1 ILE        -0.2635
     51 CA          8.6640    5.4450    5.0930 C.3       1 ILE         0.1335
     52 C           7.5920    5.9840    4.1630 C.2       1 ILE         0.2042
     53 O           7.6670    5.8060    2.9490 O.2       1 ILE        -0.3944
     54 CB          9.9890    6.1760    4.8020 C.3       1 ILE        -0.0037
     55 CG1        10.9910    5.2440    4.1080 C.3       1 ILE        -0.0491
     56 CG2        10.5680    6.7240    6.0920 C.3       1 ILE        -0.0582
     57 CD1        12.2530    5.9410    3.6480 C.3       1 ILE        -0.0648
     58 N           6.5940    6.6490    4.7310 N.am      1 ILE        -0.2635
     59 CA          5.5070    7.1870    3.9300 C.3       1 ILE         0.1335
     60 C           5.2880    8.6810    4.1700 C.2       1 ILE         0.2042
     61 O           4.8840    9.1030    5.2550 O.2       1 ILE        -0.3944
     62 CB          4.1870    6.4140    4.1810 C.3       1 ILE        -0.0037
     63 CG1         3.6980    6.5800    5.6240 C.3       1 ILE        -0.0491
     64 CG2         4.3880    4.9420    3.8730 C.3       1 ILE        -0.0582
     65 CD1         2.2390    6.2250    5.8110 C.3       1 ILE        -0.0648
     66 N           5.5700    9.4830    3.1450 N.am      1 VAL        -0.2635
     67 CA          5.3750   10.9000    3.2070 C.3       1 VAL         0.1333
     68 C           5.0220   11.4370    1.8260 C.2       1 VAL         0.2042
     69 O           5.8370   11.4010    0.9010 O.2       1 VAL        -0.3944
     70 CB          6.6200   11.6650    3.7400 C.3       1 VAL        -0.0063
     71 CG1         6.4530   13.1680    3.5460 C.3       1 VAL        -0.0584
     72 CG2         6.8850   11.3570    5.2070 C.3       1 VAL        -0.0584
     73 N           3.7920   11.9120    1.6930 N.am      1 TRP        -0.2627
     74 CA          3.3150   12.4880    0.4470 C.3       1 TRP         0.1352
     75 C           3.5220   13.9980    0.4190 C.2       1 TRP         0.2052
     76 O           4.0650   14.5840    1.3560 O.2       1 TRP        -0.3942
     77 CB          1.8400   12.1530    0.2420 C.3       1 TRP         0.0042
     78 CG          1.3680   12.3820   -1.1660 C.2       1 TRP        -0.0418
     79 CD1         1.9130   11.8860   -2.3160 C.2       1 TRP         0.0167
     80 CD2         0.2690   13.1940   -1.5650 C.ar      1 TRP        -0.0214
     81 NE1         1.2130   12.3440   -3.4040 N.pl3     1 TRP        -0.2890
     82 CE2         0.1960   13.1480   -2.9680 C.ar      1 TRP         0.0603
     83 CE3        -0.6650   13.9530   -0.8650 C.ar      1 TRP        -0.0747
     84 CZ2        -0.7780   13.8400   -3.6840 C.ar      1 TRP        -0.0443
     85 CZ3        -1.6280   14.6330   -1.5730 C.ar      1 TRP        -0.0792
     86 CH2        -1.6810   14.5760   -2.9680 C.ar      1 TRP        -0.0768
     87 N           3.0750   14.6120   -0.6670 N.am      1 GLU        -0.2635
     88 CA          3.1350   16.0450   -0.8290 C.3       1 GLU         0.1325
     89 C           1.9620   16.4980   -1.6990 C.2       1 GLU         0.2040
     90 O           1.7260   15.9330   -2.7670 O.2       1 GLU        -0.3944
     91 CB          4.4640   16.4670   -1.4580 C.3       1 GLU        -0.0008
     92 CG          4.6480   17.9720   -1.5360 C.3       1 GLU         0.0044
     93 CD          5.8970   18.3660   -2.2970 C.2       1 GLU         0.0350
     94 OE1         6.9900   18.3560   -1.6920 O.co2     1 GLU        -0.5690
     95 OE2         5.7840   18.6840   -3.4990 O.co2     1 GLU        -0.5690
     96 N           1.2330   17.5200   -1.2540 N.am      1 LYS        -0.2637
     97 CA          0.0790   18.0120   -2.0080 C.3       1 LYS         0.1309
     98 C           0.5020   18.9680   -3.1140 C.2       1 LYS         0.2033
     99 O           1.4970   19.6840   -2.9880 O.2       1 LYS        -0.3944
    100 CB         -0.9340   18.6910   -1.0810 C.3       1 LYS        -0.0122
    101 CG         -2.0830   17.7800   -0.6620 C.3       1 LYS        -0.0440
    102 CD         -3.0740   17.5370   -1.7970 C.3       1 LYS        -0.0124
    103 CE         -3.9700   18.7440   -2.0280 C.3       1 LYS        -0.0354
    104 NZ         -4.9480   18.5050   -3.1220 N.4       1 LYS         0.2185
    105 N          -0.2650   18.9620   -4.2010 N.am      1 LYS        -0.2695
    106 CA          0.0120   19.8150   -5.3520 C.3       1 LYS         0.0944
    107 C          -0.7860   21.1150   -5.2710 C.2       1 LYS         0.0601
    108 O          -1.9950   21.0890   -5.5910 O.co2     1 LYS        -0.5666
    109 CB         -0.3330   19.0680   -6.6450 C.3       1 LYS        -0.0177
    110 CG          0.1600   19.7630   -7.9080 C.3       1 LYS        -0.0446
    111 CD         -0.5710   19.2610   -9.1460 C.3       1 LYS        -0.0125
    112 CE         -1.3510   20.3760   -9.8280 C.3       1 LYS        -0.0354
    113 NZ         -2.4300   20.9180   -8.9570 N.4       1 LYS         0.2185
    114 OXT        -0.1960   22.1480   -4.8920 O.co2     1 LYS        -0.5666
    115 H          13.4470   -0.8608   10.1660 H         1 ASP         0.2016
    116 H          13.8059   -0.6642   11.7814 H         1 ASP         0.2016
    117 H          13.3798    0.6545   10.8560 H         1 ASP         0.2016
    118 H          15.3461    0.4438    9.5268 H         1 ASP         0.1117
    119 H          15.8419    0.4500   12.5221 H         1 ASP         0.0512
    120 H          15.4511    1.8794   11.4743 H         1 ASP         0.0512
    121 H          15.5572   -1.7130   12.3928 H         1 ASN         0.1886
    122 H          17.6766   -3.2618   11.0947 H         1 ASN         0.0826
    123 H          16.1297   -3.8705   13.6339 H         1 ASN         0.0551
    124 H          17.6083   -2.8225   13.5424 H         1 ASN         0.0551
    125 H          19.9029   -5.4827   13.3375 H         1 ASN         0.1814
    126 H          19.6287   -3.7499   13.1296 H         1 ASN         0.1814
    127 H          14.3742   -4.0405   12.2931 H         1 GLU         0.1883
    128 H          14.4369   -6.5451   10.7521 H         1 GLU         0.0801
    129 H          12.3595   -7.0551   11.7913 H         1 GLU         0.0330
    130 H          12.1354   -5.3114   12.2885 H         1 GLU         0.0330
    131 H          14.5667   -6.5175   13.3034 H         1 GLU         0.0433
    132 H          13.0556   -7.3484   13.8639 H         1 GLU         0.0433
    133 H          11.8743   -4.0463   10.9702 H         1 ILE         0.1883
    134 H          11.6655   -4.2136    7.9957 H         1 ILE         0.0803
    135 H           9.1689   -3.6840    8.3828 H         1 ILE         0.0345
    136 H          10.1184   -4.0529   11.1172 H         1 ILE         0.0267
    137 H           8.6613   -5.0652   10.6832 H         1 ILE         0.0267
    138 H           9.9803   -5.8328    7.5270 H         1 ILE         0.0235
    139 H          10.2839   -6.3947    9.1893 H         1 ILE         0.0235
    140 H           8.6175   -6.0798    8.6462 H         1 ILE         0.0235
    141 H           8.9091   -2.0650   10.4436 H         1 ILE         0.0230
    142 H           7.4886   -3.0519   10.0205 H         1 ILE         0.0230
    143 H           8.0267   -2.9463   11.7147 H         1 ILE         0.0230
    144 H          11.0145   -2.2851    6.8906 H         1 GLU         0.1883
    145 H          10.6914    0.1476    8.5027 H         1 GLU         0.0801
    146 H          12.9966   -0.0617    6.5471 H         1 GLU         0.0330
    147 H          13.1547   -0.2006    8.3596 H         1 GLU         0.0330
    148 H          12.1130    2.0822    8.4487 H         1 GLU         0.0433
    149 H          12.4462    2.1751    6.6699 H         1 GLU         0.0433
    150 H           9.2446    1.3708    7.6407 H         1 VAL         0.1883
    151 H           9.0739    1.5324    4.6791 H         1 VAL         0.0802
    152 H           6.7113    1.0565    6.5245 H         1 VAL         0.0343
    153 H           6.1386    2.7028    4.8130 H         1 VAL         0.0234
    154 H           6.7646    1.6233    3.5425 H         1 VAL         0.0234
    155 H           5.3281    1.1518    4.4835 H         1 VAL         0.0234
    156 H           7.8470   -0.5958    4.2440 H         1 VAL         0.0234
    157 H           7.9378   -0.9857    5.9791 H         1 VAL         0.0234
    158 H           6.3606   -0.9652    5.1525 H         1 VAL         0.0234
    159 H           9.2356    3.6151    4.1210 H         1 ILE         0.1883
    160 H           8.3811    5.6329    6.1288 H         1 ILE         0.0803
    161 H           9.7873    7.0063    4.1252 H         1 ILE         0.0345
    162 H          10.5006    4.8401    3.2223 H         1 ILE         0.0267
    163 H          11.2842    4.4838    4.8320 H         1 ILE         0.0267
    164 H           9.8606    7.4231    6.5381 H         1 ILE         0.0235
    165 H          10.7536    5.9021    6.7834 H         1 ILE         0.0235
    166 H          11.5044    7.2393    5.8784 H         1 ILE         0.0235
    167 H          11.9945    6.7267    2.9381 H         1 ILE         0.0230
    168 H          12.7588    6.3791    4.5084 H         1 ILE         0.0230
    169 H          12.9115    5.2175    3.1673 H         1 ILE         0.0230
    170 H           6.5896    6.7843    5.7420 H         1 ILE         0.1883
    171 H           5.8025    7.0573    2.8889 H         1 ILE         0.0803
    172 H           3.4258    6.8298    3.5209 H         1 ILE         0.0345
    173 H           3.8168    7.6299    5.8916 H         1 ILE         0.0267
    174 H           4.2824    5.9038    6.2480 H         1 ILE         0.0267
    175 H           4.6812    4.8272    2.8295 H         1 ILE         0.0235
    176 H           5.1700    4.5407    4.5177 H         1 ILE         0.0235
    177 H           3.4568    4.4043    4.0514 H         1 ILE         0.0235
    178 H           1.6259    6.8700    5.1816 H         1 ILE         0.0230
    179 H           2.0808    5.1839    5.5297 H         1 ILE         0.0230
    180 H           1.9631    6.3663    6.8560 H         1 ILE         0.0230
    181 H           5.9376    9.0736    2.2861 H         1 VAL         0.1883
    182 H           4.5591   11.0683    3.9099 H         1 VAL         0.0802
    183 H           7.4797   11.3243    3.1631 H         1 VAL         0.0343
    184 H           6.3333   13.3850    2.4845 H         1 VAL         0.0234
    185 H           5.5711   13.5074    4.0892 H         1 VAL         0.0234
    186 H           7.3357   13.6824    3.9260 H         1 VAL         0.0234
    187 H           6.0200   11.6523    5.8009 H         1 VAL         0.0234
    188 H           7.0615   10.2880    5.3264 H         1 VAL         0.0234
    189 H           7.7625   11.9109    5.5405 H         1 VAL         0.0234
    190 H           3.1590   11.8720    2.4918 H         1 TRP         0.1884
    191 H           3.8956   12.0549   -0.3675 H         1 TRP         0.0815
    192 H           1.2603   12.8065    0.8939 H         1 TRP         0.0397
    193 H           1.7088   11.0942    0.4651 H         1 TRP         0.0397
    194 H           2.7773   11.2235   -2.3628 H         1 TRP         0.0795
    195 H           1.4176   12.1213   -4.3781 H         1 TRP         0.2216
    196 H          -0.6335   14.0072    0.2232 H         1 TRP         0.0540
    197 H          -0.8188   13.7965   -4.7724 H         1 TRP         0.0541
    198 H          -2.3652   15.2288   -1.0348 H         1 TRP         0.0510
    199 H          -2.4576   15.1292   -3.4961 H         1 TRP         0.0530
    200 H           2.6730   14.0502   -1.4174 H         1 GLU         0.1883
    201 H           3.0672   16.5195    0.1500 H         1 GLU         0.0801
    202 H           4.4800   16.0823   -2.4777 H         1 GLU         0.0330
    203 H           5.2629   16.0719   -0.8305 H         1 GLU         0.0330
    204 H           4.7405   18.3523   -0.5187 H         1 GLU         0.0433
    205 H           3.7889   18.3887   -2.0617 H         1 GLU         0.0433
    206 H           1.4833   17.9676   -0.3723 H         1 LYS         0.1883
    207 H          -0.3972   17.1476   -2.4707 H         1 LYS         0.0800
    208 H          -1.3646   19.5310   -1.6261 H         1 LYS         0.0312
    209 H          -0.4030   18.9853   -0.1757 H         1 LYS         0.0312
    210 H          -2.6174   18.2643    0.1553 H         1 LYS         0.0269
    211 H          -1.6621   16.8181   -0.3692 H         1 LYS         0.0269
    212 H          -3.7030   16.6883   -1.5284 H         1 LYS         0.0317
    213 H          -2.5106   17.3471   -2.7106 H         1 LYS         0.0317
    214 H          -3.3410   19.5885   -2.3095 H         1 LYS         0.0813
    215 H          -4.5242   18.9398   -1.1100 H         1 LYS         0.0813
    216 H          -5.5280   19.3349   -3.2452 H         1 LYS         0.1994
    217 H          -4.4463   18.3077   -3.9879 H         1 LYS         0.1994
    218 H          -5.5383   17.7089   -2.8808 H         1 LYS         0.1994
    219 H          -1.0733   18.3406   -4.2308 H         1 LYS         0.1875
    220 H           1.0729   20.0651   -5.3499 H         1 LYS         0.0726
    221 H          -1.4198   19.0127   -6.7080 H         1 LYS         0.0305
    222 H           0.1557   18.0948   -6.5981 H         1 LYS         0.0305
    223 H           1.2226   19.5503   -8.0256 H         1 LYS         0.0269
    224 H          -0.0266   20.8322   -7.8078 H         1 LYS         0.0269
    225 H          -1.2743   18.4866   -8.8399 H         1 LYS         0.0317
    226 H           0.1677   18.8776   -9.8499 H         1 LYS         0.0317
    227 H          -1.8126   19.9675  -10.7270 H         1 LYS         0.0813
    228 H          -0.6580   21.1862  -10.0551 H         1 LYS         0.0813
    229 H          -2.9247   21.6598   -9.4523 H         1 LYS         0.1994
    230 H          -3.0829   20.1706   -8.7216 H         1 LYS         0.1994
    231 H          -2.0189   21.2936   -8.1024 H         1 LYS         0.1994
@<TRIPOS>BOND
     1    1    2 1  
     2    2    3 1  
     3    2    5 1  
     4    3    4 2  
     5    3    9 am 
     6    5    6 1  
     7    6    7 ar 
     8    6    8 ar 
     9    9   10 1  
    10   10   11 1  
    11   10   13 1  
    12   11   12 2  
    13   11   17 am 
    14   13   14 1  
    15   14   15 2  
    16   14   16 am 
    17   17   18 1  
    18   18   19 1  
    19   18   21 1  
    20   19   20 2  
    21   19   26 am 
    22   21   22 1  
    23   22   23 1  
    24   23   24 ar 
    25   23   25 ar 
    26   26   27 1  
    27   27   28 1  
    28   27   30 1  
    29   28   29 2  
    30   28   34 am 
    31   30   31 1  
    32   30   32 1  
    33   31   33 1  
    34   34   35 1  
    35   35   36 1  
    36   35   38 1  
    37   36   37 2  
    38   36   43 am 
    39   38   39 1  
    40   39   40 1  
    41   40   41 ar 
    42   40   42 ar 
    43   43   44 1  
    44   44   45 1  
    45   44   47 1  
    46   45   46 2  
    47   45   50 am 
    48   47   48 1  
    49   47   49 1  
    50   50   51 1  
    51   51   52 1  
    52   51   54 1  
    53   52   53 2  
    54   52   58 am 
    55   54   55 1  
    56   54   56 1  
    57   55   57 1  
    58   58   59 1  
    59   59   60 1  
    60   59   62 1  
    61   60   61 2  
    62   60   66 am 
    63   62   63 1  
    64   62   64 1  
    65   63   65 1  
    66   66   67 1  
    67   67   68 1  
    68   67   70 1  
    69   68   69 2  
    70   68   73 am 
    71   70   71 1  
    72   70   72 1  
    73   73   74 1  
    74   74   75 1  
    75   74   77 1  
    76   75   76 2  
    77   75   87 am 
    78   77   78 1  
    79   78   79 2  
    80   78   80 1  
    81   79   81 1  
    82   80   82 ar 
    83   80   83 ar 
    84   81   82 1  
    85   82   84 ar 
    86   83   85 ar 
    87   84   86 ar 
    88   85   86 ar 
    89   87   88 1  
    90   88   89 1  
    91   88   91 1  
    92   89   90 2  
    93   89   96 am 
    94   91   92 1  
    95   92   93 1  
    96   93   94 ar 
    97   93   95 ar 
    98   96   97 1  
    99   97   98 1  
   100   97  100 1  
   101   98   99 2  
   102   98  105 am 
   103  100  101 1  
   104  101  102 1  
   105  102  103 1  
   106  103  104 1  
   107  105  106 1  
   108  106  107 1  
   109  106  109 1  
   110  107  108 ar 
   111  107  114 ar 
   112  109  110 1  
   113  110  111 1  
   114  111  112 1  
   115  112  113 1  
   116    1  115 1  
   117    1  116 1  
   118    1  117 1  
   119    2  118 1  
   120    5  119 1  
   121    5  120 1  
   122    9  121 1  
   123   10  122 1  
   124   13  123 1  
   125   13  124 1  
   126   16  125 1  
   127   16  126 1  
   128   17  127 1  
   129   18  128 1  
   130   21  129 1  
   131   21  130 1  
   132   22  131 1  
   133   22  132 1  
   134   26  133 1  
   135   27  134 1  
   136   30  135 1  
   137   31  136 1  
   138   31  137 1  
   139   32  138 1  
   140   32  139 1  
   141   32  140 1  
   142   33  141 1  
   143   33  142 1  
   144   33  143 1  
   145   34  144 1  
   146   35  145 1  
   147   38  146 1  
   148   38  147 1  
   149   39  148 1  
   150   39  149 1  
   151   43  150 1  
   152   44  151 1  
   153   47  152 1  
   154   48  153 1  
   155   48  154 1  
   156   48  155 1  
   157   49  156 1  
   158   49  157 1  
   159   49  158 1  
   160   50  159 1  
   161   51  160 1  
   162   54  161 1  
   163   55  162 1  
   164   55  163 1  
   165   56  164 1  
   166   56  165 1  
   167   56  166 1  
   168   57  167 1  
   169   57  168 1  
   170   57  169 1  
   171   58  170 1  
   172   59  171 1  
   173   62  172 1  
   174   63  173 1  
   175   63  174 1  
   176   64  175 1  
   177   64  176 1  
   178   64  177 1  
   179   65  178 1  
   180   65  179 1  
   181   65  180 1  
   182   66  181 1  
   183   67  182 1  
   184   70  183 1  
   185   71  184 1  
   186   71  185 1  
   187   71  186 1  
   188   72  187 1  
   189   72  188 1  
   190   72  189 1  
   191   73  190 1  
   192   74  191 1  
   193   77  192 1  
   194   77  193 1  
   195   79  194 1  
   196   81  195 1  
   197   83  196 1  
   198   84  197 1  
   199   85  198 1  
   200   86  199 1  
   201   87  200 1  
   202   88  201 1  
   203   91  202 1  
   204   91  203 1  
   205   92  204 1  
   206   92  205 1  
   207   96  206 1  
   208   97  207 1  
   209  100  208 1  
   210  100  209 1  
   211  101  210 1  
   212  101  211 1  
   213  102  212 1  
   214  102  213 1  
   215  103  214 1  
   216  103  215 1  
   217  104  216 1  
   218  104  217 1  
   219  104  218 1  
   220  105  219 1  
   221  106  220 1  
   222  109  221 1  
   223  109  222 1  
   224  110  223 1  
   225  110  224 1  
   226  111  225 1  
   227  111  226 1  
   228  112  227 1  
   229  112  228 1  
   230  113  229 1  
   231  113  230 1  
   232  113  231 1  
@<TRIPOS>SUBSTRUCTURE
     1 ASP         1

