4w7p_ligand
  -I-interpret- 

 44 47  0  0  0  0  0  0  0  0999 V2000
  -13.8960   42.6560   -9.5370 C   0  0  0  0  0
  -14.2120   43.8150   -8.7960 C   0  0  0  0  0
  -14.4950   41.2400   -7.7600 C   0  0  0  0  0
  -16.2940   41.7080   -2.9540 C   0  0  0  0  0
  -17.4690   42.6740   -1.0400 C   0  0  0  0  0
  -17.5140   43.9650   -1.6640 C   0  0  0  0  0
  -18.2090   44.7960   -0.7440 C   0  0  0  0  0
  -15.6450   47.1740   -6.3370 C   0  0  0  0  0
  -14.6960   47.9600   -5.3790 C   0  0  0  0  0
  -15.1440   49.3880   -5.0490 C   0  0  0  0  0
  -14.4570   47.2250   -4.0510 C   0  0  0  0  0
  -14.0460   41.4000   -9.0370 N   0  0  0  0  0
  -14.8570   42.3230   -6.9200 C   0  0  0  0  0
  -14.6880   43.6460   -7.4580 C   0  0  0  0  0
  -15.0670   44.7150   -6.5970 C   0  0  0  0  0
  -15.5280   44.4530   -5.3600 N   0  0  0  0  0
  -15.6680   43.1860   -4.9420 C   0  0  0  0  0
  -15.3470   42.1110   -5.6800 N   0  0  0  0  0
  -16.2590   42.9950   -3.5900 C   0  0  0  0  0
  -16.9050   44.1060   -2.9450 C   0  0  0  0  0
  -16.8810   41.5440   -1.6680 C   0  0  0  0  0
  -18.5640   44.1300    0.3280 N   0  0  0  0  0
  -18.1220   42.8720    0.1560 N   0  0  0  0  0
  -14.9880   46.0580   -7.0130 N   0  0  0  0  0
  -13.4190   48.1130   -6.0340 N   0  3  0  0  0
  -13.5160   42.7723  -10.5520 H   0  0  0  0  0
  -14.0968   44.8082   -9.2301 H   0  0  0  0  0
  -14.5800   40.2278   -7.3646 H   0  0  0  0  0
  -15.8651   40.8449   -3.4632 H   0  0  0  0  0
  -18.4200   45.8526   -0.9087 H   0  0  0  0  0
  -15.9877   47.8684   -7.1042 H   0  0  0  0  0
  -16.4552   46.7634   -5.7345 H   0  0  0  0  0
  -15.2096   49.9686   -5.9691 H   0  0  0  0  0
  -16.1207   49.3585   -4.5660 H   0  0  0  0  0
  -14.4192   49.8489   -4.3779 H   0  0  0  0  0
  -15.4088   47.0838   -3.5389 H   0  0  0  0  0
  -14.0031   46.2544   -4.2510 H   0  0  0  0  0
  -13.7902   47.8172   -3.4243 H   0  0  0  0  0
  -16.9294   45.0742   -3.4451 H   0  0  0  0  0
  -16.8794   40.5717   -1.1754 H   0  0  0  0  0
  -14.4338   46.2659   -7.8437 H   0  0  0  0  0
  -12.7837   48.6254   -5.4223 H   0  0  0  0  0
  -13.0295   47.1923   -6.2362 H   0  0  0  0  0
  -13.5446   48.6291   -6.9048 H   0  0  0  0  0
  2  1  4  0  0  0
 12  1  4  0  0  0
 14  2  4  0  0  0
  3 12  4  0  0  0
 13  3  4  0  0  0
 19  4  4  0  0  0
  4 21  4  0  0  0
  5  6  4  0  0  0
 21  5  4  0  0  0
  5 23  4  0  0  0
  6  7  4  0  0  0
  6 20  4  0  0  0
  7 22  4  0  0  0
  8  9  1  0  0  0
 24  8  1  0  0  0
  9 10  1  0  0  0
  9 11  1  0  0  0
  9 25  1  0  0  0
 13 14  4  0  0  0
 18 13  4  0  0  0
 15 14  4  0  0  0
 16 15  4  0  0  0
 15 24  1  0  0  0
 17 16  4  0  0  0
 17 18  4  0  0  0
 17 19  1  0  0  0
 19 20  4  0  0  0
 22 23  4  0  0  0
  1 26  1  0  0  0
  2 27  1  0  0  0
  3 28  1  0  0  0
  4 29  1  0  0  0
  7 30  1  0  0  0
  8 31  1  0  0  0
  8 32  1  0  0  0
 10 33  1  0  0  0
 10 34  1  0  0  0
 10 35  1  0  0  0
 11 36  1  0  0  0
 11 37  1  0  0  0
 11 38  1  0  0  0
 20 39  1  0  0  0
 21 40  1  0  0  0
 24 41  1  0  0  0
 25 42  1  0  0  0
 25 43  1  0  0  0
 25 44  1  0  0  0
M  END
$$$$
