3r9n_ligand
  -I-interpret- 

 44 46  0  0  0  0  0  0  0  0999 V2000
   94.8620   76.6930  -45.8750 C   0  0  0  0  0
   94.9440   78.9130  -44.7530 N   0  0  0  0  0
   94.8530   80.2470  -44.7500 O   0  0  0  0  0
   92.1840   80.5770  -48.3090 S   0  0  0  0  0
   94.7740   78.2150  -45.8330 C   0  0  0  0  0
   91.8030   81.6670  -50.6500 N   0  0  0  0  0
   95.1920   78.3960  -43.6880 O   0  0  0  0  0
   94.4670   78.8940  -47.1590 C   0  0  0  0  0
   90.5050   82.6090  -48.8930 N   0  0  0  0  0
   94.5990   78.4450  -50.6810 O   0  0  0  0  0
   94.2690   78.1860  -48.3590 C   0  0  0  0  0
   93.2430   80.4430  -52.0780 N   0  0  0  0  0
   94.3710   76.6540  -48.3270 C   0  0  0  0  0
   94.6480   75.9630  -47.1650 C   0  0  0  0  0
   93.9930   78.8440  -49.5550 C   0  0  0  0  0
   93.0320   79.9930  -49.6790 C   0  0  0  0  0
   92.7130   80.6940  -50.8440 C   0  0  0  0  0
   91.4280   81.7140  -49.3460 C   0  0  0  0  0
   89.9070   82.4370  -47.5640 C   0  0  0  0  0
   88.8040   81.2880  -47.5510 C   0  0  0  0  0
   88.1840   81.1220  -46.1390 C   0  0  0  0  0
   87.5940   82.4860  -45.6290 C   0  0  0  0  0
   88.6370   83.6490  -45.6870 C   0  0  0  0  0
   89.2830   83.7890  -47.0990 C   0  0  0  0  0
   95.0811   76.1355  -44.9644 H   0  0  0  0  0
   94.3970   79.9815  -47.1808 H   0  0  0  0  0
   90.2300   83.3982  -49.4778 H   0  0  0  0  0
   94.3060   78.9935  -51.4124 H   0  0  0  0  0
   92.9507   80.9994  -52.8814 H   0  0  0  0  0
   93.9310   79.6993  -52.1959 H   0  0  0  0  0
   94.2199   76.0952  -49.2506 H   0  0  0  0  0
   94.7117   74.8751  -47.1863 H   0  0  0  0  0
   93.8067   78.9418  -48.4855 H   0  0  0  0  0
   90.6952   82.1349  -46.8743 H   0  0  0  0  0
   89.2770   80.3483  -47.8361 H   0  0  0  0  0
   88.0119   81.5581  -48.2493 H   0  0  0  0  0
   88.9612   80.7937  -45.4488 H   0  0  0  0  0
   87.3804   80.3874  -46.1907 H   0  0  0  0  0
   87.2943   82.3548  -44.5892 H   0  0  0  0  0
   86.7571   82.7525  -46.2745 H   0  0  0  0  0
   89.4294   83.4305  -44.9711 H   0  0  0  0  0
   88.1202   84.5805  -45.4561 H   0  0  0  0  0
   88.5101   84.0806  -47.8101 H   0  0  0  0  0
   90.0715   84.5399  -47.0502 H   0  0  0  0  0
  5  1  4  0  0  0
 14  1  4  0  0  0
  2  3  2  0  0  0
  5  2  1  0  0  0
  2  7  2  0  0  0
 16  4  4  0  0  0
  4 18  4  0  0  0
  8  5  4  0  0  0
  6 17  4  0  0  0
 18  6  4  0  0  0
 11  8  4  0  0  0
 18  9  1  0  0  0
  9 19  1  0  0  0
 15 10  1  0  0  0
 11 13  4  0  0  0
 15 11  1  0  0  0
 17 12  1  0  0  0
 13 14  4  0  0  0
 15 16  1  0  0  0
 16 17  4  0  0  0
 19 20  1  0  0  0
 19 24  1  0  0  0
 20 21  1  0  0  0
 21 22  1  0  0  0
 22 23  1  0  0  0
 23 24  1  0  0  0
  1 25  1  0  0  0
  8 26  1  0  0  0
  9 27  1  0  0  0
 10 28  1  0  0  0
 12 29  1  0  0  0
 12 30  1  0  0  0
 13 31  1  0  0  0
 14 32  1  0  0  0
 15 33  1  0  0  0
 19 34  1  0  0  0
 20 35  1  0  0  0
 20 36  1  0  0  0
 21 37  1  0  0  0
 21 38  1  0  0  0
 22 39  1  0  0  0
 22 40  1  0  0  0
 23 41  1  0  0  0
 23 42  1  0  0  0
 24 43  1  0  0  0
 24 44  1  0  0  0
M  END
$$$$
