4fm7_ligand
  -I-interpret- 

 66 69  0  0  0  0  0  0  0  0999 V2000
   26.9070   36.8440   45.1420 C   0  0  0  0  0
   26.0280   38.5330   41.2850 C   0  0  0  0  0
   25.6480   36.2860   45.0580 C   0  0  0  0  0
   27.2880   38.6560   41.8310 C   0  0  0  0  0
   27.0400   38.2020   45.3200 C   0  0  0  0  0
   26.3790   36.2050   40.9090 C   0  0  0  0  0
   24.6450   38.4260   45.4100 C   0  0  0  0  0
   25.5550   37.3150   40.8480 C   0  0  0  0  0
   24.5190   37.0720   45.1610 C   0  0  0  0  0
   28.0910   37.5390   41.8990 C   0  0  0  0  0
   27.6460   36.3250   41.4120 C   0  0  0  0  0
   25.9100   38.9830   45.4520 C   0  0  0  0  0
   22.3450   35.3040   43.1560 C   0  0  0  0  0
   21.9140   37.7160   43.4530 C   0  0  0  0  0
   20.8880   36.1120   44.9670 C   0  0  0  0  0
   23.4550   35.5890   42.1630 C   0  0  0  0  0
   22.9520   37.9970   42.3860 C   0  0  0  0  0
   22.1490   36.4110   44.1600 C   0  0  0  0  0
   22.4430   39.1720   41.5810 C   0  0  0  0  0
   28.5170   34.2740   39.2890 C   0  0  0  0  0
   29.0570   32.9920   41.3310 C   0  0  0  0  0
   20.2170   35.0950   47.1330 C   0  0  0  0  0
   24.1540   37.1500   40.3330 C   0  0  0  0  0
   28.1920   34.0990   40.7610 C   0  0  0  0  0
   23.2460   36.4180   45.1710 N   0  0  0  0  0
   21.2770   35.2710   46.1150 N   0  0  0  0  0
   23.1560   36.8480   41.4360 N   0  3  0  0  0
   23.6490   34.5040   46.8140 O   0  0  0  0  0
   22.7190   36.6490   47.7190 O   0  0  0  0  0
   29.3830   37.5960   42.4020 O   0  0  0  0  0
   28.5390   35.2700   41.5190 O   0  0  0  0  0
   26.0540   40.3110   45.6380 F   0  0  0  0  0
   22.8200   35.6820   46.6560 S   0  0  0  0  0
   27.7921   36.2122   45.0677 H   0  0  0  0  0
   25.3944   39.4156   41.1975 H   0  0  0  0  0
   25.5442   35.2113   44.9085 H   0  0  0  0  0
   27.6417   39.6182   42.2015 H   0  0  0  0  0
   28.0298   38.6571   45.3564 H   0  0  0  0  0
   26.0199   35.2378   40.5574 H   0  0  0  0  0
   23.7618   39.0443   45.5706 H   0  0  0  0  0
   22.6167   34.4031   43.7061 H   0  0  0  0  0
   21.4171   35.1995   42.5937 H   0  0  0  0  0
   20.9398   37.6630   42.9670 H   0  0  0  0  0
   21.9709   38.5134   44.1939 H   0  0  0  0  0
   20.1564   35.5928   44.3479 H   0  0  0  0  0
   20.4318   37.0391   45.3141 H   0  0  0  0  0
   23.5265   34.7664   41.4515 H   0  0  0  0  0
   24.4010   35.6919   42.6946 H   0  0  0  0  0
   23.9057   38.1823   42.8802 H   0  0  0  0  0
   21.4842   38.9144   41.1310 H   0  0  0  0  0
   22.3182   40.0335   42.2371 H   0  0  0  0  0
   23.1611   39.4119   40.7968 H   0  0  0  0  0
   29.5693   34.5363   39.1792 H   0  0  0  0  0
   28.3166   33.3419   38.7607 H   0  0  0  0  0
   27.8978   35.0690   38.8735 H   0  0  0  0  0
   28.8551   32.0634   40.7971 H   0  0  0  0  0
   30.1078   33.2578   41.2156 H   0  0  0  0  0
   28.8279   32.8617   42.3886 H   0  0  0  0  0
   20.5029   34.2979   47.8193 H   0  0  0  0  0
   20.0892   36.0249   47.6871 H   0  0  0  0  0
   19.2810   34.8330   46.6396 H   0  0  0  0  0
   24.1496   36.3099   39.6385 H   0  0  0  0  0
   23.8583   38.0872   39.8616 H   0  0  0  0  0
   27.1243   33.8911   40.8304 H   0  0  0  0  0
   22.2690   36.7078   40.9523 H   0  0  0  0  0
   29.7779   36.7217   42.3665 H   0  0  0  0  0
  3  1  4  0  0  0
  1  5  4  0  0  0
  4  2  4  0  0  0
  8  2  4  0  0  0
  9  3  4  0  0  0
 10  4  4  0  0  0
 12  5  4  0  0  0
  6  8  4  0  0  0
 11  6  4  0  0  0
  9  7  4  0  0  0
  7 12  4  0  0  0
  8 23  1  0  0  0
 25  9  1  0  0  0
 11 10  4  0  0  0
 10 30  1  0  0  0
 31 11  1  0  0  0
 12 32  1  0  0  0
 16 13  1  0  0  0
 13 18  1  0  0  0
 17 14  1  0  0  0
 14 18  1  0  0  0
 18 15  1  0  0  0
 15 26  1  0  0  0
 27 16  1  0  0  0
 17 19  1  0  0  0
 27 17  1  0  0  0
 18 25  1  0  0  0
 24 20  1  0  0  0
 24 21  1  0  0  0
 26 22  1  0  0  0
 23 27  1  0  0  0
 24 31  1  0  0  0
 25 33  1  0  0  0
 26 33  1  0  0  0
 33 28  2  0  0  0
 33 29  2  0  0  0
  1 34  1  0  0  0
  2 35  1  0  0  0
  3 36  1  0  0  0
  4 37  1  0  0  0
  5 38  1  0  0  0
  6 39  1  0  0  0
  7 40  1  0  0  0
 13 41  1  0  0  0
 13 42  1  0  0  0
 14 43  1  0  0  0
 14 44  1  0  0  0
 15 45  1  0  0  0
 15 46  1  0  0  0
 16 47  1  0  0  0
 16 48  1  0  0  0
 17 49  1  0  0  0
 19 50  1  0  0  0
 19 51  1  0  0  0
 19 52  1  0  0  0
 20 53  1  0  0  0
 20 54  1  0  0  0
 20 55  1  0  0  0
 21 56  1  0  0  0
 21 57  1  0  0  0
 21 58  1  0  0  0
 22 59  1  0  0  0
 22 60  1  0  0  0
 22 61  1  0  0  0
 23 62  1  0  0  0
 23 63  1  0  0  0
 24 64  1  0  0  0
 27 65  1  0  0  0
 30 66  1  0  0  0
M  END
$$$$
