1y3y_ligand
  -I-interpret- 

 45 48  0  0  0  0  0  0  0  0999 V2000
   46.7820   18.5210   54.8030 N   0  0  0  0  0
   45.9170   18.3890   53.8160 C   0  0  0  0  0
   45.4140   19.4450   53.0080 C   0  0  0  0  0
   45.8000   20.7750   53.1630 C   0  0  0  0  0
   45.2670   21.7530   52.3080 C   0  0  0  0  0
   44.3600   21.3990   51.3070 C   0  0  0  0  0
   43.7650   22.4440   50.3990 C   0  0  0  0  0
   44.7350   23.5840   50.1970 N   0  3  0  0  0
   45.8270   23.2350   49.2340 C   0  0  0  0  0
   45.3040   23.6120   47.8340 C   0  0  0  0  0
   43.9870   24.3060   48.0080 C   0  0  0  0  0
   43.8670   24.6200   49.5100 C   0  0  0  0  0
   42.3910   24.3430   49.9370 C   0  0  0  0  0
   41.8250   25.4680   50.8640 C   0  0  0  0  0
   42.3560   25.1290   52.1740 N   0  0  0  0  0
   42.6810   23.7970   52.2790 C   0  0  0  0  0
   43.1490   23.2690   53.3220 O   0  0  0  0  0
   42.4790   23.1340   50.9000 C   0  0  0  0  0
   41.8670   25.8700   53.3930 C   0  0  0  0  0
   43.9760   20.0560   51.1520 C   0  0  0  0  0
   44.5070   19.0900   51.9830 C   0  0  0  0  0
   45.4850   17.1240   53.5910 N   0  0  0  0  0
   47.0784   17.7023   55.3343 H   0  0  0  0  0
   46.5099   21.0539   53.9417 H   0  0  0  0  0
   45.5631   22.7953   52.4264 H   0  0  0  0  0
   43.5348   21.8692   49.5019 H   0  0  0  0  0
   45.1769   23.8613   51.0735 H   0  0  0  0  0
   46.0743   22.1748   49.2883 H   0  0  0  0  0
   46.7446   23.7745   49.4687 H   0  0  0  0  0
   45.1826   22.7181   47.2222 H   0  0  0  0  0
   46.0133   24.2678   47.3292 H   0  0  0  0  0
   43.1627   23.6785   47.6691 H   0  0  0  0  0
   43.9385   25.2158   47.4097 H   0  0  0  0  0
   44.1508   25.6447   49.7499 H   0  0  0  0  0
   41.7811   24.2326   49.0404 H   0  0  0  0  0
   40.7358   25.5092   50.8530 H   0  0  0  0  0
   42.1215   26.4652   50.5388 H   0  0  0  0  0
   41.6457   22.4331   50.9489 H   0  0  0  0  0
   42.0855   26.9322   53.2829 H   0  0  0  0  0
   40.7912   25.7278   53.4958 H   0  0  0  0  0
   42.3721   25.4837   54.2783 H   0  0  0  0  0
   43.2609   19.7779   50.3778 H   0  0  0  0  0
   44.2250   18.0458   51.8480 H   0  0  0  0  0
   45.8302   16.3570   54.1680 H   0  0  0  0  0
   44.8148   16.9391   52.8447 H   0  0  0  0  0
  1  2  2  0  0  0
  2  3  1  0  0  0
  2 22  1  0  0  0
  3  4  4  0  0  0
  3 21  4  0  0  0
  4  5  4  0  0  0
  5  6  4  0  0  0
  6  7  1  0  0  0
  6 20  4  0  0  0
  7  8  1  0  0  0
  7 18  1  0  0  0
  8  9  1  0  0  0
  8 12  1  0  0  0
  9 10  1  0  0  0
 10 11  1  0  0  0
 11 12  1  0  0  0
 12 13  1  0  0  0
 13 14  1  0  0  0
 13 18  1  0  0  0
 14 15  1  0  0  0
 15 16  1  0  0  0
 15 19  1  0  0  0
 16 17  2  0  0  0
 16 18  1  0  0  0
 20 21  4  0  0  0
  1 23  1  0  0  0
  4 24  1  0  0  0
  5 25  1  0  0  0
  7 26  1  0  0  0
  8 27  1  0  0  0
  9 28  1  0  0  0
  9 29  1  0  0  0
 10 30  1  0  0  0
 10 31  1  0  0  0
 11 32  1  0  0  0
 11 33  1  0  0  0
 12 34  1  0  0  0
 13 35  1  0  0  0
 14 36  1  0  0  0
 14 37  1  0  0  0
 18 38  1  0  0  0
 19 39  1  0  0  0
 19 40  1  0  0  0
 19 41  1  0  0  0
 20 42  1  0  0  0
 21 43  1  0  0  0
 22 44  1  0  0  0
 22 45  1  0  0  0
M  END
$$$$
