2whp_ligand
  -I-interpret- 

 33 34  0  0  0  0  0  0  0  0999 V2000
   38.2140   18.7180    9.4850 O   0  0  0  0  0
   38.2310   19.7890   10.0720 C   0  0  0  0  0
   39.1910   20.0700   10.9530 N   0  0  0  0  0
   37.1420   20.8180    9.8650 C   0  0  0  0  0
   37.1480   21.9650   10.6540 C   0  0  0  0  0
   36.1520   22.9160   10.4970 C   0  0  0  0  0
   35.1770   22.7430    9.6000 N   0  0  0  0  0
   35.1360   21.6390    8.8260 C   0  0  0  0  0
   36.1180   20.6480    8.9290 C   0  0  0  0  0
   34.1400   23.7670    9.4620 C   0  0  0  0  0
   32.9780   23.0280    9.1060 O   0  0  0  0  0
   31.7830   23.7950    9.0810 C   0  0  0  0  0
   30.9410   23.2940   10.1610 N   0  0  0  0  0
   30.2010   22.2040    9.9540 C   0  0  0  0  0
   29.4050   21.7240   10.9850 C   0  0  0  0  0
   29.3700   22.3750   12.2190 C   0  0  0  0  0
   30.1420   23.5080   12.3970 C   0  0  0  0  0
   30.9260   23.9400   11.3340 C   0  0  0  0  0
   39.9237   19.3866   11.1442 H   0  0  0  0  0
   39.1929   20.9684   11.4360 H   0  0  0  0  0
   37.9344   22.1149   11.3937 H   0  0  0  0  0
   36.1643   23.8155   11.1125 H   0  0  0  0  0
   34.3245   21.5171    8.1086 H   0  0  0  0  0
   36.0853   19.7630    8.2935 H   0  0  0  0  0
   34.3971   24.5200    8.7170 H   0  0  0  0  0
   34.0012   24.3428   10.3770 H   0  0  0  0  0
   31.2795   23.6984    8.1191 H   0  0  0  0  0
   31.9988   24.8548    9.2164 H   0  0  0  0  0
   30.2209   21.6973    8.9891 H   0  0  0  0  0
   28.8014   20.8299   10.8293 H   0  0  0  0  0
   28.7451   21.9969   13.0281 H   0  0  0  0  0
   30.1359   24.0472   13.3443 H   0  0  0  0  0
   31.5453   24.8284   11.4583 H   0  0  0  0  0
  1  2  2  0  0  0
  2  3  1  0  0  0
  2  4  1  0  0  0
  4  5  4  0  0  0
  4  9  4  0  0  0
  5  6  4  0  0  0
  6  7  4  0  0  0
  7  8  4  0  0  0
  7 10  1  0  0  0
  8  9  4  0  0  0
 10 11  1  0  0  0
 11 12  1  0  0  0
 12 13  1  0  0  0
 13 14  4  0  0  0
 13 18  4  0  0  0
 14 15  4  0  0  0
 15 16  4  0  0  0
 16 17  4  0  0  0
 17 18  4  0  0  0
  3 19  1  0  0  0
  3 20  1  0  0  0
  5 21  1  0  0  0
  6 22  1  0  0  0
  8 23  1  0  0  0
  9 24  1  0  0  0
 10 25  1  0  0  0
 10 26  1  0  0  0
 12 27  1  0  0  0
 12 28  1  0  0  0
 14 29  1  0  0  0
 15 30  1  0  0  0
 16 31  1  0  0  0
 17 32  1  0  0  0
 18 33  1  0  0  0
M  END
$$$$
