3f7b_ligand
  -I-interpret- 

 47 49  0  0  0  0  0  0  0  0999 V2000
  -53.4040  -62.2710    5.6680 O   0  0  0  0  0
  -52.4270  -62.9370    5.2580 C   0  0  0  0  0
  -52.6110  -64.1860    4.7250 N   0  0  0  0  0
  -53.9380  -64.8760    4.6420 C   0  0  0  0  0
  -54.3440  -65.4740    5.9960 C   0  0  0  0  0
  -53.1530  -66.0220    6.8030 C   0  0  0  0  0
  -52.5430  -65.2000    7.6680 C   0  0  0  0  0
  -51.4880  -65.6160    8.3660 C   0  0  0  0  0
  -50.9520  -66.8520    8.2310 C   0  0  0  0  0
  -51.5540  -67.7360    7.3820 C   0  0  0  0  0
  -52.6650  -67.2870    6.6670 C   0  0  0  0  0
  -51.0330  -62.3260    5.2850 C   0  0  0  0  0
  -49.8600  -63.0710    5.3730 C   0  0  0  0  0
  -50.9740  -60.9450    5.0790 C   0  0  0  0  0
  -49.8310  -60.3190    5.0570 N   0  0  0  0  0
  -48.7000  -60.9940    5.2100 C   0  0  0  0  0
  -48.6950  -62.3600    5.3970 C   0  0  0  0  0
  -47.1010  -63.1280    5.5880 S   0  0  0  0  0
  -46.5410  -63.0810    4.2480 O   0  0  0  0  0
  -46.4500  -62.4200    6.6570 O   0  0  0  0  0
  -47.3530  -64.7470    6.0440 N   0  0  0  0  0
  -52.4770  -60.0170    4.8350 S   0  0  0  0  0
  -52.0820  -58.3510    4.5350 C   0  0  0  0  0
  -51.4040  -58.0270    3.3540 C   0  0  0  0  0
  -51.1230  -56.6970    3.0900 C   0  0  0  0  0
  -51.5000  -55.7090    4.0090 C   0  0  0  0  0
  -52.1710  -56.0470    5.1910 C   0  0  0  0  0
  -52.4910  -57.3830    5.4710 C   0  0  0  0  0
  -51.7935  -64.6763    4.3622 H   0  0  0  0  0
  -53.8628  -65.6847    3.9151 H   0  0  0  0  0
  -54.6905  -64.1447    4.3470 H   0  0  0  0  0
  -55.0187  -66.3070    5.7986 H   0  0  0  0  0
  -54.8009  -64.6777    6.5836 H   0  0  0  0  0
  -52.9131  -64.1835    7.8012 H   0  0  0  0  0
  -51.0343  -64.9287    9.0801 H   0  0  0  0  0
  -50.0590  -67.1354    8.7881 H   0  0  0  0  0
  -51.1809  -68.7537    7.2672 H   0  0  0  0  0
  -53.1589  -67.9709    5.9767 H   0  0  0  0  0
  -49.8714  -64.1599    5.4200 H   0  0  0  0  0
  -47.7521  -60.4564    5.1874 H   0  0  0  0  0
  -47.1138  -65.5013    5.4004 H   0  0  0  0  0
  -47.7433  -64.9637    6.9611 H   0  0  0  0  0
  -51.1028  -58.8073    2.6550 H   0  0  0  0  0
  -50.6097  -56.4194    2.1694 H   0  0  0  0  0
  -51.2682  -54.6643    3.8015 H   0  0  0  0  0
  -52.4466  -55.2652    5.8988 H   0  0  0  0  0
  -53.0334  -57.6600    6.3750 H   0  0  0  0  0
  1  2  2  0  0  0
  2  3  1  0  0  0
  2 12  1  0  0  0
  3  4  1  0  0  0
  4  5  1  0  0  0
  5  6  1  0  0  0
  6  7  4  0  0  0
  6 11  4  0  0  0
  7  8  4  0  0  0
  8  9  4  0  0  0
  9 10  4  0  0  0
 10 11  4  0  0  0
 12 13  4  0  0  0
 12 14  4  0  0  0
 13 17  4  0  0  0
 14 15  4  0  0  0
 14 22  1  0  0  0
 15 16  4  0  0  0
 16 17  4  0  0  0
 17 18  1  0  0  0
 18 19  2  0  0  0
 18 20  2  0  0  0
 18 21  1  0  0  0
 22 23  1  0  0  0
 23 24  4  0  0  0
 23 28  4  0  0  0
 24 25  4  0  0  0
 25 26  4  0  0  0
 26 27  4  0  0  0
 27 28  4  0  0  0
  3 29  1  0  0  0
  4 30  1  0  0  0
  4 31  1  0  0  0
  5 32  1  0  0  0
  5 33  1  0  0  0
  7 34  1  0  0  0
  8 35  1  0  0  0
  9 36  1  0  0  0
 10 37  1  0  0  0
 11 38  1  0  0  0
 13 39  1  0  0  0
 16 40  1  0  0  0
 21 41  1  0  0  0
 21 42  1  0  0  0
 24 43  1  0  0  0
 25 44  1  0  0  0
 26 45  1  0  0  0
 27 46  1  0  0  0
 28 47  1  0  0  0
M  END
$$$$
