4anm_ligand
  -I-interpret- 

 37 40  0  0  0  0  0  0  0  0999 V2000
   23.8270    2.1590   18.1400 C   0  0  0  0  0
   25.4080    3.6900   17.3710 N   0  3  0  0  0
   23.7550    1.0880   17.1040 O   0  0  0  0  0
   25.2050    2.0350   18.7930 C   0  0  0  0  0
   24.3600    6.9000   18.0990 N   0  0  0  0  0
   25.1430    7.8340   14.2830 O   0  0  0  0  0
   26.1770    2.5200   17.6740 C   0  0  0  0  0
   25.4760    6.4350   16.0690 N   0  0  0  0  0
   25.8770    5.0060   17.9320 C   0  0  0  0  0
   25.2120    6.1570   17.3720 C   0  0  0  0  0
   23.8170    8.0200   17.5800 C   0  0  0  0  0
   22.9430    8.9530   18.0930 C   0  0  0  0  0
   20.3350   10.4990   20.9780 Br  0  0  0  0  0
   22.2490    9.1280   19.3100 C   0  0  0  0  0
   21.3610   10.2100   19.3180 C   0  0  0  0  0
   21.1560   11.1410   18.3700 C   0  0  0  0  0
   21.8680   10.9090   17.1740 C   0  0  0  0  0
   23.4500    9.4480   15.9870 O   0  0  0  0  0
   22.6920    9.8500   17.0780 C   0  0  0  0  0
   24.1020    8.3590   16.2650 C   0  0  0  0  0
   24.9570    7.5630   15.5010 C   0  0  0  0  0
   23.9520    3.4820   17.4500 C   0  0  0  0  0
   22.9690    2.0814   18.8078 H   0  0  0  0  0
   25.6252    3.8199   16.3829 H   0  0  0  0  0
   23.6745    0.2334   17.5339 H   0  0  0  0  0
   25.4217    1.0201   19.1263 H   0  0  0  0  0
   25.2907    2.6226   19.7070 H   0  0  0  0  0
   27.2253    2.6578   17.9388 H   0  0  0  0  0
   26.3932    1.8309   16.8576 H   0  0  0  0  0
   26.0586    5.8047   15.5179 H   0  0  0  0  0
   26.9365    5.0985   17.6933 H   0  0  0  0  0
   25.6596    4.9965   19.0001 H   0  0  0  0  0
   22.3926    8.4753   20.1711 H   0  0  0  0  0
   20.4984   11.9986   18.5125 H   0  0  0  0  0
   21.7504   11.5872   16.3288 H   0  0  0  0  0
   23.4432    4.2833   17.9859 H   0  0  0  0  0
   23.4743    3.4899   16.4703 H   0  0  0  0  0
  1  3  1  0  0  0
  1  4  1  0  0  0
 22  1  1  0  0  0
  2  7  1  0  0  0
  9  2  1  0  0  0
  2 22  1  0  0  0
  7  4  1  0  0  0
  5 10  2  0  0  0
 11  5  1  0  0  0
 21  6  2  0  0  0
 10  8  1  0  0  0
  8 21  1  0  0  0
 10  9  1  0  0  0
 12 11  4  0  0  0
 11 20  4  0  0  0
 14 12  4  0  0  0
 12 19  4  0  0  0
 15 13  1  0  0  0
 14 15  4  0  0  0
 15 16  4  0  0  0
 16 17  4  0  0  0
 17 19  4  0  0  0
 19 18  4  0  0  0
 18 20  4  0  0  0
 20 21  1  0  0  0
  1 23  1  0  0  0
  2 24  1  0  0  0
  3 25  1  0  0  0
  4 26  1  0  0  0
  4 27  1  0  0  0
  7 28  1  0  0  0
  7 29  1  0  0  0
  8 30  1  0  0  0
  9 31  1  0  0  0
  9 32  1  0  0  0
 14 33  1  0  0  0
 16 34  1  0  0  0
 17 35  1  0  0  0
 22 36  1  0  0  0
 22 37  1  0  0  0
M  END
$$$$
