5tcc_ligand
  -I-interpret- 

 43 46  0  0  0  0  0  0  0  0999 V2000
  -10.6510   23.5540   75.3090 O   0  0  0  0  0
  -11.8420   23.5540   75.6220 C   0  0  0  0  0
  -12.7610   24.4200   75.1380 N   0  0  0  0  0
  -12.6340   25.2810   74.0370 C   0  0  0  0  0
  -13.7860   25.4430   73.3780 N   0  0  0  0  0
  -11.4270   25.8650   73.6210 C   0  0  0  0  0
  -11.4410   26.6190   72.4620 C   0  0  0  0  0
  -12.6200   26.7850   71.7550 C   0  0  0  0  0
  -13.7430   26.1660   72.2720 C   0  0  0  0  0
  -15.3840   26.3110   71.3200 Br  0  0  0  0  0
  -12.4070   22.4760   76.5840 C   0  0  0  0  0
  -11.5960   21.2360   76.4010 N   0  0  0  0  0
  -10.8290   20.8850   77.6070 C   0  0  0  0  0
  -10.6400   22.1120   78.4500 C   0  0  0  0  0
  -12.2160   22.9830   78.3230 S   0  0  0  0  0
  -11.5910   20.5690   75.2190 C   0  0  0  0  0
  -12.2410   20.9500   74.2590 O   0  0  0  0  0
  -10.7160   19.3230   75.1100 C   0  0  0  0  0
  -10.5950   18.7000   73.8120 N   0  0  0  0  0
   -9.7190   19.0140   72.8160 C   0  0  0  0  0
   -8.6100   19.8520   72.7670 C   0  0  0  0  0
   -7.9280   19.9770   71.5640 C   0  0  0  0  0
   -8.3580   19.2930   70.4230 C   0  0  0  0  0
   -9.4590   18.4500   70.4760 C   0  0  0  0  0
  -10.1490   18.2920   71.6820 C   0  0  0  0  0
  -11.2760   17.5570   72.1320 C   0  0  0  0  0
  -11.5360   17.7960   73.3960 N   0  0  0  0  0
  -13.6528   24.4511   75.6320 H   0  0  0  0  0
  -10.5091   25.7286   74.1928 H   0  0  0  0  0
  -10.5222   27.0836   72.1042 H   0  0  0  0  0
  -12.6606   27.3733   70.8383 H   0  0  0  0  0
  -13.4638   22.3271   76.3626 H   0  0  0  0  0
   -9.8560   20.4880   77.3176 H   0  0  0  0  0
  -11.3712   20.1308   78.1773 H   0  0  0  0  0
   -9.8041   22.7219   78.1074 H   0  0  0  0  0
  -10.3870   21.8675   79.4816 H   0  0  0  0  0
  -11.1889   18.5772   75.7490 H   0  0  0  0  0
   -9.7096   19.6490   75.3724 H   0  0  0  0  0
   -8.2839   20.3979   73.6523 H   0  0  0  0  0
   -7.0468   20.6161   71.5085 H   0  0  0  0  0
   -7.8230   19.4232   69.4823 H   0  0  0  0  0
   -9.7837   17.9147   69.5838 H   0  0  0  0  0
  -11.8543   16.8779   71.5055 H   0  0  0  0  0
  1  2  2  0  0  0
  2  3  1  0  0  0
  2 11  1  0  0  0
  3  4  1  0  0  0
  4  5  4  0  0  0
  4  6  4  0  0  0
  5  9  4  0  0  0
  6  7  4  0  0  0
  7  8  4  0  0  0
  8  9  4  0  0  0
  9 10  1  0  0  0
 11 12  1  0  0  0
 11 15  1  0  0  0
 12 13  1  0  0  0
 12 16  1  0  0  0
 13 14  1  0  0  0
 14 15  1  0  0  0
 16 17  2  0  0  0
 16 18  1  0  0  0
 18 19  1  0  0  0
 19 20  4  0  0  0
 19 27  4  0  0  0
 20 21  4  0  0  0
 20 25  4  0  0  0
 21 22  4  0  0  0
 22 23  4  0  0  0
 23 24  4  0  0  0
 24 25  4  0  0  0
 25 26  4  0  0  0
 26 27  4  0  0  0
  3 28  1  0  0  0
  6 29  1  0  0  0
  7 30  1  0  0  0
  8 31  1  0  0  0
 11 32  1  0  0  0
 13 33  1  0  0  0
 13 34  1  0  0  0
 14 35  1  0  0  0
 14 36  1  0  0  0
 18 37  1  0  0  0
 18 38  1  0  0  0
 21 39  1  0  0  0
 22 40  1  0  0  0
 23 41  1  0  0  0
 24 42  1  0  0  0
 26 43  1  0  0  0
M  END
$$$$
