3fee_ligand
  -I-interpret- 

 21 21  0  0  0  0  0  0  0  0999 V2000
   19.0100   41.3910   18.4550 C   0  0  0  0  0
   18.0320   42.5190   18.6570 C   0  0  0  0  0
   16.6110   42.1340   18.1870 C   0  0  0  0  0
   15.5740   40.8810   16.3360 C   0  0  0  0  0
   16.4560   41.9860   14.7250 C   0  0  0  0  0
   18.4810   43.7450   17.9610 N   0  3  0  0  0
   16.7370   41.4520   16.8880 N   0  0  0  0  0
   15.4830   41.1150   15.0190 N   0  0  0  0  0
   19.8700   41.5150   17.5730 O   0  0  0  0  0
   18.8550   40.3790   19.1870 O   0  0  0  0  0
   14.8000   40.2420   17.0130 O   0  0  0  0  0
   16.7640   42.5010   13.6590 O   0  0  0  0  0
   17.2480   42.3420   15.8700 O   0  0  0  0  0
   17.9929   42.7185   19.7279 H   0  0  0  0  0
   15.9903   43.0246   18.0886 H   0  0  0  0  0
   16.1362   41.4767   18.9154 H   0  0  0  0  0
   19.4190   43.9903   18.2780 H   0  0  0  0  0
   18.4936   43.5780   16.9548 H   0  0  0  0  0
   17.8389   44.5089   18.1721 H   0  0  0  0  0
   14.8075   40.7103   14.3707 H   0  0  0  0  0
   18.1228   40.5302   19.7892 H   0  0  0  0  0
  1  2  1  0  0  0
  1  9  2  0  0  0
  1 10  1  0  0  0
  2  3  1  0  0  0
  2  6  1  0  0  0
  3  7  1  0  0  0
  7  4  1  0  0  0
  4  8  1  0  0  0
  4 11  2  0  0  0
  8  5  1  0  0  0
  5 12  2  0  0  0
  5 13  1  0  0  0
  7 13  1  0  0  0
  2 14  1  0  0  0
  3 15  1  0  0  0
  3 16  1  0  0  0
  6 17  1  0  0  0
  6 18  1  0  0  0
  6 19  1  0  0  0
  8 20  1  0  0  0
 10 21  1  0  0  0
M  END
$$$$
