1g3m_ligand
  -I-interpret- 

 24 25  0  0  0  0  0  0  0  0999 V2000
   31.8240    2.9030    8.6280 Cl  0  0  0  0  0
   29.6280    5.7520    4.4520 Cl  0  0  0  0  0
   30.9280    5.4670    7.1140 O   0  0  0  0  0
   30.2260    1.7540    4.9940 C   0  0  0  0  0
   30.8760    1.7610    6.3870 C   0  0  0  0  0
   31.0950    2.9840    7.0640 C   0  0  0  0  0
   30.7280    4.2690    6.4930 C   0  0  0  0  0
   30.1060    4.2530    5.1780 C   0  0  0  0  0
   29.8670    3.0510    4.4610 C   0  0  0  0  0
   27.3370   -0.8610    1.4670 Cl  0  0  0  0  0
   31.5230   -3.3210    3.9350 Cl  0  0  0  0  0
   29.2270   -3.1760    2.0640 O   0  0  0  0  0
   29.9760    0.4660    4.2370 C   0  0  0  0  0
   28.8950    0.3630    3.2850 C   0  0  0  0  0
   28.6500   -0.8350    2.5720 C   0  0  0  0  0
   29.4480   -2.0150    2.7400 C   0  0  0  0  0
   30.5340   -1.9300    3.6900 C   0  0  0  0  0
   30.8020   -0.7340    4.4230 C   0  0  0  0  0
   30.6087    6.1755    6.5504 H   0  0  0  0  0
   31.1691    0.8210    6.8546 H   0  0  0  0  0
   29.3985    3.1067    3.4784 H   0  0  0  0  0
   29.8775   -3.8295    2.3314 H   0  0  0  0  0
   28.2535    1.2270    3.1116 H   0  0  0  0  0
   31.6311   -0.7115    5.1303 H   0  0  0  0  0
  6  1  1  0  0  0
  8  2  1  0  0  0
  7  3  1  0  0  0
  4  5  4  0  0  0
  4  9  4  0  0  0
 13  4  1  0  0  0
  5  6  4  0  0  0
  6  7  4  0  0  0
  8  7  4  0  0  0
  9  8  4  0  0  0
 15 10  1  0  0  0
 17 11  1  0  0  0
 16 12  1  0  0  0
 14 13  4  0  0  0
 13 18  4  0  0  0
 15 14  4  0  0  0
 16 15  4  0  0  0
 16 17  4  0  0  0
 17 18  4  0  0  0
  3 19  1  0  0  0
  5 20  1  0  0  0
  9 21  1  0  0  0
 12 22  1  0  0  0
 14 23  1  0  0  0
 18 24  1  0  0  0
M  END
$$$$
