3clp_ligand
  -I-interpret- 

 34 37  0  0  0  0  0  0  0  0999 V2000
   21.8830  -36.8170   12.0350 P   0  0  0  0  0
   22.1570  -38.2890   12.2580 O   0  0  0  0  0
   21.9340  -36.0340   13.3200 O   0  0  0  0  0
   22.9290  -36.2640   10.9480 O   0  0  0  0  0
   22.8460  -36.7280    9.5810 C   0  0  0  0  0
   21.4240  -36.4380    9.0930 C   0  0  0  0  0
   21.1020  -36.9430    7.7790 O   0  0  0  0  0
   20.4160  -37.1470    9.9820 C   0  0  0  0  0
   20.4610  -36.6130   11.3150 O   0  0  0  0  0
   19.1260  -37.0410    9.1950 C   0  0  0  0  0
   18.6120  -35.7080    9.2950 O   0  0  0  0  0
   19.6790  -37.2490    7.7600 C   0  0  0  0  0
   19.3840  -38.6780    7.4190 N   0  0  0  0  0
   19.9800  -39.7790    7.9380 C   0  0  0  0  0
   19.4450  -40.9200    7.4320 N   0  0  0  0  0
   18.4760  -40.5490    6.5700 C   0  0  0  0  0
   17.5090  -41.2340    5.6800 C   0  0  0  0  0
   17.4580  -42.5860    5.6020 N   0  0  0  0  0
   16.6680  -40.4660    4.9450 N   0  0  0  0  0
   16.6860  -39.1190    4.9880 C   0  0  0  0  0
   17.5250  -38.4170    5.7650 N   0  0  0  0  0
   18.4330  -39.0690    6.5660 C   0  0  0  0  0
   22.1156  -38.7519   11.4180 H   0  0  0  0  0
   23.0628  -37.7946    9.5228 H   0  0  0  0  0
   23.5789  -36.2176    8.9562 H   0  0  0  0  0
   21.3781  -35.3490    9.0997 H   0  0  0  0  0
   20.5982  -38.2019   10.1873 H   0  0  0  0  0
   18.3329  -37.7199    9.5083 H   0  0  0  0  0
   17.7947  -35.6431    8.7956 H   0  0  0  0  0
   19.2288  -36.6025    7.0066 H   0  0  0  0  0
   20.7874  -39.7520    8.6697 H   0  0  0  0  0
   18.0934  -43.1535    6.1628 H   0  0  0  0  0
   16.7842  -43.0361    4.9825 H   0  0  0  0  0
   15.9832  -38.5720    4.3595 H   0  0  0  0  0
  1  2  1  0  0  0
  1  3  2  0  0  0
  1  4  1  0  0  0
  1  9  1  0  0  0
  4  5  1  0  0  0
  5  6  1  0  0  0
  6  7  1  0  0  0
  6  8  1  0  0  0
  7 12  1  0  0  0
  8  9  1  0  0  0
  8 10  1  0  0  0
 10 11  1  0  0  0
 10 12  1  0  0  0
 12 13  1  0  0  0
 13 14  4  0  0  0
 13 22  4  0  0  0
 14 15  4  0  0  0
 15 16  4  0  0  0
 16 17  4  0  0  0
 16 22  4  0  0  0
 17 18  1  0  0  0
 17 19  4  0  0  0
 19 20  4  0  0  0
 20 21  4  0  0  0
 21 22  4  0  0  0
  2 23  1  0  0  0
  5 24  1  0  0  0
  5 25  1  0  0  0
  6 26  1  0  0  0
  8 27  1  0  0  0
 10 28  1  0  0  0
 11 29  1  0  0  0
 12 30  1  0  0  0
 14 31  1  0  0  0
 18 32  1  0  0  0
 18 33  1  0  0  0
 20 34  1  0  0  0
M  END
$$$$
