### 
### Created by X-TOOL on Mon Sep 10 21:12:58 2018
### 

@<TRIPOS>MOLECULE
3clp_ligand
   33    36     1     0     0
SMALL
GAST_HUCK


@<TRIPOS>ATOM
      1 P          21.8830  -36.8170   12.0350 P.3       1 CMP         0.2557
      2 O1P        22.1570  -38.2890   12.2580 O.co2     1 CMP        -0.6177
      3 O2P        21.9340  -36.0340   13.3200 O.co2     1 CMP        -0.6177
      4 O5'        22.9290  -36.2640   10.9480 O.3       1 CMP        -0.2514
      5 C5'        22.8460  -36.7280    9.5810 C.3       1 CMP         0.1128
      6 C4'        21.4240  -36.4380    9.0930 C.3       1 CMP         0.1242
      7 O4'        21.1020  -36.9430    7.7790 O.3       1 CMP        -0.3360
      8 C3'        20.4160  -37.1470    9.9820 C.3       1 CMP         0.1540
      9 O3'        20.4610  -36.6130   11.3150 O.3       1 CMP        -0.2453
     10 C2'        19.1260  -37.0410    9.1950 C.3       1 CMP         0.1439
     11 O2'        18.6120  -35.7080    9.2950 O.3       1 CMP        -0.3832
     12 C1'        19.6790  -37.2490    7.7600 C.3       1 CMP         0.2014
     13 N9         19.3840  -38.6780    7.4190 N.pl3     1 CMP        -0.1919
     14 C8         19.9800  -39.7790    7.9380 C.2       1 CMP         0.1123
     15 N7         19.4450  -40.9200    7.4320 N.2       1 CMP        -0.2958
     16 C5         18.4760  -40.5490    6.5700 C.ar      1 CMP         0.1045
     17 C6         17.5090  -41.2340    5.6800 C.ar      1 CMP         0.1298
     18 N6         17.4580  -42.5860    5.6020 N.pl3     1 CMP        -0.3152
     19 N1         16.6680  -40.4660    4.9450 N.ar      1 CMP        -0.2698
     20 C2         16.6860  -39.1190    4.9880 C.ar      1 CMP         0.0533
     21 N3         17.5250  -38.4170    5.7650 N.ar      1 CMP        -0.2714
     22 C4         18.4330  -39.0690    6.5660 C.ar      1 CMP         0.1613
     23 H1         23.0472  -37.8085    9.5363 H         1 CMP         0.0647
     24 H2         23.5759  -36.1929    8.9558 H         1 CMP         0.0647
     25 H3         21.2675  -35.3495    9.1179 H         1 CMP         0.0655
     26 H4         20.6772  -38.2125   10.0618 H         1 CMP         0.0712
     27 H5         18.3736  -37.7877    9.4888 H         1 CMP         0.0680
     28 H6         18.4443  -35.5021   10.2071 H         1 CMP         0.2101
     29 H7         19.1734  -36.5837    7.0447 H         1 CMP         0.0996
     30 H8         20.7867  -39.7521    8.6691 H         1 CMP         0.1349
     31 H9         16.7776  -43.0405    4.9764 H         1 CMP         0.1820
     32 H10        18.0997  -43.1591    6.1683 H         1 CMP         0.1820
     33 H11        15.9870  -38.5750    4.3630 H         1 CMP         0.0996
@<TRIPOS>BOND
     1    1    2 ar 
     2    1    3 ar 
     3    1    4 1  
     4    1    9 1  
     5    4    5 1  
     6    5    6 1  
     7    6    7 1  
     8    6    8 1  
     9    7   12 1  
    10    8    9 1  
    11    8   10 1  
    12   10   11 1  
    13   10   12 1  
    14   12   13 1  
    15   13   14 1  
    16   13   22 1  
    17   14   15 2  
    18   15   16 1  
    19   16   17 ar 
    20   16   22 ar 
    21   17   18 1  
    22   17   19 ar 
    23   19   20 ar 
    24   20   21 ar 
    25   21   22 ar 
    26    5   23 1  
    27    5   24 1  
    28    6   25 1  
    29    8   26 1  
    30   10   27 1  
    31   11   28 1  
    32   12   29 1  
    33   14   30 1  
    34   18   31 1  
    35   18   32 1  
    36   20   33 1  
@<TRIPOS>SUBSTRUCTURE
     1 CMP         1

