4tk0_ligand
  -I-interpret- 

 49 51  0  0  0  0  0  0  0  0999 V2000
   22.0200   48.1600   -2.3370 O   0  0  0  0  0
   22.8700   47.7660   -1.5460 C   0  0  0  0  0
   23.0630   46.4180   -1.4080 N   0  0  0  0  0
   24.0620   45.8500   -0.4840 C   0  0  0  0  0
   25.2830   46.7270   -0.2390 C   0  0  0  0  0
   24.9820   48.2050   -0.1980 C   0  0  0  0  0
   25.9170   49.1510    0.3850 C   0  0  0  0  0
   26.9080   48.6300    1.2110 O   0  0  0  0  0
   28.1020   47.9490    0.8160 C   0  0  0  0  0
   28.5240   47.2630    2.1710 C   0  0  0  0  0
   29.2550   45.9330    2.0130 C   0  0  0  0  0
   28.4880   44.7600    2.7530 C   0  0  0  0  0
   27.2130   44.3190    2.0180 N   0  3  0  0  0
   26.3490   43.2850    2.7400 C   0  0  0  0  0
   26.5610   41.7580    2.3560 C   0  0  0  0  0
   26.9310   41.5020    0.8610 C   0  0  0  0  0
   26.7690   42.7670    0.0420 C   0  0  0  0  0
   27.5940   43.8990    0.6190 C   0  0  0  0  0
   25.5260   50.5120    0.4770 C   0  0  0  0  0
   24.2850   50.9820   -0.0870 C   0  0  0  0  0
   23.4710   50.0850   -0.8130 C   0  0  0  0  0
   23.7880   48.7080   -0.7970 C   0  0  0  0  0
   22.4937   45.7816   -1.9660 H   0  0  0  0  0
   24.4230   44.9275   -0.9387 H   0  0  0  0  0
   23.5657   45.7251    0.4784 H   0  0  0  0  0
   25.9708   46.5609   -1.0681 H   0  0  0  0  0
   25.6864   46.4530    0.7358 H   0  0  0  0  0
   28.8655   48.6060    0.3994 H   0  0  0  0  0
   27.9567   47.2474   -0.0054 H   0  0  0  0  0
   27.6059   47.0566    2.7211 H   0  0  0  0  0
   29.2117   47.9452    2.6708 H   0  0  0  0  0
   30.2476   46.0292    2.4530 H   0  0  0  0  0
   29.3121   45.6934    0.9512 H   0  0  0  0  0
   28.1946   45.1243    3.7375 H   0  0  0  0  0
   29.1585   43.9019    2.7989 H   0  0  0  0  0
   26.5886   45.1251    1.9891 H   0  0  0  0  0
   25.3203   43.5174    2.4644 H   0  0  0  0  0
   26.6162   43.3630    3.7939 H   0  0  0  0  0
   25.6127   41.2522    2.5377 H   0  0  0  0  0
   27.3964   41.3949    2.9547 H   0  0  0  0  0
   26.2662   40.7366    0.4606 H   0  0  0  0  0
   27.9706   41.1789    0.8067 H   0  0  0  0  0
   25.7189   43.0588    0.0546 H   0  0  0  0  0
   27.1090   42.5704   -0.9748 H   0  0  0  0  0
   28.6237   43.5447    0.6667 H   0  0  0  0  0
   27.4330   44.7645   -0.0237 H   0  0  0  0  0
   26.1800   51.2196    0.9866 H   0  0  0  0  0
   23.9782   52.0195    0.0457 H   0  0  0  0  0
   22.6120   50.4490   -1.3767 H   0  0  0  0  0
  1  2  2  0  0  0
  2  3  1  0  0  0
  2 22  1  0  0  0
  3  4  1  0  0  0
  4  5  1  0  0  0
  5  6  1  0  0  0
  6  7  4  0  0  0
  6 22  4  0  0  0
  7  8  1  0  0  0
  7 19  4  0  0  0
  8  9  1  0  0  0
  9 10  1  0  0  0
 10 11  1  0  0  0
 11 12  1  0  0  0
 12 13  1  0  0  0
 13 14  1  0  0  0
 13 18  1  0  0  0
 14 15  1  0  0  0
 15 16  1  0  0  0
 16 17  1  0  0  0
 17 18  1  0  0  0
 19 20  4  0  0  0
 20 21  4  0  0  0
 21 22  4  0  0  0
  3 23  1  0  0  0
  4 24  1  0  0  0
  4 25  1  0  0  0
  5 26  1  0  0  0
  5 27  1  0  0  0
  9 28  1  0  0  0
  9 29  1  0  0  0
 10 30  1  0  0  0
 10 31  1  0  0  0
 11 32  1  0  0  0
 11 33  1  0  0  0
 12 34  1  0  0  0
 12 35  1  0  0  0
 13 36  1  0  0  0
 14 37  1  0  0  0
 14 38  1  0  0  0
 15 39  1  0  0  0
 15 40  1  0  0  0
 16 41  1  0  0  0
 16 42  1  0  0  0
 17 43  1  0  0  0
 17 44  1  0  0  0
 18 45  1  0  0  0
 18 46  1  0  0  0
 19 47  1  0  0  0
 20 48  1  0  0  0
 21 49  1  0  0  0
M  END
$$$$
