5sz1_ligand
  -I-interpret- 

 30 31  0  0  0  0  0  0  0  0999 V2000
    1.8560    5.5330   81.9210 C   0  0  0  0  0
    1.6120    6.8270   82.6940 C   0  0  0  0  0
    2.3280    7.9540   82.3120 C   0  0  0  0  0
    2.1530    9.1600   82.9680 C   0  0  0  0  0
    1.2610    9.2510   84.0200 C   0  0  0  0  0
    0.5470    8.1250   84.4020 C   0  0  0  0  0
    0.6820    6.9260   83.7250 C   0  0  0  0  0
   -0.1350    5.7650   84.3140 C   0  0  0  0  0
   -1.5210    5.8120   84.4570 C   0  0  0  0  0
   -2.1910    4.7500   85.0640 C   0  0  0  0  0
   -1.4840    3.6500   85.5480 C   0  0  0  0  0
   -2.3050    2.2440   86.3660 S   0  0  0  0  0
   -1.8670    2.3090   87.9300 O   0  0  0  0  0
   -3.9150    2.4360   86.2050 O   0  0  0  0  0
   -1.8060    0.7740   85.6670 N   0  0  0  0  0
   -0.1090    3.6170   85.4240 C   0  0  0  0  0
    0.5580    4.6770   84.8310 C   0  0  0  0  0
    1.6087    5.6866   80.8706 H   0  0  0  0  0
    2.9047    5.2498   82.0110 H   0  0  0  0  0
    1.2282    4.7422   82.3315 H   0  0  0  0  0
    3.0360    7.8879   81.4859 H   0  0  0  0  0
    2.7184   10.0378   82.6552 H   0  0  0  0  0
    1.1204   10.1968   84.5433 H   0  0  0  0  0
   -0.1332    8.1858   85.2515 H   0  0  0  0  0
   -2.0791    6.6758   84.0957 H   0  0  0  0  0
   -3.2763    4.7802   85.1608 H   0  0  0  0  0
   -1.3054    0.0858   86.2294 H   0  0  0  0  0
   -2.0076    0.5815   84.6858 H   0  0  0  0  0
    0.4513    2.7576   85.7924 H   0  0  0  0  0
    1.6460    4.6571   84.7689 H   0  0  0  0  0
  1  2  1  0  0  0
  2  3  4  0  0  0
  2  7  4  0  0  0
  3  4  4  0  0  0
  4  5  4  0  0  0
  5  6  4  0  0  0
  6  7  4  0  0  0
  7  8  1  0  0  0
  8  9  4  0  0  0
  8 17  4  0  0  0
  9 10  4  0  0  0
 10 11  4  0  0  0
 11 12  1  0  0  0
 11 16  4  0  0  0
 12 13  2  0  0  0
 12 14  2  0  0  0
 12 15  1  0  0  0
 16 17  4  0  0  0
  1 18  1  0  0  0
  1 19  1  0  0  0
  1 20  1  0  0  0
  3 21  1  0  0  0
  4 22  1  0  0  0
  5 23  1  0  0  0
  6 24  1  0  0  0
  9 25  1  0  0  0
 10 26  1  0  0  0
 15 27  1  0  0  0
 15 28  1  0  0  0
 16 29  1  0  0  0
 17 30  1  0  0  0
M  END
$$$$
