3as1_ligand
  -I-interpret- 

 45 49  0  0  0  0  0  0  0  0999 V2000
   -1.7840    6.7500   20.1530 C   0  0  0  0  0
   -2.6150    6.3670   21.2180 C   0  0  0  0  0
   -2.1480    5.4110   22.1550 C   0  0  0  0  0
   -0.8710    4.8590   22.0060 C   0  0  0  0  0
   -3.9020    6.9330   21.3490 C   0  0  0  0  0
   -4.7130    6.5180   22.4440 C   0  0  0  0  0
   -4.2190    5.5640   23.3670 C   0  0  0  0  0
   -2.9410    5.0100   23.2250 C   0  0  0  0  0
   -4.4100    7.9070   20.4140 N   0  0  0  0  0
   -6.0140    7.0570   22.6140 C   0  0  0  0  0
   -6.4990    8.0080   21.6890 C   0  0  0  0  0
   -5.7010    8.4230   20.6100 C   0  0  0  0  0
   -3.6640    8.4200   19.2260 C   0  0  0  0  0
   -8.6000    8.1620   22.9270 C   0  0  0  0  0
   -8.1150    7.2070   23.8440 C   0  0  0  0  0
   -6.8330    6.6630   23.6920 C   0  0  0  0  0
   -7.7900    8.5520   21.8340 C   0  0  0  0  0
   -8.2400    9.4650   20.9060 O   0  0  0  0  0
   -8.7410    8.7690   19.7140 C   0  0  0  0  0
   -9.8690    8.6910   23.0880 O   0  0  0  0  0
   -9.9940    9.9810   23.7870 C   0  0  0  0  0
   -0.5160    6.2020   20.0100 C   0  0  0  0  0
   -0.0500    5.2590   20.9370 C   0  0  0  0  0
    0.4430    6.4190   19.0750 O   0  0  0  0  0
    1.6630    5.9000   19.6510 C   0  0  0  0  0
    1.2210    4.8840   20.5760 O   0  0  0  0  0
   -2.1380    7.4855   19.4306 H   0  0  0  0  0
   -0.5120    4.1176   22.7199 H   0  0  0  0  0
   -4.8456    5.2553   24.2037 H   0  0  0  0  0
   -2.5732    4.2759   23.9419 H   0  0  0  0  0
   -6.2528    8.0861   19.7324 H   0  0  0  0  0
   -5.5322    9.4825   20.8025 H   0  0  0  0  0
   -4.2216    8.1853   18.3193 H   0  0  0  0  0
   -3.5454    9.5001   19.3117 H   0  0  0  0  0
   -2.6826    7.9477   19.1831 H   0  0  0  0  0
   -8.7421    6.8897   24.6772 H   0  0  0  0  0
   -6.4665    5.9307   24.4114 H   0  0  0  0  0
   -7.9369    8.1787   19.2747 H   0  0  0  0  0
   -9.5630    8.1117   19.9973 H   0  0  0  0  0
   -9.0937    9.5019   18.9883 H   0  0  0  0  0
   -9.5947    9.8858   24.7968 H   0  0  0  0  0
   -9.4345   10.7427   23.2440 H   0  0  0  0  0
  -11.0450   10.2660   23.8358 H   0  0  0  0  0
    2.2450    6.6778   20.1453 H   0  0  0  0  0
    2.3347    5.4981   18.8924 H   0  0  0  0  0
  2  1  4  0  0  0
  1 22  4  0  0  0
  2  3  4  0  0  0
  5  2  4  0  0  0
  3  4  4  0  0  0
  8  3  4  0  0  0
  4 23  4  0  0  0
  6  5  4  0  0  0
  9  5  1  0  0  0
  6  7  4  0  0  0
 10  6  1  0  0  0
  7  8  4  0  0  0
 12  9  1  0  0  0
  9 13  1  0  0  0
 11 10  4  0  0  0
 10 16  4  0  0  0
 11 12  1  0  0  0
 17 11  4  0  0  0
 14 15  4  0  0  0
 14 17  4  0  0  0
 14 20  1  0  0  0
 15 16  4  0  0  0
 17 18  1  0  0  0
 18 19  1  0  0  0
 20 21  1  0  0  0
 22 23  4  0  0  0
 22 24  1  0  0  0
 23 26  1  0  0  0
 24 25  1  0  0  0
 25 26  1  0  0  0
  1 27  1  0  0  0
  4 28  1  0  0  0
  7 29  1  0  0  0
  8 30  1  0  0  0
 12 31  1  0  0  0
 12 32  1  0  0  0
 13 33  1  0  0  0
 13 34  1  0  0  0
 13 35  1  0  0  0
 15 36  1  0  0  0
 16 37  1  0  0  0
 19 38  1  0  0  0
 19 39  1  0  0  0
 19 40  1  0  0  0
 21 41  1  0  0  0
 21 42  1  0  0  0
 21 43  1  0  0  0
 25 44  1  0  0  0
 25 45  1  0  0  0
M  END
$$$$
