3g2y_ligand
  -I-interpret- 

 23 24  0  0  0  0  0  0  0  0999 V2000
   -4.7180   51.2260   12.9010 O   0  0  0  0  0
   -5.0650   52.3720   12.4270 C   0  0  0  0  0
   -6.4500   52.7950   12.1480 C   0  0  0  0  0
   -7.7130   51.9910   12.3450 C   0  0  0  0  0
   -8.6210   52.7230   13.3050 C   0  0  0  0  0
   -6.2620   54.1980   11.6290 C   0  0  0  0  0
   -7.3330   55.1550   11.1690 C   0  0  0  0  0
   -4.9390   54.4860   11.6350 N   0  0  0  0  0
   -4.2550   53.3720   12.1380 N   0  0  0  0  0
   -2.9250   53.3350   12.2320 C   0  0  0  0  0
   -2.1770   53.5420   11.1530 N   0  0  0  0  0
   -0.8590   53.4260   11.6160 N   0  0  0  0  0
   -0.9140   53.1440   12.9910 N   0  0  0  0  0
   -2.2620   53.0950   13.3680 N   0  0  0  0  0
   -7.4638   51.0108   12.7515 H   0  0  0  0  0
   -8.2187   51.8626   11.3880 H   0  0  0  0  0
   -8.1123   52.8475   14.2609 H   0  0  0  0  0
   -8.8692   53.7015   12.8939 H   0  0  0  0  0
   -9.5344   52.1463   13.4505 H   0  0  0  0  0
   -7.8763   54.7155   10.3325 H   0  0  0  0  0
   -8.0228   55.3484   11.9905 H   0  0  0  0  0
   -6.8712   56.0903   10.8527 H   0  0  0  0  0
   -4.5147   55.3610   11.3271 H   0  0  0  0  0
  1  2  2  0  0  0
  2  3  1  0  0  0
  2  9  1  0  0  0
  3  4  1  0  0  0
  3  6  2  0  0  0
  4  5  1  0  0  0
  6  7  1  0  0  0
  6  8  1  0  0  0
  8  9  1  0  0  0
  9 10  1  0  0  0
 10 11  4  0  0  0
 10 14  4  0  0  0
 11 12  4  0  0  0
 12 13  4  0  0  0
 13 14  4  0  0  0
  4 15  1  0  0  0
  4 16  1  0  0  0
  5 17  1  0  0  0
  5 18  1  0  0  0
  5 19  1  0  0  0
  7 20  1  0  0  0
  7 21  1  0  0  0
  7 22  1  0  0  0
  8 23  1  0  0  0
M  END
$$$$
