6cwn_ligand
  -I-interpret- 

 40 41  0  0  0  0  0  0  0  0999 V2000
  -21.1660  -12.4000   17.3760 C   0  0  0  0  0
  -20.6950  -12.3040   15.9290 C   0  0  0  0  0
  -21.4600  -12.5720   15.0170 O   0  0  0  0  0
  -19.4260  -12.0030   15.7750 N   0  0  0  0  0
  -18.8920  -11.8790   14.4590 C   0  0  0  0  0
  -18.4550  -10.4470   14.1450 C   0  0  0  0  0
  -19.4860   -9.4860   14.2620 O   0  0  0  0  0
  -17.2990  -10.0760   15.0920 C   0  0  0  0  0
  -16.7360   -8.8060   14.7190 O   0  0  0  0  0
  -15.6940   -8.3710   15.6100 C   0  0  0  0  0
  -15.1280   -7.0730   15.0280 C   0  0  0  0  0
  -16.3120   -8.0960   17.0290 C   0  0  0  0  0
  -17.4000   -7.4550   17.0270 O   0  0  0  0  0
  -15.6430   -8.4130   18.0230 O   0  0  0  0  0
  -14.6900   -9.3540   15.6550 O   0  0  0  0  0
  -15.0540  -10.6910   15.9370 C   0  0  0  0  0
  -16.2370  -11.0710   14.9790 C   0  0  0  0  0
  -16.6710  -12.3740   15.2860 O   0  0  0  0  0
  -17.6630  -12.7590   14.3410 C   0  0  0  0  0
  -18.0110  -14.0690   14.5520 O   0  0  0  0  0
  -17.0090  -15.0290   14.2690 C   0  0  0  0  0
  -22.0056  -11.7220   17.5292 H   0  0  0  0  0
  -21.4796  -13.4222   17.5876 H   0  0  0  0  0
  -20.3484  -12.1242   18.0420 H   0  0  0  0  0
  -18.8283  -11.8593   16.5890 H   0  0  0  0  0
  -19.6776  -12.1715   13.7623 H   0  0  0  0  0
  -18.1493  -10.4289   13.0989 H   0  0  0  0  0
  -20.2065   -9.7178   13.6714 H   0  0  0  0  0
  -17.6920  -10.0336   16.1078 H   0  0  0  0  0
  -14.7305   -7.2661   14.0316 H   0  0  0  0  0
  -15.9211   -6.3279   14.9660 H   0  0  0  0  0
  -14.3308   -6.7042   15.6734 H   0  0  0  0  0
  -17.7042   -7.3460   16.1230 H   0  0  0  0  0
  -15.3602  -10.7907   16.9783 H   0  0  0  0  0
  -14.2065  -11.3579   15.7786 H   0  0  0  0  0
  -15.9132  -11.0686   13.9382 H   0  0  0  0  0
  -17.2519  -12.6425   13.3383 H   0  0  0  0  0
  -16.7232  -14.9555   13.2197 H   0  0  0  0  0
  -16.1390  -14.8404   14.8979 H   0  0  0  0  0
  -17.3964  -16.0274   14.4723 H   0  0  0  0  0
  1  2  1  0  0  0
  2  3  2  0  0  0
  2  4  1  0  0  0
  4  5  1  0  0  0
  5  6  1  0  0  0
  5 19  1  0  0  0
  6  7  1  0  0  0
  6  8  1  0  0  0
  8  9  1  0  0  0
  8 17  1  0  0  0
  9 10  1  0  0  0
 10 11  1  0  0  0
 10 12  1  0  0  0
 10 15  1  0  0  0
 12 13  1  0  0  0
 12 14  2  0  0  0
 15 16  1  0  0  0
 16 17  1  0  0  0
 17 18  1  0  0  0
 18 19  1  0  0  0
 19 20  1  0  0  0
 20 21  1  0  0  0
  1 22  1  0  0  0
  1 23  1  0  0  0
  1 24  1  0  0  0
  4 25  1  0  0  0
  5 26  1  0  0  0
  6 27  1  0  0  0
  7 28  1  0  0  0
  8 29  1  0  0  0
 11 30  1  0  0  0
 11 31  1  0  0  0
 11 32  1  0  0  0
 13 33  1  0  0  0
 16 34  1  0  0  0
 16 35  1  0  0  0
 17 36  1  0  0  0
 19 37  1  0  0  0
 21 38  1  0  0  0
 21 39  1  0  0  0
 21 40  1  0  0  0
M  END
$$$$
