3ftw_ligand
  -I-interpret- 

 26 27  0  0  0  0  0  0  0  0999 V2000
   15.5980   -1.3120    4.7780 N   0  0  0  0  0
   11.3320   -0.1800    0.9180 C   0  0  0  0  0
   10.0330   -0.3170    0.4390 C   0  0  0  0  0
   12.3840   -0.3470    0.0330 C   0  0  0  0  0
   12.1210   -0.6350   -1.3210 C   0  0  0  0  0
    9.7670   -0.6080   -0.8940 C   0  0  0  0  0
   10.8060   -0.7510   -1.8000 C   0  0  0  0  0
   15.0650   -0.3920    3.9850 C   0  0  0  0  0
   14.7790   -2.0020    2.2660 C   0  0  0  0  0
   15.3490   -2.9390    3.1380 C   0  0  0  0  0
   15.7620   -2.5660    4.3920 C   0  0  0  0  0
   13.9880    0.3790    1.7870 C   0  0  0  0  0
   14.6340   -0.6900    2.7040 C   0  0  0  0  0
   13.6380   -0.2180    0.4680 N   0  0  0  0  0
   11.5175    0.0536    1.9664 H   0  0  0  0  0
    9.1989   -0.1924    1.1296 H   0  0  0  0  0
   12.9546   -0.7704   -2.0101 H   0  0  0  0  0
    8.7361   -0.7243   -1.2284 H   0  0  0  0  0
   10.6082   -0.9478   -2.8537 H   0  0  0  0  0
   14.9634    0.6289    4.3531 H   0  0  0  0  0
   14.4565   -2.2948    1.2668 H   0  0  0  0  0
   15.4654   -3.9741    2.8170 H   0  0  0  0  0
   16.2196   -3.2942    5.0617 H   0  0  0  0  0
   14.6968    1.1927    1.6334 H   0  0  0  0  0
   13.0808    0.7542    2.2607 H   0  0  0  0  0
   14.3952   -0.5444   -0.1324 H   0  0  0  0  0
  8  1  4  0  0  0
  1 11  4  0  0  0
  2  3  4  0  0  0
  4  2  4  0  0  0
  3  6  4  0  0  0
  4  5  4  0  0  0
 14  4  1  0  0  0
  5  7  4  0  0  0
  7  6  4  0  0  0
 13  8  4  0  0  0
  9 10  4  0  0  0
 13  9  4  0  0  0
 10 11  4  0  0  0
 12 13  1  0  0  0
 12 14  1  0  0  0
  2 15  1  0  0  0
  3 16  1  0  0  0
  5 17  1  0  0  0
  6 18  1  0  0  0
  7 19  1  0  0  0
  8 20  1  0  0  0
  9 21  1  0  0  0
 10 22  1  0  0  0
 11 23  1  0  0  0
 12 24  1  0  0  0
 12 25  1  0  0  0
 14 26  1  0  0  0
M  END
$$$$
