2hz0_ligand
  -I-interpret- 

 53 55  0  0  0  0  0  0  0  0999 V2000
   17.2420   46.0320   56.8250 C   0  0  0  0  0
   15.7470   47.8320   57.4430 C   0  0  0  0  0
   14.4090   50.3600   56.9830 C   0  0  0  0  0
   14.8590   49.9640   58.3070 C   0  0  0  0  0
   15.5090   48.7220   58.5360 C   0  0  0  0  0
   13.7030   51.7030   56.8420 C   0  0  0  0  0
   12.1600   51.6060   57.1500 C   0  0  0  0  0
   11.5280   53.0130   57.0430 C   0  0  0  0  0
   21.1330   44.7780   55.7300 C   0  0  0  0  0
   21.5200   43.7220   54.6540 C   0  0  0  0  0
   22.9030   43.5140   54.3430 C   0  0  0  0  0
   23.2970   42.6080   53.4130 C   0  0  0  0  0
   17.6950   44.6690   57.2480 C   0  0  0  0  0
   16.9120   43.9220   58.1500 C   0  0  0  0  0
   17.3140   42.6430   58.5800 C   0  0  0  0  0
   18.5090   42.0730   58.0980 C   0  0  0  0  0
   19.2990   42.8130   57.1600 C   0  0  0  0  0
   18.8950   44.0910   56.7410 C   0  0  0  0  0
   19.6700   44.8250   55.8060 N   0  0  0  0  0
   16.3500   46.5940   57.6570 N   0  0  0  0  0
   17.6800   46.5710   55.7840 O   0  0  0  0  0
   15.3110   48.2240   56.1630 C   0  0  0  0  0
   14.6630   49.4880   55.9000 C   0  0  0  0  0
   14.2360   49.8090   54.4500 C   0  0  0  0  0
   14.5140   48.8110   53.5930 F   0  0  0  0  0
   12.9660   50.0550   54.2750 F   0  0  0  0  0
   14.8620   50.8670   53.9810 F   0  0  0  0  0
   22.3460   41.8030   52.6680 C   0  0  0  0  0
   21.0100   42.0490   53.0140 N   0  0  0  0  0
   20.5990   42.9810   53.9710 C   0  0  0  0  0
   22.6730   40.9640   51.8600 O   0  0  0  0  0
   14.6932   50.6384   59.1471 H   0  0  0  0  0
   15.8255   48.4483   59.5425 H   0  0  0  0  0
   13.8208   52.0394   55.8119 H   0  0  0  0  0
   14.1471   52.3943   57.5582 H   0  0  0  0  0
   12.0128   51.2156   58.1570 H   0  0  0  0  0
   11.6859   50.9375   56.4314 H   0  0  0  0  0
   12.0033   53.6791   57.7631 H   0  0  0  0  0
   11.6758   53.4006   56.0350 H   0  0  0  0  0
   10.4609   52.9477   57.2557 H   0  0  0  0  0
   21.5294   45.7566   55.4594 H   0  0  0  0  0
   21.5535   44.5039   56.6975 H   0  0  0  0  0
   23.6586   44.0990   54.8673 H   0  0  0  0  0
   23.8544   41.8727   53.9932 H   0  0  0  0  0
   23.7701   43.2199   52.6450 H   0  0  0  0  0
   15.9775   44.3421   58.5219 H   0  0  0  0  0
   16.6976   42.0909   59.2895 H   0  0  0  0  0
   18.8268   41.0857   58.4332 H   0  0  0  0  0
   20.2201   42.3812   56.7687 H   0  0  0  0  0
   19.1770   45.4241   55.1439 H   0  0  0  0  0
   16.0972   46.0807   58.5014 H   0  0  0  0  0
   15.4702   47.5400   55.3294 H   0  0  0  0  0
   19.5366   43.1171   54.1733 H   0  0  0  0  0
 13  1  1  0  0  0
  1 20  1  0  0  0
  1 21  2  0  0  0
  2  5  4  0  0  0
 20  2  1  0  0  0
  2 22  4  0  0  0
  4  3  4  0  0  0
  3  6  1  0  0  0
  3 23  4  0  0  0
  5  4  4  0  0  0
  6  7  1  0  0  0
  7  8  1  0  0  0
  9 10  1  0  0  0
 19  9  1  0  0  0
 10 11  2  0  0  0
 10 30  1  0  0  0
 11 12  1  0  0  0
 12 28  1  0  0  0
 13 14  4  0  0  0
 18 13  4  0  0  0
 14 15  4  0  0  0
 16 15  4  0  0  0
 17 16  4  0  0  0
 18 17  4  0  0  0
 18 19  1  0  0  0
 22 23  4  0  0  0
 23 24  1  0  0  0
 24 25  1  0  0  0
 24 26  1  0  0  0
 24 27  1  0  0  0
 28 29  1  0  0  0
 28 31  2  0  0  0
 29 30  2  0  0  0
  4 32  1  0  0  0
  5 33  1  0  0  0
  6 34  1  0  0  0
  6 35  1  0  0  0
  7 36  1  0  0  0
  7 37  1  0  0  0
  8 38  1  0  0  0
  8 39  1  0  0  0
  8 40  1  0  0  0
  9 41  1  0  0  0
  9 42  1  0  0  0
 11 43  1  0  0  0
 12 44  1  0  0  0
 12 45  1  0  0  0
 14 46  1  0  0  0
 15 47  1  0  0  0
 16 48  1  0  0  0
 17 49  1  0  0  0
 19 50  1  0  0  0
 20 51  1  0  0  0
 22 52  1  0  0  0
 30 53  1  0  0  0
M  END
$$$$
