1wqv_ligand
  -I-interpret- 

 65 65  0  0  0  0  0  0  0  0999 V2000
   35.7210    6.8580   10.2520 C   0  0  0  0  0
   34.8600    7.1780   11.0710 O   0  0  0  0  0
   35.6850    7.1580    8.9410 N   0  0  0  0  0
   34.6010    7.9960    8.5170 C   0  0  0  0  0
   34.8210    8.5880    7.1290 C   0  0  0  0  0
   36.1320    9.4050    7.0500 C   0  0  0  0  0
   33.2660    7.2910    8.7430 C   0  0  0  0  0
   33.1530    6.0740    8.5970 O   0  0  0  0  0
   32.2980    8.1570    9.1280 N   0  0  0  0  0
   31.0040    7.6190    9.4260 C   0  0  0  0  0
   31.5870    6.4110   11.5780 C   0  0  0  0  0
   31.3830    6.1550   12.9350 C   0  0  0  0  0
   30.3810    6.8510   13.6590 C   0  0  0  0  0
   29.5340    7.7550   12.9600 C   0  0  0  0  0
   29.7170    7.9760   11.5790 C   0  0  0  0  0
   30.7600    7.3300   10.8880 C   0  0  0  0  0
   30.2370    6.6420   15.1310 C   0  0  0  0  0
   30.8140    5.6160   15.7290 N   0  0  0  0  0
   36.4010   10.5630    8.4490 S   0  0  0  0  0
   38.0640    6.9970   11.2430 C   0  0  0  0  0
   39.1720    6.2450   11.7560 O   0  0  0  0  0
   36.6300    5.0550   11.6950 N   0  0  0  0  0
   36.9700    6.0480   10.6700 C   0  0  0  0  0
   38.4400    8.2660   10.4070 C   0  0  0  0  0
   36.3490    3.4150   11.2040 S   0  0  0  0  0
   36.2250    2.6990   12.4130 O   0  0  0  0  0
   37.4440    3.1100   10.3350 O   0  0  0  0  0
   34.8370    3.3420   10.3280 C   0  0  0  0  0
   33.7030    3.3120   11.3070 C   0  0  0  0  0
   29.5190    7.4510   15.9080 N   0  0  0  0  0
   34.9610   11.6560    8.2330 C   0  0  0  0  0
   32.3880    3.1950   10.5600 C   0  0  0  0  0
   36.3868    6.8102    8.2876 H   0  0  0  0  0
   34.5665    8.8847    9.1472 H   0  0  0  0  0
   33.9887    9.2560    6.9070 H   0  0  0  0  0
   34.8867    7.7675    6.4145 H   0  0  0  0  0
   36.0747   10.0094    6.1448 H   0  0  0  0  0
   36.9534    8.6888    7.0690 H   0  0  0  0  0
   32.4839    9.1571    9.2031 H   0  0  0  0  0
   30.9272    6.6684    8.8983 H   0  0  0  0  0
   30.2724    8.3689    9.1252 H   0  0  0  0  0
   32.3890    5.8996   11.0456 H   0  0  0  0  0
   31.9994    5.4134   13.4431 H   0  0  0  0  0
   28.7408    8.2788   13.4934 H   0  0  0  0  0
   29.0479    8.6500   11.0442 H   0  0  0  0  0
   31.3668    4.9535   15.1850 H   0  0  0  0  0
   37.5840    7.4966   12.0845 H   0  0  0  0  0
   39.8332    6.8481   12.1035 H   0  0  0  0  0
   36.5602    5.3234   12.6766 H   0  0  0  0  0
   37.3458    5.5393    9.7823 H   0  0  0  0  0
   39.0161    8.9514   11.0286 H   0  0  0  0  0
   39.0357    7.9678    9.5443 H   0  0  0  0  0
   37.5290    8.7593   10.0681 H   0  0  0  0  0
   34.8134    2.4428    9.7124 H   0  0  0  0  0
   34.7432    4.2175    9.6855 H   0  0  0  0  0
   33.7060    4.2313   11.8927 H   0  0  0  0  0
   33.8200    2.4550   11.9703 H   0  0  0  0  0
   29.4392    7.2604   16.9068 H   0  0  0  0  0
   29.0489    8.2612   15.5042 H   0  0  0  0  0
   35.0082   12.1272    7.2513 H   0  0  0  0  0
   34.0459   11.0691    8.3121 H   0  0  0  0  0
   34.9699   12.4237    9.0067 H   0  0  0  0  0
   32.2713    4.0516    9.8961 H   0  0  0  0  0
   32.3852    2.2762    9.9736 H   0  0  0  0  0
   31.5659    3.1735   11.2754 H   0  0  0  0  0
  1  2  2  0  0  0
  1  3  1  0  0  0
 23  1  1  0  0  0
  3  4  1  0  0  0
  4  5  1  0  0  0
  4  7  1  0  0  0
  5  6  1  0  0  0
  6 19  1  0  0  0
  7  8  2  0  0  0
  7  9  1  0  0  0
  9 10  1  0  0  0
 10 16  1  0  0  0
 11 12  4  0  0  0
 16 11  4  0  0  0
 12 13  4  0  0  0
 14 13  4  0  0  0
 13 17  1  0  0  0
 15 14  4  0  0  0
 16 15  4  0  0  0
 17 18  2  0  0  0
 17 30  1  0  0  0
 19 31  1  0  0  0
 20 21  1  0  0  0
 20 23  1  0  0  0
 20 24  1  0  0  0
 23 22  1  0  0  0
 22 25  1  0  0  0
 25 26  2  0  0  0
 25 27  2  0  0  0
 25 28  1  0  0  0
 28 29  1  0  0  0
 29 32  1  0  0  0
  3 33  1  0  0  0
  4 34  1  0  0  0
  5 35  1  0  0  0
  5 36  1  0  0  0
  6 37  1  0  0  0
  6 38  1  0  0  0
  9 39  1  0  0  0
 10 40  1  0  0  0
 10 41  1  0  0  0
 11 42  1  0  0  0
 12 43  1  0  0  0
 14 44  1  0  0  0
 15 45  1  0  0  0
 18 46  1  0  0  0
 20 47  1  0  0  0
 21 48  1  0  0  0
 22 49  1  0  0  0
 23 50  1  0  0  0
 24 51  1  0  0  0
 24 52  1  0  0  0
 24 53  1  0  0  0
 28 54  1  0  0  0
 28 55  1  0  0  0
 29 56  1  0  0  0
 29 57  1  0  0  0
 30 58  1  0  0  0
 30 59  1  0  0  0
 31 60  1  0  0  0
 31 61  1  0  0  0
 31 62  1  0  0  0
 32 63  1  0  0  0
 32 64  1  0  0  0
 32 65  1  0  0  0
M  END
$$$$
