4wmx_ligand
  -I-interpret- 

 34 35  0  0  0  0  0  0  0  0999 V2000
   10.8890  192.2890   37.9830 C   0  0  0  0  0
   11.3990  192.4330   36.7000 C   0  0  0  0  0
   10.2780  192.8920   33.2820 O   0  0  0  0  0
   11.0900  192.7880   34.2350 C   0  0  0  0  0
   12.3360  192.8210   34.0330 O   0  0  0  0  0
   10.5330  192.6330   35.6380 C   0  0  0  0  0
    9.1600  192.6840   35.8430 C   0  0  0  0  0
    8.6480  192.5430   37.1250 C   0  0  0  0  0
    9.5120  192.3430   38.1960 C   0  0  0  0  0
    8.9300  192.1870   39.6020 C   0  0  0  0  0
    9.7170  192.0300   40.6520 C   0  0  0  0  0
   12.8310  192.3820   36.4530 N   0  0  0  0  0
   13.8020  193.5700   37.2160 S   0  0  0  0  0
   13.6590  193.4600   38.6580 O   0  0  0  0  0
   15.2270  193.4250   36.9460 O   0  0  0  0  0
   13.2210  195.2230   36.7620 C   0  0  0  0  0
   13.6990  195.8280   35.6150 C   0  0  0  0  0
   13.2380  197.0940   35.2890 C   0  0  0  0  0
   12.3150  197.7320   36.1070 C   0  0  0  0  0
   11.8490  197.1190   37.2510 C   0  0  0  0  0
   12.3110  195.8610   37.5850 C   0  0  0  0  0
   11.5649  192.1337   38.8239 H   0  0  0  0  0
   12.7973  192.7277   34.8697 H   0  0  0  0  0
    8.4867  192.8344   34.9991 H   0  0  0  0  0
    7.5718  192.5889   37.2920 H   0  0  0  0  0
    7.8489  192.2056   39.7401 H   0  0  0  0  0
   10.7993  192.0101   40.5238 H   0  0  0  0  0
    9.2839  191.9204   41.6462 H   0  0  0  0  0
   13.2407  191.6684   35.8503 H   0  0  0  0  0
   14.4241  195.3198   34.9794 H   0  0  0  0  0
   13.6008  197.5897   34.3886 H   0  0  0  0  0
   11.9555  198.7264   35.8425 H   0  0  0  0  0
   11.1215  197.6235   37.8869 H   0  0  0  0  0
   11.9596  195.3728   38.4940 H   0  0  0  0  0
  2  1  4  0  0  0
  1  9  4  0  0  0
  6  2  4  0  0  0
  2 12  1  0  0  0
  4  3  2  0  0  0
  4  5  1  0  0  0
  4  6  1  0  0  0
  6  7  4  0  0  0
  7  8  4  0  0  0
  8  9  4  0  0  0
  9 10  1  0  0  0
 10 11  2  0  0  0
 12 13  1  0  0  0
 13 14  2  0  0  0
 13 15  2  0  0  0
 13 16  1  0  0  0
 16 17  4  0  0  0
 16 21  4  0  0  0
 17 18  4  0  0  0
 18 19  4  0  0  0
 19 20  4  0  0  0
 20 21  4  0  0  0
  1 22  1  0  0  0
  5 23  1  0  0  0
  7 24  1  0  0  0
  8 25  1  0  0  0
 10 26  1  0  0  0
 11 27  1  0  0  0
 11 28  1  0  0  0
 12 29  1  0  0  0
 17 30  1  0  0  0
 18 31  1  0  0  0
 19 32  1  0  0  0
 20 33  1  0  0  0
 21 34  1  0  0  0
M  END
$$$$
