1pr5_ligand
  -I-interpret- 

 33 35  0  0  0  0  0  0  0  0999 V2000
   93.1020   65.3430   17.0350 O   0  0  0  0  0
   92.9520   64.2410   17.9490 C   0  0  0  0  0
   93.3630   64.6330   19.3910 C   0  0  0  0  0
   93.0510   65.9980   19.6980 O   0  0  0  0  0
   91.8750   66.0560   20.5210 C   0  0  0  0  0
   90.8320   66.7750   19.7220 N   0  0  0  0  0
   90.7280   68.1580   19.5650 C   0  0  0  0  0
   89.6670   68.4780   18.7670 C   0  0  0  0  0
   89.0920   67.2960   18.4130 C   0  0  0  0  0
   87.9540   67.1120   17.5810 C   0  0  0  0  0
   87.6000   65.7900   17.3980 N   0  0  0  0  0
   88.3190   64.7970   17.9910 C   0  0  0  0  0
   89.4130   64.9040   18.7920 N   0  0  0  0  0
   89.7640   66.2270   18.9720 C   0  0  0  0  0
   87.2630   68.1100   17.0060 N   0  0  0  0  0
   91.6160   64.6470   21.0890 C   0  0  0  0  0
   91.8140   64.7190   22.5020 O   0  0  0  0  0
   92.6290   63.7410   20.3970 C   0  0  0  0  0
   93.5020   63.0550   21.3100 O   0  0  0  0  0
   92.8393   65.0650   16.1545 H   0  0  0  0  0
   93.5979   63.4284   17.6165 H   0  0  0  0  0
   91.9034   63.9435   17.9594 H   0  0  0  0  0
   94.4430   64.5017   19.4578 H   0  0  0  0  0
   91.9319   66.6449   21.4365 H   0  0  0  0  0
   91.4025   68.8845   20.0181 H   0  0  0  0  0
   89.3457   69.4772   18.4731 H   0  0  0  0  0
   87.9717   63.7820   17.7981 H   0  0  0  0  0
   87.5463   69.0785   17.1551 H   0  0  0  0  0
   86.4549   67.8994   16.4203 H   0  0  0  0  0
   90.6105   64.2632   20.9163 H   0  0  0  0  0
   91.1534   65.2992   22.8874 H   0  0  0  0  0
   92.1309   62.9163   19.8872 H   0  0  0  0  0
   94.1124   62.5041   20.8145 H   0  0  0  0  0
  1  2  1  0  0  0
  2  3  1  0  0  0
  3  4  1  0  0  0
  3 18  1  0  0  0
  4  5  1  0  0  0
  5  6  1  0  0  0
  5 16  1  0  0  0
  6  7  4  0  0  0
  6 14  4  0  0  0
  7  8  4  0  0  0
  8  9  4  0  0  0
  9 10  4  0  0  0
  9 14  4  0  0  0
 10 11  4  0  0  0
 10 15  1  0  0  0
 11 12  4  0  0  0
 12 13  4  0  0  0
 13 14  4  0  0  0
 16 17  1  0  0  0
 16 18  1  0  0  0
 18 19  1  0  0  0
  1 20  1  0  0  0
  2 21  1  0  0  0
  2 22  1  0  0  0
  3 23  1  0  0  0
  5 24  1  0  0  0
  7 25  1  0  0  0
  8 26  1  0  0  0
 12 27  1  0  0  0
 15 28  1  0  0  0
 15 29  1  0  0  0
 16 30  1  0  0  0
 17 31  1  0  0  0
 18 32  1  0  0  0
 19 33  1  0  0  0
M  END
$$$$
