4io5_ligand
  -I-interpret- 

 14 13  0  0  0  0  0  0  0  0999 V2000
    3.6780   49.0990   -7.5620 N   0  3  0  0  0
    3.3400   50.5220   -7.6630 C   0  0  0  0  0
    1.9460   50.7850   -7.1650 C   0  0  0  0  0
    1.1720   49.8130   -6.9740 O   0  0  0  0  0
    3.4880   50.9890   -9.0990 C   0  0  0  0  0
    1.5490   51.9380   -6.9440 O   0  0  0  0  0
    3.5757   48.7943   -6.5940 H   0  0  0  0  0
    3.0508   48.5587   -8.1578 H   0  0  0  0  0
    4.6419   48.9574   -7.8642 H   0  0  0  0  0
    4.0301   51.0840   -7.0337 H   0  0  0  0  0
    1.6271   48.9958   -7.1898 H   0  0  0  0  0
    2.7790   50.4522   -9.7292 H   0  0  0  0  0
    3.2875   52.0590   -9.1542 H   0  0  0  0  0
    4.5035   50.7902   -9.4415 H   0  0  0  0  0
  1  2  1  0  0  0
  2  3  1  0  0  0
  2  5  1  0  0  0
  3  4  1  0  0  0
  3  6  2  0  0  0
  1  7  1  0  0  0
  1  8  1  0  0  0
  1  9  1  0  0  0
  2 10  1  0  0  0
  4 11  1  0  0  0
  5 12  1  0  0  0
  5 13  1  0  0  0
  5 14  1  0  0  0
M  END
$$$$
