3o9e_ligand
  -I-interpret- 

 81 84  0  0  0  0  0  0  0  0999 V2000
   14.1220   34.9960   18.1770 N   0  0  0  0  0
   15.0450   34.4400   17.3340 C   0  0  0  0  0
   16.0790   35.1940   16.7600 C   0  0  0  0  0
   17.0010   34.5490   15.9040 C   0  0  0  0  0
   16.8810   33.1750   15.6100 C   0  0  0  0  0
   15.8160   32.4820   16.1860 C   0  0  0  0  0
   14.9120   33.0970   17.0460 C   0  0  0  0  0
   17.9220   32.3510   14.6640 S   0  0  0  0  0
   18.5510   33.2510   13.7270 O   0  0  0  0  0
   17.2320   31.2410   14.0660 O   0  0  0  0  0
   19.1350   31.7400   15.5410 N   0  0  0  0  0
   19.8370   32.7500   16.3720 C   0  0  0  0  0
   21.3460   32.5390   16.4010 C   0  0  0  0  0
   21.9630   32.6500   15.0040 C   0  0  0  0  0
   21.9710   33.5400   17.3890 C   0  0  0  0  0
   18.8900   30.4560   16.2290 C   0  0  0  0  0
   19.8470   29.3850   15.6840 C   0  0  0  0  0
   21.8570   34.9960   16.9810 C   0  0  0  0  0
   19.8090   28.2110   16.5400 O   0  0  0  0  0
   19.5310   28.9630   14.2500 C   0  0  0  0  0
   23.4170   32.2320   14.8960 C   0  0  0  0  0
   20.6360   28.1570   13.7800 N   0  0  0  0  0
   21.5070   28.5430   12.8640 C   0  0  0  0  0
   21.5780   29.5870   12.2530 O   0  0  0  0  0
   22.4610   27.5140   12.6150 O   0  0  0  0  0
   23.2940   27.6600   11.4710 C   0  0  0  0  0
   24.6080   27.0590   11.9260 C   0  0  0  0  0
   24.4060   25.6500   11.7980 O   0  0  0  0  0
   23.5230   25.3880   10.7120 C   0  0  0  0  0
   22.5430   24.4650   11.1440 O   0  0  0  0  0
   21.2680   25.0990   11.1960 C   0  0  0  0  0
   21.3660   26.3480   10.3170 C   0  0  0  0  0
   22.8460   26.7100   10.3840 C   0  0  0  0  0
   18.2300   28.1730   14.1010 C   0  0  0  0  0
   18.0640   26.4150   12.2380 C   0  0  0  0  0
   17.8720   26.0870   10.9020 C   0  0  0  0  0
   17.5830   27.0730    9.9760 C   0  0  0  0  0
   17.5110   28.3840   10.3910 C   0  0  0  0  0
   17.7040   28.7160   11.7220 C   0  0  0  0  0
   17.9890   27.7380   12.6660 C   0  0  0  0  0
   14.1730   35.9887   18.4057 H   0  0  0  0  0
   13.3829   34.4178   18.5768 H   0  0  0  0  0
   16.1702   36.2596   16.9704 H   0  0  0  0  0
   17.8171   35.1225   15.4645 H   0  0  0  0  0
   15.6881   31.4245   15.9547 H   0  0  0  0  0
   14.1013   32.5200   17.4909 H   0  0  0  0  0
   19.4662   32.6604   17.3931 H   0  0  0  0  0
   19.6440   33.7321   15.9404 H   0  0  0  0  0
   21.5591   31.5257   16.7415 H   0  0  0  0  0
   21.9224   33.7042   14.7301 H   0  0  0  0  0
   21.3979   31.9752   14.3611 H   0  0  0  0  0
   23.0351   33.3094   17.4409 H   0  0  0  0  0
   21.4315   33.4330   18.3301 H   0  0  0  0  0
   17.8606   30.1432   16.0540 H   0  0  0  0  0
   19.0596   30.5813   17.2984 H   0  0  0  0  0
   20.8403   29.8338   15.6780 H   0  0  0  0  0
   22.3586   35.1444   16.0247 H   0  0  0  0  0
   20.8048   35.2641   16.8863 H   0  0  0  0  0
   22.3260   35.6224   17.7398 H   0  0  0  0  0
   20.4085   27.5453   16.1950 H   0  0  0  0  0
   19.3942   29.8709   13.6625 H   0  0  0  0  0
   24.0233   32.8580   15.5507 H   0  0  0  0  0
   23.5168   31.1884   15.1944 H   0  0  0  0  0
   23.7521   32.3503   13.8656 H   0  0  0  0  0
   20.7510   27.2271   14.1830 H   0  0  0  0  0
   23.3073   28.6914   11.1186 H   0  0  0  0  0
   24.8642   27.3489   12.9450 H   0  0  0  0  0
   25.4513   27.4113   11.3320 H   0  0  0  0  0
   24.0484   24.9821    9.8475 H   0  0  0  0  0
   21.0055   25.3630   12.2204 H   0  0  0  0  0
   20.4854   24.4304   10.8374 H   0  0  0  0  0
   20.7207   27.1556   10.6626 H   0  0  0  0  0
   21.0233   26.1712    9.2975 H   0  0  0  0  0
   23.0868   27.2126    9.4473 H   0  0  0  0  0
   17.4042   28.8161   14.4052 H   0  0  0  0  0
   18.3015   27.2790   14.7205 H   0  0  0  0  0
   18.2760   25.6269   12.9605 H   0  0  0  0  0
   17.9494   25.0479   10.5819 H   0  0  0  0  0
   17.4143   26.8154    8.9304 H   0  0  0  0  0
   17.2999   29.1688    9.6646 H   0  0  0  0  0
   17.6312   29.7583   12.0324 H   0  0  0  0  0
  2  1  1  0  0  0
  3  2  4  0  0  0
  7  2  4  0  0  0
  4  3  4  0  0  0
  5  4  4  0  0  0
  5  6  4  0  0  0
  8  5  1  0  0  0
  6  7  4  0  0  0
  8  9  2  0  0  0
  8 10  2  0  0  0
 11  8  1  0  0  0
 11 12  1  0  0  0
 16 11  1  0  0  0
 12 13  1  0  0  0
 13 14  1  0  0  0
 13 15  1  0  0  0
 14 21  1  0  0  0
 15 18  1  0  0  0
 17 16  1  0  0  0
 17 19  1  0  0  0
 20 17  1  0  0  0
 20 22  1  0  0  0
 34 20  1  0  0  0
 22 23  1  0  0  0
 23 24  2  0  0  0
 23 25  1  0  0  0
 25 26  1  0  0  0
 26 27  1  0  0  0
 26 33  1  0  0  0
 27 28  1  0  0  0
 29 28  1  0  0  0
 29 30  1  0  0  0
 33 29  1  0  0  0
 31 30  1  0  0  0
 32 31  1  0  0  0
 33 32  1  0  0  0
 40 34  1  0  0  0
 35 36  4  0  0  0
 35 40  4  0  0  0
 36 37  4  0  0  0
 37 38  4  0  0  0
 38 39  4  0  0  0
 39 40  4  0  0  0
  1 41  1  0  0  0
  1 42  1  0  0  0
  3 43  1  0  0  0
  4 44  1  0  0  0
  6 45  1  0  0  0
  7 46  1  0  0  0
 12 47  1  0  0  0
 12 48  1  0  0  0
 13 49  1  0  0  0
 14 50  1  0  0  0
 14 51  1  0  0  0
 15 52  1  0  0  0
 15 53  1  0  0  0
 16 54  1  0  0  0
 16 55  1  0  0  0
 17 56  1  0  0  0
 18 57  1  0  0  0
 18 58  1  0  0  0
 18 59  1  0  0  0
 19 60  1  0  0  0
 20 61  1  0  0  0
 21 62  1  0  0  0
 21 63  1  0  0  0
 21 64  1  0  0  0
 22 65  1  0  0  0
 26 66  1  0  0  0
 27 67  1  0  0  0
 27 68  1  0  0  0
 29 69  1  0  0  0
 31 70  1  0  0  0
 31 71  1  0  0  0
 32 72  1  0  0  0
 32 73  1  0  0  0
 33 74  1  0  0  0
 34 75  1  0  0  0
 34 76  1  0  0  0
 35 77  1  0  0  0
 36 78  1  0  0  0
 37 79  1  0  0  0
 38 80  1  0  0  0
 39 81  1  0  0  0
M  END
$$$$
