### 
### Created by X-TOOL on Mon Aug  2 16:12:44 2021
### 

@<TRIPOS>MOLECULE
6c5j_ligand
  133   137     1     0     0
SMALL
GAST_HUCK


@<TRIPOS>ATOM
      1 C1B       153.5830  -24.9210    1.6660 C.3       1 GP1         0.2337
      2 C2B       153.7920  -24.0470    2.9210 C.3       1 GP1         0.0611
      3 C3B       154.0280  -24.9180    4.1650 C.3       1 GP1         0.1307
      4 C4B       152.8900  -25.9020    4.3160 C.3       1 GP1         0.1148
      5 C5B       152.8330  -26.7130    3.0450 C.3       1 GP1         0.1139
      6 C6B       151.7390  -27.7530    3.0570 C.3       1 GP1         0.0797
      7 N2B       154.9050  -23.1070    2.7360 N.4       1 GP1         0.2265
      8 O1B       154.8420  -25.5730    1.2930 O.3       1 GP1        -0.2394
      9 O3B       154.1210  -24.0780    5.3330 O.3       1 GP1        -0.3833
     10 O4B       153.1610  -26.7590    5.4240 O.3       1 GP1        -0.3864
     11 O5B       152.0540  -28.6290    1.9810 O.3       1 GP1        -0.3437
     12 O6B       152.5140  -25.8530    1.9300 O.3       1 GP1        -0.3348
     13 O7B       155.6870  -27.7950    0.4260 O.co2     1 GP1        -0.5536
     14 P4B       155.0150  -26.5480   -0.0210 P.3       1 GP1         0.2048
     15 O8B       156.0430  -25.7400   -0.9560 O.co2     1 GP1        -0.5536
     16 O9B       153.7150  -26.6050   -0.7270 O.co2     1 GP1        -0.5536
     17 N1        152.1880  -28.7920   -0.9100 N.4       1 GP1         0.2263
     18 P1        147.6580  -32.5890   -1.3410 P.3       1 GP1         0.2013
     19 O6        147.5190  -29.9890    3.0870 O.3       1 GP1        -0.3441
     20 O3        151.0190  -31.5540   -1.5250 O.3       1 GP1        -0.3830
     21 C1        150.9360  -29.0500    1.1990 C.3       1 GP1         0.2055
     22 O4        148.1060  -31.2060   -0.6930 O.3       1 GP1        -0.2674
     23 C2        151.4700  -29.7500   -0.0460 C.3       1 GP1         0.0571
     24 O5        150.1810  -29.9960    1.9540 O.3       1 GP1        -0.3378
     25 C3        150.3680  -30.4990   -0.8230 C.3       1 GP1         0.1351
     26 O9        148.7950  -32.8190   -2.4350 O.co2     1 GP1        -0.5537
     27 C4        149.2890  -31.1260    0.0690 C.3       1 GP1         0.1486
     28 O7        146.4080  -32.3590   -2.1100 O.co2     1 GP1        -0.5537
     29 C5        148.9840  -30.2660    1.2570 C.3       1 GP1         0.1181
     30 O8        147.7590  -33.6630   -0.3100 O.co2     1 GP1        -0.5537
     31 C6        148.0900  -30.9980    2.2400 C.3       1 GP1         0.0790
     32 C1        145.8330  -31.4050    4.1920 C.2       1 GP1         0.1041
     33 O1A       144.9430  -31.0980    3.3680 O.co2     1 GP1        -0.5426
     34 O1B       145.8080  -32.4480    4.8920 O.co2     1 GP1        -0.5426
     35 C2        147.0320  -30.4230    4.3560 C.3       1 GP1         0.2205
     36 C3        146.6030  -29.1540    5.0620 C.3       1 GP1         0.0358
     37 C4        147.8050  -28.3130    5.4730 C.3       1 GP1         0.0937
     38 O4        147.3740  -27.2360    6.3010 O.3       1 GP1        -0.3407
     39 C5        148.7750  -29.1400    6.2830 C.3       1 GP1         0.1098
     40 O5        148.1060  -29.6690    7.4090 O.3       1 GP1        -0.3866
     41 C6        149.2320  -30.3040    5.3970 C.3       1 GP1         0.1170
     42 O6        148.0500  -31.0900    5.1290 O.3       1 GP1        -0.3381
     43 C7        150.3340  -31.1900    6.0440 C.3       1 GP1         0.1067
     44 O7        151.4350  -30.3860    6.5140 O.3       1 GP1        -0.3869
     45 C8        150.8630  -32.1880    4.9940 C.3       1 GP1         0.0727
     46 O8        151.4070  -33.3390    5.6330 O.3       1 GP1        -0.3924
     47 C1        149.0560  -25.6690    5.5070 C.2       1 GP1         0.1041
     48 O1A       149.3570  -25.3050    4.3430 O.co2     1 GP1        -0.5426
     49 O1B       149.8610  -25.8690    6.4460 O.co2     1 GP1        -0.5426
     50 C2        147.5660  -25.8990    5.8280 C.3       1 GP1         0.2207
     51 C3        147.1890  -24.9090    6.9390 C.3       1 GP1         0.0356
     52 C4        145.6780  -24.8550    7.1990 C.3       1 GP1         0.0880
     53 O4        145.4160  -23.7300    8.0310 O.3       1 GP1        -0.3891
     54 C5        144.8170  -24.7640    5.9060 C.3       1 GP1         0.1096
     55 O5        144.8070  -23.4430    5.3320 O.3       1 GP1        -0.3866
     56 C6        145.3040  -25.8110    4.8950 C.3       1 GP1         0.1170
     57 O6        146.7160  -25.6650    4.6590 O.3       1 GP1        -0.3381
     58 C7        144.6250  -25.6930    3.5370 C.3       1 GP1         0.1069
     59 O7        145.0850  -24.5340    2.8410 O.3       1 GP1        -0.3869
     60 C8        143.1260  -25.5670    3.6730 C.3       1 GP1         0.0783
     61 O8        142.5840  -25.8130    2.3860 O.3       1 GP1        -0.3441
     62 C1        140.2970  -25.2140    3.2290 C.2       1 GP1         0.1041
     63 O1A       139.8190  -24.1120    3.6250 O.co2     1 GP1        -0.5426
     64 O1B       139.9370  -26.3530    3.6460 O.co2     1 GP1        -0.5426
     65 C2        141.3810  -25.1310    2.0890 C.3       1 GP1         0.2205
     66 C3        140.8110  -25.7730    0.8100 C.3       1 GP1         0.0356
     67 C4        141.5900  -25.4150   -0.4660 C.3       1 GP1         0.0880
     68 O4        140.7470  -25.7320   -1.5970 O.3       1 GP1        -0.3891
     69 C5        141.8580  -23.9560   -0.5590 C.3       1 GP1         0.1096
     70 O5        140.5880  -23.3220   -0.7820 O.3       1 GP1        -0.3866
     71 C6        142.5470  -23.4380    0.7360 C.3       1 GP1         0.1170
     72 O6        141.7650  -23.7440    1.9030 O.3       1 GP1        -0.3381
     73 C7        142.6500  -21.9190    0.7400 C.3       1 GP1         0.1067
     74 O7        143.2570  -21.4210   -0.4370 O.3       1 GP1        -0.3869
     75 C8        143.4760  -21.4800    1.9560 C.3       1 GP1         0.0727
     76 O8        144.7690  -22.0290    1.8710 O.3       1 GP1        -0.3924
     77 H1        153.2765  -24.2750    0.8301 H         1 GP1         0.1023
     78 H2        152.8749  -23.4616    3.0826 H         1 GP1         0.0931
     79 H3        154.9702  -25.4730    4.0454 H         1 GP1         0.0679
     80 H4        151.9396  -25.3714    4.4746 H         1 GP1         0.0648
     81 H5        153.8075  -27.1989    2.8895 H         1 GP1         0.0647
     82 H6        150.7570  -27.2834    2.8987 H         1 GP1         0.0587
     83 H7        151.7347  -28.2991    4.0119 H         1 GP1         0.0587
     84 H8        154.7363  -22.5434    1.9175 H         1 GP1         0.2000
     85 H9        155.7636  -23.6218    2.6183 H         1 GP1         0.2000
     86 H10       154.9791  -22.5105    3.5452 H         1 GP1         0.2000
     87 H11       154.2769  -24.6183    6.0987 H         1 GP1         0.2102
     88 H12       153.1957  -26.2431    6.2209 H         1 GP1         0.2100
     89 H13       152.8988  -28.3216   -0.3719 H         1 GP1         0.2000
     90 H14       151.5370  -28.1133   -1.2727 H         1 GP1         0.2000
     91 H15       152.6186  -29.2870   -1.6753 H         1 GP1         0.2000
     92 H16       150.3760  -32.0466   -2.0214 H         1 GP1         0.2102
     93 H17       150.3102  -28.1886    0.9226 H         1 GP1         0.0970
     94 H18       152.1981  -30.5033    0.2891 H         1 GP1         0.0927
     95 H19       149.8881  -29.8053   -1.5291 H         1 GP1         0.0682
     96 H20       149.6105  -32.1245    0.4000 H         1 GP1         0.0704
     97 H21       148.5063  -29.3320    0.9264 H         1 GP1         0.0650
     98 H22       147.2970  -31.5401    1.7041 H         1 GP1         0.0586
     99 H23       148.6806  -31.7083    2.8372 H         1 GP1         0.0586
    100 H24       146.0290  -29.4214    5.9614 H         1 GP1         0.0336
    101 H25       145.9686  -28.5642    4.3840 H         1 GP1         0.0336
    102 H26       148.3043  -27.9227    4.5739 H         1 GP1         0.0623
    103 H27       149.6341  -28.5302    6.5993 H         1 GP1         0.0646
    104 H28       147.3845  -30.2151    7.1196 H         1 GP1         0.2100
    105 H29       149.6287  -29.8999    4.4540 H         1 GP1         0.0649
    106 H30       149.9011  -31.7416    6.8915 H         1 GP1         0.0643
    107 H31       152.0931  -30.9492    6.9040 H         1 GP1         0.2100
    108 H32       151.6467  -31.7019    4.3944 H         1 GP1         0.0584
    109 H33       150.0361  -32.4951    4.3369 H         1 GP1         0.0584
    110 H34       151.7282  -33.9434    4.9742 H         1 GP1         0.2095
    111 H35       147.5314  -23.9054    6.6466 H         1 GP1         0.0336
    112 H36       147.6947  -25.2131    7.8673 H         1 GP1         0.0336
    113 H37       145.3883  -25.7719    7.7331 H         1 GP1         0.0621
    114 H38       145.7026  -22.9384    7.5908 H         1 GP1         0.2099
    115 H39       143.7798  -25.0106    6.1770 H         1 GP1         0.0646
    116 H40       144.2693  -23.4433    4.5488 H         1 GP1         0.2100
    117 H41       145.1021  -26.8094    5.3103 H         1 GP1         0.0649
    118 H42       144.8614  -26.5915    2.9481 H         1 GP1         0.0643
    119 H43       144.8857  -23.7588    3.3527 H         1 GP1         0.2100
    120 H44       142.8586  -24.5550    4.0110 H         1 GP1         0.0586
    121 H45       142.7460  -26.3065    4.3932 H         1 GP1         0.0586
    122 H46       139.7711  -25.4362    0.6870 H         1 GP1         0.0336
    123 H47       140.8304  -26.8660    0.9326 H         1 GP1         0.0336
    124 H48       142.5331  -25.9801   -0.5017 H         1 GP1         0.0621
    125 H49       139.9453  -25.2250   -1.5449 H         1 GP1         0.2099
    126 H50       142.5217  -23.7555   -1.4130 H         1 GP1         0.0646
    127 H51       140.2087  -23.6503   -1.5887 H         1 GP1         0.2100
    128 H52       143.5467  -23.8900    0.8151 H         1 GP1         0.0649
    129 H53       141.6369  -21.4977    0.8179 H         1 GP1         0.0643
    130 H54       144.1346  -21.7765   -0.5141 H         1 GP1         0.2100
    131 H55       142.9883  -21.8328    2.8767 H         1 GP1         0.0584
    132 H56       143.5448  -20.3823    1.9750 H         1 GP1         0.0584
    133 H57       144.7089  -22.9769    1.8549 H         1 GP1         0.2095
@<TRIPOS>BOND
     1    1    2 1  
     2    1    8 1  
     3   12    1 1  
     4    3    2 1  
     5    2    7 1  
     6    4    3 1  
     7    3    9 1  
     8    5    4 1  
     9    4   10 1  
    10    6    5 1  
    11    5   12 1  
    12   11    6 1  
    13    8   14 1  
    14   21   11 1  
    15   14   13 ar 
    16   14   15 ar 
    17   14   16 ar 
    18   23   17 1  
    19   22   18 1  
    20   18   26 ar 
    21   18   28 ar 
    22   18   30 ar 
    23   19   31 1  
    24   35   19 1  
    25   25   20 1  
    26   21   23 1  
    27   24   21 1  
    28   27   22 1  
    29   25   23 1  
    30   29   24 1  
    31   27   25 1  
    32   29   27 1  
    33   31   29 1  
    34   32   33 ar 
    35   32   34 ar 
    36   35   32 1  
    37   36   35 1  
    38   35   42 1  
    39   37   36 1  
    40   38   37 1  
    41   37   39 1  
    42   50   38 1  
    43   39   40 1  
    44   39   41 1  
    45   41   42 1  
    46   41   43 1  
    47   43   44 1  
    48   43   45 1  
    49   45   46 1  
    50   47   48 ar 
    51   47   49 ar 
    52   50   47 1  
    53   50   51 1  
    54   57   50 1  
    55   52   51 1  
    56   52   53 1  
    57   54   52 1  
    58   54   55 1  
    59   56   54 1  
    60   56   57 1  
    61   58   56 1  
    62   58   59 1  
    63   60   58 1  
    64   61   60 1  
    65   65   61 1  
    66   62   63 ar 
    67   62   64 ar 
    68   62   65 1  
    69   65   66 1  
    70   65   72 1  
    71   66   67 1  
    72   67   68 1  
    73   67   69 1  
    74   69   70 1  
    75   69   71 1  
    76   71   72 1  
    77   71   73 1  
    78   73   74 1  
    79   73   75 1  
    80   75   76 1  
    81    1   77 1  
    82    2   78 1  
    83    3   79 1  
    84    4   80 1  
    85    5   81 1  
    86    6   82 1  
    87    6   83 1  
    88    7   84 1  
    89    7   85 1  
    90    7   86 1  
    91    9   87 1  
    92   10   88 1  
    93   17   89 1  
    94   17   90 1  
    95   17   91 1  
    96   20   92 1  
    97   21   93 1  
    98   23   94 1  
    99   25   95 1  
   100   27   96 1  
   101   29   97 1  
   102   31   98 1  
   103   31   99 1  
   104   36  100 1  
   105   36  101 1  
   106   37  102 1  
   107   39  103 1  
   108   40  104 1  
   109   41  105 1  
   110   43  106 1  
   111   44  107 1  
   112   45  108 1  
   113   45  109 1  
   114   46  110 1  
   115   51  111 1  
   116   51  112 1  
   117   52  113 1  
   118   53  114 1  
   119   54  115 1  
   120   55  116 1  
   121   56  117 1  
   122   58  118 1  
   123   59  119 1  
   124   60  120 1  
   125   60  121 1  
   126   66  122 1  
   127   66  123 1  
   128   67  124 1  
   129   68  125 1  
   130   69  126 1  
   131   70  127 1  
   132   71  128 1  
   133   73  129 1  
   134   74  130 1  
   135   75  131 1  
   136   75  132 1  
   137   76  133 1  
@<TRIPOS>SUBSTRUCTURE
     1 GP1         1

