6c5j_ligand
  -I-interpret- 

140144  0  0  0  0  0  0  0  0999 V2000
  153.5830  -24.9210    1.6660 C   0  0  0  0  0
  153.7920  -24.0470    2.9210 C   0  0  0  0  0
  154.0280  -24.9180    4.1650 C   0  0  0  0  0
  152.8900  -25.9020    4.3160 C   0  0  0  0  0
  152.8330  -26.7130    3.0450 C   0  0  0  0  0
  151.7390  -27.7530    3.0570 C   0  0  0  0  0
  154.9050  -23.1070    2.7360 N   0  3  0  0  0
  154.8420  -25.5730    1.2930 O   0  0  0  0  0
  154.1210  -24.0780    5.3330 O   0  0  0  0  0
  153.1610  -26.7590    5.4240 O   0  0  0  0  0
  152.0540  -28.6290    1.9810 O   0  0  0  0  0
  152.5140  -25.8530    1.9300 O   0  0  0  0  0
  155.6870  -27.7950    0.4260 O   0  0  0  0  0
  155.0150  -26.5480   -0.0210 P   0  0  0  0  0
  156.0430  -25.7400   -0.9560 O   0  0  0  0  0
  153.7150  -26.6050   -0.7270 O   0  0  0  0  0
  152.1880  -28.7920   -0.9100 N   0  3  0  0  0
  147.6580  -32.5890   -1.3410 P   0  0  0  0  0
  147.5190  -29.9890    3.0870 O   0  0  0  0  0
  151.0190  -31.5540   -1.5250 O   0  0  0  0  0
  150.9360  -29.0500    1.1990 C   0  0  0  0  0
  148.1060  -31.2060   -0.6930 O   0  0  0  0  0
  151.4700  -29.7500   -0.0460 C   0  0  0  0  0
  150.1810  -29.9960    1.9540 O   0  0  0  0  0
  150.3680  -30.4990   -0.8230 C   0  0  0  0  0
  148.7950  -32.8190   -2.4350 O   0  0  0  0  0
  149.2890  -31.1260    0.0690 C   0  0  0  0  0
  146.4080  -32.3590   -2.1100 O   0  0  0  0  0
  148.9840  -30.2660    1.2570 C   0  0  0  0  0
  147.7590  -33.6630   -0.3100 O   0  0  0  0  0
  148.0900  -30.9980    2.2400 C   0  0  0  0  0
  145.8330  -31.4050    4.1920 C   0  0  0  0  0
  144.9430  -31.0980    3.3680 O   0  0  0  0  0
  145.8080  -32.4480    4.8920 O   0  0  0  0  0
  147.0320  -30.4230    4.3560 C   0  0  0  0  0
  146.6030  -29.1540    5.0620 C   0  0  0  0  0
  147.8050  -28.3130    5.4730 C   0  0  0  0  0
  147.3740  -27.2360    6.3010 O   0  0  0  0  0
  148.7750  -29.1400    6.2830 C   0  0  0  0  0
  148.1060  -29.6690    7.4090 O   0  0  0  0  0
  149.2320  -30.3040    5.3970 C   0  0  0  0  0
  148.0500  -31.0900    5.1290 O   0  0  0  0  0
  150.3340  -31.1900    6.0440 C   0  0  0  0  0
  151.4350  -30.3860    6.5140 O   0  0  0  0  0
  150.8630  -32.1880    4.9940 C   0  0  0  0  0
  151.4070  -33.3390    5.6330 O   0  0  0  0  0
  149.0560  -25.6690    5.5070 C   0  0  0  0  0
  149.3570  -25.3050    4.3430 O   0  0  0  0  0
  149.8610  -25.8690    6.4460 O   0  0  0  0  0
  147.5660  -25.8990    5.8280 C   0  0  0  0  0
  147.1890  -24.9090    6.9390 C   0  0  0  0  0
  145.6780  -24.8550    7.1990 C   0  0  0  0  0
  145.4160  -23.7300    8.0310 O   0  0  0  0  0
  144.8170  -24.7640    5.9060 C   0  0  0  0  0
  144.8070  -23.4430    5.3320 O   0  0  0  0  0
  145.3040  -25.8110    4.8950 C   0  0  0  0  0
  146.7160  -25.6650    4.6590 O   0  0  0  0  0
  144.6250  -25.6930    3.5370 C   0  0  0  0  0
  145.0850  -24.5340    2.8410 O   0  0  0  0  0
  143.1260  -25.5670    3.6730 C   0  0  0  0  0
  142.5840  -25.8130    2.3860 O   0  0  0  0  0
  140.2970  -25.2140    3.2290 C   0  0  0  0  0
  139.8190  -24.1120    3.6250 O   0  0  0  0  0
  139.9370  -26.3530    3.6460 O   0  0  0  0  0
  141.3810  -25.1310    2.0890 C   0  0  0  0  0
  140.8110  -25.7730    0.8100 C   0  0  0  0  0
  141.5900  -25.4150   -0.4660 C   0  0  0  0  0
  140.7470  -25.7320   -1.5970 O   0  0  0  0  0
  141.8580  -23.9560   -0.5590 C   0  0  0  0  0
  140.5880  -23.3220   -0.7820 O   0  0  0  0  0
  142.5470  -23.4380    0.7360 C   0  0  0  0  0
  141.7650  -23.7440    1.9030 O   0  0  0  0  0
  142.6500  -21.9190    0.7400 C   0  0  0  0  0
  143.2570  -21.4210   -0.4370 O   0  0  0  0  0
  143.4760  -21.4800    1.9560 C   0  0  0  0  0
  144.7690  -22.0290    1.8710 O   0  0  0  0  0
  153.2904  -24.3147    0.8088 H   0  0  0  0  0
  152.8809  -23.4684    3.0731 H   0  0  0  0  0
  154.9609  -25.4706    4.0535 H   0  0  0  0  0
  151.9426  -25.3917    4.4895 H   0  0  0  0  0
  153.8092  -27.1906    2.9610 H   0  0  0  0  0
  150.7529  -27.3042    2.9379 H   0  0  0  0  0
  151.6939  -28.2817    4.0091 H   0  0  0  0  0
  154.7332  -22.5373    1.9076 H   0  0  0  0  0
  154.9790  -22.5040    3.5554 H   0  0  0  0  0
  155.7732  -23.6291    2.6170 H   0  0  0  0  0
  154.8466  -23.4590    5.2237 H   0  0  0  0  0
  153.1960  -26.2376    6.2293 H   0  0  0  0  0
  156.5128  -27.5733    0.8625 H   0  0  0  0  0
  156.8970  -25.6881   -0.5205 H   0  0  0  0  0
  152.5375  -29.2771   -1.7364 H   0  0  0  0  0
  151.5502  -28.0488   -1.1949 H   0  0  0  0  0
  152.9706  -28.3906   -0.3935 H   0  0  0  0  0
  150.3692  -32.0517   -2.0266 H   0  0  0  0  0
  150.3132  -28.1968    0.9304 H   0  0  0  0  0
  152.1765  -30.5103    0.2869 H   0  0  0  0  0
  149.8606  -29.7794   -1.4654 H   0  0  0  0  0
  149.6340  -32.9743   -1.9951 H   0  0  0  0  0
  149.6449  -32.0968    0.4140 H   0  0  0  0  0
  148.4999  -29.3602    0.8919 H   0  0  0  0  0
  148.6386  -33.6542    0.0745 H   0  0  0  0  0
  147.3145  -31.5624    1.7221 H   0  0  0  0  0
  148.6566  -31.7255    2.8212 H   0  0  0  0  0
  146.5890  -32.4767    5.4495 H   0  0  0  0  0
  146.0489  -29.4278    5.9598 H   0  0  0  0  0
  145.9883  -28.5684    4.3783 H   0  0  0  0  0
  148.2854  -27.9451    4.5664 H   0  0  0  0  0
  149.6197  -28.5342    6.6108 H   0  0  0  0  0
  148.7198  -30.1955    7.9264 H   0  0  0  0  0
  149.6890  -29.9068    4.4906 H   0  0  0  0  0
  149.8967  -31.7178    6.8915 H   0  0  0  0  0
  152.1001  -30.9552    6.9081 H   0  0  0  0  0
  151.6443  -31.7051    4.4071 H   0  0  0  0  0
  150.0393  -32.4955    4.3498 H   0  0  0  0  0
  151.7316  -33.9498    4.9673 H   0  0  0  0  0
  148.5577  -25.2242    3.8174 H   0  0  0  0  0
  147.5094  -23.9159    6.6242 H   0  0  0  0  0
  147.6745  -25.2376    7.8580 H   0  0  0  0  0
  145.3930  -25.7917    7.6779 H   0  0  0  0  0
  144.4739  -23.6763    8.2073 H   0  0  0  0  0
  143.7826  -24.9753    6.1771 H   0  0  0  0  0
  144.2637  -23.4433    4.5405 H   0  0  0  0  0
  145.0597  -26.7757    5.3397 H   0  0  0  0  0
  144.8743  -26.6010    2.9879 H   0  0  0  0  0
  144.6457  -24.4782    1.9892 H   0  0  0  0  0
  142.8481  -24.5757    4.0310 H   0  0  0  0  0
  142.7387  -26.2783    4.4025 H   0  0  0  0  0
  140.4445  -27.0324    3.1960 H   0  0  0  0  0
  139.7945  -25.4000    0.6850 H   0  0  0  0  0
  140.8718  -26.8541    0.9347 H   0  0  0  0  0
  142.5319  -25.9633   -0.4507 H   0  0  0  0  0
  141.2103  -25.5176   -2.4100 H   0  0  0  0  0
  142.5434  -23.7272   -1.3751 H   0  0  0  0  0
  140.7130  -22.3725   -0.8490 H   0  0  0  0  0
  143.5250  -23.9188    0.7553 H   0  0  0  0  0
  141.6388  -21.5149    0.7871 H   0  0  0  0  0
  143.3014  -20.4631   -0.3921 H   0  0  0  0  0
  142.9927  -21.8306    2.8680 H   0  0  0  0  0
  143.5446  -20.3923    1.9738 H   0  0  0  0  0
  145.2835  -21.7527    2.6330 H   0  0  0  0  0
  1  2  1  0  0  0
  1  8  1  0  0  0
 12  1  1  0  0  0
  3  2  1  0  0  0
  2  7  1  0  0  0
  4  3  1  0  0  0
  3  9  1  0  0  0
  5  4  1  0  0  0
  4 10  1  0  0  0
  6  5  1  0  0  0
  5 12  1  0  0  0
 11  6  1  0  0  0
  8 14  1  0  0  0
 21 11  1  0  0  0
 14 13  1  0  0  0
 14 15  1  0  0  0
 14 16  2  0  0  0
 23 17  1  0  0  0
 22 18  1  0  0  0
 18 26  1  0  0  0
 18 28  2  0  0  0
 18 30  1  0  0  0
 19 31  1  0  0  0
 35 19  1  0  0  0
 25 20  1  0  0  0
 21 23  1  0  0  0
 24 21  1  0  0  0
 27 22  1  0  0  0
 25 23  1  0  0  0
 29 24  1  0  0  0
 27 25  1  0  0  0
 29 27  1  0  0  0
 31 29  1  0  0  0
 32 33  2  0  0  0
 32 34  1  0  0  0
 35 32  1  0  0  0
 36 35  1  0  0  0
 35 42  1  0  0  0
 37 36  1  0  0  0
 38 37  1  0  0  0
 37 39  1  0  0  0
 50 38  1  0  0  0
 39 40  1  0  0  0
 39 41  1  0  0  0
 41 42  1  0  0  0
 41 43  1  0  0  0
 43 44  1  0  0  0
 43 45  1  0  0  0
 45 46  1  0  0  0
 47 48  1  0  0  0
 47 49  2  0  0  0
 50 47  1  0  0  0
 50 51  1  0  0  0
 57 50  1  0  0  0
 52 51  1  0  0  0
 52 53  1  0  0  0
 54 52  1  0  0  0
 54 55  1  0  0  0
 56 54  1  0  0  0
 56 57  1  0  0  0
 58 56  1  0  0  0
 58 59  1  0  0  0
 60 58  1  0  0  0
 61 60  1  0  0  0
 65 61  1  0  0  0
 62 63  2  0  0  0
 62 64  1  0  0  0
 62 65  1  0  0  0
 65 66  1  0  0  0
 65 72  1  0  0  0
 66 67  1  0  0  0
 67 68  1  0  0  0
 67 69  1  0  0  0
 69 70  1  0  0  0
 69 71  1  0  0  0
 71 72  1  0  0  0
 71 73  1  0  0  0
 73 74  1  0  0  0
 73 75  1  0  0  0
 75 76  1  0  0  0
  1 77  1  0  0  0
  2 78  1  0  0  0
  3 79  1  0  0  0
  4 80  1  0  0  0
  5 81  1  0  0  0
  6 82  1  0  0  0
  6 83  1  0  0  0
  7 84  1  0  0  0
  7 85  1  0  0  0
  7 86  1  0  0  0
  9 87  1  0  0  0
 10 88  1  0  0  0
 13 89  1  0  0  0
 15 90  1  0  0  0
 17 91  1  0  0  0
 17 92  1  0  0  0
 17 93  1  0  0  0
 20 94  1  0  0  0
 21 95  1  0  0  0
 23 96  1  0  0  0
 25 97  1  0  0  0
 26 98  1  0  0  0
 27 99  1  0  0  0
 29100  1  0  0  0
 30101  1  0  0  0
 31102  1  0  0  0
 31103  1  0  0  0
 34104  1  0  0  0
 36105  1  0  0  0
 36106  1  0  0  0
 37107  1  0  0  0
 39108  1  0  0  0
 40109  1  0  0  0
 41110  1  0  0  0
 43111  1  0  0  0
 44112  1  0  0  0
 45113  1  0  0  0
 45114  1  0  0  0
 46115  1  0  0  0
 48116  1  0  0  0
 51117  1  0  0  0
 51118  1  0  0  0
 52119  1  0  0  0
 53120  1  0  0  0
 54121  1  0  0  0
 55122  1  0  0  0
 56123  1  0  0  0
 58124  1  0  0  0
 59125  1  0  0  0
 60126  1  0  0  0
 60127  1  0  0  0
 64128  1  0  0  0
 66129  1  0  0  0
 66130  1  0  0  0
 67131  1  0  0  0
 68132  1  0  0  0
 69133  1  0  0  0
 70134  1  0  0  0
 71135  1  0  0  0
 73136  1  0  0  0
 74137  1  0  0  0
 75138  1  0  0  0
 75139  1  0  0  0
 76140  1  0  0  0
M  END
$$$$
