3l7a_ligand
  -I-interpret- 

 45 47  0  0  0  0  0  0  0  0999 V2000
   33.5050   23.0120   27.8130 C   0  0  0  0  0
   34.3980   23.6190   28.8290 N   0  0  0  0  0
   33.9080   23.1720   26.3340 C   0  0  0  0  0
   34.5880   24.6950   30.9500 N   0  0  0  0  0
   34.0050   24.5640   25.9920 O   0  0  0  0  0
   32.9000   22.4480   25.4120 C   0  0  0  0  0
   33.3890   22.3890   24.1180 F   0  0  0  0  0
   36.6040   25.3240   31.8530 N   0  0  0  0  0
   32.5580   21.0270   25.9220 C   0  0  0  0  0
   31.3810   20.5430   25.2730 O   0  0  0  0  0
   32.3660   20.9550   27.4620 C   0  0  0  0  0
   33.4620   21.5930   28.1440 O   0  0  0  0  0
   32.3180   19.5000   27.9330 C   0  0  0  0  0
   33.4380   18.8020   27.3630 O   0  0  0  0  0
   35.7990   23.6640   28.6800 C   0  0  0  0  0
   36.5680   24.2390   29.6950 C   0  0  0  0  0
   35.9280   24.7690   30.8310 C   0  0  0  0  0
   33.8120   24.1430   29.9980 C   0  0  0  0  0
   32.5890   24.1130   30.1510 O   0  0  0  0  0
   37.8590   25.7970   31.7850 C   0  0  0  0  0
   38.5480   25.8010   30.7620 O   0  0  0  0  0
   38.4210   26.3660   33.1040 C   0  0  0  0  0
   39.7850   26.6670   33.2040 C   0  0  0  0  0
   40.3190   27.1730   34.3920 C   0  0  0  0  0
   39.4770   27.3780   35.4880 C   0  0  0  0  0
   38.1190   27.0760   35.3970 C   0  0  0  0  0
   37.5930   26.5700   34.2070 C   0  0  0  0  0
   32.5517   23.5378   27.8670 H   0  0  0  0  0
   34.8861   22.7132   26.1892 H   0  0  0  0  0
   34.6349   24.9927   26.5759 H   0  0  0  0  0
   31.9769   23.0275   25.4223 H   0  0  0  0  0
   36.1252   25.3909   32.7512 H   0  0  0  0  0
   33.4146   20.3989   25.6774 H   0  0  0  0  0
   31.5002   20.5877   24.3215 H   0  0  0  0  0
   31.4289   21.4618   27.6924 H   0  0  0  0  0
   31.3859   19.0346   27.6126 H   0  0  0  0  0
   32.3667   19.4582   29.0211 H   0  0  0  0  0
   33.4222   17.8859   27.6495 H   0  0  0  0  0
   36.2746   23.2569   27.7877 H   0  0  0  0  0
   37.6539   24.2768   29.6078 H   0  0  0  0  0
   40.4372   26.5048   32.3458 H   0  0  0  0  0
   41.3816   27.4054   34.4630 H   0  0  0  0  0
   39.8835   27.7756   36.4179 H   0  0  0  0  0
   37.4672   27.2352   36.2560 H   0  0  0  0  0
   36.5311   26.3335   34.1399 H   0  0  0  0  0
  2  1  1  0  0  0
  1  3  1  0  0  0
  1 12  1  0  0  0
  2 15  1  0  0  0
 18  2  1  0  0  0
  3  5  1  0  0  0
  3  6  1  0  0  0
  4 17  2  0  0  0
  4 18  1  0  0  0
  6  7  1  0  0  0
  6  9  1  0  0  0
 17  8  1  0  0  0
  8 20  1  0  0  0
  9 10  1  0  0  0
  9 11  1  0  0  0
 11 12  1  0  0  0
 11 13  1  0  0  0
 13 14  1  0  0  0
 15 16  2  0  0  0
 16 17  1  0  0  0
 18 19  2  0  0  0
 20 21  2  0  0  0
 20 22  1  0  0  0
 22 23  4  0  0  0
 22 27  4  0  0  0
 23 24  4  0  0  0
 24 25  4  0  0  0
 25 26  4  0  0  0
 26 27  4  0  0  0
  1 28  1  0  0  0
  3 29  1  0  0  0
  5 30  1  0  0  0
  6 31  1  0  0  0
  8 32  1  0  0  0
  9 33  1  0  0  0
 10 34  1  0  0  0
 11 35  1  0  0  0
 13 36  1  0  0  0
 13 37  1  0  0  0
 14 38  1  0  0  0
 15 39  1  0  0  0
 16 40  1  0  0  0
 23 41  1  0  0  0
 24 42  1  0  0  0
 25 43  1  0  0  0
 26 44  1  0  0  0
 27 45  1  0  0  0
M  END
$$$$
