1vj6_ligand
  -I-interpret- 

101101  0  0  0  0  0  0  0  0999 V2000
   11.9420   -2.3830   14.9530 N   0  3  0  0  0
   11.0820   -1.3430   15.4280 C   0  0  0  0  0
    9.6590   -1.7130   15.1920 C   0  0  0  0  0
    8.8380   -1.7160   16.1090 O   0  0  0  0  0
   11.4400   -0.0250   14.7200 C   0  0  0  0  0
   11.3170    1.1540   15.6240 C   0  0  0  0  0
   10.1350    1.8460   15.7380 C   0  0  0  0  0
   12.4200    1.5860   16.3220 C   0  0  0  0  0
   10.0580    2.9680   16.5300 C   0  0  0  0  0
   12.3520    2.7100   17.1110 C   0  0  0  0  0
   11.1710    3.4080   17.2050 C   0  0  0  0  0
   11.1170    4.5830   17.9840 O   0  0  0  0  0
    9.3280   -2.0240   13.9260 N   0  0  0  0  0
    8.0190   -2.2450   13.3950 C   0  0  0  0  0
    7.1010   -1.0750   13.4870 C   0  0  0  0  0
    7.4670   -0.0070   13.9760 O   0  0  0  0  0
    7.3700   -3.5170   13.9650 C   0  0  0  0  0
    6.4510   -4.3350   13.0430 C   0  0  0  0  0
    7.2470   -4.9730   11.8920 C   0  0  0  0  0
    5.8150   -5.4380   13.9060 C   0  0  0  0  0
    5.8630   -1.2500   12.9920 N   0  0  0  0  0
    4.7130   -0.4030   13.0740 C   0  0  0  0  0
    4.9610    1.0670   13.0850 C   0  0  0  0  0
    5.1430    1.7280   14.1060 O   0  0  0  0  0
    3.6410   -0.8570   14.0210 C   0  0  0  0  0
    2.9960   -2.1150   13.4170 C   0  0  0  0  0
    4.1980   -1.1220   15.4300 C   0  0  0  0  0
    4.9880    1.6100   11.8550 N   0  0  0  0  0
    5.3730    2.9560   11.5700 C   0  0  0  0  0
    4.1880    3.4640   10.8220 C   0  0  0  0  0
    3.8120    2.8720    9.8130 O   0  0  0  0  0
    6.5680    3.0700   10.6700 C   0  0  0  0  0
    7.6800    2.3760   11.2140 O   0  0  0  0  0
    7.0000    4.5340   10.4790 C   0  0  0  0  0
    3.5680    4.5410   11.3360 N   0  0  0  0  0
    2.5430    5.2840   10.6680 C   0  0  0  0  0
    3.1360    6.0640    9.5450 C   0  0  0  0  0
    4.0560    6.8610    9.7270 O   0  0  0  0  0
    1.7630    6.2100   11.6150 C   0  0  0  0  0
    2.5840    7.1710   12.2630 O   0  0  0  0  0
    2.6550    5.8130    8.3150 N   0  0  0  0  0
    3.1450    6.4260    7.1190 C   0  0  0  0  0
    1.9200    6.4650    6.2180 C   0  0  0  0  0
    0.8730    5.8280    6.5110 O   0  0  0  0  0
    4.3960    5.8060    6.5720 C   0  0  0  0  0
    4.6980    4.4030    7.1250 C   0  0  0  0  0
    4.4840    5.7930    5.0360 C   0  0  0  0  0
    1.9750    7.2710    5.2510 O   0  0  0  0  0
   11.7062   -3.2579   15.4213 H   0  0  0  0  0
   11.8190   -2.4910   13.9462 H   0  0  0  0  0
   12.9118   -2.1390   15.1540 H   0  0  0  0  0
   11.2194   -1.2091   16.5010 H   0  0  0  0  0
   10.7475    0.1118   13.8895 H   0  0  0  0  0
   12.4761   -0.0900   14.3879 H   0  0  0  0  0
    9.2528    1.5034   15.1972 H   0  0  0  0  0
   13.3563    1.0327   16.2493 H   0  0  0  0  0
    9.1153    3.5074   16.6220 H   0  0  0  0  0
   13.2313    3.0466   17.6601 H   0  0  0  0  0
   11.9761    4.7414   18.3821 H   0  0  0  0  0
   10.1017   -2.1126   13.2673 H   0  0  0  0  0
    8.1819   -2.3944   12.3276 H   0  0  0  0  0
    6.7316   -3.1752   14.7797 H   0  0  0  0  0
    8.1999   -4.1806   14.2081 H   0  0  0  0  0
    5.6945   -3.6884   12.5985 H   0  0  0  0  0
    7.7239   -4.1892   11.3035 H   0  0  0  0  0
    8.0091   -5.6355   12.3024 H   0  0  0  0  0
    6.5702   -5.5449   11.2572 H   0  0  0  0  0
    6.5999   -6.0674   14.3254 H   0  0  0  0  0
    5.2434   -4.9812   14.7139 H   0  0  0  0  0
    5.1526   -6.0443   13.2882 H   0  0  0  0  0
    5.7223   -2.1204   12.4792 H   0  0  0  0  0
    4.2782   -0.5584   12.0866 H   0  0  0  0  0
    2.8931   -0.0736   14.1438 H   0  0  0  0  0
    2.5685   -1.8713   12.4444 H   0  0  0  0  0
    3.7541   -2.8892   13.2984 H   0  0  0  0  0
    2.2097   -2.4733   14.0814 H   0  0  0  0  0
    4.9606   -1.8990   15.3776 H   0  0  0  0  0
    4.6376   -0.2056   15.8238 H   0  0  0  0  0
    3.3891   -1.4485   16.0836 H   0  0  0  0  0
    4.7142    1.0191   11.0700 H   0  0  0  0  0
    5.6440    3.4872   12.4824 H   0  0  0  0  0
    6.2699    2.6396    9.7140 H   0  0  0  0  0
    8.4308    2.4629   10.6221 H   0  0  0  0  0
    6.1803    5.0983   10.0344 H   0  0  0  0  0
    7.2566    4.9650   11.4467 H   0  0  0  0  0
    7.8681    4.5724    9.8210 H   0  0  0  0  0
    3.8477    4.8500   12.2670 H   0  0  0  0  0
    1.8235    4.5643   10.2774 H   0  0  0  0  0
    1.3122    5.5871   12.3876 H   0  0  0  0  0
    1.0307    6.7520   11.0167 H   0  0  0  0  0
    2.0428    7.7169   12.8380 H   0  0  0  0  0
    1.8914    5.1422    8.2290 H   0  0  0  0  0
    3.5322    7.4339    7.2684 H   0  0  0  0  0
    1.0414    5.2719    7.2752 H   0  0  0  0  0
    5.1695    6.4817    6.9370 H   0  0  0  0  0
    4.8142    4.4578    8.2074 H   0  0  0  0  0
    3.8744    3.7323    6.8802 H   0  0  0  0  0
    5.6187    4.0281    6.6779 H   0  0  0  0  0
    3.6457    5.2268    4.6301 H   0  0  0  0  0
    4.4477    6.8164    4.6626 H   0  0  0  0  0
    5.4208    5.3266    4.7310 H   0  0  0  0  0
  1  2  1  0  0  0
  2  3  1  0  0  0
  2  5  1  0  0  0
  3  4  2  0  0  0
  3 13  1  0  0  0
  5  6  1  0  0  0
  6  7  4  0  0  0
  6  8  4  0  0  0
  7  9  4  0  0  0
  8 10  4  0  0  0
  9 11  4  0  0  0
 10 11  4  0  0  0
 11 12  1  0  0  0
 13 14  1  0  0  0
 14 15  1  0  0  0
 14 17  1  0  0  0
 15 16  2  0  0  0
 15 21  1  0  0  0
 17 18  1  0  0  0
 18 19  1  0  0  0
 18 20  1  0  0  0
 21 22  1  0  0  0
 22 23  1  0  0  0
 22 25  1  0  0  0
 23 24  2  0  0  0
 23 28  1  0  0  0
 25 26  1  0  0  0
 25 27  1  0  0  0
 28 29  1  0  0  0
 29 30  1  0  0  0
 29 32  1  0  0  0
 30 31  2  0  0  0
 30 35  1  0  0  0
 32 33  1  0  0  0
 32 34  1  0  0  0
 35 36  1  0  0  0
 36 37  1  0  0  0
 36 39  1  0  0  0
 37 38  2  0  0  0
 37 41  1  0  0  0
 39 40  1  0  0  0
 41 42  1  0  0  0
 42 43  1  0  0  0
 42 45  1  0  0  0
 43 44  1  0  0  0
 43 48  2  0  0  0
 45 46  1  0  0  0
 45 47  1  0  0  0
  1 49  1  0  0  0
  1 50  1  0  0  0
  1 51  1  0  0  0
  2 52  1  0  0  0
  5 53  1  0  0  0
  5 54  1  0  0  0
  7 55  1  0  0  0
  8 56  1  0  0  0
  9 57  1  0  0  0
 10 58  1  0  0  0
 12 59  1  0  0  0
 13 60  1  0  0  0
 14 61  1  0  0  0
 17 62  1  0  0  0
 17 63  1  0  0  0
 18 64  1  0  0  0
 19 65  1  0  0  0
 19 66  1  0  0  0
 19 67  1  0  0  0
 20 68  1  0  0  0
 20 69  1  0  0  0
 20 70  1  0  0  0
 21 71  1  0  0  0
 22 72  1  0  0  0
 25 73  1  0  0  0
 26 74  1  0  0  0
 26 75  1  0  0  0
 26 76  1  0  0  0
 27 77  1  0  0  0
 27 78  1  0  0  0
 27 79  1  0  0  0
 28 80  1  0  0  0
 29 81  1  0  0  0
 32 82  1  0  0  0
 33 83  1  0  0  0
 34 84  1  0  0  0
 34 85  1  0  0  0
 34 86  1  0  0  0
 35 87  1  0  0  0
 36 88  1  0  0  0
 39 89  1  0  0  0
 39 90  1  0  0  0
 40 91  1  0  0  0
 41 92  1  0  0  0
 42 93  1  0  0  0
 44 94  1  0  0  0
 45 95  1  0  0  0
 46 96  1  0  0  0
 46 97  1  0  0  0
 46 98  1  0  0  0
 47 99  1  0  0  0
 47100  1  0  0  0
 47101  1  0  0  0
M  END
$$$$
