5l3g_ligand
  -I-interpret- 

184184  0  0  0  0  0  0  0  0999 V2000
   17.3710  -32.2430  -41.5440 C   0  0  0  0  0
   17.0190  -33.7110  -41.7240 C   0  0  0  0  0
   17.1560  -34.0860  -43.1910 C   0  0  0  0  0
   15.5870  -33.9470  -41.2690 C   0  0  0  0  0
   15.2090  -35.4060  -41.4780 C   0  0  0  0  0
   13.7180  -35.5800  -41.2320 C   0  0  0  0  0
   13.3330  -37.0430  -41.3890 C   0  0  0  0  0
   12.1280  -37.3480  -40.5100 C   0  0  0  0  0
   12.0080  -38.4530  -39.9850 O   0  0  0  0  0
   11.2580  -36.3280  -40.3780 N   0  0  0  0  0
   10.0340  -36.3470  -39.5790 C   0  0  0  0  0
    8.9620  -37.2650  -40.1700 C   0  0  0  0  0
    8.0460  -36.7840  -40.8360 O   0  0  0  0  0
   10.3280  -36.7210  -38.1310 C   0  0  0  0  0
   11.3800  -35.7800  -37.5630 C   0  0  0  0  0
   11.1480  -34.4130  -37.9890 N   0  3  0  0  0
    9.0940  -38.5760  -39.8850 N   0  0  0  0  0
    8.1920  -39.6460  -40.3200 C   0  0  0  0  0
    8.0300  -39.6660  -41.8410 C   0  0  0  0  0
    7.8510  -41.0960  -42.3290 C   0  0  0  0  0
    9.1980  -39.1190  -42.4600 O   0  0  0  0  0
    6.8420  -39.5470  -39.5980 C   0  0  0  0  0
    6.7980  -39.1290  -38.4410 O   0  0  0  0  0
    5.7610  -39.9570  -40.3000 N   0  0  0  0  0
    4.3790  -39.9620  -39.8190 C   0  0  0  0  0
    4.2320  -40.8440  -38.5850 C   0  0  0  0  0
    4.3860  -40.3360  -37.4820 O   0  0  0  0  0
    3.9330  -38.5530  -39.4490 C   0  0  0  0  0
    4.3230  -37.5550  -40.5280 C   0  0  0  0  0
    4.6360  -36.2660  -39.9420 N   0  3  0  0  0
    3.8960  -42.1390  -38.7790 N   0  0  0  0  0
    3.7530  -43.1340  -37.6990 C   0  0  0  0  0
    5.0310  -43.4780  -37.2170 C   0  0  0  0  0
    5.9870  -43.5020  -37.9930 O   0  0  0  0  0
    2.8610  -42.6460  -36.5460 C   0  0  0  0  0
    1.6040  -43.5050  -36.4550 C   0  0  0  0  0
    1.2690  -43.8950  -35.0890 N   0  0  0  0  0
    5.2140  -43.7780  -35.8450 N   0  0  0  0  0
    6.4830  -44.0840  -35.1520 C   0  0  0  0  0
    7.4350  -44.8930  -35.8220 C   0  0  0  0  0
    8.6380  -44.6000  -35.7230 O   0  0  0  0  0
    6.1620  -44.6710  -33.7790 C   0  0  0  0  0
    4.7330  -44.2970  -33.3770 C   0  0  0  0  0
    4.6700  -43.6680  -32.0670 N   0  3  0  0  0
    7.0020  -46.0650  -36.5030 N   0  0  0  0  0
    7.7940  -47.0470  -37.2860 C   0  0  0  0  0
    7.3310  -48.3820  -37.1380 C   0  0  0  0  0
    7.2620  -49.0640  -38.1640 O   0  0  0  0  0
    9.3140  -47.0040  -37.1190 C   0  0  0  0  0
   10.0020  -47.0620  -38.4800 C   0  0  0  0  0
   11.2300  -46.1540  -38.4520 C   0  0  0  0  0
   10.3810  -48.5090  -38.8210 C   0  0  0  0  0
    6.9860  -48.9490  -35.8570 N   0  0  0  0  0
    6.4490  -50.3190  -35.6260 C   0  0  0  0  0
    5.5150  -50.3030  -34.5630 C   0  0  0  0  0
    5.0920  -51.3530  -34.0530 O   0  0  0  0  0
    7.4990  -51.4370  -35.4180 C   0  0  0  0  0
    6.9860  -52.8470  -35.7880 C   0  0  0  0  0
    7.8470  -53.4920  -36.8690 C   0  0  0  0  0
    6.9760  -53.7590  -34.5610 C   0  0  0  0  0
    5.0120  -49.0750  -34.0760 N   0  0  0  0  0
    4.0060  -49.0480  -33.0120 C   0  0  0  0  0
    2.7510  -49.0610  -33.6320 C   0  0  0  0  0
    2.6530  -48.6770  -34.7980 O   0  0  0  0  0
    4.1390  -47.8300  -32.0850 C   0  0  0  0  0
    3.5980  -48.1620  -30.6890 C   0  0  0  0  0
    2.6500  -47.1740  -30.2060 N   0  3  0  0  0
    1.5970  -49.5090  -32.9560 N   0  0  0  0  0
    0.3180  -49.4770  -33.6480 C   0  0  0  0  0
   -0.0220  -48.1540  -34.0140 C   0  0  0  0  0
   -0.7400  -48.0130  -34.9940 O   0  0  0  0  0
   -0.8030  -50.1330  -32.8480 C   0  0  0  0  0
   -0.3820  -51.4980  -32.3540 C   0  0  0  0  0
    0.0400  -51.3480  -30.9850 N   0  3  0  0  0
    0.4700  -47.0080  -33.3070 N   0  0  0  0  0
    0.2230  -45.5630  -33.5970 C   0  0  0  0  0
   -1.2010  -45.1220  -33.2190 C   0  0  0  0  0
   -1.3420  -43.6030  -33.2790 C   0  0  0  0  0
   -1.5300  -45.5800  -31.8980 O   0  0  0  0  0
    0.5890  -45.1140  -34.9000 C   0  0  0  0  0
    0.3350  -45.7450  -35.9240 O   0  0  0  0  0
   16.6936  -31.6324  -42.1410 H   0  0  0  0  0
   17.2737  -31.9737  -40.4923 H   0  0  0  0  0
   18.3973  -32.0741  -41.8701 H   0  0  0  0  0
   17.6941  -34.3250  -41.1279 H   0  0  0  0  0
   16.9026  -35.1381  -43.3209 H   0  0  0  0  0
   16.4802  -33.4720  -43.7863 H   0  0  0  0  0
   18.1831  -33.9158  -43.5138 H   0  0  0  0  0
   14.9166  -33.3156  -41.8520 H   0  0  0  0  0
   15.5020  -33.7024  -40.2102 H   0  0  0  0  0
   15.7687  -36.0310  -40.7821 H   0  0  0  0  0
   15.4469  -35.7015  -42.4999 H   0  0  0  0  0
   13.1628  -34.9831  -41.9556 H   0  0  0  0  0
   13.4807  -35.2531  -40.2196 H   0  0  0  0  0
   14.1703  -37.6732  -41.0890 H   0  0  0  0  0
   13.0826  -37.2429  -42.4308 H   0  0  0  0  0
   11.4722  -35.4663  -40.8799 H   0  0  0  0  0
    9.6328  -35.3337  -39.6000 H   0  0  0  0  0
   10.6989  -37.7452  -38.0901 H   0  0  0  0  0
    9.4137  -36.6385  -37.5433 H   0  0  0  0  0
   12.3590  -36.0949  -37.9241 H   0  0  0  0  0
   11.3290  -35.8181  -36.4749 H   0  0  0  0  0
   11.8675  -33.8080  -37.5931 H   0  0  0  0  0
   11.1839  -34.3647  -39.0072 H   0  0  0  0  0
   10.2300  -34.1084  -37.6651 H   0  0  0  0  0
    9.8947  -38.8480  -39.3146 H   0  0  0  0  0
    8.6435  -40.5988  -40.0435 H   0  0  0  0  0
    7.1537  -39.0732  -42.1033 H   0  0  0  0  0
    8.7263  -41.6846  -42.0541 H   0  0  0  0  0
    6.9622  -41.5272  -41.8683 H   0  0  0  0  0
    7.7367  -41.0970  -43.4130 H   0  0  0  0  0
    9.0902  -39.1343  -43.4138 H   0  0  0  0  0
    5.9236  -40.2926  -41.2494 H   0  0  0  0  0
    3.7595  -40.3519  -40.6267 H   0  0  0  0  0
    4.4192  -38.2666  -38.5164 H   0  0  0  0  0
    2.8481  -38.5467  -39.3434 H   0  0  0  0  0
    3.4873  -37.4359  -41.2176 H   0  0  0  0  0
    5.2030  -37.9276  -41.0523 H   0  0  0  0  0
    4.8947  -35.6119  -40.6806 H   0  0  0  0  0
    3.8188  -35.9127  -39.4441 H   0  0  0  0  0
    5.4139  -36.3699  -39.2905 H   0  0  0  0  0
    3.7302  -42.4491  -39.7365 H   0  0  0  0  0
    3.2571  -44.0084  -38.1203 H   0  0  0  0  0
    2.5739  -41.6107  -36.7298 H   0  0  0  0  0
    3.4140  -42.7214  -35.6097 H   0  0  0  0  0
    1.7867  -44.4174  -37.0227 H   0  0  0  0  0
    0.7732  -42.9153  -36.8424 H   0  0  0  0  0
    1.5193  -43.3037  -34.2965 H   0  0  0  0  0
    4.3726  -43.7835  -35.2684 H   0  0  0  0  0
    6.9937  -43.1226  -35.0973 H   0  0  0  0  0
    6.8599  -44.2708  -33.0436 H   0  0  0  0  0
    6.2525  -45.7564  -33.8208 H   0  0  0  0  0
    4.1434  -45.2130  -33.3392 H   0  0  0  0  0
    4.3523  -43.5861  -34.1103 H   0  0  0  0  0
    3.7006  -43.4394  -31.8472 H   0  0  0  0  0
    5.0367  -44.3104  -31.3647 H   0  0  0  0  0
    5.2287  -42.8147  -32.0737 H   0  0  0  0  0
    6.0022  -46.2587  -36.4448 H   0  0  0  0  0
    7.6094  -46.7032  -38.3038 H   0  0  0  0  0
    9.6298  -47.8618  -36.5253 H   0  0  0  0  0
    9.5898  -46.0741  -36.6217 H   0  0  0  0  0
    9.3236  -46.7108  -39.2575 H   0  0  0  0  0
   10.9193  -45.1313  -38.2386 H   0  0  0  0  0
   11.9156  -46.4961  -37.6767 H   0  0  0  0  0
   11.7283  -46.1890  -39.4208 H   0  0  0  0  0
   11.0603  -48.8942  -38.0605 H   0  0  0  0  0
    9.4802  -49.1221  -38.8495 H   0  0  0  0  0
   10.8708  -48.5352  -39.7944 H   0  0  0  0  0
    7.1220  -48.3590  -35.0362 H   0  0  0  0  0
    5.9625  -50.5870  -36.5639 H   0  0  0  0  0
    7.7551  -51.4508  -34.3586 H   0  0  0  0  0
    8.3441  -51.2160  -36.0699 H   0  0  0  0  0
    5.9716  -52.7250  -36.1678 H   0  0  0  0  0
    7.8275  -52.8720  -37.7653 H   0  0  0  0  0
    8.8722  -53.5815  -36.5098 H   0  0  0  0  0
    7.4545  -54.4819  -37.1018 H   0  0  0  0  0
    7.9880  -53.8448  -34.1654 H   0  0  0  0  0
    6.3216  -53.3344  -33.7996 H   0  0  0  0  0
    6.6112  -54.7457  -34.8463 H   0  0  0  0  0
    5.3534  -48.1982  -34.4699 H   0  0  0  0  0
    4.1458  -49.9170  -32.3690 H   0  0  0  0  0
    3.5655  -47.0018  -32.5012 H   0  0  0  0  0
    5.1914  -47.5582  -32.0034 H   0  0  0  0  0
    4.4416  -48.1817  -29.9991 H   0  0  0  0  0
    3.0815  -49.1200  -30.7493 H   0  0  0  0  0
    2.3236  -47.4430  -29.2778 H   0  0  0  0  0
    3.1059  -46.2629  -30.1566 H   0  0  0  0  0
    1.8569  -47.1245  -30.8455 H   0  0  0  0  0
    1.6584  -49.8501  -31.9967 H   0  0  0  0  0
    0.4355  -50.0689  -34.5557 H   0  0  0  0  0
   -1.6750  -50.2459  -33.4922 H   0  0  0  0  0
   -1.0356  -49.5045  -31.9884 H   0  0  0  0  0
    0.4311  -51.8915  -32.9640 H   0  0  0  0  0
   -1.2109  -52.2024  -32.4237 H   0  0  0  0  0
    0.3320  -52.2543  -30.6192 H   0  0  0  0  0
    0.8219  -50.6944  -30.9412 H   0  0  0  0  0
   -0.7360  -50.9894  -30.4286 H   0  0  0  0  0
    1.0654  -47.2042  -32.5024 H   0  0  0  0  0
    0.9252  -45.0540  -32.9367 H   0  0  0  0  0
   -1.8881  -45.5645  -33.9403 H   0  0  0  0  0
   -0.6391  -43.1463  -32.5822 H   0  0  0  0  0
   -1.1276  -43.2592  -34.2909 H   0  0  0  0  0
   -2.3595  -43.3228  -33.0066 H   0  0  0  0  0
   -2.4202  -45.2981  -31.6753 H   0  0  0  0  0
  1  2  1  0  0  0
  2  3  1  0  0  0
  2  4  1  0  0  0
  4  5  1  0  0  0
  5  6  1  0  0  0
  6  7  1  0  0  0
  7  8  1  0  0  0
  8  9  2  0  0  0
  8 10  1  0  0  0
 10 11  1  0  0  0
 11 12  1  0  0  0
 11 14  1  0  0  0
 12 13  2  0  0  0
 12 17  1  0  0  0
 14 15  1  0  0  0
 15 16  1  0  0  0
 17 18  1  0  0  0
 18 19  1  0  0  0
 18 22  1  0  0  0
 19 20  1  0  0  0
 19 21  1  0  0  0
 22 23  2  0  0  0
 22 24  1  0  0  0
 24 25  1  0  0  0
 25 26  1  0  0  0
 25 28  1  0  0  0
 26 27  2  0  0  0
 26 31  1  0  0  0
 28 29  1  0  0  0
 29 30  1  0  0  0
 31 32  1  0  0  0
 32 33  1  0  0  0
 32 35  1  0  0  0
 33 34  2  0  0  0
 33 38  1  0  0  0
 35 36  1  0  0  0
 36 37  1  0  0  0
 37 80  1  0  0  0
 38 39  1  0  0  0
 39 40  1  0  0  0
 39 42  1  0  0  0
 40 41  2  0  0  0
 40 45  1  0  0  0
 42 43  1  0  0  0
 43 44  1  0  0  0
 45 46  1  0  0  0
 46 47  1  0  0  0
 46 49  1  0  0  0
 47 48  2  0  0  0
 47 53  1  0  0  0
 49 50  1  0  0  0
 50 51  1  0  0  0
 50 52  1  0  0  0
 53 54  1  0  0  0
 54 55  1  0  0  0
 54 57  1  0  0  0
 55 56  2  0  0  0
 55 61  1  0  0  0
 57 58  1  0  0  0
 58 59  1  0  0  0
 58 60  1  0  0  0
 61 62  1  0  0  0
 62 63  1  0  0  0
 62 65  1  0  0  0
 63 64  2  0  0  0
 63 68  1  0  0  0
 65 66  1  0  0  0
 66 67  1  0  0  0
 68 69  1  0  0  0
 69 70  1  0  0  0
 69 72  1  0  0  0
 70 71  2  0  0  0
 70 75  1  0  0  0
 72 73  1  0  0  0
 73 74  1  0  0  0
 75 76  1  0  0  0
 76 77  1  0  0  0
 76 80  1  0  0  0
 77 78  1  0  0  0
 77 79  1  0  0  0
 80 81  2  0  0  0
  1 82  1  0  0  0
  1 83  1  0  0  0
  1 84  1  0  0  0
  2 85  1  0  0  0
  3 86  1  0  0  0
  3 87  1  0  0  0
  3 88  1  0  0  0
  4 89  1  0  0  0
  4 90  1  0  0  0
  5 91  1  0  0  0
  5 92  1  0  0  0
  6 93  1  0  0  0
  6 94  1  0  0  0
  7 95  1  0  0  0
  7 96  1  0  0  0
 10 97  1  0  0  0
 11 98  1  0  0  0
 14 99  1  0  0  0
 14100  1  0  0  0
 15101  1  0  0  0
 15102  1  0  0  0
 16103  1  0  0  0
 16104  1  0  0  0
 16105  1  0  0  0
 17106  1  0  0  0
 18107  1  0  0  0
 19108  1  0  0  0
 20109  1  0  0  0
 20110  1  0  0  0
 20111  1  0  0  0
 21112  1  0  0  0
 24113  1  0  0  0
 25114  1  0  0  0
 28115  1  0  0  0
 28116  1  0  0  0
 29117  1  0  0  0
 29118  1  0  0  0
 30119  1  0  0  0
 30120  1  0  0  0
 30121  1  0  0  0
 31122  1  0  0  0
 32123  1  0  0  0
 35124  1  0  0  0
 35125  1  0  0  0
 36126  1  0  0  0
 36127  1  0  0  0
 37128  1  0  0  0
 38129  1  0  0  0
 39130  1  0  0  0
 42131  1  0  0  0
 42132  1  0  0  0
 43133  1  0  0  0
 43134  1  0  0  0
 44135  1  0  0  0
 44136  1  0  0  0
 44137  1  0  0  0
 45138  1  0  0  0
 46139  1  0  0  0
 49140  1  0  0  0
 49141  1  0  0  0
 50142  1  0  0  0
 51143  1  0  0  0
 51144  1  0  0  0
 51145  1  0  0  0
 52146  1  0  0  0
 52147  1  0  0  0
 52148  1  0  0  0
 53149  1  0  0  0
 54150  1  0  0  0
 57151  1  0  0  0
 57152  1  0  0  0
 58153  1  0  0  0
 59154  1  0  0  0
 59155  1  0  0  0
 59156  1  0  0  0
 60157  1  0  0  0
 60158  1  0  0  0
 60159  1  0  0  0
 61160  1  0  0  0
 62161  1  0  0  0
 65162  1  0  0  0
 65163  1  0  0  0
 66164  1  0  0  0
 66165  1  0  0  0
 67166  1  0  0  0
 67167  1  0  0  0
 67168  1  0  0  0
 68169  1  0  0  0
 69170  1  0  0  0
 72171  1  0  0  0
 72172  1  0  0  0
 73173  1  0  0  0
 73174  1  0  0  0
 74175  1  0  0  0
 74176  1  0  0  0
 74177  1  0  0  0
 75178  1  0  0  0
 76179  1  0  0  0
 77180  1  0  0  0
 78181  1  0  0  0
 78182  1  0  0  0
 78183  1  0  0  0
 79184  1  0  0  0
M  END
$$$$
