### 
### Created by X-TOOL on Sun Sep  9 21:53:35 2018
### 

@<TRIPOS>MOLECULE
5l3g_ligand
  184   184     1     0     0
SMALL
GAST_HUCK


@<TRIPOS>ATOM
      1 CAB        17.3710  -32.2430  -41.5440 C.3       1 NON        -0.0627
      2 CAC        17.0190  -33.7110  -41.7240 C.3       1 NON        -0.0467
      3 CAD        17.1560  -34.0860  -43.1910 C.3       1 NON        -0.0627
      4 CAE        15.5870  -33.9470  -41.2690 C.3       1 NON        -0.0506
      5 CAF        15.2090  -35.4060  -41.4780 C.3       1 NON        -0.0507
      6 CAG        13.7180  -35.5800  -41.2320 C.3       1 NON        -0.0361
      7 CAH        13.3330  -37.0430  -41.3890 C.3       1 NON         0.0374
      8 CAI        12.1280  -37.3480  -40.5100 C.2       1 NON         0.1782
      9 OAJ        12.0080  -38.4530  -39.9850 O.2       1 NON        -0.3969
     10 N          11.2580  -36.3280  -40.3780 N.am      1 NON        -0.2654
     11 CA         10.0340  -36.3470  -39.5790 C.3       1 NON         0.1357
     12 C           8.9620  -37.2650  -40.1700 C.2       1 NON         0.2042
     13 O           8.0460  -36.7840  -40.8360 O.2       1 NON        -0.3944
     14 CB         10.3280  -36.7210  -38.1310 C.3       1 NON         0.0278
     15 CG         11.3800  -35.7800  -37.5630 C.3       1 NON        -0.0311
     16 NZ         11.1480  -34.4130  -37.9890 N.4       1 NON         0.2187
     17 N           9.0940  -38.5760  -39.8850 N.am      1 NON        -0.2613
     18 CA          8.1920  -39.6460  -40.3200 C.3       1 NON         0.1565
     19 CB          8.0300  -39.6660  -41.8410 C.3       1 NON         0.0924
     20 CG2         7.8510  -41.0960  -42.3290 C.3       1 NON        -0.0346
     21 OG1         9.1980  -39.1190  -42.4600 O.3       1 NON        -0.3874
     22 C           6.8420  -39.5470  -39.5980 C.2       1 NON         0.2065
     23 O           6.7980  -39.1290  -38.4410 O.2       1 NON        -0.3943
     24 N           5.7610  -39.9570  -40.3000 N.am      1 NON        -0.2635
     25 CA          4.3790  -39.9620  -39.8190 C.3       1 NON         0.1358
     26 C           4.2320  -40.8440  -38.5850 C.2       1 NON         0.2041
     27 O           4.3860  -40.3360  -37.4820 O.2       1 NON        -0.3944
     28 CB          3.9330  -38.5530  -39.4490 C.3       1 NON         0.0278
     29 CG          4.3230  -37.5550  -40.5280 C.3       1 NON        -0.0311
     30 NZ          4.6360  -36.2660  -39.9420 N.4       1 NON         0.2187
     31 N           3.8960  -42.1390  -38.7790 N.am      1 NON        -0.2637
     32 CA          3.7530  -43.1340  -37.6990 C.3       1 NON         0.1328
     33 C           5.0310  -43.4780  -37.2170 C.2       1 NON         0.2040
     34 O           5.9870  -43.5020  -37.9930 O.2       1 NON        -0.3944
     35 CB          2.8610  -42.6460  -36.5460 C.3       1 NON         0.0078
     36 CG          1.6040  -43.5050  -36.4550 C.3       1 NON         0.0352
     37 NZ          1.2690  -43.8950  -35.0890 N.am      1 NON        -0.2848
     38 N           5.2140  -43.7780  -35.8450 N.am      1 NON        -0.2635
     39 CA          6.4830  -44.0840  -35.1520 C.3       1 NON         0.1358
     40 C           7.4350  -44.8930  -35.8220 C.2       1 NON         0.2041
     41 O           8.6380  -44.6000  -35.7230 O.2       1 NON        -0.3944
     42 CB          6.1620  -44.6710  -33.7790 C.3       1 NON         0.0278
     43 CG          4.7330  -44.2970  -33.3770 C.3       1 NON        -0.0311
     44 ND          4.6700  -43.6680  -32.0670 N.4       1 NON         0.2187
     45 N           7.0020  -46.0650  -36.5030 N.am      1 NON        -0.2637
     46 CA          7.7940  -47.0470  -37.2860 C.3       1 NON         0.1312
     47 C           7.3310  -48.3820  -37.1380 C.2       1 NON         0.2039
     48 O           7.2620  -49.0640  -38.1640 O.2       1 NON        -0.3944
     49 CB          9.3140  -47.0040  -37.1190 C.3       1 NON        -0.0101
     50 CG         10.0020  -47.0620  -38.4800 C.3       1 NON        -0.0425
     51 CD1        11.2300  -46.1540  -38.4520 C.3       1 NON        -0.0625
     52 CD2        10.3810  -48.5090  -38.8210 C.3       1 NON        -0.0625
     53 N           6.9860  -48.9490  -35.8570 N.am      1 NON        -0.2637
     54 CA          6.4490  -50.3190  -35.6260 C.3       1 NON         0.1312
     55 C           5.5150  -50.3030  -34.5630 C.2       1 NON         0.2039
     56 O           5.0920  -51.3530  -34.0530 O.2       1 NON        -0.3944
     57 CB          7.4990  -51.4370  -35.4180 C.3       1 NON        -0.0101
     58 CG          6.9860  -52.8470  -35.7880 C.3       1 NON        -0.0425
     59 CD1         7.8470  -53.4920  -36.8690 C.3       1 NON        -0.0625
     60 CD2         6.9760  -53.7590  -34.5610 C.3       1 NON        -0.0625
     61 N           5.0120  -49.0750  -34.0760 N.am      1 NON        -0.2635
     62 CA          4.0060  -49.0480  -33.0120 C.3       1 NON         0.1358
     63 C           2.7510  -49.0610  -33.6320 C.2       1 NON         0.2041
     64 O           2.6530  -48.6770  -34.7980 O.2       1 NON        -0.3944
     65 CB          4.1390  -47.8300  -32.0850 C.3       1 NON         0.0278
     66 CG          3.5980  -48.1620  -30.6890 C.3       1 NON        -0.0311
     67 ND          2.6500  -47.1740  -30.2060 N.4       1 NON         0.2187
     68 N           1.5970  -49.5090  -32.9560 N.am      1 NON        -0.2635
     69 CA          0.3180  -49.4770  -33.6480 C.3       1 NON         0.1358
     70 C          -0.0220  -48.1540  -34.0140 C.2       1 NON         0.2042
     71 O          -0.7400  -48.0130  -34.9940 O.2       1 NON        -0.3944
     72 CB         -0.8030  -50.1330  -32.8480 C.3       1 NON         0.0278
     73 CG         -0.3820  -51.4980  -32.3540 C.3       1 NON        -0.0311
     74 ND          0.0400  -51.3480  -30.9850 N.4       1 NON         0.2187
     75 N           0.4700  -47.0080  -33.3070 N.am      1 NON        -0.2613
     76 CA          0.2230  -45.5630  -33.5970 C.3       1 NON         0.1563
     77 CB         -1.2010  -45.1220  -33.2190 C.3       1 NON         0.0924
     78 CG2        -1.3420  -43.6030  -33.2790 C.3       1 NON        -0.0346
     79 OG1        -1.5300  -45.5800  -31.8980 O.3       1 NON        -0.3874
     80 C           0.5890  -45.1140  -34.9000 C.2       1 NON         0.2042
     81 O           0.3350  -45.7450  -35.9240 O.2       1 NON        -0.3944
     82 H1         18.4066  -32.0713  -41.8728 H         1 NON         0.0232
     83 H2         17.2732  -31.9699  -40.4830 H         1 NON         0.0232
     84 H3         16.6880  -31.6257  -42.1460 H         1 NON         0.0232
     85 H4         17.7015  -34.3290  -41.1221 H         1 NON         0.0295
     86 H5         16.9017  -35.1480  -43.3232 H         1 NON         0.0232
     87 H6         18.1919  -33.9136  -43.5184 H         1 NON         0.0232
     88 H7         16.4735  -33.4679  -43.7928 H         1 NON         0.0232
     89 H8         14.9089  -33.3077  -41.8533 H         1 NON         0.0268
     90 H9         15.4979  -33.6969  -40.2015 H         1 NON         0.0268
     91 H10        15.7733  -36.0360  -40.7747 H         1 NON         0.0267
     92 H11        15.4482  -35.7033  -42.5097 H         1 NON         0.0267
     93 H12        13.1557  -34.9752  -41.9587 H         1 NON         0.0290
     94 H13        13.4756  -35.2469  -40.2121 H         1 NON         0.0290
     95 H14        14.1779  -37.6790  -41.0863 H         1 NON         0.0502
     96 H15        13.0803  -37.2448  -42.4404 H         1 NON         0.0502
     97 H16        11.4680  -35.4832  -40.8701 H         1 NON         0.1883
     98 H17         9.6272  -35.3250  -39.5819 H         1 NON         0.0802
     99 H18        10.7010  -37.7550  -38.0887 H         1 NON         0.0364
    100 H19         9.4055  -36.6394  -37.5375 H         1 NON         0.0364
    101 H20        12.3730  -36.1003  -37.9112 H         1 NON         0.0815
    102 H21        11.3448  -35.8240  -36.4645 H         1 NON         0.0815
    103 H22        11.8585  -33.8142  -37.5983 H         1 NON         0.1994
    104 H23        10.2410  -34.1108  -37.6695 H         1 NON         0.1994
    105 H24        11.1833  -34.3640  -38.9952 H         1 NON         0.1994
    106 H25         9.8790  -38.8427  -39.3258 H         1 NON         0.1884
    107 H26         8.6506  -40.6026  -40.0292 H         1 NON         0.0826
    108 H27         7.1497  -39.0686  -42.1206 H         1 NON         0.0639
    109 H28         7.7356  -41.0983  -43.4229 H         1 NON         0.0257
    110 H29         6.9543  -41.5323  -41.8648 H         1 NON         0.0257
    111 H30         8.7337  -41.6911  -42.0522 H         1 NON         0.0257
    112 H31         9.3226  -38.2249  -42.1641 H         1 NON         0.2101
    113 H32         5.9204  -40.2861  -41.2308 H         1 NON         0.1883
    114 H33         3.7300  -40.3490  -40.6184 H         1 NON         0.0802
    115 H34         4.4099  -38.2623  -38.5013 H         1 NON         0.0364
    116 H35         2.8398  -38.5423  -39.3278 H         1 NON         0.0364
    117 H36         3.4860  -37.4383  -41.2321 H         1 NON         0.0815
    118 H37         5.2054  -37.9311  -41.0664 H         1 NON         0.0815
    119 H38         4.8918  -35.6187  -40.6711 H         1 NON         0.1994
    120 H39         5.4047  -36.3674  -39.2979 H         1 NON         0.1994
    121 H40         3.8291  -35.9158  -39.4497 H         1 NON         0.1994
    122 H41         3.7334  -42.4430  -39.7177 H         1 NON         0.1883
    123 H42         3.2865  -44.0340  -38.1259 H         1 NON         0.0800
    124 H43         2.5740  -41.5995  -36.7260 H         1 NON         0.0332
    125 H44         3.4184  -42.7159  -35.6003 H         1 NON         0.0332
    126 H45         1.7604  -44.4169  -37.0500 H         1 NON         0.0522
    127 H46         0.7607  -42.9351  -36.8721 H         1 NON         0.0522
    128 H47         1.5144  -43.3153  -34.3120 H         1 NON         0.1851
    129 H48         4.3891  -43.7834  -35.2797 H         1 NON         0.1883
    130 H49         6.9791  -43.1157  -34.9900 H         1 NON         0.0802
    131 H50         6.8672  -44.2698  -33.0362 H         1 NON         0.0364
    132 H51         6.2553  -45.7663  -33.8191 H         1 NON         0.0364
    133 H52         4.1208  -45.2107  -33.3595 H         1 NON         0.0815
    134 H53         4.3278  -43.5983  -34.1237 H         1 NON         0.0815
    135 H54         3.7123  -43.4416  -31.8487 H         1 NON         0.1994
    136 H55         5.2218  -42.8245  -32.0724 H         1 NON         0.1994
    137 H56         5.0321  -44.3020  -31.3721 H         1 NON         0.1994
    138 H57         6.0218  -46.2549  -36.4459 H         1 NON         0.1883
    139 H58         7.6107  -46.7769  -38.3364 H         1 NON         0.0800
    140 H59         9.6363  -47.8638  -36.5134 H         1 NON         0.0315
    141 H60         9.5962  -46.0706  -36.6100 H         1 NON         0.0315
    142 H61         9.3070  -46.6932  -39.2487 H         1 NON         0.0298
    143 H62        11.7338  -46.1885  -39.4292 H         1 NON         0.0232
    144 H63        11.9228  -46.4982  -37.6700 H         1 NON         0.0232
    145 H64        10.9177  -45.1215  -38.2367 H         1 NON         0.0232
    146 H65         9.4748  -49.1324  -38.8322 H         1 NON         0.0232
    147 H66        11.0808  -48.8929  -38.0641 H         1 NON         0.0232
    148 H67        10.8591  -48.5392  -39.8112 H         1 NON         0.0232
    149 H68         7.1193  -48.3705  -35.0523 H         1 NON         0.1883
    150 H69         5.8973  -50.5882  -36.5387 H         1 NON         0.0800
    151 H70         7.7957  -51.4422  -34.3588 H         1 NON         0.0315
    152 H71         8.3754  -51.2111  -36.0432 H         1 NON         0.0315
    153 H72         5.9580  -52.7511  -36.1674 H         1 NON         0.0298
    154 H73         7.4518  -54.4911  -37.1048 H         1 NON         0.0232
    155 H74         8.8820  -53.5830  -36.5077 H         1 NON         0.0232
    156 H75         7.8281  -52.8672  -37.7741 H         1 NON         0.0232
    157 H76         6.3578  -53.3055  -33.7722 H         1 NON         0.0232
    158 H77         8.0041  -53.8886  -34.1921 H         1 NON         0.0232
    159 H78         6.5588  -54.7390  -34.8359 H         1 NON         0.0232
    160 H79         5.3467  -48.2154  -34.4622 H         1 NON         0.1883
    161 H80         4.1164  -49.9550  -32.3994 H         1 NON         0.0802
    162 H81         3.5669  -46.9898  -32.5054 H         1 NON         0.0364
    163 H82         5.1994  -47.5484  -32.0057 H         1 NON         0.0364
    164 H83         4.4431  -48.2116  -29.9866 H         1 NON         0.0815
    165 H84         3.0968  -49.1403  -30.7293 H         1 NON         0.0815
    166 H85         2.3267  -47.4389  -29.2887 H         1 NON         0.1994
    167 H86         1.8657  -47.1242  -30.8372 H         1 NON         0.1994
    168 H87         3.0994  -46.2731  -30.1567 H         1 NON         0.1994
    169 H88         1.6572  -49.8435  -32.0155 H         1 NON         0.1883
    170 H89         0.4357  -50.0568  -34.5753 H         1 NON         0.0802
    171 H90        -1.6897  -50.2396  -33.4902 H         1 NON         0.0364
    172 H91        -1.0497  -49.4974  -31.9848 H         1 NON         0.0364
    173 H92         0.4500  -51.8789  -32.9645 H         1 NON         0.0815
    174 H93        -1.2294  -52.1969  -32.4120 H         1 NON         0.0815
    175 H94         0.3288  -52.2431  -30.6224 H         1 NON         0.1994
    176 H95        -0.7262  -50.9937  -30.4341 H         1 NON         0.1994
    177 H96         0.8127  -50.7023  -30.9404 H         1 NON         0.1994
    178 H97         1.0537  -47.2004  -32.5181 H         1 NON         0.1884
    179 H98         0.8922  -45.0210  -32.9126 H         1 NON         0.0826
    180 H99        -1.9059  -45.5691  -33.9353 H         1 NON         0.0639
    181 H100       -2.3686  -43.3189  -33.0043 H         1 NON         0.0257
    182 H101       -1.1260  -43.2547  -34.2998 H         1 NON         0.0257
    183 H102       -0.6332  -43.1409  -32.5762 H         1 NON         0.0257
    184 H103       -0.9397  -45.1810  -31.2696 H         1 NON         0.2101
@<TRIPOS>BOND
     1    1    2 1  
     2    2    3 1  
     3    2    4 1  
     4    4    5 1  
     5    5    6 1  
     6    6    7 1  
     7    7    8 1  
     8    8    9 2  
     9    8   10 am 
    10   10   11 1  
    11   11   12 1  
    12   11   14 1  
    13   12   13 2  
    14   12   17 am 
    15   14   15 1  
    16   15   16 1  
    17   17   18 1  
    18   18   19 1  
    19   18   22 1  
    20   19   20 1  
    21   19   21 1  
    22   22   23 2  
    23   22   24 am 
    24   24   25 1  
    25   25   26 1  
    26   25   28 1  
    27   26   27 2  
    28   26   31 am 
    29   28   29 1  
    30   29   30 1  
    31   31   32 1  
    32   32   33 1  
    33   32   35 1  
    34   33   34 2  
    35   33   38 am 
    36   35   36 1  
    37   36   37 1  
    38   37   80 am 
    39   38   39 1  
    40   39   40 1  
    41   39   42 1  
    42   40   41 2  
    43   40   45 am 
    44   42   43 1  
    45   43   44 1  
    46   45   46 1  
    47   46   47 1  
    48   46   49 1  
    49   47   48 2  
    50   47   53 am 
    51   49   50 1  
    52   50   51 1  
    53   50   52 1  
    54   53   54 1  
    55   54   55 1  
    56   54   57 1  
    57   55   56 2  
    58   55   61 am 
    59   57   58 1  
    60   58   59 1  
    61   58   60 1  
    62   61   62 1  
    63   62   63 1  
    64   62   65 1  
    65   63   64 2  
    66   63   68 am 
    67   65   66 1  
    68   66   67 1  
    69   68   69 1  
    70   69   70 1  
    71   69   72 1  
    72   70   71 2  
    73   70   75 am 
    74   72   73 1  
    75   73   74 1  
    76   75   76 1  
    77   76   77 1  
    78   76   80 1  
    79   77   78 1  
    80   77   79 1  
    81   80   81 2  
    82    1   82 1  
    83    1   83 1  
    84    1   84 1  
    85    2   85 1  
    86    3   86 1  
    87    3   87 1  
    88    3   88 1  
    89    4   89 1  
    90    4   90 1  
    91    5   91 1  
    92    5   92 1  
    93    6   93 1  
    94    6   94 1  
    95    7   95 1  
    96    7   96 1  
    97   10   97 1  
    98   11   98 1  
    99   14   99 1  
   100   14  100 1  
   101   15  101 1  
   102   15  102 1  
   103   16  103 1  
   104   16  104 1  
   105   16  105 1  
   106   17  106 1  
   107   18  107 1  
   108   19  108 1  
   109   20  109 1  
   110   20  110 1  
   111   20  111 1  
   112   21  112 1  
   113   24  113 1  
   114   25  114 1  
   115   28  115 1  
   116   28  116 1  
   117   29  117 1  
   118   29  118 1  
   119   30  119 1  
   120   30  120 1  
   121   30  121 1  
   122   31  122 1  
   123   32  123 1  
   124   35  124 1  
   125   35  125 1  
   126   36  126 1  
   127   36  127 1  
   128   37  128 1  
   129   38  129 1  
   130   39  130 1  
   131   42  131 1  
   132   42  132 1  
   133   43  133 1  
   134   43  134 1  
   135   44  135 1  
   136   44  136 1  
   137   44  137 1  
   138   45  138 1  
   139   46  139 1  
   140   49  140 1  
   141   49  141 1  
   142   50  142 1  
   143   51  143 1  
   144   51  144 1  
   145   51  145 1  
   146   52  146 1  
   147   52  147 1  
   148   52  148 1  
   149   53  149 1  
   150   54  150 1  
   151   57  151 1  
   152   57  152 1  
   153   58  153 1  
   154   59  154 1  
   155   59  155 1  
   156   59  156 1  
   157   60  157 1  
   158   60  158 1  
   159   60  159 1  
   160   61  160 1  
   161   62  161 1  
   162   65  162 1  
   163   65  163 1  
   164   66  164 1  
   165   66  165 1  
   166   67  166 1  
   167   67  167 1  
   168   67  168 1  
   169   68  169 1  
   170   69  170 1  
   171   72  171 1  
   172   72  172 1  
   173   73  173 1  
   174   73  174 1  
   175   74  175 1  
   176   74  176 1  
   177   74  177 1  
   178   75  178 1  
   179   76  179 1  
   180   77  180 1  
   181   78  181 1  
   182   78  182 1  
   183   78  183 1  
   184   79  184 1  
@<TRIPOS>SUBSTRUCTURE
     1 NON         1

