4ijh_ligand
  -I-interpret- 

 35 38  0  0  0  0  0  0  0  0999 V2000
   12.9810  -10.2520   22.2960 C   0  0  0  0  0
   13.5760   -9.3580   21.4490 C   0  0  0  0  0
   14.2660   -8.2720   21.9740 C   0  0  0  0  0
   14.3150   -8.0680   23.3360 C   0  0  0  0  0
   13.7310   -8.9820   24.1800 C   0  0  0  0  0
   13.0440  -10.0580   23.6700 C   0  0  0  0  0
   13.7770   -8.7390   25.6140 C   0  0  0  0  0
   13.9810   -9.6230   26.6230 N   0  0  0  0  0
   13.9270   -8.9090   27.7620 C   0  0  0  0  0
   13.6470   -7.6580   27.4720 N   0  0  0  0  0
   13.5770   -7.5340   26.1480 N   0  0  0  0  0
   14.2250  -11.0090   26.4090 C   0  0  0  0  0
   15.3380  -11.3290   25.6660 C   0  0  0  0  0
   15.5870  -12.6690   25.3850 C   0  0  0  0  0
   14.7070  -13.6510   25.8380 C   0  0  0  0  0
   13.5760  -13.3170   26.6100 C   0  0  0  0  0
   13.3300  -11.9730   26.8910 C   0  0  0  0  0
   14.1390   -9.5770   29.3370 S   0  0  0  0  0
   16.8590  -13.3930   24.5020 S   0  0  0  0  0
   16.2880  -14.9890   24.7110 C   0  0  0  0  0
   15.1040  -14.9780   25.4430 C   0  0  0  0  0
   17.0120  -16.1100   24.0950 C   0  0  0  0  0
   16.6690  -17.2820   24.2910 O   0  0  0  0  0
   17.9510  -15.7880   23.3330 O   0  0  0  0  0
   14.1600  -16.3470   25.9000 Cl  0  0  0  0  0
   13.4900   -9.5340   20.1280 F   0  0  0  0  0
   12.4566  -11.1180   21.8922 H   0  0  0  0  0
   14.7719   -7.5768   21.3040 H   0  0  0  0  0
   14.8137   -7.1875   23.7412 H   0  0  0  0  0
   12.5492  -10.7582   24.3431 H   0  0  0  0  0
   16.0099  -10.5501   25.3055 H   0  0  0  0  0
   12.9068  -14.0937   26.9802 H   0  0  0  0  0
   12.4578  -11.6784   27.4746 H   0  0  0  0  0
   14.0273   -8.6116   30.2450 H   0  0  0  0  0
   18.0450  -14.8326   23.3288 H   0  0  0  0  0
  1  2  4  0  0  0
  1  6  4  0  0  0
  2  3  4  0  0  0
  2 26  1  0  0  0
  3  4  4  0  0  0
  4  5  4  0  0  0
  5  6  4  0  0  0
  5  7  1  0  0  0
  7  8  4  0  0  0
  7 11  4  0  0  0
  8  9  4  0  0  0
  8 12  1  0  0  0
  9 10  4  0  0  0
  9 18  1  0  0  0
 10 11  4  0  0  0
 12 13  4  0  0  0
 12 17  4  0  0  0
 13 14  4  0  0  0
 14 15  4  0  0  0
 14 19  4  0  0  0
 15 16  4  0  0  0
 15 21  4  0  0  0
 16 17  4  0  0  0
 19 20  4  0  0  0
 20 21  4  0  0  0
 20 22  1  0  0  0
 21 25  1  0  0  0
 22 23  2  0  0  0
 22 24  1  0  0  0
  1 27  1  0  0  0
  3 28  1  0  0  0
  4 29  1  0  0  0
  6 30  1  0  0  0
 13 31  1  0  0  0
 16 32  1  0  0  0
 17 33  1  0  0  0
 18 34  1  0  0  0
 24 35  1  0  0  0
M  END
$$$$
