4cfu_ligand
  -I-interpret- 

 50 53  0  0  0  0  0  0  0  0999 V2000
   -5.9800   21.6440  -19.4150 C   0  0  0  0  0
   -4.7150   22.2930  -18.9630 C   0  0  0  0  0
   -3.7070   21.2410  -18.3820 C   0  0  0  0  0
   -3.4980   19.9830  -19.2850 C   0  0  0  0  0
   -4.9260   19.3880  -19.7090 C   0  0  0  0  0
   -5.5780   20.5560  -20.4340 C   0  0  0  0  0
   -6.7180   20.1050  -21.2500 C   0  0  0  0  0
   -6.4370   20.9030  -22.4360 O   0  0  0  0  0
   -7.5220   21.5090  -23.0210 C   0  0  0  0  0
   -8.8070   21.1460  -22.7510 N   0  0  0  0  0
   -9.8240   21.7830  -23.4110 C   0  0  0  0  0
  -11.0640   21.3910  -23.1720 N   0  0  0  0  0
   -9.5700   22.7450  -24.3190 N   0  0  0  0  0
   -8.2810   23.0830  -24.5530 C   0  0  0  0  0
   -7.7440   24.0310  -25.3130 N   0  0  0  0  0
   -7.2410   22.5040  -23.9010 C   0  0  0  0  0
   -6.0650   23.0810  -24.3060 N   0  0  0  0  0
   -6.3920   24.0210  -25.2050 C   0  0  0  0  0
   -5.5740   24.8640  -25.8910 C   0  0  0  0  0
   -5.8550   25.1380  -27.2340 C   0  0  0  0  0
   -5.0360   25.9990  -27.9860 C   0  0  0  0  0
   -3.9330   26.6480  -27.3880 C   0  0  0  0  0
   -3.6380   26.3820  -26.0390 C   0  0  0  0  0
   -2.5340   27.0240  -25.4230 C   0  0  0  0  0
   -2.7560   27.8640  -24.5080 O   0  0  0  0  0
   -1.3320   26.7230  -25.7160 O   0  0  0  0  0
   -4.4520   25.5170  -25.2740 C   0  0  0  0  0
   -4.1370   25.2740  -23.8930 C   0  0  0  0  0
   -6.6512   22.3733  -19.8686 H   0  0  0  0  0
   -6.5169   21.2087  -18.5722 H   0  0  0  0  0
   -4.9556   23.0111  -18.1791 H   0  0  0  0  0
   -4.2506   22.7801  -19.8204 H   0  0  0  0  0
   -4.1189   20.8912  -17.4354 H   0  0  0  0  0
   -2.7404   21.7373  -18.2950 H   0  0  0  0  0
   -2.9385   19.2278  -18.7331 H   0  0  0  0  0
   -2.9414   20.2650  -20.1787 H   0  0  0  0  0
   -5.5095   19.0393  -18.8570 H   0  0  0  0  0
   -4.8457   18.4956  -20.3298 H   0  0  0  0  0
   -4.8585   20.9944  -21.1256 H   0  0  0  0  0
   -7.7029   20.2500  -20.8060 H   0  0  0  0  0
   -6.7871   19.0291  -21.4106 H   0  0  0  0  0
  -11.2413   20.6340  -22.5118 H   0  0  0  0  0
  -11.8433   21.8456  -23.6478 H   0  0  0  0  0
   -6.7229   24.6765  -27.7051 H   0  0  0  0  0
   -5.2544   26.1672  -29.0406 H   0  0  0  0  0
   -3.3209   27.3432  -27.9625 H   0  0  0  0  0
   -1.3291   26.0764  -26.4256 H   0  0  0  0  0
   -4.9827   25.5683  -23.2715 H   0  0  0  0  0
   -3.9310   24.2133  -23.7498 H   0  0  0  0  0
   -3.2592   25.8568  -23.6139 H   0  0  0  0  0
  1  2  1  0  0  0
  1  6  1  0  0  0
  2  3  1  0  0  0
  3  4  1  0  0  0
  4  5  1  0  0  0
  5  6  1  0  0  0
  6  7  1  0  0  0
  7  8  1  0  0  0
  8  9  1  0  0  0
  9 10  4  0  0  0
  9 16  4  0  0  0
 10 11  4  0  0  0
 11 12  1  0  0  0
 11 13  4  0  0  0
 13 14  4  0  0  0
 14 15  4  0  0  0
 14 16  4  0  0  0
 15 18  4  0  0  0
 16 17  4  0  0  0
 17 18  4  0  0  0
 18 19  1  0  0  0
 19 20  4  0  0  0
 19 27  4  0  0  0
 20 21  4  0  0  0
 21 22  4  0  0  0
 22 23  4  0  0  0
 23 24  1  0  0  0
 23 27  4  0  0  0
 24 25  2  0  0  0
 24 26  1  0  0  0
 27 28  1  0  0  0
  1 29  1  0  0  0
  1 30  1  0  0  0
  2 31  1  0  0  0
  2 32  1  0  0  0
  3 33  1  0  0  0
  3 34  1  0  0  0
  4 35  1  0  0  0
  4 36  1  0  0  0
  5 37  1  0  0  0
  5 38  1  0  0  0
  6 39  1  0  0  0
  7 40  1  0  0  0
  7 41  1  0  0  0
 12 42  1  0  0  0
 12 43  1  0  0  0
 20 44  1  0  0  0
 21 45  1  0  0  0
 22 46  1  0  0  0
 26 47  1  0  0  0
 28 48  1  0  0  0
 28 49  1  0  0  0
 28 50  1  0  0  0
M  END
$$$$
