2qu6_ligand
  -I-interpret- 

 63 67  0  0  0  0  0  0  0  0999 V2000
   39.6450   38.4890   10.4420 C   0  0  0  0  0
   38.7970   37.4690   10.9550 C   0  0  0  0  0
   37.6380   37.8100   11.7690 C   0  0  0  0  0
   37.2520   39.1400   12.0840 C   0  0  0  0  0
   38.0880   40.1830   11.5640 C   0  0  0  0  0
   39.2510   39.8260   10.7710 C   0  0  0  0  0
   40.9570   27.6530   13.2560 C   0  0  0  0  0
   40.9480   27.7800   11.8820 N   0  0  0  0  0
   40.1950   28.5270   14.0560 C   0  0  0  0  0
   39.4410   29.4710   13.3130 C   0  0  0  0  0
   39.4360   29.5680   11.8620 C   0  0  0  0  0
   40.2500   28.6630   11.1300 C   0  0  0  0  0
   38.6950   32.6260   13.5220 C   0  0  0  0  0
   37.8610   33.6870   13.0770 C   0  0  0  0  0
   36.4470   33.4940   12.8460 C   0  0  0  0  0
   35.7930   32.2230   13.1150 C   0  0  0  0  0
   36.5820   31.1190   13.6090 C   0  0  0  0  0
   38.0140   31.3540   13.7710 C   0  0  0  0  0
   36.9340   35.5190   12.5550 C   0  0  0  0  0
   36.7430   36.9140   12.2430 N   0  0  0  0  0
   38.1380   34.9840   12.9020 N   0  0  0  0  0
   40.2450   41.0850   10.1650 Cl  0  0  0  0  0
   38.7070   30.2420   14.1750 O   0  0  0  0  0
   35.8870   34.6340   12.5110 O   0  0  0  0  0
   41.6870   26.5810   13.9270 C   0  0  0  0  0
   41.6550   26.4290   15.1430 O   0  0  0  0  0
   42.4110   25.7570   13.1440 N   0  0  0  0  0
   43.1400   24.7140   13.8860 C   0  0  0  0  0
   37.7660   41.5070   11.8390 O   0  0  0  0  0
   36.9760   41.7190   13.0240 C   0  0  0  0  0
   37.5600   43.9470   13.9550 N   0  3  0  0  0
   38.4760   44.8730   13.2250 C   0  0  0  0  0
   38.0680   44.7030   11.7730 C   0  0  0  0  0
   36.8280   43.8450   11.7420 C   0  0  0  0  0
   36.5800   43.1900   13.0970 C   0  0  0  0  0
   37.1500   44.3340   15.3240 C   0  0  0  0  0
   40.5289   38.2695    9.8431 H   0  0  0  0  0
   39.0161   36.4237   10.7373 H   0  0  0  0  0
   36.3700   39.3559   12.6870 H   0  0  0  0  0
   40.1857   28.4820   15.1450 H   0  0  0  0  0
   38.8258   30.3130   11.3514 H   0  0  0  0  0
   40.3084   28.6784   10.0417 H   0  0  0  0  0
   39.7680   32.7505   13.6679 H   0  0  0  0  0
   34.7226   32.1055   12.9461 H   0  0  0  0  0
   36.1303   30.1566   13.8494 H   0  0  0  0  0
   35.8023   37.2748   12.4019 H   0  0  0  0  0
   42.4506   25.8474   12.1288 H   0  0  0  0  0
   43.8309   25.1836   14.5861 H   0  0  0  0  0
   42.4291   24.0960   14.4345 H   0  0  0  0  0
   43.6975   24.0933   13.1845 H   0  0  0  0  0
   37.5559   41.4493   13.9066 H   0  0  0  0  0
   36.0811   41.0979   12.9862 H   0  0  0  0  0
   38.1878   43.1889   14.2225 H   0  0  0  0  0
   39.5273   44.6397   13.3937 H   0  0  0  0  0
   38.3864   45.9043   13.5662 H   0  0  0  0  0
   38.8704   44.2303   11.2066 H   0  0  0  0  0
   37.8688   45.6737   11.3190 H   0  0  0  0  0
   36.9638   43.0623   10.9957 H   0  0  0  0  0
   35.9733   44.4757   11.4976 H   0  0  0  0  0
   35.5490   43.2213   13.4494 H   0  0  0  0  0
   38.0343   44.4242   15.9549 H   0  0  0  0  0
   36.6280   45.2903   15.2889 H   0  0  0  0  0
   36.4869   43.5714   15.7325 H   0  0  0  0  0
  1  2  4  0  0  0
  6  1  4  0  0  0
  3  2  4  0  0  0
  4  3  4  0  0  0
  3 20  1  0  0  0
  5  4  4  0  0  0
  5  6  4  0  0  0
 29  5  1  0  0  0
  6 22  1  0  0  0
  7  8  4  0  0  0
  9  7  4  0  0  0
  7 25  1  0  0  0
 12  8  4  0  0  0
 10  9  4  0  0  0
 10 11  4  0  0  0
 23 10  1  0  0  0
 11 12  4  0  0  0
 14 13  4  0  0  0
 13 18  4  0  0  0
 15 14  4  0  0  0
 21 14  4  0  0  0
 15 16  4  0  0  0
 24 15  4  0  0  0
 16 17  4  0  0  0
 17 18  4  0  0  0
 18 23  1  0  0  0
 20 19  1  0  0  0
 19 21  4  0  0  0
 19 24  4  0  0  0
 25 26  2  0  0  0
 25 27  1  0  0  0
 27 28  1  0  0  0
 30 29  1  0  0  0
 35 30  1  0  0  0
 31 32  1  0  0  0
 31 35  1  0  0  0
 31 36  1  0  0  0
 32 33  1  0  0  0
 33 34  1  0  0  0
 34 35  1  0  0  0
  1 37  1  0  0  0
  2 38  1  0  0  0
  4 39  1  0  0  0
  9 40  1  0  0  0
 11 41  1  0  0  0
 12 42  1  0  0  0
 13 43  1  0  0  0
 16 44  1  0  0  0
 17 45  1  0  0  0
 20 46  1  0  0  0
 27 47  1  0  0  0
 28 48  1  0  0  0
 28 49  1  0  0  0
 28 50  1  0  0  0
 30 51  1  0  0  0
 30 52  1  0  0  0
 31 53  1  0  0  0
 32 54  1  0  0  0
 32 55  1  0  0  0
 33 56  1  0  0  0
 33 57  1  0  0  0
 34 58  1  0  0  0
 34 59  1  0  0  0
 35 60  1  0  0  0
 36 61  1  0  0  0
 36 62  1  0  0  0
 36 63  1  0  0  0
M  END
$$$$
