5nwh_ligand
  -I-interpret- 

 56 60  0  0  0  0  0  0  0  0999 V2000
   13.2860  -14.6390  -15.7240 C   0  0  0  0  0
   13.1360  -14.3450  -12.1430 C   0  0  0  0  0
   13.2740  -14.8270  -14.2690 C   0  0  0  0  0
    8.9160  -15.5480   -7.0000 C   0  0  0  0  0
    9.2510  -14.8540   -8.1520 N   0  0  0  0  0
    8.2670  -14.2780   -8.8860 C   0  0  0  0  0
    8.5410  -13.6110   -9.9990 N   0  0  0  0  0
    7.4640  -12.9960  -10.7900 C   0  0  0  0  0
    9.8150  -13.4990  -10.3980 C   0  0  0  0  0
   10.8680  -14.0700   -9.6510 C   0  0  0  0  0
   12.2370  -14.1530   -9.8000 N   0  0  0  0  0
   13.0090  -13.5160  -10.9080 C   0  0  0  0  0
   13.3170  -15.6680  -12.2340 N   0  0  0  0  0
   13.4040  -15.9860  -13.5660 N   0  0  0  0  0
   13.3910  -15.6960  -16.5660 C   0  0  0  0  0
   13.3770  -15.4680  -17.9250 C   0  0  0  0  0
   13.2810  -14.1290  -18.4050 C   0  0  0  0  0
   13.2710  -13.8110  -20.0920 Cl  0  0  0  0  0
   13.1820  -13.1200  -17.5540 C   0  0  0  0  0
   13.0430  -11.5170  -18.1730 Cl  0  0  0  0  0
   13.1870  -13.3360  -16.1960 C   0  0  0  0  0
   13.1020  -13.8090  -13.4220 O   0  0  0  0  0
   12.7470  -14.8370   -8.7870 C   0  0  0  0  0
   14.1350  -15.1130   -8.6020 N   0  0  0  0  0
   14.8830  -15.7140   -9.6540 C   0  0  0  0  0
   16.3480  -15.3560   -9.5880 C   0  0  0  0  0
   16.8650  -15.4520   -8.2600 N   0  3  0  0  0
   16.0870  -14.8080   -7.2420 C   0  0  0  0  0
   14.6610  -15.2820   -7.3030 C   0  0  0  0  0
   11.7360  -15.2310   -7.9710 N   0  0  0  0  0
   10.5580  -14.7620   -8.5070 C   0  0  0  0  0
   10.0620  -12.8330  -11.5150 O   0  0  0  0  0
    7.0180  -14.3720   -8.5160 O   0  0  0  0  0
    9.2495  -16.5818   -7.0902 H   0  0  0  0  0
    9.4013  -15.0819   -6.1425 H   0  0  0  0  0
    7.8347  -15.5242   -6.8645 H   0  0  0  0  0
    7.6277  -11.9200  -10.8496 H   0  0  0  0  0
    7.4640  -13.4210  -11.7937 H   0  0  0  0  0
    6.5050  -13.1929  -10.3107 H   0  0  0  0  0
   10.5044  -14.0613   -9.7682 H   0  0  0  0  0
   12.4695  -12.6115  -11.1891 H   0  0  0  0  0
   14.0193  -13.3501  -10.5340 H   0  0  0  0  0
   13.4849  -16.7091  -16.1749 H   0  0  0  0  0
   13.4386  -16.3015  -18.6247 H   0  0  0  0  0
   13.1145  -12.4990  -15.5015 H   0  0  0  0  0
   14.4873  -15.3504  -10.6023 H   0  0  0  0  0
   14.7935  -16.7961   -9.5587 H   0  0  0  0  0
   16.4616  -14.3252   -9.9235 H   0  0  0  0  0
   16.8977  -16.0551  -10.2183 H   0  0  0  0  0
   17.7721  -14.9857   -8.2687 H   0  0  0  0  0
   16.8805  -16.4449   -8.0270 H   0  0  0  0  0
   16.1125  -13.7300   -7.4010 H   0  0  0  0  0
   16.5037  -15.0530   -6.2650 H   0  0  0  0  0
   14.6299  -16.3405   -7.0449 H   0  0  0  0  0
   14.0648  -14.6975   -6.6023 H   0  0  0  0  0
   11.0074  -12.8299  -11.6820 H   0  0  0  0  0
  3  1  1  0  0  0
  1 15  4  0  0  0
  1 21  4  0  0  0
 12  2  1  0  0  0
  2 13  4  0  0  0
  2 22  4  0  0  0
  3 14  4  0  0  0
 22  3  4  0  0  0
  5  4  1  0  0  0
  5  6  1  0  0  0
 31  5  1  0  0  0
  7  6  1  0  0  0
  6 33  2  0  0  0
  7  8  1  0  0  0
  9  7  1  0  0  0
 10  9  1  0  0  0
  9 32  1  0  0  0
 11 10  4  0  0  0
 10 31  4  0  0  0
 11 12  1  0  0  0
 11 23  4  0  0  0
 13 14  4  0  0  0
 15 16  4  0  0  0
 16 17  4  0  0  0
 17 18  1  0  0  0
 17 19  4  0  0  0
 19 20  1  0  0  0
 19 21  4  0  0  0
 23 24  1  0  0  0
 23 30  4  0  0  0
 24 25  1  0  0  0
 24 29  1  0  0  0
 25 26  1  0  0  0
 26 27  1  0  0  0
 27 28  1  0  0  0
 28 29  1  0  0  0
 30 31  4  0  0  0
  4 34  1  0  0  0
  4 35  1  0  0  0
  4 36  1  0  0  0
  8 37  1  0  0  0
  8 38  1  0  0  0
  8 39  1  0  0  0
  9 40  1  0  0  0
 12 41  1  0  0  0
 12 42  1  0  0  0
 15 43  1  0  0  0
 16 44  1  0  0  0
 21 45  1  0  0  0
 25 46  1  0  0  0
 25 47  1  0  0  0
 26 48  1  0  0  0
 26 49  1  0  0  0
 27 50  1  0  0  0
 27 51  1  0  0  0
 28 52  1  0  0  0
 28 53  1  0  0  0
 29 54  1  0  0  0
 29 55  1  0  0  0
 32 56  1  0  0  0
M  END
$$$$
