4tx6_ligand
  -I-interpret- 

 30 32  0  0  0  0  0  0  0  0999 V2000
   15.6110   41.2980   75.4350 C   0  0  0  0  0
   15.3440   39.8130   75.1550 C   0  0  0  0  0
   15.4800   39.3490   73.9000 N   0  0  0  0  0
   15.0540   38.9650   76.2300 N   0  0  0  0  0
   14.8240   37.5690   76.0710 C   0  0  0  0  0
   14.5920   36.8240   77.0520 O   0  0  0  0  0
   14.9270   37.0860   74.7490 C   0  0  0  0  0
   15.2530   38.0230   73.7010 C   0  0  0  0  0
   15.2570   37.3460   72.5560 O   0  0  0  0  0
   14.9700   35.9280   72.8400 N   0  0  0  0  0
   14.7920   35.7920   74.1630 C   0  0  0  0  0
   14.4670   34.6350   74.8470 C   0  0  0  0  0
   15.3420   34.1990   75.8530 C   0  0  0  0  0
   15.0370   33.0540   76.5790 C   0  0  0  0  0
   13.8600   32.3550   76.3150 C   0  0  0  0  0
   12.9720   32.7730   75.3030 C   0  0  0  0  0
   13.2670   33.9250   74.5600 C   0  0  0  0  0
   12.3810   34.3500   73.5940 O   0  0  0  0  0
   10.9450   34.0920   73.8380 C   0  0  0  0  0
   16.6394   41.5381   75.1651 H   0  0  0  0  0
   14.9272   41.9066   74.8433 H   0  0  0  0  0
   15.4554   41.5003   76.4947 H   0  0  0  0  0
   15.0054   39.3642   77.1674 H   0  0  0  0  0
   16.2555   34.7549   76.0640 H   0  0  0  0  0
   15.7176   32.7026   77.3545 H   0  0  0  0  0
   13.6218   31.4682   76.9024 H   0  0  0  0  0
   12.0638   32.2055   75.0998 H   0  0  0  0  0
   10.7812   33.0187   73.9342 H   0  0  0  0  0
   10.6385   34.5914   74.7571 H   0  0  0  0  0
   10.3609   34.4765   73.0019 H   0  0  0  0  0
  1  2  1  0  0  0
  2  3  2  0  0  0
  2  4  1  0  0  0
  3  8  1  0  0  0
  4  5  1  0  0  0
  5  6  2  0  0  0
  5  7  1  0  0  0
  7  8  4  0  0  0
  7 11  4  0  0  0
  8  9  4  0  0  0
  9 10  4  0  0  0
 10 11  4  0  0  0
 11 12  1  0  0  0
 12 13  4  0  0  0
 12 17  4  0  0  0
 13 14  4  0  0  0
 14 15  4  0  0  0
 15 16  4  0  0  0
 16 17  4  0  0  0
 17 18  1  0  0  0
 18 19  1  0  0  0
  1 20  1  0  0  0
  1 21  1  0  0  0
  1 22  1  0  0  0
  4 23  1  0  0  0
 13 24  1  0  0  0
 14 25  1  0  0  0
 15 26  1  0  0  0
 16 27  1  0  0  0
 19 28  1  0  0  0
 19 29  1  0  0  0
 19 30  1  0  0  0
M  END
$$$$
