4e93_ligand
  -I-interpret- 

 84 88  0  0  0  0  0  0  0  0999 V2000
    2.0770   14.3910   23.7010 C   0  0  0  0  0
    2.4490   15.5000   24.4940 C   0  0  0  0  0
    1.4880   16.1830   25.1490 N   0  0  0  0  0
    0.2280   15.7720   25.1410 C   0  0  0  0  0
   -0.1570   14.6940   24.3790 N   0  0  0  0  0
    0.7450   13.9990   23.7120 C   0  0  0  0  0
   -0.7070   16.4230   25.7820 N   0  0  0  0  0
   -0.5960   17.4730   26.6370 C   0  0  0  0  0
    0.5700   17.7530   27.3490 C   0  0  0  0  0
    0.6150   18.8670   28.1920 C   0  0  0  0  0
   -0.4880   19.7080   28.3160 C   0  0  0  0  0
   -1.6480   19.4670   27.5600 C   0  0  0  0  0
   -1.6740   18.3280   26.7390 C   0  0  0  0  0
   -2.7730   18.0310   26.0150 O   0  0  0  0  0
   -3.8470   18.9800   26.1190 C   0  0  0  0  0
   -0.3650   20.8640   29.1480 N   0  0  0  0  0
    0.6370   20.8540   30.2660 C   0  0  0  0  0
    0.5260   22.0410   31.2410 C   0  0  0  0  0
    0.2780   23.4090   30.5840 C   0  0  0  0  0
   -0.9500   23.3420   29.6250 C   0  0  0  0  0
   -0.9390   22.1430   28.6030 C   0  0  0  0  0
   -0.0180   24.5080   31.6190 N   0  3  0  0  0
    1.1370   24.8190   32.4080 C   0  0  0  0  0
    0.7630   26.0320   33.3340 C   0  0  0  0  0
   -0.2830   26.9140   32.7550 N   0  3  0  0  0
   -0.4620   26.9390   31.3120 C   0  0  0  0  0
   -0.5180   25.5350   30.7440 C   0  0  0  0  0
   -0.0670   28.3130   33.1810 C   0  0  0  0  0
    3.7340   15.8670   24.5110 N   0  0  0  0  0
    4.2700   16.9410   25.1510 C   0  0  0  0  0
    5.6360   16.9570   25.4930 C   0  0  0  0  0
    6.1360   18.1020   26.1670 C   0  0  0  0  0
    5.3470   19.2160   26.4420 C   0  0  0  0  0
    3.9940   19.2060   26.1160 C   0  0  0  0  0
    3.5020   18.0460   25.4850 C   0  0  0  0  0
    6.7120   15.6950   25.2160 S   0  0  0  0  0
    6.7930   14.6930   26.7270 C   0  0  0  0  0
    5.4070   14.0960   26.9570 C   0  0  0  0  0
    7.2060   15.5250   27.9370 C   0  0  0  0  0
    8.1260   16.1550   24.9640 O   0  0  0  0  0
    6.2780   14.8260   24.0870 O   0  0  0  0  0
    3.2470   13.4590   22.8500 Cl  0  0  0  0  0
    0.4410   13.1074   23.1636 H   0  0  0  0  0
   -1.6584   16.0949   25.6161 H   0  0  0  0  0
    1.4418   17.1064   27.2486 H   0  0  0  0  0
    1.5221   19.0795   28.7578 H   0  0  0  0  0
   -2.5013   20.1434   27.6094 H   0  0  0  0  0
   -4.1681   19.0509   27.1582 H   0  0  0  0  0
   -3.5024   19.9557   25.7765 H   0  0  0  0  0
   -4.6822   18.6507   25.5009 H   0  0  0  0  0
    1.6242   20.9115   29.8075 H   0  0  0  0  0
    0.4558   19.9492   30.8461 H   0  0  0  0  0
    1.4832   22.1115   31.7576 H   0  0  0  0  0
   -0.3340   21.8409   31.8801 H   0  0  0  0  0
    1.1920   23.6526   30.0423 H   0  0  0  0  0
   -0.9352   24.2574   29.0334 H   0  0  0  0  0
   -1.8307   23.2093   30.2534 H   0  0  0  0  0
   -1.9767   21.9397   28.3386 H   0  0  0  0  0
   -0.3096   22.4436   27.7654 H   0  0  0  0  0
   -0.6807   24.2877   32.3624 H   0  0  0  0  0
    1.9798   25.0750   31.7660 H   0  0  0  0  0
    1.4322   23.9581   33.0078 H   0  0  0  0  0
    1.6625   26.6328   33.4686 H   0  0  0  0  0
    0.3715   25.6256   34.2666 H   0  0  0  0  0
   -1.1313   26.4824   33.1218 H   0  0  0  0  0
    0.3832   27.4624   30.8650 H   0  0  0  0  0
   -1.4011   27.4441   31.0860 H   0  0  0  0  0
   -1.5687   25.3100   30.5609 H   0  0  0  0  0
    0.1137   25.5282   29.8557 H   0  0  0  0  0
   -0.1130   28.3715   34.2685 H   0  0  0  0  0
    0.9120   28.6486   32.8389 H   0  0  0  0  0
   -0.8413   28.9468   32.7487 H   0  0  0  0  0
    4.3824   15.2786   23.9879 H   0  0  0  0  0
    7.1795   18.1095   26.4819 H   0  0  0  0  0
    5.7885   20.0948   26.9120 H   0  0  0  0  0
    3.3464   20.0542   26.3380 H   0  0  0  0  0
    2.4399   18.0152   25.2417 H   0  0  0  0  0
    7.5451   13.9137   26.6042 H   0  0  0  0  0
    4.6807   14.9006   27.0715 H   0  0  0  0  0
    5.1333   13.4766   26.1029 H   0  0  0  0  0
    5.4209   13.4860   27.8602 H   0  0  0  0  0
    8.1904   15.9581   27.7596 H   0  0  0  0  0
    6.4795   16.3225   28.0930 H   0  0  0  0  0
    7.2421   14.8868   28.8199 H   0  0  0  0  0
  1  2  4  0  0  0
  1  6  4  0  0  0
  1 42  1  0  0  0
  2  3  4  0  0  0
  2 29  1  0  0  0
  3  4  4  0  0  0
  4  5  4  0  0  0
  4  7  1  0  0  0
  5  6  4  0  0  0
  7  8  1  0  0  0
  8  9  4  0  0  0
  8 13  4  0  0  0
  9 10  4  0  0  0
 10 11  4  0  0  0
 11 12  4  0  0  0
 11 16  1  0  0  0
 12 13  4  0  0  0
 13 14  1  0  0  0
 14 15  1  0  0  0
 16 17  1  0  0  0
 16 21  1  0  0  0
 17 18  1  0  0  0
 18 19  1  0  0  0
 19 20  1  0  0  0
 19 22  1  0  0  0
 20 21  1  0  0  0
 22 23  1  0  0  0
 22 27  1  0  0  0
 23 24  1  0  0  0
 24 25  1  0  0  0
 25 26  1  0  0  0
 25 28  1  0  0  0
 26 27  1  0  0  0
 29 30  1  0  0  0
 30 31  4  0  0  0
 30 35  4  0  0  0
 31 32  4  0  0  0
 31 36  1  0  0  0
 32 33  4  0  0  0
 33 34  4  0  0  0
 34 35  4  0  0  0
 36 37  1  0  0  0
 36 40  2  0  0  0
 36 41  2  0  0  0
 37 38  1  0  0  0
 37 39  1  0  0  0
  6 43  1  0  0  0
  7 44  1  0  0  0
  9 45  1  0  0  0
 10 46  1  0  0  0
 12 47  1  0  0  0
 15 48  1  0  0  0
 15 49  1  0  0  0
 15 50  1  0  0  0
 17 51  1  0  0  0
 17 52  1  0  0  0
 18 53  1  0  0  0
 18 54  1  0  0  0
 19 55  1  0  0  0
 20 56  1  0  0  0
 20 57  1  0  0  0
 21 58  1  0  0  0
 21 59  1  0  0  0
 22 60  1  0  0  0
 23 61  1  0  0  0
 23 62  1  0  0  0
 24 63  1  0  0  0
 24 64  1  0  0  0
 25 65  1  0  0  0
 26 66  1  0  0  0
 26 67  1  0  0  0
 27 68  1  0  0  0
 27 69  1  0  0  0
 28 70  1  0  0  0
 28 71  1  0  0  0
 28 72  1  0  0  0
 29 73  1  0  0  0
 32 74  1  0  0  0
 33 75  1  0  0  0
 34 76  1  0  0  0
 35 77  1  0  0  0
 37 78  1  0  0  0
 38 79  1  0  0  0
 38 80  1  0  0  0
 38 81  1  0  0  0
 39 82  1  0  0  0
 39 83  1  0  0  0
 39 84  1  0  0  0
M  END
$$$$
