5ahj_ligand
  -I-interpret- 

 89 89  0  0  0  0  0  0  0  0999 V2000
   56.2460 -134.6250   35.4120 C   0  0  0  0  0
   55.0070 -134.2400   35.1020 N   0  0  0  0  0
   53.9630 -134.1820   36.1500 C   0  0  0  0  0
   52.6690 -133.4630   35.7620 C   0  0  0  0  0
   52.4680 -133.2880   34.4200 C   0  0  0  0  0
   52.9730 -132.1790   33.7970 C   0  0  0  0  0
   52.7330 -132.0100   32.4560 C   0  0  0  0  0
   51.9960 -132.9290   31.7330 C   0  0  0  0  0
   51.4840 -134.0380   32.3640 C   0  0  0  0  0
   51.7150 -134.2000   33.7160 C   0  0  0  0  0
   53.5370 -135.5640   36.6090 C   0  0  0  0  0
   52.9780 -135.6230   37.7070 O   0  0  0  0  0
   53.7400 -136.5200   35.8480 O   0  0  0  0  0
   56.5250 -134.9520   36.5490 O   0  0  0  0  0
   57.2900 -134.7240   34.2740 C   0  0  0  0  0
   58.5660 -135.4130   34.7580 C   0  0  0  0  0
   59.4120 -134.7130   35.4950 N   0  0  0  0  0
   60.5840 -135.3560   36.0650 C   0  0  0  0  0
   60.3250 -135.4440   37.5590 C   0  0  0  0  0
   60.7610 -136.5140   38.2010 N   0  0  0  0  0
   60.4950 -136.6570   39.6310 C   0  0  0  0  0
   61.8320 -136.6530   40.3890 C   0  0  0  0  0
   61.7940 -136.3440   41.6790 N   0  0  0  0  0
   62.9530 -136.1410   42.5430 C   0  0  0  0  0
   62.9740 -136.9880   43.8320 C   0  0  0  0  0
   63.4990 -138.4450   43.6150 C   0  0  0  0  0
   62.3720 -139.2630   43.0710 C   0  0  0  0  0
   61.3110 -139.1100   44.0170 O   0  0  0  0  0
   61.7040 -136.9810   44.3460 O   0  0  0  0  0
   62.7410 -134.6890   42.9260 C   0  0  0  0  0
   63.7750 -133.7400   42.3560 C   0  0  0  0  0
   64.1290 -134.0940   40.9380 C   0  0  0  0  0
   63.1870 -132.3630   42.3440 C   0  0  0  0  0
   62.8650 -136.8250   39.7950 O   0  0  0  0  0
   59.5140 -137.8340   39.8630 C   0  0  0  0  0
   60.1100 -138.9400   40.4550 O   0  0  0  0  0
   58.4230 -137.4480   40.8280 C   0  0  0  0  0
   59.6940 -134.5710   38.1100 O   0  0  0  0  0
   61.8980 -134.6600   35.7010 C   0  0  0  0  0
   61.7590 -133.7400   34.5070 C   0  0  0  0  0
   62.3870 -133.9030   36.7580 O   0  0  0  0  0
   58.7730 -136.5760   34.4710 O   0  0  0  0  0
   57.6170 -133.3640   33.7210 C   0  0  0  0  0
   54.7785 -133.9851   34.1412 H   0  0  0  0  0
   54.4632 -133.6116   36.9327 H   0  0  0  0  0
   52.7267 -132.4659   36.1984 H   0  0  0  0  0
   51.8497 -134.0874   36.1183 H   0  0  0  0  0
   53.5542 -131.4445   34.3545 H   0  0  0  0  0
   53.1327 -131.1312   31.9499 H   0  0  0  0  0
   51.8216 -132.7753   30.6681 H   0  0  0  0  0
   50.9063 -134.7759   31.8074 H   0  0  0  0  0
   51.2948 -135.0627   34.2330 H   0  0  0  0  0
   54.1910 -136.2097   35.0594 H   0  0  0  0  0
   56.8511 -135.3258   33.4782 H   0  0  0  0  0
   59.2419 -133.7215   35.6634 H   0  0  0  0  0
   60.7248 -136.3520   35.6452 H   0  0  0  0  0
   61.2802 -137.2359   37.7012 H   0  0  0  0  0
   59.9578 -135.8118   40.0613 H   0  0  0  0  0
   60.8730 -136.2390   42.1047 H   0  0  0  0  0
   63.8820 -136.4129   42.0419 H   0  0  0  0  0
   63.6819 -136.5462   44.5333 H   0  0  0  0  0
   63.8492 -138.8646   44.5581 H   0  0  0  0  0
   64.3364 -138.4446   42.9173 H   0  0  0  0  0
   62.6551 -140.3084   42.9482 H   0  0  0  0  0
   62.0761 -138.9306   42.0760 H   0  0  0  0  0
   60.5485 -139.6151   43.7254 H   0  0  0  0  0
   61.6834 -137.5017   45.1523 H   0  0  0  0  0
   62.8128 -134.6288   44.0120 H   0  0  0  0  0
   61.7728 -134.3885   42.5255 H   0  0  0  0  0
   64.6731 -133.8018   42.9705 H   0  0  0  0  0
   64.5353 -135.1050   40.9079 H   0  0  0  0  0
   63.2342 -134.0420   40.3177 H   0  0  0  0  0
   64.8732 -133.3907   40.5643 H   0  0  0  0  0
   62.2900 -132.3577   41.7247 H   0  0  0  0  0
   62.9290 -132.0706   43.3619 H   0  0  0  0  0
   63.9154 -131.6618   41.9367 H   0  0  0  0  0
   59.1460 -138.0727   38.8651 H   0  0  0  0  0
   59.4542 -139.6313   40.5717 H   0  0  0  0  0
   58.8669 -137.1695   41.7838 H   0  0  0  0  0
   57.8654 -136.6026   40.4248 H   0  0  0  0  0
   57.7503 -138.2936   40.9710 H   0  0  0  0  0
   62.5894 -135.4670   35.4583 H   0  0  0  0  0
   61.4345 -134.3171   33.6411 H   0  0  0  0  0
   61.0214 -132.9686   34.7283 H   0  0  0  0  0
   62.7214 -133.2742   34.2949 H   0  0  0  0  0
   63.2089 -133.4822   36.4954 H   0  0  0  0  0
   58.0789 -132.7578   34.5003 H   0  0  0  0  0
   58.3074 -133.4698   32.8842 H   0  0  0  0  0
   56.7009 -132.8823   33.3792 H   0  0  0  0  0
  1  2  1  0  0  0
  1 14  2  0  0  0
  1 15  1  0  0  0
  2  3  1  0  0  0
  3  4  1  0  0  0
  3 11  1  0  0  0
  4  5  1  0  0  0
  5  6  4  0  0  0
  5 10  4  0  0  0
  6  7  4  0  0  0
  7  8  4  0  0  0
  8  9  4  0  0  0
  9 10  4  0  0  0
 11 12  2  0  0  0
 11 13  1  0  0  0
 15 16  1  0  0  0
 15 43  1  0  0  0
 16 17  1  0  0  0
 16 42  2  0  0  0
 17 18  1  0  0  0
 18 19  1  0  0  0
 18 39  1  0  0  0
 19 20  1  0  0  0
 19 38  2  0  0  0
 20 21  1  0  0  0
 21 22  1  0  0  0
 21 35  1  0  0  0
 22 23  1  0  0  0
 22 34  2  0  0  0
 23 24  1  0  0  0
 24 25  1  0  0  0
 24 30  1  0  0  0
 25 26  1  0  0  0
 25 29  1  0  0  0
 26 27  1  0  0  0
 27 28  1  0  0  0
 30 31  1  0  0  0
 31 32  1  0  0  0
 31 33  1  0  0  0
 35 36  1  0  0  0
 35 37  1  0  0  0
 39 40  1  0  0  0
 39 41  1  0  0  0
  2 44  1  0  0  0
  3 45  1  0  0  0
  4 46  1  0  0  0
  4 47  1  0  0  0
  6 48  1  0  0  0
  7 49  1  0  0  0
  8 50  1  0  0  0
  9 51  1  0  0  0
 10 52  1  0  0  0
 13 53  1  0  0  0
 15 54  1  0  0  0
 17 55  1  0  0  0
 18 56  1  0  0  0
 20 57  1  0  0  0
 21 58  1  0  0  0
 23 59  1  0  0  0
 24 60  1  0  0  0
 25 61  1  0  0  0
 26 62  1  0  0  0
 26 63  1  0  0  0
 27 64  1  0  0  0
 27 65  1  0  0  0
 28 66  1  0  0  0
 29 67  1  0  0  0
 30 68  1  0  0  0
 30 69  1  0  0  0
 31 70  1  0  0  0
 32 71  1  0  0  0
 32 72  1  0  0  0
 32 73  1  0  0  0
 33 74  1  0  0  0
 33 75  1  0  0  0
 33 76  1  0  0  0
 35 77  1  0  0  0
 36 78  1  0  0  0
 37 79  1  0  0  0
 37 80  1  0  0  0
 37 81  1  0  0  0
 39 82  1  0  0  0
 40 83  1  0  0  0
 40 84  1  0  0  0
 40 85  1  0  0  0
 41 86  1  0  0  0
 43 87  1  0  0  0
 43 88  1  0  0  0
 43 89  1  0  0  0
M  END
$$$$
