4oq3_ligand
  -I-interpret- 

 48 51  0  0  0  0  0  0  0  0999 V2000
   12.6180  -17.2620   11.2960 Cl  0  0  0  0  0
   10.8720  -17.0360   11.3440 C   0  0  0  0  0
   10.1730  -16.5090   10.2480 C   0  0  0  0  0
    8.7650  -16.3390   10.2770 C   0  0  0  0  0
    8.0560  -16.7330   11.4270 C   0  0  0  0  0
    8.7610  -17.2580   12.5250 C   0  0  0  0  0
   10.1550  -17.4110   12.4790 C   0  0  0  0  0
    6.5460  -16.5980   11.5570 C   0  0  0  0  0
    8.2210  -15.8220    9.1410 N   0  0  0  0  0
    8.2530  -14.5830    8.7400 C   0  0  0  0  0
    7.6940  -14.4810    7.6310 N   0  0  0  0  0
    7.2450  -15.7650    7.1950 C   0  0  0  0  0
    7.6590  -16.5470    8.2020 C   0  0  0  0  0
    7.4210  -18.0310    8.3300 C   0  0  0  0  0
    8.4560  -18.9420    8.5090 C   0  0  0  0  0
    8.1350  -20.2910    8.6660 C   0  0  0  0  0
    6.8080  -20.7450    8.6710 C   0  0  0  0  0
    5.7720  -19.8210    8.5020 C   0  0  0  0  0
    6.0890  -18.4700    8.3510 C   0  0  0  0  0
    9.4400  -21.4100    8.8610 Cl  0  0  0  0  0
    6.5790  -16.0550    5.9300 C   0  0  0  0  0
    6.3300  -17.2010    5.6320 O   0  0  0  0  0
    6.3030  -15.0790    5.0920 O   0  0  0  0  0
    8.7770  -13.3610    9.4560 C   0  0  0  0  0
    9.6590  -12.4710    8.8350 C   0  0  0  0  0
   10.1200  -11.3340    9.5100 C   0  0  0  0  0
    9.6780  -11.0700   10.8070 C   0  0  0  0  0
    8.7780  -11.9390   11.4310 C   0  0  0  0  0
    8.3270  -13.0760   10.7550 C   0  0  0  0  0
   11.1080  -10.3920    8.8280 C   0  0  0  0  0
   10.7250  -16.2233    9.3526 H   0  0  0  0  0
    8.2173  -17.5498   13.4235 H   0  0  0  0  0
   10.6817  -17.8266   13.3381 H   0  0  0  0  0
    6.2664  -15.5491   11.4580 H   0  0  0  0  0
    6.0616  -17.1800   10.7730 H   0  0  0  0  0
    6.2321  -16.9685   12.5329 H   0  0  0  0  0
    9.4941  -18.6102    8.5263 H   0  0  0  0  0
    6.5871  -21.8040    8.8048 H   0  0  0  0  0
    4.7331  -20.1506    8.4884 H   0  0  0  0  0
    5.2850  -17.7413    8.2473 H   0  0  0  0  0
    6.5621  -14.2410    5.4821 H   0  0  0  0  0
    9.9911  -12.6643    7.8150 H   0  0  0  0  0
   10.0349  -10.1852   11.3342 H   0  0  0  0  0
    8.4289  -11.7302   12.4423 H   0  0  0  0  0
    7.6193  -13.7478   11.2408 H   0  0  0  0  0
   12.0173  -10.9392    8.5793 H   0  0  0  0  0
   10.6602   -9.9956    7.9167 H   0  0  0  0  0
   11.3497   -9.5706    9.5026 H   0  0  0  0  0
  1  2  1  0  0  0
  2  3  4  0  0  0
  2  7  4  0  0  0
  3  4  4  0  0  0
  4  5  4  0  0  0
  4  9  1  0  0  0
  5  6  4  0  0  0
  5  8  1  0  0  0
  6  7  4  0  0  0
  9 10  4  0  0  0
  9 13  4  0  0  0
 10 11  4  0  0  0
 10 24  1  0  0  0
 11 12  4  0  0  0
 12 13  4  0  0  0
 12 21  1  0  0  0
 13 14  1  0  0  0
 14 15  4  0  0  0
 14 19  4  0  0  0
 15 16  4  0  0  0
 16 17  4  0  0  0
 16 20  1  0  0  0
 17 18  4  0  0  0
 18 19  4  0  0  0
 21 22  2  0  0  0
 21 23  1  0  0  0
 24 25  4  0  0  0
 24 29  4  0  0  0
 25 26  4  0  0  0
 26 27  4  0  0  0
 26 30  1  0  0  0
 27 28  4  0  0  0
 28 29  4  0  0  0
  3 31  1  0  0  0
  6 32  1  0  0  0
  7 33  1  0  0  0
  8 34  1  0  0  0
  8 35  1  0  0  0
  8 36  1  0  0  0
 15 37  1  0  0  0
 17 38  1  0  0  0
 18 39  1  0  0  0
 19 40  1  0  0  0
 23 41  1  0  0  0
 25 42  1  0  0  0
 27 43  1  0  0  0
 28 44  1  0  0  0
 29 45  1  0  0  0
 30 46  1  0  0  0
 30 47  1  0  0  0
 30 48  1  0  0  0
M  END
$$$$
