6dys_ligand
  -I-interpret- 

 33 33  0  0  0  0  0  0  0  0999 V2000
   -1.2160   -6.2920   -7.6540 C   0  0  0  0  0
   -1.6900   -4.9270   -8.1400 C   0  0  0  0  0
   -2.8160   -5.0620   -9.2230 C   0  0  0  0  0
   -4.1090   -3.1210   -8.1930 C   0  0  0  0  0
   -4.1800   -1.7090   -8.8760 C   0  0  0  0  0
   -5.4740   -1.4470   -9.5220 C   0  0  0  0  0
   -5.5170   -0.8000  -10.7670 C   0  0  0  0  0
   -6.7510   -0.5420  -11.3900 C   0  0  0  0  0
   -7.9280   -0.9290  -10.7810 C   0  0  0  0  0
   -7.8820   -1.5810   -9.5300 C   0  0  0  0  0
   -6.6450   -1.8360   -8.9110 C   0  0  0  0  0
    0.1770   -6.2500   -7.1840 N   0  3  0  0  0
   -3.9770   -4.1590   -9.2160 N   0  0  0  0  0
   -2.7420   -5.8760  -10.0430 O   0  0  0  0  0
   -9.1900   -0.6620  -11.4290 O   0  0  0  0  0
   -9.1600   -2.0200   -8.8340 O   0  0  0  0  0
   -1.2759   -6.9924   -8.4871 H   0  0  0  0  0
   -1.8496   -6.5987   -6.8218 H   0  0  0  0  0
   -0.8428   -4.4058   -8.5858 H   0  0  0  0  0
   -2.0934   -4.3784   -7.2889 H   0  0  0  0  0
   -5.0213   -3.2916   -7.6214 H   0  0  0  0  0
   -3.2458   -3.1574   -7.5285 H   0  0  0  0  0
   -3.4110   -1.6747   -9.6477 H   0  0  0  0  0
   -4.0387   -0.9573   -8.0994 H   0  0  0  0  0
   -4.5898   -0.4963  -11.2530 H   0  0  0  0  0
   -6.7783   -0.0358  -12.3550 H   0  0  0  0  0
   -6.6133   -2.3423   -7.9462 H   0  0  0  0  0
    0.4562   -7.1788   -6.8682 H   0  0  0  0  0
    0.7836   -5.9528   -7.9483 H   0  0  0  0  0
    0.2539   -5.5893   -6.4107 H   0  0  0  0  0
   -4.6974   -4.2573   -9.9314 H   0  0  0  0  0
   -9.9060   -0.9908  -10.8805 H   0  0  0  0  0
   -8.9401   -2.4432   -8.0008 H   0  0  0  0  0
  2  1  1  0  0  0
  1 12  1  0  0  0
  3  2  1  0  0  0
 13  3  1  0  0  0
  3 14  2  0  0  0
  4  5  1  0  0  0
  4 13  1  0  0  0
  5  6  1  0  0  0
  6  7  4  0  0  0
  6 11  4  0  0  0
  7  8  4  0  0  0
  8  9  4  0  0  0
  9 10  4  0  0  0
  9 15  1  0  0  0
 10 11  4  0  0  0
 10 16  1  0  0  0
  1 17  1  0  0  0
  1 18  1  0  0  0
  2 19  1  0  0  0
  2 20  1  0  0  0
  4 21  1  0  0  0
  4 22  1  0  0  0
  5 23  1  0  0  0
  5 24  1  0  0  0
  7 25  1  0  0  0
  8 26  1  0  0  0
 11 27  1  0  0  0
 12 28  1  0  0  0
 12 29  1  0  0  0
 12 30  1  0  0  0
 13 31  1  0  0  0
 15 32  1  0  0  0
 16 33  1  0  0  0
M  END
$$$$
