3vf9_ligand
  -I-interpret- 

 34 37  0  0  0  0  0  0  0  0999 V2000
    4.6870   -3.1810  -15.2690 C   0  0  0  0  0
    3.3940   -3.6470  -15.9460 C   0  0  0  0  0
    3.0560   -5.0670  -15.4830 C   0  0  0  0  0
    3.5570   -3.6260  -17.3670 O   0  0  0  0  0
    2.2210   -2.7200  -15.5700 C   0  0  0  0  0
    0.9570   -2.9490  -16.1230 C   0  0  0  0  0
    2.3940   -1.6610  -14.6710 C   0  0  0  0  0
    1.3210   -0.8350  -14.3330 C   0  0  0  0  0
    0.0650   -1.0690  -14.8930 C   0  0  0  0  0
   -1.1100   -0.4620  -14.7590 C   0  0  0  0  0
   -0.1150   -2.1180  -15.7880 C   0  0  0  0  0
   -1.3910   -2.0960  -16.1580 N   0  0  0  0  0
   -2.0020   -1.0910  -15.5270 C   0  0  0  0  0
   -3.3500   -0.7650  -15.6670 C   0  0  0  0  0
   -4.2520   -1.3150  -16.4760 N   0  0  0  0  0
   -5.3520   -0.7670  -16.3280 N   0  0  0  0  0
   -5.3200    0.1910  -15.3930 C   0  0  0  0  0
   -6.1110    1.1020  -14.7840 C   0  0  0  0  0
   -4.0080    0.2020  -14.9280 C   0  0  0  0  0
   -3.9100    1.4130  -13.7650 S   0  0  0  0  0
   -5.5330    1.8750  -13.8510 C   0  0  0  0  0
    4.9198   -2.1665  -15.5925 H   0  0  0  0  0
    4.5555   -3.1975  -14.1871 H   0  0  0  0  0
    5.5024   -3.8486  -15.5474 H   0  0  0  0  0
    2.9089   -5.0703  -14.4030 H   0  0  0  0  0
    2.1432   -5.4010  -15.9763 H   0  0  0  0  0
    3.8761   -5.7369  -15.7413 H   0  0  0  0  0
    4.2857   -4.2005  -17.6129 H   0  0  0  0  0
    0.8080   -3.7768  -16.8162 H   0  0  0  0  0
    3.3748   -1.4800  -14.2313 H   0  0  0  0  0
    1.4638   -0.0106  -13.6344 H   0  0  0  0  0
   -1.3111    0.4038  -14.1280 H   0  0  0  0  0
   -7.1661    1.2041  -15.0378 H   0  0  0  0  0
   -6.0183    2.6526  -13.2612 H   0  0  0  0  0
  1  2  1  0  0  0
  2  3  1  0  0  0
  2  4  1  0  0  0
  2  5  1  0  0  0
  5  6  4  0  0  0
  5  7  4  0  0  0
  6 11  4  0  0  0
  7  8  4  0  0  0
  8  9  4  0  0  0
  9 10  4  0  0  0
  9 11  4  0  0  0
 10 13  4  0  0  0
 11 12  4  0  0  0
 12 13  4  0  0  0
 13 14  1  0  0  0
 14 15  4  0  0  0
 14 19  4  0  0  0
 15 16  4  0  0  0
 16 17  4  0  0  0
 17 18  4  0  0  0
 17 19  4  0  0  0
 18 21  4  0  0  0
 19 20  4  0  0  0
 20 21  4  0  0  0
  1 22  1  0  0  0
  1 23  1  0  0  0
  1 24  1  0  0  0
  3 25  1  0  0  0
  3 26  1  0  0  0
  3 27  1  0  0  0
  4 28  1  0  0  0
  6 29  1  0  0  0
  7 30  1  0  0  0
  8 31  1  0  0  0
 10 32  1  0  0  0
 18 33  1  0  0  0
 21 34  1  0  0  0
M  END
$$$$
