6gbx_ligand
  -I-interpret- 

 44 47  0  0  0  0  0  0  0  0999 V2000
   24.4950    5.1650   34.2620 C   0  0  0  0  0
   23.0260    4.8200   34.4420 N   0  0  0  0  0
   22.3650    3.8060   33.8630 C   0  0  0  0  0
   21.1120    3.8790   34.2460 N   0  0  0  0  0
   20.9390    4.9280   35.0700 N   0  0  0  0  0
   22.1380    5.5250   35.1560 C   0  0  0  0  0
   22.4700    6.7940   35.9480 C   0  0  0  0  0
   23.4290    6.4280   37.0570 C   0  0  0  0  0
   23.6820    7.6110   37.9820 C   0  0  0  0  0
   21.2440    7.3570   36.5410 C   0  0  0  0  0
   21.5500    8.5740   37.3720 C   0  0  0  0  0
   22.4660    8.1780   38.4720 N   0  0  0  0  0
   22.3840    8.7100   39.7360 C   0  0  0  0  0
   23.4630    9.3470   40.1860 N   0  0  0  0  0
   23.5040    9.9390   41.4490 C   0  0  0  0  0
   22.3640    9.9140   42.2640 C   0  0  0  0  0
   21.1950    9.2690   41.7990 C   0  0  0  0  0
   21.1990    8.6600   40.5260 C   0  0  0  0  0
   20.0800    7.8940   40.1600 C   0  0  0  0  0
   20.3640    6.5390   39.8280 C   0  0  0  0  0
   19.3900    5.6270   39.5110 C   0  0  0  0  0
   18.1040    6.0280   39.5450 C   0  0  0  0  0
   17.1820    5.1110   39.2300 F   0  0  0  0  0
   17.7540    7.3170   39.8740 N   0  0  0  0  0
   18.7480    8.2720   40.2050 C   0  0  0  0  0
   25.1069    4.3223   34.5839 H   0  0  0  0  0
   24.6909    5.3774   33.2110 H   0  0  0  0  0
   24.7372    6.0418   34.8625 H   0  0  0  0  0
   22.7915    3.0573   33.1955 H   0  0  0  0  0
   22.9149    7.5337   35.2824 H   0  0  0  0  0
   24.3770    6.1272   36.6110 H   0  0  0  0  0
   22.9917    5.6181   37.6409 H   0  0  0  0  0
   24.2118    8.3779   37.4169 H   0  0  0  0  0
   24.2613    7.2582   38.8353 H   0  0  0  0  0
   20.7902    6.6024   37.1834 H   0  0  0  0  0
   20.5694    7.6467   35.7354 H   0  0  0  0  0
   20.6280    8.9826   37.7856 H   0  0  0  0  0
   22.0214    9.3374   36.7530 H   0  0  0  0  0
   24.4179   10.4184   41.7999 H   0  0  0  0  0
   22.3786   10.3869   43.2460 H   0  0  0  0  0
   20.2985    9.2423   42.4184 H   0  0  0  0  0
   21.4036    6.2113   39.8257 H   0  0  0  0  0
   19.6495    4.6040   39.2385 H   0  0  0  0  0
   18.4690    9.2864   40.4900 H   0  0  0  0  0
  1  2  1  0  0  0
  2  3  4  0  0  0
  2  6  4  0  0  0
  3  4  4  0  0  0
  4  5  4  0  0  0
  5  6  4  0  0  0
  6  7  1  0  0  0
  7  8  1  0  0  0
  7 10  1  0  0  0
  8  9  1  0  0  0
  9 12  1  0  0  0
 10 11  1  0  0  0
 11 12  1  0  0  0
 12 13  1  0  0  0
 13 14  4  0  0  0
 13 18  4  0  0  0
 14 15  4  0  0  0
 15 16  4  0  0  0
 16 17  4  0  0  0
 17 18  4  0  0  0
 18 19  1  0  0  0
 19 20  4  0  0  0
 19 25  4  0  0  0
 20 21  4  0  0  0
 21 22  4  0  0  0
 22 23  1  0  0  0
 22 24  4  0  0  0
 24 25  4  0  0  0
  1 26  1  0  0  0
  1 27  1  0  0  0
  1 28  1  0  0  0
  3 29  1  0  0  0
  7 30  1  0  0  0
  8 31  1  0  0  0
  8 32  1  0  0  0
  9 33  1  0  0  0
  9 34  1  0  0  0
 10 35  1  0  0  0
 10 36  1  0  0  0
 11 37  1  0  0  0
 11 38  1  0  0  0
 15 39  1  0  0  0
 16 40  1  0  0  0
 17 41  1  0  0  0
 20 42  1  0  0  0
 21 43  1  0  0  0
 25 44  1  0  0  0
M  END
$$$$
