3bzf_ligand
  -I-interpret- 

151151  0  0  0  0  0  0  0  0999 V2000
   27.8370  -11.0130   10.9390 N   0  3  0  0  0
   26.7070  -11.9700   11.0560 C   0  0  0  0  0
   25.4360  -11.3170   11.6140 C   0  0  0  0  0
   25.4940  -10.2060   12.2010 O   0  0  0  0  0
   27.0790  -13.2210   12.0210 C   0  0  0  0  0
   28.3790  -13.8680   11.6180 C   0  0  0  0  0
   27.2870  -12.7170   13.4660 C   0  0  0  0  0
   24.3290  -12.0590   11.5130 N   0  0  0  0  0
   23.0470  -11.5820   12.0390 C   0  0  0  0  0
   22.8340  -11.9550   13.4750 C   0  0  0  0  0
   23.4780  -12.8500   14.0080 O   0  0  0  0  0
   21.8910  -12.1330   11.1910 C   0  0  0  0  0
   21.7650  -13.6040   11.1710 C   0  0  0  0  0
   20.1900  -14.3520   10.6360 S   0  0  0  0  0
   20.4750  -14.4430    9.0150 C   0  0  0  0  0
   21.8900  -11.2930   14.1000 N   0  0  0  0  0
   21.5690  -11.6110   15.4570 C   0  0  0  0  0
   21.3110  -13.1080   15.6460 C   0  0  0  0  0
   20.5250  -13.6460   14.9660 O   0  0  0  0  0
   20.3960  -10.7890   15.9170 C   0  0  0  0  0
   21.9870  -13.7800   16.5740 N   0  0  0  0  0
   21.8700  -15.2530   16.8630 C   0  0  0  0  0
   20.6010  -15.7990   17.5750 C   0  0  0  0  0
   20.4270  -17.0110   17.5700 O   0  0  0  0  0
   23.0770  -15.5210   17.8190 C   0  0  0  0  0
   23.9990  -14.3230   17.5700 C   0  0  0  0  0
   23.0680  -13.1760   17.3660 C   0  0  0  0  0
   19.7900  -14.9310   18.1440 N   0  0  0  0  0
   18.6320  -15.3390   18.8140 C   0  0  0  0  0
   17.4280  -14.3980   18.4890 C   0  0  0  0  0
   17.4340  -13.2640   18.8080 O   0  0  0  0  0
   18.8810  -15.4820   20.3480 C   0  0  0  0  0
   17.6490  -15.4180   21.1730 C   0  0  0  0  0
   17.7050  -15.6160   22.7410 C   0  0  0  0  0
   17.5650  -17.0490   23.0060 N   0  0  0  0  0
   16.5840  -17.6670   23.6350 C   0  0  0  0  0
   15.6300  -16.9920   24.1620 N   0  0  0  0  0
   16.6370  -18.9890   23.8490 N   0  0  0  0  0
   16.3790  -14.9640   17.9150 N   0  0  0  0  0
   15.1770  -14.2670   17.5750 C   0  0  0  0  0
   14.0480  -14.5690   18.5940 C   0  0  0  0  0
   13.5930  -15.6600   18.6880 O   0  0  0  0  0
   14.7380  -14.6050   16.1910 C   0  0  0  0  0
   13.5730  -13.5530   19.2930 N   0  0  0  0  0
   12.4540  -13.6490   20.1870 C   0  0  0  0  0
   11.3000  -14.3990   19.6920 C   0  0  0  0  0
   10.9670  -14.3080   18.5560 O   0  0  0  0  0
   11.8880  -12.2650   20.5570 C   0  0  0  0  0
   12.7760  -11.3540   21.3500 C   0  0  0  0  0
   11.9210  -10.2000   21.8800 C   0  0  0  0  0
   13.4120  -12.0200   22.4560 C   0  0  0  0  0
   10.6820  -15.1160   20.6040 N   0  0  0  0  0
    9.3820  -15.7860   20.4010 C   0  0  0  0  0
    8.3810  -14.7690   21.0000 C   0  0  0  0  0
    8.4560  -14.4070   22.1580 O   0  0  0  0  0
    9.3280  -17.0690   21.2090 C   0  0  0  0  0
   10.0200  -18.3250   20.6440 C   0  0  0  0  0
   10.3210  -19.4640   21.6690 C   0  0  0  0  0
    9.1530  -18.8120   19.5150 C   0  0  0  0  0
    7.4730  -14.2790   20.1990 N   0  0  0  0  0
    6.5730  -13.2980   20.6370 C   0  0  0  0  0
    5.3700  -13.9660   21.3850 C   0  0  0  0  0
    4.5360  -13.1930   21.8480 O   0  0  0  0  0
    6.1110  -12.5140   19.4380 C   0  0  0  0  0
    7.1760  -11.7900   18.7000 C   0  0  0  0  0
    6.5540  -11.2760   17.3940 C   0  0  0  0  0
    7.8970  -10.7230   19.6250 C   0  0  0  0  0
    5.2560  -15.2340   21.4450 O   0  0  0  0  0
   27.5669  -10.2430   10.3270 H   0  0  0  0  0
   28.0697  -10.6489   11.8630 H   0  0  0  0  0
   28.6476  -11.4922   10.5470 H   0  0  0  0  0
   26.5205  -12.3159   10.0393 H   0  0  0  0  0
   26.2585  -13.9342   11.9423 H   0  0  0  0  0
   29.1808  -13.1313   11.6679 H   0  0  0  0  0
   28.5986  -14.6925   12.2963 H   0  0  0  0  0
   28.2945  -14.2465   10.5993 H   0  0  0  0  0
   27.5255  -13.5611   14.1131 H   0  0  0  0  0
   28.1077  -11.9999   13.4847 H   0  0  0  0  0
   26.3741  -12.2355   13.8164 H   0  0  0  0  0
   24.3772  -12.9727   11.0622 H   0  0  0  0  0
   23.0703  -10.4936   11.9841 H   0  0  0  0  0
   22.0835  -11.8232   10.1638 H   0  0  0  0  0
   20.9712  -11.7479   11.6311 H   0  0  0  0  0
   21.8809  -13.9091   12.2110 H   0  0  0  0  0
   22.4974  -13.9378   10.4360 H   0  0  0  0  0
   20.6527  -13.4420    8.6219 H   0  0  0  0  0
   21.3513  -15.0660    8.8359 H   0  0  0  0  0
   19.6088  -14.8810    8.5191 H   0  0  0  0  0
   21.3840  -10.5503   13.6176 H   0  0  0  0  0
   22.4311  -11.3619   16.0758 H   0  0  0  0  0
   20.6459   -9.7304   15.8465 H   0  0  0  0  0
   19.5339  -11.0030   15.2852 H   0  0  0  0  0
   20.1613  -11.0401   16.9514 H   0  0  0  0  0
   21.8331  -15.7548   15.8961 H   0  0  0  0  0
   23.5659  -16.4745   17.6194 H   0  0  0  0  0
   22.7740  -15.6067   18.8625 H   0  0  0  0  0
   24.6512  -14.4794   16.7108 H   0  0  0  0  0
   24.6832  -14.1527   18.4012 H   0  0  0  0  0
   22.7187  -12.7382   18.3011 H   0  0  0  0  0
   23.5384  -12.3275   16.8691 H   0  0  0  0  0
   20.0119  -13.9367   18.0948 H   0  0  0  0  0
   18.3642  -16.3303   18.4485 H   0  0  0  0  0
   19.5140  -14.6477   20.6502 H   0  0  0  0  0
   19.3267  -16.4632   20.5113 H   0  0  0  0  0
   17.0528  -16.2603   20.8221 H   0  0  0  0  0
   17.3018  -14.3922   21.0491 H   0  0  0  0  0
   16.9041  -15.0576   23.2256 H   0  0  0  0  0
   18.6487  -15.2439   23.1398 H   0  0  0  0  0
   18.3193  -17.6430   22.6617 H   0  0  0  0  0
   15.6281  -15.9742   24.0956 H   0  0  0  0  0
   15.9256  -19.4416   24.4230 H   0  0  0  0  0
   17.3887  -19.5425   23.4379 H   0  0  0  0  0
   16.4306  -15.9601   17.7015 H   0  0  0  0  0
   15.3913  -13.1990   17.6144 H   0  0  0  0  0
   15.5186  -14.3229   15.4845 H   0  0  0  0  0
   14.5533  -15.6770   16.1214 H   0  0  0  0  0
   13.8222  -14.0614   15.9587 H   0  0  0  0  0
   14.0288  -12.6462   19.1912 H   0  0  0  0  0
   12.8953  -14.1789   21.0312 H   0  0  0  0  0
   11.0210  -12.4581   21.1887 H   0  0  0  0  0
   11.7089  -11.7549   19.6105 H   0  0  0  0  0
   13.5705  -10.9991   20.6936 H   0  0  0  0  0
   11.4812   -9.6604   21.0413 H   0  0  0  0  0
   11.1283  -10.5980   22.5135 H   0  0  0  0  0
   12.5469   -9.5229   22.4612 H   0  0  0  0  0
   12.6498  -12.4124   23.1292 H   0  0  0  0  0
   14.0245  -12.8400   22.0811 H   0  0  0  0  0
   14.0418  -11.3102   22.9924 H   0  0  0  0  0
   11.1312  -15.2164   21.5142 H   0  0  0  0  0
    9.1871  -16.0470   19.3608 H   0  0  0  0  0
    8.2703  -17.3269   21.2631 H   0  0  0  0  0
    9.8575  -16.8446   22.1350 H   0  0  0  0  0
   11.0196  -18.0390   20.3168 H   0  0  0  0  0
   10.9779  -19.0831   22.4510 H   0  0  0  0  0
    9.3868  -19.8077   22.1130 H   0  0  0  0  0
   10.8077  -20.2935   21.1560 H   0  0  0  0  0
    8.1604  -19.0498   19.8974 H   0  0  0  0  0
    9.0746  -18.0330   18.7567 H   0  0  0  0  0
    9.5981  -19.7048   19.0759 H   0  0  0  0  0
    7.4180  -14.6162   19.2379 H   0  0  0  0  0
    7.0563  -12.6218   21.3421 H   0  0  0  0  0
    5.4204  -11.7568   19.8092 H   0  0  0  0  0
    5.6849  -13.2352   18.7405 H   0  0  0  0  0
    8.0060  -12.4362   18.4143 H   0  0  0  0  0
    6.1884  -12.1207   16.8101 H   0  0  0  0  0
    5.7252  -10.6073   17.6263 H   0  0  0  0  0
    7.3084  -10.7363   16.8215 H   0  0  0  0  0
    7.1650   -9.9968   19.9785 H   0  0  0  0  0
    8.3491  -11.2297   20.4777 H   0  0  0  0  0
    8.6708  -10.2116   19.0525 H   0  0  0  0  0
    6.0158  -15.6427   21.0239 H   0  0  0  0  0
  1  2  1  0  0  0
  2  3  1  0  0  0
  2  5  1  0  0  0
  3  4  2  0  0  0
  3  8  1  0  0  0
  5  6  1  0  0  0
  5  7  1  0  0  0
  8  9  1  0  0  0
  9 10  1  0  0  0
  9 12  1  0  0  0
 10 11  2  0  0  0
 10 16  1  0  0  0
 12 13  1  0  0  0
 13 14  1  0  0  0
 14 15  1  0  0  0
 16 17  1  0  0  0
 17 18  1  0  0  0
 17 20  1  0  0  0
 18 19  2  0  0  0
 18 21  1  0  0  0
 21 22  1  0  0  0
 21 27  1  0  0  0
 22 23  1  0  0  0
 22 25  1  0  0  0
 23 24  2  0  0  0
 23 28  1  0  0  0
 25 26  1  0  0  0
 26 27  1  0  0  0
 28 29  1  0  0  0
 29 30  1  0  0  0
 29 32  1  0  0  0
 30 31  2  0  0  0
 30 39  1  0  0  0
 32 33  1  0  0  0
 33 34  1  0  0  0
 34 35  1  0  0  0
 35 36  1  0  0  0
 36 37  2  0  0  0
 36 38  1  0  0  0
 39 40  1  0  0  0
 40 41  1  0  0  0
 40 43  1  0  0  0
 41 42  2  0  0  0
 41 44  1  0  0  0
 44 45  1  0  0  0
 45 46  1  0  0  0
 45 48  1  0  0  0
 46 47  2  0  0  0
 46 52  1  0  0  0
 48 49  1  0  0  0
 49 50  1  0  0  0
 49 51  1  0  0  0
 52 53  1  0  0  0
 53 54  1  0  0  0
 53 56  1  0  0  0
 54 55  2  0  0  0
 54 60  1  0  0  0
 56 57  1  0  0  0
 57 58  1  0  0  0
 57 59  1  0  0  0
 60 61  1  0  0  0
 61 62  1  0  0  0
 61 64  1  0  0  0
 62 63  2  0  0  0
 62 68  1  0  0  0
 64 65  1  0  0  0
 65 66  1  0  0  0
 65 67  1  0  0  0
  1 69  1  0  0  0
  1 70  1  0  0  0
  1 71  1  0  0  0
  2 72  1  0  0  0
  5 73  1  0  0  0
  6 74  1  0  0  0
  6 75  1  0  0  0
  6 76  1  0  0  0
  7 77  1  0  0  0
  7 78  1  0  0  0
  7 79  1  0  0  0
  8 80  1  0  0  0
  9 81  1  0  0  0
 12 82  1  0  0  0
 12 83  1  0  0  0
 13 84  1  0  0  0
 13 85  1  0  0  0
 15 86  1  0  0  0
 15 87  1  0  0  0
 15 88  1  0  0  0
 16 89  1  0  0  0
 17 90  1  0  0  0
 20 91  1  0  0  0
 20 92  1  0  0  0
 20 93  1  0  0  0
 22 94  1  0  0  0
 25 95  1  0  0  0
 25 96  1  0  0  0
 26 97  1  0  0  0
 26 98  1  0  0  0
 27 99  1  0  0  0
 27100  1  0  0  0
 28101  1  0  0  0
 29102  1  0  0  0
 32103  1  0  0  0
 32104  1  0  0  0
 33105  1  0  0  0
 33106  1  0  0  0
 34107  1  0  0  0
 34108  1  0  0  0
 35109  1  0  0  0
 37110  1  0  0  0
 38111  1  0  0  0
 38112  1  0  0  0
 39113  1  0  0  0
 40114  1  0  0  0
 43115  1  0  0  0
 43116  1  0  0  0
 43117  1  0  0  0
 44118  1  0  0  0
 45119  1  0  0  0
 48120  1  0  0  0
 48121  1  0  0  0
 49122  1  0  0  0
 50123  1  0  0  0
 50124  1  0  0  0
 50125  1  0  0  0
 51126  1  0  0  0
 51127  1  0  0  0
 51128  1  0  0  0
 52129  1  0  0  0
 53130  1  0  0  0
 56131  1  0  0  0
 56132  1  0  0  0
 57133  1  0  0  0
 58134  1  0  0  0
 58135  1  0  0  0
 58136  1  0  0  0
 59137  1  0  0  0
 59138  1  0  0  0
 59139  1  0  0  0
 60140  1  0  0  0
 61141  1  0  0  0
 64142  1  0  0  0
 64143  1  0  0  0
 65144  1  0  0  0
 66145  1  0  0  0
 66146  1  0  0  0
 66147  1  0  0  0
 67148  1  0  0  0
 67149  1  0  0  0
 67150  1  0  0  0
 68151  1  0  0  0
M  END
$$$$
