3wzu_ligand
  -I-interpret- 

 50 51  0  0  0  0  0  0  0  0999 V2000
  -10.1080  -15.2060    1.2950 C   0  0  0  0  0
  -10.7630  -15.1460   -0.0580 C   0  0  0  0  0
  -10.7150  -16.1610    2.2480 C   0  0  0  0  0
  -11.8560  -15.9670   -0.3430 C   0  0  0  0  0
  -12.3730  -16.8530    0.6020 C   0  0  0  0  0
   -7.8280  -14.9660    2.5830 O   0  0  0  0  0
  -11.8110  -16.9360    1.8740 C   0  0  0  0  0
  -10.3150  -14.5110   -2.4280 C   0  0  0  0  0
   -5.5020  -14.6000    1.9170 C   0  0  0  0  0
  -10.2650  -14.2440   -1.1170 C   0  0  0  0  0
   -8.2130  -13.3480   -3.0840 C   0  0  0  0  0
   -8.9190  -14.3710    1.7850 C   0  0  0  0  0
   -6.6710  -14.1300    2.7920 C   0  0  0  0  0
   -9.7240  -13.4850   -3.3630 C   0  0  0  0  0
   -8.8580  -13.1590    1.5790 O   0  0  0  0  0
   -7.8550  -12.6760   -1.7210 C   0  0  0  0  0
   -6.3830  -12.6420   -1.3310 C   0  0  0  0  0
   -5.5190  -12.3820   -2.1530 O   0  0  0  0  0
   -5.9610  -12.8900    0.1060 C   0  0  0  0  0
   -5.6820  -14.3730    0.4060 C   0  0  0  0  0
   -7.6340  -14.6580   -3.1840 O   0  0  0  0  0
   -8.3690  -11.3340   -1.6610 O   0  0  0  0  0
  -10.1910  -16.2650    3.4980 O   0  0  0  0  0
  -13.4540  -17.6530    0.3180 O   0  0  0  0  0
  -13.9200  -17.8810   -1.0090 C   0  0  0  0  0
   -6.2550  -14.1190    4.2630 C   0  0  0  0  0
  -12.3170  -15.9141   -1.3293 H   0  0  0  0  0
  -12.2414  -17.6277    2.5982 H   0  0  0  0  0
  -10.7636  -15.4306   -2.8038 H   0  0  0  0  0
   -5.4146  -15.6766    2.0635 H   0  0  0  0  0
   -4.6312  -14.0182    2.2193 H   0  0  0  0  0
   -9.8262  -13.2948   -0.8094 H   0  0  0  0  0
   -7.7989  -12.6666   -3.8271 H   0  0  0  0  0
   -6.9397  -13.1130    2.5062 H   0  0  0  0  0
  -10.2122  -12.5235   -3.2040 H   0  0  0  0  0
   -9.8764  -13.8020   -4.3947 H   0  0  0  0  0
   -8.3327  -13.3364   -0.9973 H   0  0  0  0  0
   -6.7791  -12.5698    0.7513 H   0  0  0  0  0
   -5.0376  -12.3376    0.2800 H   0  0  0  0  0
   -6.5278  -14.9669    0.0596 H   0  0  0  0  0
   -4.7661  -14.6689   -0.1055 H   0  0  0  0  0
   -6.6907  -14.6035   -3.0145 H   0  0  0  0  0
   -8.1375  -10.9413   -0.8161 H   0  0  0  0  0
  -10.6854  -16.9189    3.9976 H   0  0  0  0  0
  -14.2053  -16.9310   -1.4608 H   0  0  0  0  0
  -13.1261  -18.3408   -1.5976 H   0  0  0  0  0
  -14.7839  -18.5451   -0.9803 H   0  0  0  0  0
   -5.9638  -15.1252    4.5644 H   0  0  0  0  0
   -5.4125  -13.4403    4.3959 H   0  0  0  0  0
   -7.0932  -13.7837    4.8738 H   0  0  0  0  0
  1  2  4  0  0  0
  1  3  4  0  0  0
  1 12  1  0  0  0
  2  4  4  0  0  0
  2 10  1  0  0  0
  3  7  4  0  0  0
  3 23  1  0  0  0
  4  5  4  0  0  0
  5  7  4  0  0  0
  5 24  1  0  0  0
 12  6  1  0  0  0
  6 13  1  0  0  0
 10  8  2  0  0  0
  8 14  1  0  0  0
 13  9  1  0  0  0
  9 20  1  0  0  0
 14 11  1  0  0  0
 11 16  1  0  0  0
 11 21  1  0  0  0
 12 15  2  0  0  0
 13 26  1  0  0  0
 16 17  1  0  0  0
 16 22  1  0  0  0
 17 18  2  0  0  0
 17 19  1  0  0  0
 19 20  1  0  0  0
 24 25  1  0  0  0
  4 27  1  0  0  0
  7 28  1  0  0  0
  8 29  1  0  0  0
  9 30  1  0  0  0
  9 31  1  0  0  0
 10 32  1  0  0  0
 11 33  1  0  0  0
 13 34  1  0  0  0
 14 35  1  0  0  0
 14 36  1  0  0  0
 16 37  1  0  0  0
 19 38  1  0  0  0
 19 39  1  0  0  0
 20 40  1  0  0  0
 20 41  1  0  0  0
 21 42  1  0  0  0
 22 43  1  0  0  0
 23 44  1  0  0  0
 25 45  1  0  0  0
 25 46  1  0  0  0
 25 47  1  0  0  0
 26 48  1  0  0  0
 26 49  1  0  0  0
 26 50  1  0  0  0
M  END
$$$$
