2jew_ligand
  -I-interpret- 

 39 39  0  0  0  0  0  0  0  0999 V2000
   79.4660   16.3410   -0.6950 N   0  3  0  0  0
   80.3290   17.2560   -1.4440 C   0  0  0  0  0
   80.1640   24.3510    3.2950 C   0  0  0  0  0
   82.9680   27.6400    2.1870 C   0  0  0  0  0
   82.2210   25.2580    2.5410 C   0  0  0  0  0
   82.0740   26.4970    1.6750 C   0  0  0  0  0
   80.9250   18.3120   -0.4950 C   0  0  0  0  0
   79.8310   19.3380   -0.0960 C   0  0  0  0  0
   80.3960   20.3740    0.8910 C   0  0  0  0  0
   79.2870   21.4050    1.2370 C   0  0  0  0  0
   79.9220   22.5910    1.9040 C   0  0  0  0  0
   81.0240   23.2840    1.6310 C   0  0  0  0  0
   79.4760   23.3650    2.9890 N   0  0  0  0  0
   80.9750   19.8280    2.1520 C   0  0  0  0  0
   81.1310   24.3080    2.4560 N   0  0  0  0  0
   82.2020   19.9810    2.3710 O   0  0  0  0  0
   80.2260   19.2290    2.9540 O   0  0  0  0  0
   79.0761   15.6457   -1.3314 H   0  0  0  0  0
   80.0139   15.8733    0.0272 H   0  0  0  0  0
   78.7088   16.8686   -0.2607 H   0  0  0  0  0
   79.7402   17.7561   -2.2130 H   0  0  0  0  0
   81.1385   16.6897   -1.9045 H   0  0  0  0  0
   79.9880   25.0787    4.0871 H   0  0  0  0  0
   82.6837   27.8922    3.2086 H   0  0  0  0  0
   84.0102   27.3214    2.1667 H   0  0  0  0  0
   82.8412   28.5132    1.5471 H   0  0  0  0  0
   82.2537   25.6027    3.5746 H   0  0  0  0  0
   83.1141   24.7391    2.1929 H   0  0  0  0  0
   82.3742   26.2486    0.6570 H   0  0  0  0  0
   81.0350   26.8249    1.7088 H   0  0  0  0  0
   81.7392   18.8317   -1.0001 H   0  0  0  0  0
   81.3010   17.8193    0.4016 H   0  0  0  0  0
   79.0065   18.8082    0.3810 H   0  0  0  0  0
   79.4869   19.8544   -0.9921 H   0  0  0  0  0
   81.2386   20.8310    0.3720 H   0  0  0  0  0
   78.5562   20.9514    1.9065 H   0  0  0  0  0
   78.7786   21.7211    0.3261 H   0  0  0  0  0
   81.7348   23.0414    0.8411 H   0  0  0  0  0
   82.5985   20.4629    1.6415 H   0  0  0  0  0
  2  1  1  0  0  0
  7  2  1  0  0  0
 13  3  4  0  0  0
  3 15  4  0  0  0
  6  4  1  0  0  0
  5  6  1  0  0  0
 15  5  1  0  0  0
  8  7  1  0  0  0
  9  8  1  0  0  0
 10  9  1  0  0  0
  9 14  1  0  0  0
 11 10  1  0  0  0
 11 12  4  0  0  0
 11 13  4  0  0  0
 12 15  4  0  0  0
 14 16  1  0  0  0
 14 17  2  0  0  0
  1 18  1  0  0  0
  1 19  1  0  0  0
  1 20  1  0  0  0
  2 21  1  0  0  0
  2 22  1  0  0  0
  3 23  1  0  0  0
  4 24  1  0  0  0
  4 25  1  0  0  0
  4 26  1  0  0  0
  5 27  1  0  0  0
  5 28  1  0  0  0
  6 29  1  0  0  0
  6 30  1  0  0  0
  7 31  1  0  0  0
  7 32  1  0  0  0
  8 33  1  0  0  0
  8 34  1  0  0  0
  9 35  1  0  0  0
 10 36  1  0  0  0
 10 37  1  0  0  0
 12 38  1  0  0  0
 16 39  1  0  0  0
M  END
$$$$
