3nc9_ligand
  -I-interpret- 

 49 52  0  0  0  0  0  0  0  0999 V2000
   -5.2210    2.6290   17.3980 C   0  0  0  0  0
   -4.2420    1.9840   16.6360 C   0  0  0  0  0
   -3.8100    0.6940   16.9960 C   0  0  0  0  0
   -4.3880    0.0570   18.1230 C   0  0  0  0  0
   -5.3730    0.6870   18.8890 C   0  0  0  0  0
   -5.7770    1.9850   18.5210 C   0  0  0  0  0
   -2.8510   -1.3500   17.1980 N   0  0  0  0  0
   -3.7550   -1.1810   18.1900 N   0  0  0  0  0
   -2.8800   -0.2490   16.5010 C   0  0  0  0  0
   -4.6750   -4.2750   20.9380 C   0  0  0  0  0
   -4.4320   -4.5670   19.5860 C   0  0  0  0  0
   -4.1200   -3.5440   18.6730 C   0  0  0  0  0
   -4.0050   -2.2160   19.1130 C   0  0  0  0  0
   -4.3070   -1.9140   20.4560 C   0  0  0  0  0
   -4.6040   -2.9410   21.3750 C   0  0  0  0  0
   -1.9360   -0.0290   15.0420 S   0  0  0  0  0
   -3.1690   -0.2120   13.7290 C   0  0  0  0  0
   -7.6100    2.1360   20.1250 C   0  0  0  0  0
   -6.8200    2.6540   19.1810 N   0  0  0  0  0
   -7.5590    0.9770   20.5700 O   0  0  0  0  0
  -10.4130    3.5850   22.3130 C   0  0  0  0  0
   -9.1560    2.7730   21.9850 C   0  0  0  0  0
   -8.7680    3.0430   20.5160 C   0  0  0  0  0
   -9.9600    2.8380   19.5490 C   0  0  0  0  0
  -11.1700    3.6640   20.0110 C   0  0  0  0  0
  -11.4990    3.2530   21.3790 N   0  3  0  0  0
   -5.5540    3.6299   17.1232 H   0  0  0  0  0
   -3.8141    2.4796   15.7646 H   0  0  0  0  0
   -5.8172    0.1864   19.7493 H   0  0  0  0  0
   -4.9158   -5.0733   21.6400 H   0  0  0  0  0
   -4.4859   -5.5993   19.2401 H   0  0  0  0  0
   -3.9670   -3.7829   17.6206 H   0  0  0  0  0
   -4.3110   -0.8757   20.7876 H   0  0  0  0  0
   -4.7785   -2.7007   22.4238 H   0  0  0  0  0
   -3.6203   -1.2022   13.7916 H   0  0  0  0  0
   -3.9406    0.5486   13.8484 H   0  0  0  0  0
   -2.6858   -0.0922   12.7593 H   0  0  0  0  0
   -6.9899    3.6240   18.9153 H   0  0  0  0  0
  -10.1819    4.6465   22.2244 H   0  0  0  0  0
  -10.7334    3.3473   23.3274 H   0  0  0  0  0
   -9.3515    1.7104   22.1289 H   0  0  0  0  0
   -8.3402    3.0672   22.6454 H   0  0  0  0  0
   -8.4670    4.0874   20.4344 H   0  0  0  0  0
  -10.2326    1.7827   19.5391 H   0  0  0  0  0
   -9.6679    3.1629   18.5504 H   0  0  0  0  0
  -12.0195    3.4919   19.3501 H   0  0  0  0  0
  -10.9344    4.7278   19.9824 H   0  0  0  0  0
  -12.3417    3.7470   21.6724 H   0  0  0  0  0
  -11.6386    2.2426   21.3896 H   0  0  0  0  0
  1  2  4  0  0  0
  6  1  4  0  0  0
  2  3  4  0  0  0
  4  3  4  0  0  0
  3  9  4  0  0  0
  5  4  4  0  0  0
  4  8  4  0  0  0
  6  5  4  0  0  0
 19  6  1  0  0  0
  8  7  4  0  0  0
  7  9  4  0  0  0
  8 13  1  0  0  0
  9 16  1  0  0  0
 11 10  4  0  0  0
 15 10  4  0  0  0
 12 11  4  0  0  0
 13 12  4  0  0  0
 13 14  4  0  0  0
 14 15  4  0  0  0
 16 17  1  0  0  0
 18 19  1  0  0  0
 18 20  2  0  0  0
 23 18  1  0  0  0
 22 21  1  0  0  0
 21 26  1  0  0  0
 22 23  1  0  0  0
 23 24  1  0  0  0
 24 25  1  0  0  0
 25 26  1  0  0  0
  1 27  1  0  0  0
  2 28  1  0  0  0
  5 29  1  0  0  0
 10 30  1  0  0  0
 11 31  1  0  0  0
 12 32  1  0  0  0
 14 33  1  0  0  0
 15 34  1  0  0  0
 17 35  1  0  0  0
 17 36  1  0  0  0
 17 37  1  0  0  0
 19 38  1  0  0  0
 21 39  1  0  0  0
 21 40  1  0  0  0
 22 41  1  0  0  0
 22 42  1  0  0  0
 23 43  1  0  0  0
 24 44  1  0  0  0
 24 45  1  0  0  0
 25 46  1  0  0  0
 25 47  1  0  0  0
 26 48  1  0  0  0
 26 49  1  0  0  0
M  END
$$$$
