1cnw_ligand
  -I-interpret- 

 51 51  0  0  0  0  0  0  0  0999 V2000
   -6.0330    0.9590   17.0960 S   0  0  0  0  0
   -5.5710    0.9590   18.4380 O   0  0  0  0  0
   -7.4660    1.0840   17.0250 O   0  0  0  0  0
   -5.4650   -0.1670   16.3890 N   0  0  0  0  0
   -4.6630    4.4200   14.6230 C   0  0  0  0  0
   -3.7550    3.3360   14.9060 C   0  0  0  0  0
   -4.2130    2.2520   15.6830 C   0  0  0  0  0
   -5.5130    2.2520   16.2480 C   0  0  0  0  0
   -6.3610    3.3360   15.8950 C   0  0  0  0  0
   -5.9450    4.4200   15.1180 C   0  0  0  0  0
   -4.2470    5.5460   13.8460 C   0  0  0  0  0
   -4.9420    6.5050   13.5630 O   0  0  0  0  0
   -3.0270    5.5460   13.4220 N   0  0  0  0  0
   -2.4210    6.5890   12.5740 C   0  0  0  0  0
   -2.2030    7.9230   13.2100 C   0  0  0  0  0
   -1.1370    7.7980   14.1990 O   0  0  0  0  0
   -1.4310    8.6740   15.3290 C   0  0  0  0  0
   -0.9970   10.0500   14.9760 C   0  0  0  0  0
   -1.5970   11.0290   15.8440 O   0  0  0  0  0
   -1.1400   12.3040   15.4080 C   0  0  0  0  0
    0.1110   12.1830   14.6990 C   0  0  0  0  0
    0.9100   13.3750   14.9320 N   0  0  0  0  0
    2.1780   13.2910   14.2260 C   0  0  0  0  0
    2.5250   12.2270   13.7440 O   0  0  0  0  0
    3.0130   14.6000   14.0910 C   0  0  0  0  0
    2.1970   15.6690   14.7760 N   0  3  0  0  0
   -6.0731   -0.8108   15.8829 H   0  0  0  0  0
   -4.4562   -0.3175   16.3963 H   0  0  0  0  0
   -2.7334    3.3542   14.5263 H   0  0  0  0  0
   -3.5557    1.3991   15.8521 H   0  0  0  0  0
   -7.3916    3.3211   16.2495 H   0  0  0  0  0
   -6.6226    5.2478   14.9089 H   0  0  0  0  0
   -2.4353    4.7616   13.6957 H   0  0  0  0  0
   -3.1208    6.7561   11.7552 H   0  0  0  0  0
   -1.4323    6.2195   12.3019 H   0  0  0  0  0
   -3.1206    8.2583   13.6934 H   0  0  0  0  0
   -1.9225    8.6544   12.4520 H   0  0  0  0  0
   -0.9005    8.3304   16.2170 H   0  0  0  0  0
   -2.4996    8.6620   15.5438 H   0  0  0  0  0
   -1.3072   10.2588   13.9521 H   0  0  0  0  0
    0.0860   10.1096   15.0835 H   0  0  0  0  0
   -0.9906   12.9415   16.2795 H   0  0  0  0  0
   -1.8842   12.7347   14.7381 H   0  0  0  0  0
   -0.0824   12.0752   13.6317 H   0  0  0  0  0
    0.6503   11.3057   15.0560 H   0  0  0  0  0
    0.6204   14.1627   15.5117 H   0  0  0  0  0
    3.2015   14.8483   13.0465 H   0  0  0  0  0
    3.9978   14.4951   14.5463 H   0  0  0  0  0
    2.6920   16.5592   14.7229 H   0  0  0  0  0
    1.2922   15.7535   14.3127 H   0  0  0  0  0
    2.0572   15.4141   15.7537 H   0  0  0  0  0
  1  8  1  0  0  0
  1  4  1  0  0  0
  1  3  2  0  0  0
  1  2  2  0  0  0
  8  9  4  0  0  0
  8  7  4  0  0  0
  7  6  4  0  0  0
  6  5  4  0  0  0
  5 11  1  0  0  0
  5 10  4  0  0  0
 10  9  4  0  0  0
 11 13  1  0  0  0
 11 12  2  0  0  0
 13 14  1  0  0  0
 14 15  1  0  0  0
 15 16  1  0  0  0
 16 17  1  0  0  0
 17 18  1  0  0  0
 18 19  1  0  0  0
 19 20  1  0  0  0
 20 21  1  0  0  0
 21 22  1  0  0  0
 22 23  1  0  0  0
 23 25  1  0  0  0
 23 24  2  0  0  0
 25 26  1  0  0  0
  4 27  1  0  0  0
  4 28  1  0  0  0
  6 29  1  0  0  0
  7 30  1  0  0  0
  9 31  1  0  0  0
 10 32  1  0  0  0
 13 33  1  0  0  0
 14 34  1  0  0  0
 14 35  1  0  0  0
 15 36  1  0  0  0
 15 37  1  0  0  0
 17 38  1  0  0  0
 17 39  1  0  0  0
 18 40  1  0  0  0
 18 41  1  0  0  0
 20 42  1  0  0  0
 20 43  1  0  0  0
 21 44  1  0  0  0
 21 45  1  0  0  0
 22 46  1  0  0  0
 25 47  1  0  0  0
 25 48  1  0  0  0
 26 49  1  0  0  0
 26 50  1  0  0  0
 26 51  1  0  0  0
M  END
$$$$
