1ms0_ligand
  -I-interpret- 

 39 39  0  0  0  0  0  0  0  0999 V2000
   34.6050  -15.8460    9.5840 C   0  0  0  0  0
   33.7160  -16.1120   10.6570 C   0  0  0  0  0
   34.2630  -16.3080   12.0560 C   0  0  0  0  0
   33.2400  -16.9410   12.9940 C   0  0  0  0  0
   32.3650  -17.8500   12.1730 C   0  0  0  0  0
   31.6040  -16.9760   11.1970 C   0  0  0  0  0
   30.6760  -17.8780   10.3660 C   0  0  0  0  0
   29.6120  -17.0800    9.6470 C   0  0  0  0  0
   28.7460  -18.0500    8.8490 C   0  0  0  0  0
   31.2740  -19.9490   12.7040 C   0  0  0  0  0
   32.3290  -20.5910   11.8400 C   0  0  0  0  0
   31.4590  -18.6500   12.9840 N   0  0  0  0  0
   34.8930  -16.8120    8.5800 O   0  0  0  0  0
   35.2100  -14.6830    9.4650 O   0  0  0  0  0
   33.8740  -17.7210   13.9740 O   0  0  0  0  0
   32.4720  -16.1560   10.4120 O   0  0  0  0  0
   31.3590  -18.6980    9.4310 O   0  0  0  0  0
   28.8660  -16.3770   10.6120 O   0  0  0  0  0
   29.3810  -18.3560    7.6270 O   0  0  0  0  0
   30.1670  -20.6860   13.1810 O   0  0  0  0  0
   33.4963  -16.8271   11.4497 H   0  0  0  0  0
   34.5282  -15.3292   12.4557 H   0  0  0  0  0
   35.1224  -16.9755   11.9927 H   0  0  0  0  0
   32.6675  -16.1530   13.4832 H   0  0  0  0  0
   32.9881  -18.5736   11.6474 H   0  0  0  0  0
   30.9879  -16.2586   11.7391 H   0  0  0  0  0
   30.2075  -18.5375   11.0966 H   0  0  0  0  0
   30.0405  -16.3572    8.9528 H   0  0  0  0  0
   27.7779  -17.5908    8.6490 H   0  0  0  0  0
   28.6048  -18.9658    9.4230 H   0  0  0  0  0
   32.7914  -21.4141   12.3847 H   0  0  0  0  0
   31.8684  -20.9705   10.9279 H   0  0  0  0  0
   33.0875  -19.8510   11.5847 H   0  0  0  0  0
   30.9639  -18.2223   13.7665 H   0  0  0  0  0
   34.4027  -17.6170    8.7621 H   0  0  0  0  0
   34.4389  -17.1608   14.5112 H   0  0  0  0  0
   32.0351  -19.2055    9.8860 H   0  0  0  0  0
   28.1834  -15.8627   10.1748 H   0  0  0  0  0
   28.8338  -18.9663    7.1274 H   0  0  0  0  0
  2  1  1  0  0  0
  1 13  1  0  0  0
  1 14  2  0  0  0
  3  2  1  0  0  0
 16  2  1  0  0  0
  4  3  1  0  0  0
  5  4  1  0  0  0
  4 15  1  0  0  0
  5  6  1  0  0  0
 12  5  1  0  0  0
  6  7  1  0  0  0
  6 16  1  0  0  0
  7  8  1  0  0  0
  7 17  1  0  0  0
  8  9  1  0  0  0
  8 18  1  0  0  0
  9 19  1  0  0  0
 10 11  1  0  0  0
 10 12  1  0  0  0
 10 20  2  0  0  0
  2 21  1  0  0  0
  3 22  1  0  0  0
  3 23  1  0  0  0
  4 24  1  0  0  0
  5 25  1  0  0  0
  6 26  1  0  0  0
  7 27  1  0  0  0
  8 28  1  0  0  0
  9 29  1  0  0  0
  9 30  1  0  0  0
 11 31  1  0  0  0
 11 32  1  0  0  0
 11 33  1  0  0  0
 12 34  1  0  0  0
 13 35  1  0  0  0
 15 36  1  0  0  0
 17 37  1  0  0  0
 18 38  1  0  0  0
 19 39  1  0  0  0
M  END
$$$$
