5ggl_ligand
  -I-interpret- 

 42 43  0  0  0  0  0  0  0  0999 V2000
   -0.0370   16.1270   76.3740 C   0  0  0  0  0
   -1.1980   16.0190   77.3520 C   0  0  0  0  0
   -0.9030   16.8190   78.6270 C   0  0  0  0  0
    0.4590   16.3970   79.2180 C   0  0  0  0  0
    1.5600   16.5380   78.1710 C   0  0  0  0  0
    2.9360   16.0620   78.6120 C   0  0  0  0  0
   -2.4430   16.4360   76.7050 N   0  0  0  0  0
    0.0640   17.4360   75.8430 O   0  0  0  0  0
    0.8310   17.2630   80.2950 O   0  0  0  0  0
    1.2080   15.7830   77.0120 O   0  0  0  0  0
    2.8870   14.6560   78.8860 O   0  0  0  0  0
   -3.0360   14.3460   76.0970 O   0  0  0  0  0
    1.4570   17.4660   69.7980 O   0  0  0  0  0
    2.2910   17.6980   70.8770 N   0  0  0  0  0
    3.6560   17.9010   70.7610 O   0  0  0  0  0
    1.7140   17.6670   72.1280 C   0  0  0  0  0
    0.6980   18.5510   72.4480 C   0  0  0  0  0
    0.1360   18.4760   73.7080 C   0  0  0  0  0
    2.1890   16.7160   73.0000 C   0  0  0  0  0
    1.6290   16.6460   74.2500 C   0  0  0  0  0
    0.6120   17.5250   74.5940 C   0  0  0  0  0
   -3.2680   15.5460   76.1350 C   0  0  0  0  0
   -4.5280   16.0940   75.5250 C   0  0  0  0  0
   -1.9430   16.5680   79.5740 O   0  0  0  0  0
   -0.2340   15.4257   75.5632 H   0  0  0  0  0
   -1.3221   14.9786   77.6525 H   0  0  0  0  0
   -0.8616   17.8826   78.3920 H   0  0  0  0  0
    0.3537   15.3655   79.5543 H   0  0  0  0  0
    1.6330   17.6092   77.9829 H   0  0  0  0  0
    3.2359   16.5984   79.5122 H   0  0  0  0  0
    3.6592   16.2538   77.8194 H   0  0  0  0  0
   -2.6884   17.4259   76.6874 H   0  0  0  0  0
    0.1680   17.2136   80.9875 H   0  0  0  0  0
    3.7550   14.3549   79.1644 H   0  0  0  0  0
    0.3500   19.2878   71.7241 H   0  0  0  0  0
   -0.6672   19.1531   73.9989 H   0  0  0  0  0
    2.9888   16.0363   72.7059 H   0  0  0  0  0
    1.9804   15.9051   74.9681 H   0  0  0  0  0
   -4.5478   15.8575   74.4612 H   0  0  0  0  0
   -5.3922   15.6450   76.0145 H   0  0  0  0  0
   -4.5543   17.1755   75.6586 H   0  0  0  0  0
   -2.7862   16.8329   79.1993 H   0  0  0  0  0
  1  2  1  0  0  0
  8  1  1  0  0  0
  1 10  1  0  0  0
  2  3  1  0  0  0
  2  7  1  0  0  0
  3  4  1  0  0  0
  3 24  1  0  0  0
  5  4  1  0  0  0
  4  9  1  0  0  0
  5  6  1  0  0  0
 10  5  1  0  0  0
  6 11  1  0  0  0
  7 22  1  0  0  0
 21  8  1  0  0  0
 22 12  2  0  0  0
 14 13  2  0  0  0
 14 15  2  0  0  0
 16 14  1  0  0  0
 17 16  4  0  0  0
 16 19  4  0  0  0
 18 17  4  0  0  0
 18 21  4  0  0  0
 19 20  4  0  0  0
 20 21  4  0  0  0
 22 23  1  0  0  0
  1 25  1  0  0  0
  2 26  1  0  0  0
  3 27  1  0  0  0
  4 28  1  0  0  0
  5 29  1  0  0  0
  6 30  1  0  0  0
  6 31  1  0  0  0
  7 32  1  0  0  0
  9 33  1  0  0  0
 11 34  1  0  0  0
 17 35  1  0  0  0
 18 36  1  0  0  0
 19 37  1  0  0  0
 20 38  1  0  0  0
 23 39  1  0  0  0
 23 40  1  0  0  0
 23 41  1  0  0  0
 24 42  1  0  0  0
M  END
$$$$
