5aaa_ligand
  -I-interpret- 

 53 56  0  0  0  0  0  0  0  0999 V2000
   32.8660   46.6480    6.4270 Cl  0  0  0  0  0
   33.3620   46.3790    8.0700 C   0  0  0  0  0
   34.1920   47.3810    8.6550 C   0  0  0  0  0
   34.6550   47.2580    9.9920 C   0  0  0  0  0
   34.2990   46.1300   10.7790 C   0  0  0  0  0
   34.7560   46.0510   12.0340 F   0  0  0  0  0
   32.9730   45.2060    8.8460 C   0  0  0  0  0
   33.4620   45.0970   10.2280 C   0  0  0  0  0
   33.0750   43.7450   11.2760 Cl  0  0  0  0  0
   32.0620   44.1070    8.1960 C   0  0  0  0  0
   32.7740   42.7410    8.1900 C   0  0  0  0  0
   30.7850   43.8930    8.8930 O   0  0  0  0  0
   29.7620   44.8430    9.0590 C   0  0  0  0  0
   29.6050   46.0430    8.2750 C   0  0  0  0  0
   28.7640   44.6150   10.0630 C   0  0  0  0  0
   28.8530   43.4560   10.8650 N   0  0  0  0  0
   27.7170   45.4430   10.3010 N   0  0  0  0  0
   27.5940   46.5750    9.5410 C   0  0  0  0  0
   28.5110   46.9370    8.5060 C   0  0  0  0  0
   28.3450   48.2020    7.6750 C   0  0  0  0  0
   29.3230   48.8210    6.7800 C   0  0  0  0  0
   27.2250   49.0260    7.5980 C   0  0  0  0  0
   27.6060   50.0370    6.6940 N   0  0  0  0  0
   28.8070   49.8760    6.2580 N   0  0  0  0  0
   26.7600   51.1810    6.2570 C   0  0  0  0  0
   26.8250   52.3220    7.2990 C   0  0  0  0  0
   25.9430   53.5040    6.8270 C   0  0  0  0  0
   24.5390   53.0860    6.5470 N   0  3  0  0  0
   24.4560   51.9560    5.5750 C   0  0  0  0  0
   25.2930   50.7380    6.0220 C   0  0  0  0  0
   34.4751   48.2541    8.0670 H   0  0  0  0  0
   35.2889   48.0357   10.4180 H   0  0  0  0  0
   31.8639   44.4833    7.1924 H   0  0  0  0  0
   32.9346   42.4119    9.2166 H   0  0  0  0  0
   32.1552   42.0125    7.6661 H   0  0  0  0  0
   33.7343   42.8355    7.6830 H   0  0  0  0  0
   30.3304   46.2729    7.4946 H   0  0  0  0  0
   29.6187   42.7967   10.7253 H   0  0  0  0  0
   28.1516   43.2782   11.5839 H   0  0  0  0  0
   26.7502   47.2368    9.7359 H   0  0  0  0  0
   30.3285   48.4472    6.5868 H   0  0  0  0  0
   26.2732   48.9144    8.1174 H   0  0  0  0  0
   27.1506   51.5492    5.3083 H   0  0  0  0  0
   27.8563   52.6584    7.4052 H   0  0  0  0  0
   26.4603   51.9578    8.2594 H   0  0  0  0  0
   26.3694   53.8966    5.9039 H   0  0  0  0  0
   25.9218   54.2489    7.6225 H   0  0  0  0  0
   24.0501   53.8840    6.1414 H   0  0  0  0  0
   24.1244   52.7742    7.4252 H   0  0  0  0  0
   24.8467   52.3027    4.6183 H   0  0  0  0  0
   23.4138   51.6441    5.5064 H   0  0  0  0  0
   24.8820   50.3331    6.9468 H   0  0  0  0  0
   25.2634   49.9716    5.2475 H   0  0  0  0  0
  1  2  1  0  0  0
  2  3  4  0  0  0
  2  7  4  0  0  0
  3  4  4  0  0  0
  4  5  4  0  0  0
  5  6  1  0  0  0
  5  8  4  0  0  0
  7  8  4  0  0  0
  7 10  1  0  0  0
  8  9  1  0  0  0
 10 11  1  0  0  0
 10 12  1  0  0  0
 12 13  1  0  0  0
 13 14  4  0  0  0
 13 15  4  0  0  0
 14 19  4  0  0  0
 15 16  1  0  0  0
 15 17  4  0  0  0
 17 18  4  0  0  0
 18 19  4  0  0  0
 19 20  1  0  0  0
 20 21  4  0  0  0
 20 22  4  0  0  0
 21 24  4  0  0  0
 22 23  4  0  0  0
 23 24  4  0  0  0
 23 25  1  0  0  0
 25 26  1  0  0  0
 25 30  1  0  0  0
 26 27  1  0  0  0
 27 28  1  0  0  0
 28 29  1  0  0  0
 29 30  1  0  0  0
  3 31  1  0  0  0
  4 32  1  0  0  0
 10 33  1  0  0  0
 11 34  1  0  0  0
 11 35  1  0  0  0
 11 36  1  0  0  0
 14 37  1  0  0  0
 16 38  1  0  0  0
 16 39  1  0  0  0
 18 40  1  0  0  0
 21 41  1  0  0  0
 22 42  1  0  0  0
 25 43  1  0  0  0
 26 44  1  0  0  0
 26 45  1  0  0  0
 27 46  1  0  0  0
 27 47  1  0  0  0
 28 48  1  0  0  0
 28 49  1  0  0  0
 29 50  1  0  0  0
 29 51  1  0  0  0
 30 52  1  0  0  0
 30 53  1  0  0  0
M  END
$$$$
