### 
### Created by X-TOOL on Mon Sep 10 21:12:55 2018
### 

@<TRIPOS>MOLECULE
2c9d_ligand
   57    58     1     0     0
SMALL
GAST_HUCK


@<TRIPOS>ATOM
      1 O2P       -17.8040    7.7130  -34.2270 O.co2     1 PHR        -0.5537
      2 P         -16.5950    7.3460  -33.3970 P.3       1 PHR         0.2007
      3 O3P       -16.6030    5.9250  -32.8880 O.co2     1 PHR        -0.5537
      4 O1P       -15.2780    7.7820  -33.9920 O.co2     1 PHR        -0.5537
      5 O27       -16.7040    8.2750  -32.0860 O.3       1 PHR        -0.2761
      6 C20       -16.6050    7.7380  -30.7720 C.3       1 PHR         0.0784
      7 C19       -18.0110    7.3970  -30.2900 C.3       1 PHR        -0.0250
      8 C18       -17.9820    6.6310  -28.9710 C.3       1 PHR        -0.0506
      9 C17       -17.6860    7.5540  -27.7950 C.3       1 PHR        -0.0508
     10 C16       -18.9340    8.3030  -27.3520 C.3       1 PHR        -0.0293
     11 C15       -18.7160    9.8100  -27.4410 C.3       1 PHR         0.0435
     12 N5        -18.1800   10.3420  -26.1830 N.am      1 PHR        -0.2348
     13 C9        -18.7700   10.4850  -24.9850 C.2       1 PHR         0.1488
     14 C4        -20.1400   10.1510  -24.5260 C.2       1 PHR         0.2001
     15 O2        -20.9920    9.6490  -25.2890 O.2       1 PHR        -0.4201
     16 N3        -20.4320   10.4240  -23.2320 N.am      1 PHR        -0.1906
     17 C6        -16.9500   10.8250  -25.9620 C.2       1 PHR         0.2994
     18 O4        -16.0740   10.8510  -26.9040 O.2       1 PHR        -0.4081
     19 N7        -16.6730   11.2720  -24.7190 N.am      1 PHR        -0.1806
     20 C8        -17.8150   11.0820  -24.0260 C.2       1 PHR         0.1990
     21 N1        -18.2530   11.2940  -22.7530 N.am      1 PHR        -0.1945
     22 C2        -19.5250   10.9740  -22.3730 C.2       1 PHR         0.3156
     23 O1        -19.8800   11.1930  -21.1900 O.2       1 PHR        -0.3876
     24 C10       -15.3930   11.8450  -24.2750 C.3       1 PHR         0.0889
     25 C11       -15.1070   11.6570  -22.7840 C.3       1 PHR         0.1096
     26 O19       -15.0440   10.2590  -22.4870 O.3       1 PHR        -0.3865
     27 C12       -13.8280   12.3570  -22.3000 C.3       1 PHR         0.1114
     28 O21       -14.1900   13.6620  -21.8330 O.3       1 PHR        -0.3865
     29 C13       -12.7120   12.4730  -23.3510 C.3       1 PHR         0.1065
     30 O23       -12.2590   11.1660  -23.7270 O.3       1 PHR        -0.3869
     31 C14       -11.5200   13.2920  -22.8540 C.3       1 PHR         0.0727
     32 O26       -10.7880   12.5770  -21.8440 O.3       1 PHR        -0.3924
     33 H1        -16.1506    8.4804  -30.0995 H         1 PHR         0.0612
     34 H2        -15.9857    6.8290  -30.7868 H         1 PHR         0.0612
     35 H3        -18.5091    6.7785  -31.0511 H         1 PHR         0.0291
     36 H4        -18.5760    8.3301  -30.1485 H         1 PHR         0.0291
     37 H5        -17.2013    5.8579  -29.0238 H         1 PHR         0.0266
     38 H6        -18.9605    6.1538  -28.8132 H         1 PHR         0.0266
     39 H7        -16.9187    8.2826  -28.0957 H         1 PHR         0.0266
     40 H8        -17.3112    6.9530  -26.9534 H         1 PHR         0.0266
     41 H9        -19.1678    8.0325  -26.3117 H         1 PHR         0.0288
     42 H10       -19.7750    8.0205  -28.0022 H         1 PHR         0.0288
     43 H11       -19.6769   10.2997  -27.6575 H         1 PHR         0.0564
     44 H12       -18.0048   10.0227  -28.2528 H         1 PHR         0.0564
     45 H13       -21.3488   10.2142  -22.8923 H         1 PHR         0.2244
     46 H14       -17.6285   11.6931  -22.0817 H         1 PHR         0.2306
     47 H15       -15.4041   12.9235  -24.4910 H         1 PHR         0.0624
     48 H16       -14.5837   11.3651  -24.8449 H         1 PHR         0.0624
     49 H17       -15.9504   12.0913  -22.2272 H         1 PHR         0.0646
     50 H18       -14.3497    9.8589  -22.9974 H         1 PHR         0.2100
     51 H19       -13.4265   11.7766  -21.4563 H         1 PHR         0.0647
     52 H20       -13.4127   14.1148  -21.5278 H         1 PHR         0.2100
     53 H21       -13.1281   12.9731  -24.2380 H         1 PHR         0.0643
     54 H22       -11.9233   10.7159  -22.9608 H         1 PHR         0.2100
     55 H23       -11.8859   14.2389  -22.4303 H         1 PHR         0.0584
     56 H24       -10.8508   13.5036  -23.7010 H         1 PHR         0.0584
     57 H25       -10.4666   11.7597  -22.2063 H         1 PHR         0.2095
@<TRIPOS>BOND
     1    1    2 ar 
     2    2    3 ar 
     3    2    4 ar 
     4    2    5 1  
     5    5    6 1  
     6    6    7 1  
     7    7    8 1  
     8    8    9 1  
     9    9   10 1  
    10   10   11 1  
    11   11   12 1  
    12   12   13 am 
    13   12   17 am 
    14   13   14 1  
    15   13   20 2  
    16   14   15 2  
    17   14   16 am 
    18   16   22 am 
    19   17   18 2  
    20   17   19 am 
    21   19   20 am 
    22   19   24 1  
    23   20   21 1  
    24   21   22 am 
    25   22   23 2  
    26   24   25 1  
    27   25   26 1  
    28   25   27 1  
    29   27   28 1  
    30   27   29 1  
    31   29   30 1  
    32   29   31 1  
    33   31   32 1  
    34    6   33 1  
    35    6   34 1  
    36    7   35 1  
    37    7   36 1  
    38    8   37 1  
    39    8   38 1  
    40    9   39 1  
    41    9   40 1  
    42   10   41 1  
    43   10   42 1  
    44   11   43 1  
    45   11   44 1  
    46   16   45 1  
    47   21   46 1  
    48   24   47 1  
    49   24   48 1  
    50   25   49 1  
    51   26   50 1  
    52   27   51 1  
    53   28   52 1  
    54   29   53 1  
    55   30   54 1  
    56   31   55 1  
    57   31   56 1  
    58   32   57 1  
@<TRIPOS>SUBSTRUCTURE
     1 PHR         1

