2c9d_ligand
  -I-interpret- 

 59 60  0  0  0  0  0  0  0  0999 V2000
  -17.8040    7.7130  -34.2270 O   0  0  0  0  0
  -16.5950    7.3460  -33.3970 P   0  0  0  0  0
  -16.6030    5.9250  -32.8880 O   0  0  0  0  0
  -15.2780    7.7820  -33.9920 O   0  0  0  0  0
  -16.7040    8.2750  -32.0860 O   0  0  0  0  0
  -16.6050    7.7380  -30.7720 C   0  0  0  0  0
  -18.0110    7.3970  -30.2900 C   0  0  0  0  0
  -17.9820    6.6310  -28.9710 C   0  0  0  0  0
  -17.6860    7.5540  -27.7950 C   0  0  0  0  0
  -18.9340    8.3030  -27.3520 C   0  0  0  0  0
  -18.7160    9.8100  -27.4410 C   0  0  0  0  0
  -18.1800   10.3420  -26.1830 N   0  0  0  0  0
  -18.7700   10.4850  -24.9850 C   0  0  0  0  0
  -20.1400   10.1510  -24.5260 C   0  0  0  0  0
  -20.9920    9.6490  -25.2890 O   0  0  0  0  0
  -20.4320   10.4240  -23.2320 N   0  0  0  0  0
  -16.9500   10.8250  -25.9620 C   0  0  0  0  0
  -16.0740   10.8510  -26.9040 O   0  0  0  0  0
  -16.6730   11.2720  -24.7190 N   0  0  0  0  0
  -17.8150   11.0820  -24.0260 C   0  0  0  0  0
  -18.2530   11.2940  -22.7530 N   0  0  0  0  0
  -19.5250   10.9740  -22.3730 C   0  0  0  0  0
  -19.8800   11.1930  -21.1900 O   0  0  0  0  0
  -15.3930   11.8450  -24.2750 C   0  0  0  0  0
  -15.1070   11.6570  -22.7840 C   0  0  0  0  0
  -15.0440   10.2590  -22.4870 O   0  0  0  0  0
  -13.8280   12.3570  -22.3000 C   0  0  0  0  0
  -14.1900   13.6620  -21.8330 O   0  0  0  0  0
  -12.7120   12.4730  -23.3510 C   0  0  0  0  0
  -12.2590   11.1660  -23.7270 O   0  0  0  0  0
  -11.5200   13.2920  -22.8540 C   0  0  0  0  0
  -10.7880   12.5770  -21.8440 O   0  0  0  0  0
  -17.7288    8.6261  -34.5136 H   0  0  0  0  0
  -15.3491    8.6911  -34.2922 H   0  0  0  0  0
  -16.1456    8.4658  -30.1032 H   0  0  0  0  0
  -15.9835    6.8425  -30.7788 H   0  0  0  0  0
  -18.4903    6.7701  -31.0419 H   0  0  0  0  0
  -18.5574    8.3275  -30.1360 H   0  0  0  0  0
  -17.1950    5.8788  -29.0260 H   0  0  0  0  0
  -18.9600    6.1757  -28.8147 H   0  0  0  0  0
  -16.9365    8.2819  -28.1055 H   0  0  0  0  0
  -17.3297    6.9496  -26.9608 H   0  0  0  0  0
  -19.1560    8.0388  -26.3181 H   0  0  0  0  0
  -19.7619    8.0269  -28.0050 H   0  0  0  0  0
  -19.6740   10.2895  -27.6422 H   0  0  0  0  0
  -18.0004   10.0122  -28.2380 H   0  0  0  0  0
  -21.3672   10.2100  -22.8855 H   0  0  0  0  0
  -17.6160   11.7011  -22.0682 H   0  0  0  0  0
  -15.4385   12.9180  -24.4615 H   0  0  0  0  0
  -14.6028   11.3306  -24.8219 H   0  0  0  0  0
  -15.9277   12.1315  -22.2461 H   0  0  0  0  0
  -14.8646   10.1395  -21.5515 H   0  0  0  0  0
  -13.4065   11.7344  -21.5109 H   0  0  0  0  0
  -13.4044   14.1196  -21.5246 H   0  0  0  0  0
  -13.1372   12.9927  -24.2097 H   0  0  0  0  0
  -11.5627   11.2463  -24.3830 H   0  0  0  0  0
  -11.8904   14.2227  -22.4242 H   0  0  0  0  0
  -10.8550   13.4871  -23.6953 H   0  0  0  0  0
  -10.0467   13.1111  -21.5492 H   0  0  0  0  0
  1  2  1  0  0  0
  2  3  2  0  0  0
  2  4  1  0  0  0
  2  5  1  0  0  0
  5  6  1  0  0  0
  6  7  1  0  0  0
  7  8  1  0  0  0
  8  9  1  0  0  0
  9 10  1  0  0  0
 10 11  1  0  0  0
 11 12  1  0  0  0
 12 13  1  0  0  0
 12 17  1  0  0  0
 13 14  1  0  0  0
 13 20  2  0  0  0
 14 15  2  0  0  0
 14 16  1  0  0  0
 16 22  1  0  0  0
 17 18  2  0  0  0
 17 19  1  0  0  0
 19 20  1  0  0  0
 19 24  1  0  0  0
 20 21  1  0  0  0
 21 22  1  0  0  0
 22 23  2  0  0  0
 24 25  1  0  0  0
 25 26  1  0  0  0
 25 27  1  0  0  0
 27 28  1  0  0  0
 27 29  1  0  0  0
 29 30  1  0  0  0
 29 31  1  0  0  0
 31 32  1  0  0  0
  1 33  1  0  0  0
  4 34  1  0  0  0
  6 35  1  0  0  0
  6 36  1  0  0  0
  7 37  1  0  0  0
  7 38  1  0  0  0
  8 39  1  0  0  0
  8 40  1  0  0  0
  9 41  1  0  0  0
  9 42  1  0  0  0
 10 43  1  0  0  0
 10 44  1  0  0  0
 11 45  1  0  0  0
 11 46  1  0  0  0
 16 47  1  0  0  0
 21 48  1  0  0  0
 24 49  1  0  0  0
 24 50  1  0  0  0
 25 51  1  0  0  0
 26 52  1  0  0  0
 27 53  1  0  0  0
 28 54  1  0  0  0
 29 55  1  0  0  0
 30 56  1  0  0  0
 31 57  1  0  0  0
 31 58  1  0  0  0
 32 59  1  0  0  0
M  END
$$$$
