### 
### Created by X-TOOL on Mon Sep 10 21:12:54 2018
### 

@<TRIPOS>MOLECULE
2jbj_ligand
   21    20     1     0     0
SMALL
GAST_HUCK


@<TRIPOS>ATOM
      1 O6         13.0740   47.0850   39.9020 O.co2     1 G88        -0.5690
      2 C6         14.0690   47.5920   40.6480 C.2       1 G88         0.0349
      3 O7         14.0590   48.8280   40.8700 O.co2     1 G88        -0.5690
      4 C5         15.1990   46.7460   41.2650 C.3       1 G88         0.0020
      5 C4         14.8500   45.2630   41.5020 C.3       1 G88        -0.0257
      6 C2         16.1270   44.4920   41.9650 C.3       1 G88         0.0282
      7 C3         17.1280   44.6370   40.8390 C.2       1 G88         0.0393
      8 O5         17.0190   43.8850   39.7410 O.co2     1 G88        -0.5687
      9 O4         18.0480   45.4570   40.8370 O.co2     1 G88        -0.5687
     10 C1         16.6240   45.1230   43.2740 C.3       1 G88         0.0339
     11 P1         17.5950   43.9790   44.2300 P.3       1 G88         0.0597
     12 O2         18.7910   44.6540   45.2560 O.co2     1 G88        -0.5622
     13 O3         16.6370   43.1010   45.0740 O.co2     1 G88        -0.5622
     14 O1         18.4420   43.0150   43.0240 O.co2     1 G88        -0.5622
     15 H1         15.4685   47.1918   42.2338 H         1 G88         0.0432
     16 H2         16.0651   46.7884   40.5882 H         1 G88         0.0432
     17 H3         14.4745   44.8213   40.5672 H         1 G88         0.0304
     18 H4         14.0755   45.1889   42.2796 H         1 G88         0.0304
     19 H5         15.9018   43.4285   42.1328 H         1 G88         0.0481
     20 H6         15.7549   45.4378   43.8703 H         1 G88         0.0472
     21 H7         17.2417   46.0011   43.0343 H         1 G88         0.0472
@<TRIPOS>BOND
     1    1    2 ar 
     2    2    3 ar 
     3    2    4 1  
     4    4    5 1  
     5    5    6 1  
     6    6    7 1  
     7    6   10 1  
     8    7    8 ar 
     9    7    9 ar 
    10   10   11 1  
    11   11   12 ar 
    12   11   13 ar 
    13   11   14 ar 
    14    4   15 1  
    15    4   16 1  
    16    5   17 1  
    17    5   18 1  
    18    6   19 1  
    19   10   20 1  
    20   10   21 1  
@<TRIPOS>SUBSTRUCTURE
     1 G88         1

