2jbj_ligand
  -I-interpret- 

 25 24  0  0  0  0  0  0  0  0999 V2000
   13.0740   47.0850   39.9020 O   0  0  0  0  0
   14.0690   47.5920   40.6480 C   0  0  0  0  0
   14.0590   48.8280   40.8700 O   0  0  0  0  0
   15.1990   46.7460   41.2650 C   0  0  0  0  0
   14.8500   45.2630   41.5020 C   0  0  0  0  0
   16.1270   44.4920   41.9650 C   0  0  0  0  0
   17.1280   44.6370   40.8390 C   0  0  0  0  0
   17.0190   43.8850   39.7410 O   0  0  0  0  0
   18.0480   45.4570   40.8370 O   0  0  0  0  0
   16.6240   45.1230   43.2740 C   0  0  0  0  0
   17.5950   43.9790   44.2300 P   0  0  0  0  0
   18.7910   44.6540   45.2560 O   0  0  0  0  0
   16.6370   43.1010   45.0740 O   0  0  0  0  0
   18.4420   43.0150   43.0240 O   0  0  0  0  0
   13.1972   46.1376   39.8075 H   0  0  0  0  0
   15.4167   47.1774   42.2420 H   0  0  0  0  0
   16.0275   46.7644   40.5570 H   0  0  0  0  0
   14.4789   44.8256   40.5752 H   0  0  0  0  0
   14.0832   45.1901   42.2733 H   0  0  0  0  0
   15.9501   43.4350   42.1637 H   0  0  0  0  0
   16.2782   43.2824   39.8394 H   0  0  0  0  0
   15.7561   45.4144   43.8656 H   0  0  0  0  0
   17.2497   45.9803   43.0257 H   0  0  0  0  0
   19.3865   45.1988   44.7362 H   0  0  0  0  0
   19.0273   43.5818   42.5164 H   0  0  0  0  0
  1  2  1  0  0  0
  2  3  2  0  0  0
  2  4  1  0  0  0
  4  5  1  0  0  0
  5  6  1  0  0  0
  6  7  1  0  0  0
  6 10  1  0  0  0
  7  8  1  0  0  0
  7  9  2  0  0  0
 10 11  1  0  0  0
 11 12  1  0  0  0
 11 13  2  0  0  0
 11 14  1  0  0  0
  1 15  1  0  0  0
  4 16  1  0  0  0
  4 17  1  0  0  0
  5 18  1  0  0  0
  5 19  1  0  0  0
  6 20  1  0  0  0
  8 21  1  0  0  0
 10 22  1  0  0  0
 10 23  1  0  0  0
 12 24  1  0  0  0
 14 25  1  0  0  0
M  END
$$$$
