6odz_ligand
  -I-interpret- 

 43 45  0  0  0  0  0  0  0  0999 V2000
   -2.3940    5.3920   84.6540 C   0  0  0  0  0
   -0.2170    4.3660   84.7670 C   0  0  0  0  0
   -2.9220    4.3480   85.3860 C   0  0  0  0  0
   -0.7450    3.3330   85.5010 C   0  0  0  0  0
   -1.0510    5.3760   84.3540 C   0  0  0  0  0
   -2.0940    3.3210   85.8120 C   0  0  0  0  0
   -0.6970    9.4280   80.5510 C   0  0  0  0  0
    0.5100   10.4710   82.1550 C   0  0  0  0  0
   -0.9430    7.3190   82.8490 C   0  0  0  0  0
   -1.4540   12.7780   79.2100 C   0  0  0  0  0
   -2.4990   12.6290   80.2990 C   0  0  0  0  0
   -0.8200   11.4270   79.0400 C   0  0  0  0  0
   -2.4510   11.1820   80.7160 C   0  0  0  0  0
   -1.0050   10.8630   80.4190 C   0  0  0  0  0
    0.2950    7.9900   82.2560 C   0  0  0  0  0
   -0.0430   11.4060   81.3360 N   0  0  0  0  0
    0.1260    9.2710   81.6200 N   0  0  0  0  0
   -2.2260    0.5770   86.0760 N   0  0  0  0  0
   -0.3900    6.3610   83.6230 N   0  0  0  0  0
   -1.1410    8.5600   79.8250 O   0  0  0  0  0
    1.1830   10.6630   83.1580 O   0  0  0  0  0
   -2.1510    7.5060   82.6790 O   0  0  0  0  0
   -2.2040    2.1260   88.0840 O   0  0  0  0  0
   -4.2020    2.0770   86.6460 O   0  0  0  0  0
   -2.7650    1.9760   86.7680 S   0  0  0  0  0
   -3.0282    6.2131   84.3200 H   0  0  0  0  0
    0.8437    4.3843   84.5168 H   0  0  0  0  0
   -3.9847    4.3310   85.6280 H   0  0  0  0  0
   -0.1012    2.5211   85.8394 H   0  0  0  0  0
   -0.7102   13.5267   79.4825 H   0  0  0  0  0
   -1.9068   13.1167   78.2782 H   0  0  0  0  0
   -3.4899   12.9061   79.9392 H   0  0  0  0  0
   -2.2939   13.2917   81.1397 H   0  0  0  0  0
    0.2175   11.4600   78.7073 H   0  0  0  0  0
   -1.2631   10.8230   78.2481 H   0  0  0  0  0
   -3.1658   10.5430   80.1976 H   0  0  0  0  0
   -2.7451   11.0044   81.7505 H   0  0  0  0  0
    0.6408    7.3187   81.4699 H   0  0  0  0  0
    0.9602    8.1704   83.1004 H   0  0  0  0  0
    0.2018   12.3956   81.3701 H   0  0  0  0  0
   -1.5868   -0.0316   86.5873 H   0  0  0  0  0
   -2.5323    0.3214   85.1373 H   0  0  0  0  0
    0.6285    6.3579   83.6791 H   0  0  0  0  0
  1  3  4  0  0  0
  5  1  4  0  0  0
  2  4  4  0  0  0
  5  2  4  0  0  0
  3  6  4  0  0  0
  4  6  4  0  0  0
 19  5  1  0  0  0
  6 25  1  0  0  0
  7 14  1  0  0  0
 17  7  1  0  0  0
  7 20  2  0  0  0
  8 16  1  0  0  0
 17  8  1  0  0  0
  8 21  2  0  0  0
 15  9  1  0  0  0
  9 19  1  0  0  0
  9 22  2  0  0  0
 11 10  1  0  0  0
 12 10  1  0  0  0
 13 11  1  0  0  0
 14 12  1  0  0  0
 14 13  1  0  0  0
 16 14  1  0  0  0
 15 17  1  0  0  0
 25 18  1  0  0  0
 25 23  2  0  0  0
 25 24  2  0  0  0
  1 26  1  0  0  0
  2 27  1  0  0  0
  3 28  1  0  0  0
  4 29  1  0  0  0
 10 30  1  0  0  0
 10 31  1  0  0  0
 11 32  1  0  0  0
 11 33  1  0  0  0
 12 34  1  0  0  0
 12 35  1  0  0  0
 13 36  1  0  0  0
 13 37  1  0  0  0
 15 38  1  0  0  0
 15 39  1  0  0  0
 16 40  1  0  0  0
 18 41  1  0  0  0
 18 42  1  0  0  0
 19 43  1  0  0  0
M  END
$$$$
