6gue_ligand
  -I-interpret- 

 47 49  0  0  0  0  0  0  0  0999 V2000
   -7.9560  -19.7050   21.2480 C   0  0  0  0  0
   -4.5100  -24.1550   23.3430 C   0  0  0  0  0
   -8.6010  -20.6600   22.1560 C   0  0  0  0  0
   -9.9760  -20.6310   22.3140 C   0  0  0  0  0
   -4.9210  -25.2440   25.4420 C   0  0  0  0  0
  -10.5290  -21.5030   23.2180 C   0  0  0  0  0
   -8.4730  -22.3440   23.7040 C   0  0  0  0  0
   -6.5880  -23.7950   24.4680 C   0  0  0  0  0
   -6.1650  -24.6420   25.4950 C   0  0  0  0  0
   -4.1130  -25.0020   24.3540 C   0  0  0  0  0
   -1.5150  -24.7720   23.2520 C   0  0  0  0  0
   -7.6240  -17.9470   20.0070 N   0  0  0  0  0
   -9.8120  -22.3970   23.8930 N   0  0  0  0  0
   -8.4840  -18.4960   20.8930 C   0  0  0  0  0
   -7.8820  -23.2540   24.5000 N   0  0  0  0  0
   -5.2670  -18.1940   19.2870 C   0  0  0  0  0
   -6.4920  -18.6400   19.9870 C   0  0  0  0  0
   -2.5160  -25.7330   24.3120 S   0  0  0  0  0
   -1.9720  -25.5840   25.6330 O   0  0  0  0  0
   -2.6520  -27.0630   23.7960 O   0  0  0  0  0
   -5.7480  -23.5650   23.3930 C   0  0  0  0  0
   -7.8310  -21.5180   22.8690 N   0  0  0  0  0
   -6.7000  -19.8060   20.6130 N   0  0  0  0  0
   -5.8310  -21.0060   20.6190 C   0  0  0  0  0
   -4.5120  -20.7400   21.3330 C   0  0  0  0  0
   -5.6710  -21.5540   19.2210 C   0  0  0  0  0
   -3.8424  -23.9538   22.5052 H   0  0  0  0  0
  -10.5963  -19.9412   21.7417 H   0  0  0  0  0
   -4.5864  -25.8982   26.2471 H   0  0  0  0  0
  -11.6044  -21.4610   23.3906 H   0  0  0  0  0
   -6.8207  -24.8300   26.3452 H   0  0  0  0  0
   -1.5456  -23.7302   23.5712 H   0  0  0  0  0
   -0.4886  -25.1364   23.2945 H   0  0  0  0  0
   -1.8882  -24.8516   22.2310 H   0  0  0  0  0
   -9.4157  -18.0600   21.2535 H   0  0  0  0  0
   -8.4731  -23.6095   25.2515 H   0  0  0  0  0
   -5.4794  -18.0772   18.2243 H   0  0  0  0  0
   -4.9407  -17.2398   19.7006 H   0  0  0  0  0
   -4.4816  -18.9377   19.4222 H   0  0  0  0  0
   -6.0710  -22.9122   22.5821 H   0  0  0  0  0
   -6.3168  -21.7897   21.2003 H   0  0  0  0  0
   -3.9822  -19.9334   20.8262 H   0  0  0  0  0
   -4.7107  -20.4533   22.3657 H   0  0  0  0  0
   -3.9026  -21.6436   21.3163 H   0  0  0  0  0
   -6.6490  -21.8277   18.8253 H   0  0  0  0  0
   -5.2195  -20.7937   18.5836 H   0  0  0  0  0
   -5.0293  -22.4347   19.2486 H   0  0  0  0  0
  3  1  1  0  0  0
  1 14  4  0  0  0
  1 23  4  0  0  0
 10  2  4  0  0  0
  2 21  4  0  0  0
  3  4  4  0  0  0
 22  3  4  0  0  0
  6  4  4  0  0  0
  9  5  4  0  0  0
  5 10  4  0  0  0
 13  6  4  0  0  0
  7 13  4  0  0  0
 15  7  1  0  0  0
  7 22  4  0  0  0
  8  9  4  0  0  0
  8 15  1  0  0  0
  8 21  4  0  0  0
 10 18  1  0  0  0
 18 11  1  0  0  0
 14 12  4  0  0  0
 12 17  4  0  0  0
 17 16  1  0  0  0
 17 23  4  0  0  0
 18 19  2  0  0  0
 18 20  2  0  0  0
 23 24  1  0  0  0
 24 25  1  0  0  0
 24 26  1  0  0  0
  2 27  1  0  0  0
  4 28  1  0  0  0
  5 29  1  0  0  0
  6 30  1  0  0  0
  9 31  1  0  0  0
 11 32  1  0  0  0
 11 33  1  0  0  0
 11 34  1  0  0  0
 14 35  1  0  0  0
 15 36  1  0  0  0
 16 37  1  0  0  0
 16 38  1  0  0  0
 16 39  1  0  0  0
 21 40  1  0  0  0
 24 41  1  0  0  0
 25 42  1  0  0  0
 25 43  1  0  0  0
 25 44  1  0  0  0
 26 45  1  0  0  0
 26 46  1  0  0  0
 26 47  1  0  0  0
M  END
$$$$
