3sxf_ligand
  -I-interpret- 

 47 50  0  0  0  0  0  0  0  0999 V2000
   21.3720   12.2890   63.4150 N   0  0  0  0  0
   22.5370   12.8910   63.1740 C   0  0  0  0  0
   22.6300   14.2140   63.1340 N   0  0  0  0  0
   21.5400   14.9820   63.3220 C   0  0  0  0  0
   20.3080   14.4000   63.5810 C   0  0  0  0  0
   20.2480   12.9960   63.6290 C   0  0  0  0  0
    9.7400   14.7350   65.3460 C   0  0  0  0  0
   22.2130   18.5680   63.8350 C   0  0  0  0  0
   22.5730   17.4960   61.5790 C   0  0  0  0  0
   19.1200   12.3230   63.8630 N   0  0  0  0  0
   14.2700   13.9950   66.6360 C   0  0  0  0  0
   17.2070   16.2240   63.2320 C   0  0  0  0  0
   15.6440   13.9980   66.3900 C   0  0  0  0  0
   15.8350   16.2290   63.4800 C   0  0  0  0  0
   13.9380   15.4910   64.7760 C   0  0  0  0  0
   17.5490   14.7280   65.0800 C   0  0  0  0  0
   11.2110   14.9390   64.9500 C   0  0  0  0  0
   20.1780   16.6110   63.5670 N   0  0  0  0  0
   12.0790   14.7300   66.0940 O   0  0  0  0  0
   13.4130   14.7400   65.8230 C   0  0  0  0  0
   18.0770   15.4600   64.0140 C   0  0  0  0  0
   19.4460   15.4990   63.7380 C   0  0  0  0  0
   15.3130   15.4840   64.5300 C   0  0  0  0  0
   16.1720   14.7390   65.3400 C   0  0  0  0  0
   22.4540   17.2540   63.0880 C   0  0  0  0  0
   21.3550   16.2990   63.3300 N   0  0  0  0  0
   23.4282   12.2860   63.0070 H   0  0  0  0  0
    9.6020   13.7187   65.7150 H   0  0  0  0  0
    9.4736   15.4461   66.1280 H   0  0  0  0  0
    9.1049   14.8961   64.4749 H   0  0  0  0  0
   23.0468   19.2461   63.6531 H   0  0  0  0  0
   21.2887   19.0228   63.4786 H   0  0  0  0  0
   22.1324   18.3676   64.9034 H   0  0  0  0  0
   21.6507   17.9450   61.2105 H   0  0  0  0  0
   23.4087   18.1683   61.3849 H   0  0  0  0  0
   22.7439   16.5462   61.0724 H   0  0  0  0  0
   19.1279   11.3031   63.8756 H   0  0  0  0  0
   18.2497   12.8284   64.0293 H   0  0  0  0  0
   13.8658   13.4110   67.4629 H   0  0  0  0  0
   17.6070   16.8253   62.4156 H   0  0  0  0  0
   16.3083   13.4141   67.0270 H   0  0  0  0  0
   15.1704   16.8188   62.8486 H   0  0  0  0  0
   13.2755   16.0856   64.1469 H   0  0  0  0  0
   18.2140   14.1430   65.7153 H   0  0  0  0  0
   11.3421   15.9586   64.5876 H   0  0  0  0  0
   11.4712   14.2210   64.1722 H   0  0  0  0  0
   23.3876   16.8358   63.4644 H   0  0  0  0  0
  2  1  4  0  0  0
  6  1  4  0  0  0
  3  2  4  0  0  0
  4  3  4  0  0  0
  4  5  4  0  0  0
 26  4  4  0  0  0
  5  6  4  0  0  0
 22  5  4  0  0  0
  6 10  1  0  0  0
 17  7  1  0  0  0
 25  8  1  0  0  0
 25  9  1  0  0  0
 13 11  4  0  0  0
 11 20  4  0  0  0
 12 14  4  0  0  0
 21 12  4  0  0  0
 24 13  4  0  0  0
 14 23  4  0  0  0
 15 20  4  0  0  0
 23 15  4  0  0  0
 21 16  4  0  0  0
 16 24  4  0  0  0
 19 17  1  0  0  0
 18 22  4  0  0  0
 26 18  4  0  0  0
 20 19  1  0  0  0
 22 21  1  0  0  0
 24 23  4  0  0  0
 25 26  1  0  0  0
  2 27  1  0  0  0
  7 28  1  0  0  0
  7 29  1  0  0  0
  7 30  1  0  0  0
  8 31  1  0  0  0
  8 32  1  0  0  0
  8 33  1  0  0  0
  9 34  1  0  0  0
  9 35  1  0  0  0
  9 36  1  0  0  0
 10 37  1  0  0  0
 10 38  1  0  0  0
 11 39  1  0  0  0
 12 40  1  0  0  0
 13 41  1  0  0  0
 14 42  1  0  0  0
 15 43  1  0  0  0
 16 44  1  0  0  0
 17 45  1  0  0  0
 17 46  1  0  0  0
 25 47  1  0  0  0
M  END
$$$$
