4dmn_ligand
  -I-interpret- 

 40 42  0  0  0  0  0  0  0  0999 V2000
  -39.6380   14.2750   29.4340 Cl  0  0  0  0  0
  -41.3710   14.5930   29.0570 C   0  0  0  0  0
  -42.3820   14.4270   30.0180 C   0  0  0  0  0
  -43.7500   14.6670   29.7240 C   0  0  0  0  0
  -41.7250   14.9870   27.7950 C   0  0  0  0  0
  -43.0840   15.2080   27.4840 C   0  0  0  0  0
  -44.1010   15.0620   28.4400 C   0  0  0  0  0
  -45.4660   15.3440   27.9010 C   0  0  0  0  0
  -46.2820   14.2740   27.5640 C   0  0  0  0  0
  -45.7850   12.8760   27.8690 C   0  0  0  0  0
  -45.8670   11.9890   26.7420 O   0  0  0  0  0
  -44.6120   11.8980   26.0760 C   0  0  0  0  0
  -46.3800   12.3160   29.1940 C   0  0  0  0  0
  -46.4860   13.0780   30.1830 O   0  0  0  0  0
  -46.7190   11.1060   29.3550 O   0  0  0  0  0
  -45.8680   16.6700   27.6450 C   0  0  0  0  0
  -45.0470   17.7560   27.9750 C   0  0  0  0  0
  -45.4350   19.1020   27.7510 C   0  0  0  0  0
  -44.2130   20.4840   28.2860 Br  0  0  0  0  0
  -46.6880   19.3590   27.1720 C   0  0  0  0  0
  -47.5370   18.2640   26.8420 C   0  0  0  0  0
  -47.1250   16.9190   27.0910 C   0  0  0  0  0
  -47.9150   15.8460   26.7760 N   0  0  0  0  0
  -47.5280   14.5510   27.0000 C   0  0  0  0  0
  -48.4980   13.4540   26.6240 C   0  0  0  0  0
  -42.1073   14.1034   31.0220 H   0  0  0  0  0
  -44.5121   14.5432   30.4934 H   0  0  0  0  0
  -40.9596   15.1297   27.0322 H   0  0  0  0  0
  -43.3521   15.5014   26.4690 H   0  0  0  0  0
  -44.7140   12.9517   28.0570 H   0  0  0  0  0
  -44.3162   12.8864   25.7244 H   0  0  0  0  0
  -43.8613   11.5176   26.7687 H   0  0  0  0  0
  -44.7011   11.2205   25.2268 H   0  0  0  0  0
  -46.5934   10.6275   28.5323 H   0  0  0  0  0
  -44.0722   17.5592   28.4212 H   0  0  0  0  0
  -47.0068   20.3830   26.9776 H   0  0  0  0  0
  -48.5124   18.4545   26.3943 H   0  0  0  0  0
  -48.0355   12.7992   25.8855 H   0  0  0  0  0
  -48.7547   12.8774   27.5127 H   0  0  0  0  0
  -49.4007   13.8973   26.2037 H   0  0  0  0  0
  1  2  1  0  0  0
  2  3  4  0  0  0
  2  5  4  0  0  0
  3  4  4  0  0  0
  4  7  4  0  0  0
  5  6  4  0  0  0
  6  7  4  0  0  0
  7  8  1  0  0  0
  8  9  4  0  0  0
  8 16  4  0  0  0
  9 10  1  0  0  0
  9 24  4  0  0  0
 10 11  1  0  0  0
 10 13  1  0  0  0
 11 12  1  0  0  0
 13 14  2  0  0  0
 13 15  1  0  0  0
 16 17  4  0  0  0
 16 22  4  0  0  0
 17 18  4  0  0  0
 18 19  1  0  0  0
 18 20  4  0  0  0
 20 21  4  0  0  0
 21 22  4  0  0  0
 22 23  4  0  0  0
 23 24  4  0  0  0
 24 25  1  0  0  0
  3 26  1  0  0  0
  4 27  1  0  0  0
  5 28  1  0  0  0
  6 29  1  0  0  0
 10 30  1  0  0  0
 12 31  1  0  0  0
 12 32  1  0  0  0
 12 33  1  0  0  0
 15 34  1  0  0  0
 17 35  1  0  0  0
 20 36  1  0  0  0
 21 37  1  0  0  0
 25 38  1  0  0  0
 25 39  1  0  0  0
 25 40  1  0  0  0
M  END
$$$$
