5iug_ligand
  -I-interpret- 

 81 85  0  0  0  0  0  0  0  0999 V2000
   18.9830  -15.4410  -10.7870 C   0  0  0  0  0
   18.9490  -14.8290   -9.5340 C   0  0  0  0  0
   19.9350  -13.8890   -9.2140 C   0  0  0  0  0
   20.9520  -13.5720  -10.1030 C   0  0  0  0  0
   18.0290  -16.4120  -11.1810 N   0  0  0  0  0
   16.4210  -17.3290  -12.7330 N   0  0  0  0  0
   14.7310  -18.3070  -14.1200 N   0  0  0  0  0
   23.9790  -11.5360   -9.8260 N   0  0  0  0  0
   23.2940  -12.6400  -10.2780 N   0  0  0  0  0
   23.5260   -9.5260   -8.4930 N   0  0  0  0  0
   24.5520   -2.8320   -6.5880 N   0  3  0  0  0
   26.0610   -0.6740   -6.8210 N   0  3  0  0  0
   17.3440  -16.3000  -12.4230 C   0  0  0  0  0
   15.6590  -17.3670  -13.9260 C   0  0  0  0  0
   15.1920  -17.4580  -16.0880 C   0  0  0  0  0
   16.0520  -16.9410  -15.1530 C   0  0  0  0  0
   15.0330  -17.0140  -17.5310 C   0  0  0  0  0
   14.8670  -18.2480  -18.3990 C   0  0  0  0  0
   13.7760  -16.1730  -17.6340 C   0  0  0  0  0
   16.2200  -16.2170  -18.0220 C   0  0  0  0  0
   20.0090  -15.1200  -11.6650 C   0  0  0  0  0
   20.9740  -14.1900  -11.3270 C   0  0  0  0  0
   22.0380  -12.5510   -9.8070 C   0  0  0  0  0
   21.9150  -11.3900   -9.0860 C   0  0  0  0  0
   23.1440  -10.7760   -9.0920 C   0  0  0  0  0
   22.8530   -8.9260   -7.3860 C   0  0  0  0  0
   23.3850   -7.5750   -6.9110 C   0  0  0  0  0
   22.6470   -6.7620   -6.0560 C   0  0  0  0  0
   23.1540   -5.5290   -5.6630 C   0  0  0  0  0
   24.3890   -5.0980   -6.1250 C   0  0  0  0  0
   25.1160   -5.9110   -6.9860 C   0  0  0  0  0
   24.6090   -7.1420   -7.3800 C   0  0  0  0  0
   24.9430   -3.7390   -5.7050 C   0  0  0  0  0
   25.2780   -2.7360   -7.6790 C   0  0  0  0  0
   26.2530   -1.5710   -7.7510 C   0  0  0  0  0
   24.7850   -0.4640   -6.6670 C   0  0  0  0  0
   24.0740   -1.6940   -6.1430 C   0  0  0  0  0
   26.7070    0.4330   -7.0920 C   0  0  0  0  0
   17.8580  -15.1550   -8.5320 C   0  0  0  0  0
   17.5430  -15.3660  -13.1720 O   0  0  0  0  0
   14.1870  -18.1130  -15.4090 O   0  0  0  0  0
   21.8860   -9.4540   -6.8690 O   0  0  0  0  0
   19.9033  -13.3941   -8.2433 H   0  0  0  0  0
   17.8308  -17.2014  -10.5662 H   0  0  0  0  0
   16.2984  -18.0849  -12.0592 H   0  0  0  0  0
   24.3303   -9.0359   -8.8845 H   0  0  0  0  0
   23.6935   -3.2863   -6.8995 H   0  0  0  0  0
   26.4350   -1.0258   -5.9397 H   0  0  0  0  0
   16.9065  -16.2969  -15.3604 H   0  0  0  0  0
   15.7480  -18.8821  -18.2991 H   0  0  0  0  0
   13.9828  -18.7993  -18.0792 H   0  0  0  0  0
   14.7515  -17.9457  -19.4398 H   0  0  0  0  0
   12.9158  -16.7687  -17.3285 H   0  0  0  0  0
   13.8675  -15.3038  -16.9826 H   0  0  0  0  0
   13.6440  -15.8439  -18.6647 H   0  0  0  0  0
   16.3376  -15.3257  -17.4056 H   0  0  0  0  0
   17.1197  -16.8285  -17.9542 H   0  0  0  0  0
   16.0555  -15.9241  -19.0589 H   0  0  0  0  0
   20.0545  -15.6097  -12.6377 H   0  0  0  0  0
   21.7606  -13.9453  -12.0407 H   0  0  0  0  0
   21.0111  -11.0234   -8.5994 H   0  0  0  0  0
   21.6728   -7.0917   -5.6951 H   0  0  0  0  0
   22.5776   -4.8968   -4.9876 H   0  0  0  0  0
   26.0878   -5.5811   -7.3534 H   0  0  0  0  0
   25.1806   -7.7700   -8.0634 H   0  0  0  0  0
   24.5715   -3.4768   -4.7144 H   0  0  0  0  0
   26.0318   -3.7770   -5.6693 H   0  0  0  0  0
   24.5726   -2.5879   -8.4967 H   0  0  0  0  0
   25.8868   -3.6394   -7.7147 H   0  0  0  0  0
   27.2566   -1.9743   -7.6156 H   0  0  0  0  0
   26.1084   -1.0813   -8.7140 H   0  0  0  0  0
   24.3594   -0.2087   -7.6375 H   0  0  0  0  0
   24.6544    0.3419   -5.9448 H   0  0  0  0  0
   24.2002   -1.6975   -5.0603 H   0  0  0  0  0
   23.0390   -1.6305   -6.4788 H   0  0  0  0  0
   27.7744    0.2223   -7.1586 H   0  0  0  0  0
   26.3547    0.8345   -8.0421 H   0  0  0  0  0
   26.5276    1.1601   -6.3000 H   0  0  0  0  0
   16.8869  -14.9077   -8.9609 H   0  0  0  0  0
   17.8913  -16.2181   -8.2936 H   0  0  0  0  0
   18.0146  -14.5726   -7.6240 H   0  0  0  0  0
  2  1  4  0  0  0
  1  5  1  0  0  0
 21  1  4  0  0  0
  3  2  4  0  0  0
  2 39  1  0  0  0
  4  3  4  0  0  0
  4 22  4  0  0  0
 23  4  1  0  0  0
  5 13  1  0  0  0
 13  6  1  0  0  0
  6 14  1  0  0  0
 14  7  4  0  0  0
  7 41  4  0  0  0
  8  9  4  0  0  0
 25  8  4  0  0  0
 23  9  4  0  0  0
 10 25  1  0  0  0
 26 10  1  0  0  0
 11 33  1  0  0  0
 34 11  1  0  0  0
 11 37  1  0  0  0
 35 12  1  0  0  0
 12 36  1  0  0  0
 12 38  1  0  0  0
 13 40  2  0  0  0
 14 16  4  0  0  0
 16 15  4  0  0  0
 15 17  1  0  0  0
 15 41  4  0  0  0
 17 18  1  0  0  0
 17 19  1  0  0  0
 17 20  1  0  0  0
 22 21  4  0  0  0
 24 23  4  0  0  0
 25 24  4  0  0  0
 27 26  1  0  0  0
 26 42  2  0  0  0
 28 27  4  0  0  0
 32 27  4  0  0  0
 29 28  4  0  0  0
 30 29  4  0  0  0
 30 31  4  0  0  0
 33 30  1  0  0  0
 31 32  4  0  0  0
 34 35  1  0  0  0
 36 37  1  0  0  0
  3 43  1  0  0  0
  5 44  1  0  0  0
  6 45  1  0  0  0
 10 46  1  0  0  0
 11 47  1  0  0  0
 12 48  1  0  0  0
 16 49  1  0  0  0
 18 50  1  0  0  0
 18 51  1  0  0  0
 18 52  1  0  0  0
 19 53  1  0  0  0
 19 54  1  0  0  0
 19 55  1  0  0  0
 20 56  1  0  0  0
 20 57  1  0  0  0
 20 58  1  0  0  0
 21 59  1  0  0  0
 22 60  1  0  0  0
 24 61  1  0  0  0
 28 62  1  0  0  0
 29 63  1  0  0  0
 31 64  1  0  0  0
 32 65  1  0  0  0
 33 66  1  0  0  0
 33 67  1  0  0  0
 34 68  1  0  0  0
 34 69  1  0  0  0
 35 70  1  0  0  0
 35 71  1  0  0  0
 36 72  1  0  0  0
 36 73  1  0  0  0
 37 74  1  0  0  0
 37 75  1  0  0  0
 38 76  1  0  0  0
 38 77  1  0  0  0
 38 78  1  0  0  0
 39 79  1  0  0  0
 39 80  1  0  0  0
 39 81  1  0  0  0
M  END
$$$$
