### 
### Created by X-TOOL on Mon Sep 10 21:13:20 2018
### 

@<TRIPOS>MOLECULE
4jvj_ligand
   37    39     1     0     0
SMALL
GAST_HUCK


@<TRIPOS>ATOM
      1 OAU        15.9610   32.3150  -10.2440 O.co2     1 1MV        -0.5597
      2 PAS        16.3110   33.7740   -9.7350 P.3       1 1MV         0.1034
      3 OAV        17.5570   33.6370   -8.9470 O.co2     1 1MV        -0.5597
      4 OAW        16.2570   34.7280  -10.8700 O.co2     1 1MV        -0.5597
      5 CAR        14.8690   34.1420   -8.5700 C.3       1 1MV         0.1816
      6 PAT        15.2550   35.6150   -7.5260 P.3       1 1MV         0.1034
      7 OAX        14.9220   35.0810   -6.0500 O.co2     1 1MV        -0.5597
      8 OAZ        16.7050   35.8710   -7.6260 O.co2     1 1MV        -0.5597
      9 OAY        14.3090   36.7220   -7.8550 O.co2     1 1MV        -0.5597
     10 NAJ        14.5410   32.9530   -7.7370 N.pl3     1 1MV        -0.2686
     11 C4         13.8710   31.9480   -8.2990 C.ar      1 1MV         0.1304
     12 N3         12.7620   32.2600   -8.9890 N.ar      1 1MV        -0.2639
     13 C2         12.0430   31.2580   -9.6210 C.ar      1 1MV         0.0586
     14 N1         12.5260   29.9510   -9.5200 N.ar      1 1MV        -0.2773
     15 C6         13.6530   29.7060   -8.8170 C.ar      1 1MV         0.1085
     16 SAE        14.4350   28.3020   -8.5330 S.3       1 1MV        -0.0140
     17 C5         14.3500   30.6820   -8.1960 C.ar      1 1MV         0.0470
     18 CAC        15.4480   30.1770   -7.5500 C.2       1 1MV        -0.0456
     19 CAD        15.6110   28.8360   -7.6760 C.2       1 1MV         0.0373
     20 CAK        16.5530   28.0070   -7.1560 C.ar      1 1MV        -0.0128
     21 CAL        16.8100   26.7570   -7.7420 C.ar      1 1MV        -0.0592
     22 CAM        17.7550   25.8670   -7.2050 C.ar      1 1MV        -0.0593
     23 CAN        18.4750   26.1880   -6.0580 C.ar      1 1MV        -0.0451
     24 CAQ        19.4090   25.2720   -5.5550 C.3       1 1MV        -0.0306
     25 CAO        18.2280   27.4280   -5.4520 C.ar      1 1MV        -0.0593
     26 CAP        17.2780   28.3160   -5.9940 C.ar      1 1MV        -0.0592
     27 H          13.9862   34.3798   -9.1816 H         1 1MV         0.0956
     28 H          14.8257   32.9082   -6.7481 H         1 1MV         0.1897
     29 H          11.1377   31.4805  -10.1742 H         1 1MV         0.1012
     30 H          16.1347   30.8020   -6.9811 H         1 1MV         0.0448
     31 H          16.2639   26.4708   -8.6336 H         1 1MV         0.0607
     32 H          17.9263   24.9140   -7.6923 H         1 1MV         0.0561
     33 H          19.8805   25.6875   -4.6522 H         1 1MV         0.0395
     34 H          20.1799   25.0793   -6.3156 H         1 1MV         0.0395
     35 H          18.8997   24.3303   -5.3024 H         1 1MV         0.0395
     36 H          18.7735   27.7062   -4.5575 H         1 1MV         0.0561
     37 H          17.1018   29.2646   -5.4999 H         1 1MV         0.0607
@<TRIPOS>BOND
     1    1    2 ar 
     2    2    3 ar 
     3    2    4 ar 
     4    2    5 1  
     5    5    6 1  
     6    5   10 1  
     7    6    7 ar 
     8    6    8 ar 
     9    6    9 ar 
    10   10   11 1  
    11   11   12 ar 
    12   11   17 ar 
    13   12   13 ar 
    14   13   14 ar 
    15   14   15 ar 
    16   15   16 1  
    17   15   17 ar 
    18   16   19 1  
    19   17   18 1  
    20   18   19 2  
    21   19   20 1  
    22   20   21 ar 
    23   20   26 ar 
    24   21   22 ar 
    25   22   23 ar 
    26   23   24 1  
    27   23   25 ar 
    28   25   26 ar 
    29    5   27 1  
    30   10   28 1  
    31   13   29 1  
    32   18   30 1  
    33   21   31 1  
    34   22   32 1  
    35   24   33 1  
    36   24   34 1  
    37   24   35 1  
    38   25   36 1  
    39   26   37 1  
@<TRIPOS>SUBSTRUCTURE
     1 1MV         1

