4jvj_ligand
  -I-interpret- 

 41 43  0  0  0  0  0  0  0  0999 V2000
   15.9610   32.3150  -10.2440 O   0  0  0  0  0
   16.3110   33.7740   -9.7350 P   0  0  0  0  0
   17.5570   33.6370   -8.9470 O   0  0  0  0  0
   16.2570   34.7280  -10.8700 O   0  0  0  0  0
   14.8690   34.1420   -8.5700 C   0  0  0  0  0
   15.2550   35.6150   -7.5260 P   0  0  0  0  0
   14.9220   35.0810   -6.0500 O   0  0  0  0  0
   16.7050   35.8710   -7.6260 O   0  0  0  0  0
   14.3090   36.7220   -7.8550 O   0  0  0  0  0
   14.5410   32.9530   -7.7370 N   0  0  0  0  0
   13.8710   31.9480   -8.2990 C   0  0  0  0  0
   12.7620   32.2600   -8.9890 N   0  0  0  0  0
   12.0430   31.2580   -9.6210 C   0  0  0  0  0
   12.5260   29.9510   -9.5200 N   0  0  0  0  0
   13.6530   29.7060   -8.8170 C   0  0  0  0  0
   14.4350   28.3020   -8.5330 S   0  0  0  0  0
   14.3500   30.6820   -8.1960 C   0  0  0  0  0
   15.4480   30.1770   -7.5500 C   0  0  0  0  0
   15.6110   28.8360   -7.6760 C   0  0  0  0  0
   16.5530   28.0070   -7.1560 C   0  0  0  0  0
   16.8100   26.7570   -7.7420 C   0  0  0  0  0
   17.7550   25.8670   -7.2050 C   0  0  0  0  0
   18.4750   26.1880   -6.0580 C   0  0  0  0  0
   19.4090   25.2720   -5.5550 C   0  0  0  0  0
   18.2280   27.4280   -5.4520 C   0  0  0  0  0
   17.2780   28.3160   -5.9940 C   0  0  0  0  0
   15.1552   32.3438  -10.7651 H   0  0  0  0  0
   15.3860   34.6959  -11.2724 H   0  0  0  0  0
   13.9866   34.3718   -9.1672 H   0  0  0  0  0
   13.9798   34.9120   -5.9770 H   0  0  0  0  0
   13.4066   36.4131   -7.7465 H   0  0  0  0  0
   14.8229   32.9086   -6.7577 H   0  0  0  0  0
   11.1327   31.4817  -10.1773 H   0  0  0  0  0
   16.1354   30.8026   -6.9805 H   0  0  0  0  0
   16.2609   26.4693   -8.6386 H   0  0  0  0  0
   17.9273   24.9087   -7.6950 H   0  0  0  0  0
   18.9031   24.3394   -5.3051 H   0  0  0  0  0
   20.1723   25.0819   -6.3096 H   0  0  0  0  0
   19.8754   25.6848   -4.6605 H   0  0  0  0  0
   18.7765   27.7078   -4.5525 H   0  0  0  0  0
   17.1008   29.2699   -5.4972 H   0  0  0  0  0
  1  2  1  0  0  0
  2  3  2  0  0  0
  2  4  1  0  0  0
  2  5  1  0  0  0
  5  6  1  0  0  0
  5 10  1  0  0  0
  6  7  1  0  0  0
  6  8  2  0  0  0
  6  9  1  0  0  0
 10 11  1  0  0  0
 11 12  4  0  0  0
 11 17  4  0  0  0
 12 13  4  0  0  0
 13 14  4  0  0  0
 14 15  4  0  0  0
 15 16  4  0  0  0
 15 17  4  0  0  0
 16 19  4  0  0  0
 17 18  4  0  0  0
 18 19  4  0  0  0
 19 20  1  0  0  0
 20 21  4  0  0  0
 20 26  4  0  0  0
 21 22  4  0  0  0
 22 23  4  0  0  0
 23 24  1  0  0  0
 23 25  4  0  0  0
 25 26  4  0  0  0
  1 27  1  0  0  0
  4 28  1  0  0  0
  5 29  1  0  0  0
  7 30  1  0  0  0
  9 31  1  0  0  0
 10 32  1  0  0  0
 13 33  1  0  0  0
 18 34  1  0  0  0
 21 35  1  0  0  0
 22 36  1  0  0  0
 24 37  1  0  0  0
 24 38  1  0  0  0
 24 39  1  0  0  0
 25 40  1  0  0  0
 26 41  1  0  0  0
M  END
$$$$
