6c2r_ligand
  -I-interpret- 

 60 63  0  0  0  0  0  0  0  0999 V2000
  112.4940  -20.1560    5.3910 C   0  0  0  0  0
  109.8190  -16.2510    3.0050 C   0  0  0  0  0
  111.9950  -22.2620    4.2910 C   0  0  0  0  0
  106.4890  -14.1590    5.3540 C   0  0  0  0  0
  112.4890  -21.7360    3.0920 C   0  0  0  0  0
  106.4380  -13.8370    6.7080 C   0  0  0  0  0
  111.9960  -21.4740    5.4500 C   0  0  0  0  0
  107.4270  -14.3360    7.5540 C   0  0  0  0  0
  113.0010  -19.6490    4.2000 C   0  0  0  0  0
  113.0040  -20.4420    3.0580 C   0  0  0  0  0
  108.4230  -15.1680    7.0280 C   0  0  0  0  0
  110.3580  -16.6500    1.7630 C   0  0  0  0  0
  107.5230  -15.0020    4.9190 C   0  0  0  0  0
  108.5730  -15.7600    2.6820 C   0  0  0  0  0
  107.8820  -17.2400    9.2740 C   0  0  0  0  0
  108.9660  -18.1580    7.1350 C   0  0  0  0  0
  110.2240  -17.8330    9.2460 C   0  0  0  0  0
  110.2850  -18.4680    6.4190 C   0  0  0  0  0
  111.5380  -18.2380    8.5470 C   0  0  0  0  0
  109.1180  -17.2310    8.3550 C   0  0  0  0  0
  111.6840  -17.2360    1.4500 C   0  0  0  0  0
  112.3600  -18.9790    9.6130 C   0  0  0  0  0
  112.5660  -19.2650    6.5980 C   0  0  0  0  0
  109.4580  -15.7830    7.9440 C   0  0  0  0  0
  108.4930  -15.5070    5.7160 N   0  0  0  0  0
  108.4590  -15.8740    1.3440 N   0  0  0  0  0
  109.5260  -16.4190    0.7550 N   0  0  0  0  0
  111.3070  -19.0470    7.3210 N   0  3  0  0  0
  107.5790  -15.2810    3.5400 N   0  0  0  0  0
  107.9560  -17.1940   10.4950 O   0  0  0  0  0
  106.6570  -17.3150    8.6830 O   0  0  0  0  0
  107.3700  -14.0760    8.8550 F   0  0  0  0  0
  113.4530  -18.3770    4.1700 F   0  0  0  0  0
  113.6850  -19.8170    1.6100 Cl  0  0  0  0  0
  110.2810  -16.3162    3.9901 H   0  0  0  0  0
  111.6106  -23.2815    4.3234 H   0  0  0  0  0
  105.7495  -13.7688    4.6547 H   0  0  0  0  0
  112.4708  -22.3391    2.1842 H   0  0  0  0  0
  105.6395  -13.2064    7.0989 H   0  0  0  0  0
  111.6152  -21.8764    6.3887 H   0  0  0  0  0
  108.5642  -19.1046    7.4964 H   0  0  0  0  0
  108.3220  -17.6471    6.4192 H   0  0  0  0  0
  110.4924  -17.0524    9.9578 H   0  0  0  0  0
  109.8086  -18.7528    9.6577 H   0  0  0  0  0
  110.6794  -17.5307    6.0265 H   0  0  0  0  0
  110.0765  -19.1996    5.6384 H   0  0  0  0  0
  112.0776  -17.3655    8.1787 H   0  0  0  0  0
  112.4675  -16.5416    1.7536 H   0  0  0  0  0
  111.8008  -18.1760    1.9893 H   0  0  0  0  0
  111.7548  -17.4195    0.3779 H   0  0  0  0  0
  112.5459  -18.3122   10.4550 H   0  0  0  0  0
  111.8053  -19.8526    9.9553 H   0  0  0  0  0
  113.3098  -19.2959    9.1822 H   0  0  0  0  0
  112.8811  -18.2867    6.2350 H   0  0  0  0  0
  113.2379  -19.7585    7.3002 H   0  0  0  0  0
  109.4964  -15.1812    8.8520 H   0  0  0  0  0
  110.4056  -15.8052    7.4057 H   0  0  0  0  0
  110.9387  -19.9442    7.6370 H   0  0  0  0  0
  106.6988  -15.0915    3.0608 H   0  0  0  0  0
  106.7642  -17.3436    7.7294 H   0  0  0  0  0
  1  7  4  0  0  0
  1  9  4  0  0  0
 23  1  1  0  0  0
  2 12  4  0  0  0
 14  2  4  0  0  0
  3  5  4  0  0  0
  7  3  4  0  0  0
  6  4  4  0  0  0
 13  4  4  0  0  0
 10  5  4  0  0  0
  8  6  4  0  0  0
 11  8  4  0  0  0
  8 32  1  0  0  0
  9 10  4  0  0  0
  9 33  1  0  0  0
 10 34  1  0  0  0
 24 11  1  0  0  0
 11 25  4  0  0  0
 12 21  1  0  0  0
 12 27  4  0  0  0
 25 13  4  0  0  0
 13 29  1  0  0  0
 14 26  4  0  0  0
 29 14  1  0  0  0
 20 15  1  0  0  0
 15 30  2  0  0  0
 15 31  1  0  0  0
 18 16  1  0  0  0
 16 20  1  0  0  0
 19 17  1  0  0  0
 17 20  1  0  0  0
 28 18  1  0  0  0
 19 22  1  0  0  0
 28 19  1  0  0  0
 20 24  1  0  0  0
 23 28  1  0  0  0
 26 27  4  0  0  0
  2 35  1  0  0  0
  3 36  1  0  0  0
  4 37  1  0  0  0
  5 38  1  0  0  0
  6 39  1  0  0  0
  7 40  1  0  0  0
 16 41  1  0  0  0
 16 42  1  0  0  0
 17 43  1  0  0  0
 17 44  1  0  0  0
 18 45  1  0  0  0
 18 46  1  0  0  0
 19 47  1  0  0  0
 21 48  1  0  0  0
 21 49  1  0  0  0
 21 50  1  0  0  0
 22 51  1  0  0  0
 22 52  1  0  0  0
 22 53  1  0  0  0
 23 54  1  0  0  0
 23 55  1  0  0  0
 24 56  1  0  0  0
 24 57  1  0  0  0
 28 58  1  0  0  0
 29 59  1  0  0  0
 31 60  1  0  0  0
M  END
$$$$
