### 
### Created by X-TOOL on Mon Sep 10 21:13:29 2018
### 

@<TRIPOS>MOLECULE
5svk_ligand
   43    45     1     0     0
SMALL
GAST_HUCK


@<TRIPOS>ATOM
      1 PG        206.3150  176.9350  194.3480 P.3       1 ATP         0.1879
      2 O1G       206.4790  176.6160  192.8820 O.co2     1 ATP        -0.6091
      3 O2G       206.2060  175.7220  195.2380 O.co2     1 ATP        -0.6091
      4 O3G       205.2540  177.9740  194.6270 O.co2     1 ATP        -0.6091
      5 PB        208.6790  178.3260  193.6840 P.3       1 ATP         0.3553
      6 O1B       207.8650  179.2880  192.8520 O.co2     1 ATP        -0.5652
      7 O2B       209.4260  177.2190  192.9780 O.co2     1 ATP        -0.5652
      8 O3B       207.7160  177.6290  194.7770 O.3       1 ATP        -0.1546
      9 PA        209.4900  180.3120  195.6320 P.3       1 ATP         0.3266
     10 O1A       208.0590  180.7830  195.5200 O.co2     1 ATP        -0.5692
     11 O2A       210.6160  181.3120  195.5310 O.co2     1 ATP        -0.5692
     12 O3A       209.7780  179.1800  194.5110 O.3       1 ATP        -0.1171
     13 O5'       209.6910  179.4990  197.0080 O.3       1 ATP        -0.2441
     14 C5'       210.9760  178.9760  197.3500 C.3       1 ATP         0.1131
     15 C4'       210.8030  177.6920  198.1500 C.3       1 ATP         0.1189
     16 O4'       209.9870  177.9580  199.2910 O.3       1 ATP        -0.3364
     17 C3'       210.0910  176.6240  197.3360 C.3       1 ATP         0.1149
     18 O3'       210.6450  175.3370  197.6290 O.3       1 ATP        -0.3864
     19 C2'       208.6610  176.6850  197.8100 C.3       1 ATP         0.1385
     20 O2'       207.9850  175.4370  197.6770 O.3       1 ATP        -0.3836
     21 C1'       208.8390  177.1110  199.2580 C.3       1 ATP         0.2010
     22 N9        207.6580  177.8310  199.7650 N.pl3     1 ATP        -0.1919
     23 C8        207.1530  178.9840  199.2880 C.2       1 ATP         0.1123
     24 N7        206.0610  179.3510  200.0030 N.2       1 ATP        -0.2958
     25 C5        205.8730  178.4200  200.9510 C.ar      1 ATP         0.1045
     26 C6        204.9130  178.1920  202.0430 C.ar      1 ATP         0.1298
     27 N6        203.9120  179.0640  202.2590 N.pl3     1 ATP        -0.3152
     28 N1        205.0680  177.0910  202.8050 N.ar      1 ATP        -0.2698
     29 C2        206.0640  176.2140  202.5950 C.ar      1 ATP         0.0533
     30 N3        206.9750  176.3590  201.6180 N.ar      1 ATP        -0.2714
     31 C4        206.9260  177.4190  200.7860 C.ar      1 ATP         0.1613
     32 H1        211.5236  179.7140  197.9545 H         1 ATP         0.0648
     33 H2        211.5417  178.7624  196.4311 H         1 ATP         0.0648
     34 H3        211.7901  177.3233  198.4656 H         1 ATP         0.0651
     35 H4        210.1629  176.8307  196.2580 H         1 ATP         0.0648
     36 H5        210.1949  174.6756  197.1166 H         1 ATP         0.2100
     37 H6        208.0987  177.4462  197.2494 H         1 ATP         0.0676
     38 H7        208.4354  174.7777  198.1918 H         1 ATP         0.2101
     39 H8        209.0102  176.2237  199.8852 H         1 ATP         0.0996
     40 H9        207.5630  179.5424  198.4477 H         1 ATP         0.1349
     41 H10       203.2425  178.9003  203.0245 H         1 ATP         0.1820
     42 H11       203.8149  179.8955  201.6590 H         1 ATP         0.1820
     43 H12       206.1360  175.3489  203.2442 H         1 ATP         0.0996
@<TRIPOS>BOND
     1    1    2 ar 
     2    1    3 ar 
     3    1    4 ar 
     4    8    1 1  
     5    5    6 ar 
     6    5    7 ar 
     7    5    8 1  
     8   12    5 1  
     9    9   10 ar 
    10    9   11 ar 
    11    9   12 1  
    12    9   13 1  
    13   13   14 1  
    14   14   15 1  
    15   15   16 1  
    16   15   17 1  
    17   16   21 1  
    18   17   18 1  
    19   17   19 1  
    20   19   20 1  
    21   19   21 1  
    22   21   22 1  
    23   22   23 1  
    24   22   31 1  
    25   23   24 2  
    26   24   25 1  
    27   25   26 ar 
    28   25   31 ar 
    29   26   27 1  
    30   26   28 ar 
    31   28   29 ar 
    32   29   30 ar 
    33   30   31 ar 
    34   14   32 1  
    35   14   33 1  
    36   15   34 1  
    37   17   35 1  
    38   18   36 1  
    39   19   37 1  
    40   20   38 1  
    41   21   39 1  
    42   23   40 1  
    43   27   41 1  
    44   27   42 1  
    45   29   43 1  
@<TRIPOS>SUBSTRUCTURE
     1 ATP         1

