5svk_ligand
  -I-interpret- 

 47 49  0  0  0  0  0  0  0  0999 V2000
  206.3150  176.9350  194.3480 P   0  0  0  0  0
  206.4790  176.6160  192.8820 O   0  0  0  0  0
  206.2060  175.7220  195.2380 O   0  0  0  0  0
  205.2540  177.9740  194.6270 O   0  0  0  0  0
  208.6790  178.3260  193.6840 P   0  0  0  0  0
  207.8650  179.2880  192.8520 O   0  0  0  0  0
  209.4260  177.2190  192.9780 O   0  0  0  0  0
  207.7160  177.6290  194.7770 O   0  0  0  0  0
  209.4900  180.3120  195.6320 P   0  0  0  0  0
  208.0590  180.7830  195.5200 O   0  0  0  0  0
  210.6160  181.3120  195.5310 O   0  0  0  0  0
  209.7780  179.1800  194.5110 O   0  0  0  0  0
  209.6910  179.4990  197.0080 O   0  0  0  0  0
  210.9760  178.9760  197.3500 C   0  0  0  0  0
  210.8030  177.6920  198.1500 C   0  0  0  0  0
  209.9870  177.9580  199.2910 O   0  0  0  0  0
  210.0910  176.6240  197.3360 C   0  0  0  0  0
  210.6450  175.3370  197.6290 O   0  0  0  0  0
  208.6610  176.6850  197.8100 C   0  0  0  0  0
  207.9850  175.4370  197.6770 O   0  0  0  0  0
  208.8390  177.1110  199.2580 C   0  0  0  0  0
  207.6580  177.8310  199.7650 N   0  0  0  0  0
  207.1530  178.9840  199.2880 C   0  0  0  0  0
  206.0610  179.3510  200.0030 N   0  0  0  0  0
  205.8730  178.4200  200.9510 C   0  0  0  0  0
  204.9130  178.1920  202.0430 C   0  0  0  0  0
  203.9120  179.0640  202.2590 N   0  0  0  0  0
  205.0680  177.0910  202.8050 N   0  0  0  0  0
  206.0640  176.2140  202.5950 C   0  0  0  0  0
  206.9750  176.3590  201.6180 N   0  0  0  0  0
  206.9260  177.4190  200.7860 C   0  0  0  0  0
  206.5411  177.4336  192.3828 H   0  0  0  0  0
  205.3732  178.7189  194.0333 H   0  0  0  0  0
  209.8964  176.6885  193.6252 H   0  0  0  0  0
  207.4683  180.0310  195.6044 H   0  0  0  0  0
  211.5191  179.7074  197.9486 H   0  0  0  0  0
  211.5370  178.7648  196.4396 H   0  0  0  0  0
  211.7962  177.3415  198.4307 H   0  0  0  0  0
  210.1857  176.7828  196.2618 H   0  0  0  0  0
  210.1902  174.6687  197.1112 H   0  0  0  0  0
  208.0322  177.3609  197.2304 H   0  0  0  0  0
  207.0824  175.5282  197.9909 H   0  0  0  0  0
  208.9637  176.2364  199.8965 H   0  0  0  0  0
  207.5634  179.5429  198.4470 H   0  0  0  0  0
  203.8158  179.8874  201.6648 H   0  0  0  0  0
  203.2490  178.9018  203.0170 H   0  0  0  0  0
  206.1364  175.3441  203.2478 H   0  0  0  0  0
  1  2  1  0  0  0
  1  3  2  0  0  0
  1  4  1  0  0  0
  8  1  1  0  0  0
  5  6  2  0  0  0
  5  7  1  0  0  0
  5  8  1  0  0  0
 12  5  1  0  0  0
  9 10  1  0  0  0
  9 11  2  0  0  0
  9 12  1  0  0  0
  9 13  1  0  0  0
 13 14  1  0  0  0
 14 15  1  0  0  0
 15 16  1  0  0  0
 15 17  1  0  0  0
 16 21  1  0  0  0
 17 18  1  0  0  0
 17 19  1  0  0  0
 19 20  1  0  0  0
 19 21  1  0  0  0
 21 22  1  0  0  0
 22 23  4  0  0  0
 22 31  4  0  0  0
 23 24  4  0  0  0
 24 25  4  0  0  0
 25 26  4  0  0  0
 25 31  4  0  0  0
 26 27  1  0  0  0
 26 28  4  0  0  0
 28 29  4  0  0  0
 29 30  4  0  0  0
 30 31  4  0  0  0
  2 32  1  0  0  0
  4 33  1  0  0  0
  7 34  1  0  0  0
 10 35  1  0  0  0
 14 36  1  0  0  0
 14 37  1  0  0  0
 15 38  1  0  0  0
 17 39  1  0  0  0
 18 40  1  0  0  0
 19 41  1  0  0  0
 20 42  1  0  0  0
 21 43  1  0  0  0
 23 44  1  0  0  0
 27 45  1  0  0  0
 27 46  1  0  0  0
 29 47  1  0  0  0
M  END
$$$$
