4uwg_ligand
  -I-interpret- 

 54 56  0  0  0  0  0  0  0  0999 V2000
   18.7570  -16.8840  -24.4970 C   0  0  0  0  0
   18.1610  -15.6910  -24.1590 N   0  0  0  0  0
   18.0100  -18.0700  -24.6350 N   0  0  0  0  0
   16.7440  -15.5940  -23.9340 C   0  0  0  0  0
   20.2260  -16.8870  -24.6960 N   0  0  0  0  0
   16.5680  -18.0200  -24.4770 C   0  0  0  0  0
   15.9680  -16.7700  -24.0980 C   0  0  0  0  0
   20.8280  -18.1440  -25.1820 C   0  0  0  0  0
   20.9050  -18.1820  -26.6940 C   0  0  0  0  0
   16.2810  -14.3710  -23.7350 N   0  3  0  0  0
   18.6660  -19.4080  -24.8310 C   0  0  0  0  0
   20.1690  -19.3770  -24.5410 C   0  0  0  0  0
   15.9800  -19.0530  -24.7700 O   0  0  0  0  0
   21.4010  -19.3350  -27.1380 F   0  0  0  0  0
   19.7230  -18.0200  -27.2800 F   0  0  0  0  0
   21.6890  -17.2220  -27.1590 F   0  0  0  0  0
   15.3130  -11.8840  -22.8220 O   0  0  0  0  0
   20.9840  -16.2300  -23.6290 C   0  0  0  0  0
   17.2050  -13.2350  -23.5340 C   0  0  0  0  0
   14.8640  -13.9960  -23.9160 C   0  0  0  0  0
   21.2050  -14.7550  -23.7450 C   0  0  0  0  0
   21.4570  -14.2230  -22.4430 O   0  0  0  0  0
   14.4510  -13.0160  -22.8490 C   0  0  0  0  0
   16.6440  -12.2900  -22.5020 C   0  0  0  0  0
   21.1350  -12.8410  -22.2060 C   0  0  0  0  0
   22.0850  -12.0050  -23.0090 C   0  0  0  0  0
   21.3040  -12.6120  -20.7550 C   0  0  0  0  0
   18.7381  -14.8552  -24.0657 H   0  0  0  0  0
   15.3106  -16.5330  -24.9345 H   0  0  0  0  0
   15.5741  -16.9628  -23.1001 H   0  0  0  0  0
   21.8653  -18.1768  -24.8487 H   0  0  0  0  0
   18.5321  -19.6970  -25.8734 H   0  0  0  0  0
   18.2056  -20.1114  -24.1372 H   0  0  0  0  0
   20.3163  -19.3313  -23.4620 H   0  0  0  0  0
   20.6247  -20.2745  -24.9593 H   0  0  0  0  0
   21.9772  -16.6782  -23.6564 H   0  0  0  0  0
   20.3939  -16.3675  -22.7229 H   0  0  0  0  0
   17.3295  -12.7030  -24.4772 H   0  0  0  0  0
   18.1675  -13.6125  -23.1888 H   0  0  0  0  0
   14.2440  -14.8895  -23.8421 H   0  0  0  0  0
   14.7370  -13.5349  -24.8955 H   0  0  0  0  0
   20.3211  -14.2817  -24.1725 H   0  0  0  0  0
   22.0577  -14.5594  -24.3952 H   0  0  0  0  0
   13.4385  -12.6750  -23.0653 H   0  0  0  0  0
   14.5044  -13.5149  -21.8814 H   0  0  0  0  0
   16.6234  -12.8049  -21.5415 H   0  0  0  0  0
   17.2751  -11.4018  -22.4721 H   0  0  0  0  0
   20.1179  -12.5816  -22.4998 H   0  0  0  0  0
   23.1072  -12.2151  -22.6942 H   0  0  0  0  0
   21.9727  -12.2441  -24.0665 H   0  0  0  0  0
   21.8636  -10.9499  -22.8482 H   0  0  0  0  0
   20.6310  -13.2689  -20.2040 H   0  0  0  0  0
   22.3347  -12.8259  -20.4723 H   0  0  0  0  0
   21.0704  -11.5729  -20.5228 H   0  0  0  0  0
  2  1  1  0  0  0
  1  3  4  0  0  0
  1  5  1  0  0  0
  4  2  1  0  0  0
  6  3  1  0  0  0
  3 11  1  0  0  0
  4  7  1  0  0  0
 10  4  2  0  0  0
  5  8  1  0  0  0
  5 18  1  0  0  0
  7  6  1  0  0  0
  6 13  2  0  0  0
  8  9  1  0  0  0
  8 12  1  0  0  0
  9 14  1  0  0  0
  9 15  1  0  0  0
  9 16  1  0  0  0
 19 10  1  0  0  0
 10 20  1  0  0  0
 11 12  1  0  0  0
 17 23  1  0  0  0
 24 17  1  0  0  0
 18 21  1  0  0  0
 19 24  1  0  0  0
 20 23  1  0  0  0
 21 22  1  0  0  0
 22 25  1  0  0  0
 25 26  1  0  0  0
 25 27  1  0  0  0
  2 28  1  0  0  0
  7 29  1  0  0  0
  7 30  1  0  0  0
  8 31  1  0  0  0
 11 32  1  0  0  0
 11 33  1  0  0  0
 12 34  1  0  0  0
 12 35  1  0  0  0
 18 36  1  0  0  0
 18 37  1  0  0  0
 19 38  1  0  0  0
 19 39  1  0  0  0
 20 40  1  0  0  0
 20 41  1  0  0  0
 21 42  1  0  0  0
 21 43  1  0  0  0
 23 44  1  0  0  0
 23 45  1  0  0  0
 24 46  1  0  0  0
 24 47  1  0  0  0
 25 48  1  0  0  0
 26 49  1  0  0  0
 26 50  1  0  0  0
 26 51  1  0  0  0
 27 52  1  0  0  0
 27 53  1  0  0  0
 27 54  1  0  0  0
M  END
$$$$
