### 
### Created by X-TOOL on Mon Sep 10 21:12:56 2018
### 

@<TRIPOS>MOLECULE
2ja3_ligand
   39    41     1     0     0
SMALL
GAST_HUCK


@<TRIPOS>ATOM
      1 PB         13.7790   75.2420   55.9310 P.3       1 ADP         0.2069
      2 O1B        12.7900   76.2430   56.7280 O.co2     1 ADP        -0.5891
      3 O2B        12.8310   74.0240   55.4370 O.co2     1 ADP        -0.5891
      4 O3B        14.8790   74.7670   56.8030 O.co2     1 ADP        -0.5891
      5 PA         13.3670   76.6110   53.4560 P.3       1 ADP         0.3276
      6 O1A        12.9310   77.9680   53.8320 O.co2     1 ADP        -0.5556
      7 O2A        14.0080   76.4110   52.1410 O.co2     1 ADP        -0.5556
      8 O3A        14.3280   76.0360   54.6210 O.3       1 ADP        -0.1548
      9 N9         11.0320   74.4370   49.8130 N.pl3     1 ADP        -0.1919
     10 C8         12.2570   74.9210   50.0320 C.2       1 ADP         0.1123
     11 N7         12.7200   75.4910   48.9220 N.2       1 ADP        -0.2958
     12 C5         11.7870   75.3670   47.9860 C.ar      1 ADP         0.1045
     13 C6         11.7090   75.7630   46.6610 C.ar      1 ADP         0.1298
     14 N6         12.7270   76.4070   46.1040 N.pl3     1 ADP        -0.3152
     15 N1         10.5980   75.4850   45.9580 N.ar      1 ADP        -0.2698
     16 C2          9.5840   74.8390   46.5200 C.ar      1 ADP         0.0533
     17 N3          9.6280   74.4490   47.7870 N.ar      1 ADP        -0.2714
     18 C4         10.7130   74.6970   48.5450 C.ar      1 ADP         0.1613
     19 O5'        12.1140   75.6150   53.5410 O.3       1 ADP        -0.2436
     20 C5'        10.9880   75.8750   52.7260 C.3       1 ADP         0.1132
     21 C4'         9.9140   74.8010   52.8780 C.3       1 ADP         0.1189
     22 O4'         9.3020   74.6080   51.5940 O.3       1 ADP        -0.3364
     23 C3'        10.4840   73.4340   53.2050 C.3       1 ADP         0.1149
     24 O3'         9.4160   72.5760   53.6000 O.3       1 ADP        -0.3864
     25 C2'        11.0260   72.9710   51.8570 C.3       1 ADP         0.1385
     26 O2'        10.8180   71.5640   51.7040 O.3       1 ADP        -0.3836
     27 C1'        10.1710   73.7170   50.8220 C.3       1 ADP         0.2010
     28 H1         12.7959   74.8588   50.9763 H         1 ADP         0.1349
     29 H2         12.6722   76.7029   45.1189 H         1 ADP         0.1820
     30 H3         13.5718   76.6109   46.6568 H         1 ADP         0.1820
     31 H4          8.6999   74.6253   45.9303 H         1 ADP         0.0996
     32 H5         11.3103   75.9091   51.6748 H         1 ADP         0.0648
     33 H6         10.5605   76.8479   53.0102 H         1 ADP         0.0648
     34 H7          9.1813   75.1094   53.6383 H         1 ADP         0.0651
     35 H8         11.2651   73.4776   53.9782 H         1 ADP         0.0648
     36 H9          9.7623   71.7160   53.8074 H         1 ADP         0.2100
     37 H10        12.0932   73.2151   51.7500 H         1 ADP         0.0676
     38 H11        11.2701   71.1007   52.3993 H         1 ADP         0.2101
     39 H12         9.5462   72.9946   50.2764 H         1 ADP         0.0996
@<TRIPOS>BOND
     1    1    2 ar 
     2    1    3 ar 
     3    1    4 ar 
     4    8    1 1  
     5    5    6 ar 
     6    5    7 ar 
     7    5    8 1  
     8   19    5 1  
     9    9   10 1  
    10    9   18 1  
    11   27    9 1  
    12   10   11 2  
    13   12   11 1  
    14   12   13 ar 
    15   18   12 ar 
    16   13   14 1  
    17   13   15 ar 
    18   16   15 ar 
    19   17   16 ar 
    20   18   17 ar 
    21   20   19 1  
    22   21   20 1  
    23   22   21 1  
    24   21   23 1  
    25   22   27 1  
    26   23   24 1  
    27   23   25 1  
    28   25   26 1  
    29   25   27 1  
    30   10   28 1  
    31   14   29 1  
    32   14   30 1  
    33   16   31 1  
    34   20   32 1  
    35   20   33 1  
    36   21   34 1  
    37   23   35 1  
    38   24   36 1  
    39   25   37 1  
    40   26   38 1  
    41   27   39 1  
@<TRIPOS>SUBSTRUCTURE
     1 ADP         1

