2ja3_ligand
  -I-interpret- 

 42 44  0  0  0  0  0  0  0  0999 V2000
   13.7790   75.2420   55.9310 P   0  0  0  0  0
   12.7900   76.2430   56.7280 O   0  0  0  0  0
   12.8310   74.0240   55.4370 O   0  0  0  0  0
   14.8790   74.7670   56.8030 O   0  0  0  0  0
   13.3670   76.6110   53.4560 P   0  0  0  0  0
   12.9310   77.9680   53.8320 O   0  0  0  0  0
   14.0080   76.4110   52.1410 O   0  0  0  0  0
   14.3280   76.0360   54.6210 O   0  0  0  0  0
   11.0320   74.4370   49.8130 N   0  0  0  0  0
   12.2570   74.9210   50.0320 C   0  0  0  0  0
   12.7200   75.4910   48.9220 N   0  0  0  0  0
   11.7870   75.3670   47.9860 C   0  0  0  0  0
   11.7090   75.7630   46.6610 C   0  0  0  0  0
   12.7270   76.4070   46.1040 N   0  0  0  0  0
   10.5980   75.4850   45.9580 N   0  0  0  0  0
    9.5840   74.8390   46.5200 C   0  0  0  0  0
    9.6280   74.4490   47.7870 N   0  0  0  0  0
   10.7130   74.6970   48.5450 C   0  0  0  0  0
   12.1140   75.6150   53.5410 O   0  0  0  0  0
   10.9880   75.8750   52.7260 C   0  0  0  0  0
    9.9140   74.8010   52.8780 C   0  0  0  0  0
    9.3020   74.6080   51.5940 O   0  0  0  0  0
   10.4840   73.4340   53.2050 C   0  0  0  0  0
    9.4160   72.5760   53.6000 O   0  0  0  0  0
   11.0260   72.9710   51.8570 C   0  0  0  0  0
   10.8180   71.5640   51.7040 O   0  0  0  0  0
   10.1710   73.7170   50.8220 C   0  0  0  0  0
   12.0891   76.5339   56.1400 H   0  0  0  0  0
   12.1329   74.3704   54.8765 H   0  0  0  0  0
   14.2365   75.4846   52.0353 H   0  0  0  0  0
   12.7964   74.8587   50.9771 H   0  0  0  0  0
   13.5636   76.6090   46.6514 H   0  0  0  0  0
   12.6728   76.7000   45.1285 H   0  0  0  0  0
    8.6950   74.6241   45.9270 H   0  0  0  0  0
   11.3145   75.8866   51.6861 H   0  0  0  0  0
   10.5605   76.8307   53.0291 H   0  0  0  0  0
    9.2481   75.1396   53.6718 H   0  0  0  0  0
   11.2286   73.4380   54.0010 H   0  0  0  0  0
    9.7660   71.7070   53.8095 H   0  0  0  0  0
   12.0932   73.1670   51.7529 H   0  0  0  0  0
   11.1619   71.2815   50.8534 H   0  0  0  0  0
    9.5670   73.0385   50.2196 H   0  0  0  0  0
  1  2  1  0  0  0
  1  3  1  0  0  0
  1  4  2  0  0  0
  8  1  1  0  0  0
  5  6  2  0  0  0
  5  7  1  0  0  0
  5  8  1  0  0  0
 19  5  1  0  0  0
  9 10  4  0  0  0
  9 18  4  0  0  0
 27  9  1  0  0  0
 10 11  4  0  0  0
 12 11  4  0  0  0
 12 13  4  0  0  0
 18 12  4  0  0  0
 13 14  1  0  0  0
 13 15  4  0  0  0
 16 15  4  0  0  0
 17 16  4  0  0  0
 18 17  4  0  0  0
 20 19  1  0  0  0
 21 20  1  0  0  0
 22 21  1  0  0  0
 21 23  1  0  0  0
 22 27  1  0  0  0
 23 24  1  0  0  0
 23 25  1  0  0  0
 25 26  1  0  0  0
 25 27  1  0  0  0
  2 28  1  0  0  0
  3 29  1  0  0  0
  7 30  1  0  0  0
 10 31  1  0  0  0
 14 32  1  0  0  0
 14 33  1  0  0  0
 16 34  1  0  0  0
 20 35  1  0  0  0
 20 36  1  0  0  0
 21 37  1  0  0  0
 23 38  1  0  0  0
 24 39  1  0  0  0
 25 40  1  0  0  0
 26 41  1  0  0  0
 27 42  1  0  0  0
M  END
$$$$
