3cft_ligand
  -I-interpret- 

 24 25  0  0  0  0  0  0  0  0999 V2000
  -22.4990    1.7320  -27.0500 C   0  0  0  0  0
  -22.9310    2.1000  -25.7760 C   0  0  0  0  0
  -22.5900    1.3100  -24.6810 C   0  0  0  0  0
  -21.8130    0.1540  -24.8510 C   0  0  0  0  0
  -21.3740   -0.2190  -26.1400 C   0  0  0  0  0
  -21.7170    0.5840  -27.2480 C   0  0  0  0  0
  -20.2600   -2.1530  -25.1700 C   0  0  0  0  0
  -20.5960   -1.3790  -26.2800 C   0  0  0  0  0
  -20.7370    1.4800  -29.3870 O   0  0  0  0  0
  -21.2660    0.2440  -28.7650 S   0  0  0  0  0
  -22.4480   -0.2750  -29.5040 O   0  0  0  0  0
  -20.2070   -0.7970  -28.8280 O   0  0  0  0  0
  -20.7040   -1.7800  -23.9010 C   0  0  0  0  0
  -21.4790   -0.6300  -23.7340 C   0  0  0  0  0
  -21.8940   -0.3020  -22.4750 N   0  0  0  0  0
  -22.7737    2.3470  -27.9069 H   0  0  0  0  0
  -23.5312    2.9994  -25.6384 H   0  0  0  0  0
  -22.9293    1.5918  -23.6842 H   0  0  0  0  0
  -19.6511   -3.0486  -25.2935 H   0  0  0  0  0
  -20.2501   -1.6785  -27.2693 H   0  0  0  0  0
  -22.7657   -1.0738  -29.0767 H   0  0  0  0  0
  -20.4447   -2.3893  -23.0352 H   0  0  0  0  0
  -22.4624    0.5318  -22.3264 H   0  0  0  0  0
  -21.6356   -0.8908  -21.6832 H   0  0  0  0  0
  1  2  4  0  0  0
  1  6  4  0  0  0
  2  3  4  0  0  0
  3  4  4  0  0  0
  4  5  4  0  0  0
  4 14  4  0  0  0
  5  6  4  0  0  0
  5  8  4  0  0  0
  6 10  1  0  0  0
  8  7  4  0  0  0
  7 13  4  0  0  0
 10  9  2  0  0  0
 10 11  1  0  0  0
 10 12  2  0  0  0
 13 14  4  0  0  0
 14 15  1  0  0  0
  1 16  1  0  0  0
  2 17  1  0  0  0
  3 18  1  0  0  0
  7 19  1  0  0  0
  8 20  1  0  0  0
 11 21  1  0  0  0
 13 22  1  0  0  0
 15 23  1  0  0  0
 15 24  1  0  0  0
M  END
$$$$
