3v3b_ligand
  -I-interpret- 

248251  0  0  0  0  0  0  0  0999 V2000
   18.8510    2.9940   -0.1650 N   0  3  0  0  0
   17.4680    3.2310   -0.6820 C   0  0  0  0  0
   16.5740    3.9900    0.3150 C   0  0  0  0  0
   16.7510    3.9270    1.5280 O   0  0  0  0  0
   16.8110    1.9130   -1.0890 C   0  0  0  0  0
   17.1020    1.4980   -2.5280 C   0  0  0  0  0
   15.6240    4.7210   -0.2360 N   0  0  0  0  0
   14.6960    5.5430    0.5270 C   0  0  0  0  0
   13.5170    4.6490    0.9590 C   0  0  0  0  0
   13.1170    3.7640    0.2040 O   0  0  0  0  0
   14.2430    6.7430   -0.3770 C   0  0  0  0  0
   15.0760    7.8900   -0.1170 O   0  0  0  0  0
   12.8390    7.1080   -0.1460 C   0  0  0  0  0
   12.9610    4.8680    2.1590 N   0  0  0  0  0
   11.7230    4.1800    2.5400 C   0  0  0  0  0
   10.6700    4.3100    1.4290 C   0  0  0  0  0
   10.0380    3.3010    1.0730 O   0  0  0  0  0
   11.1230    4.6620    3.8680 C   0  0  0  0  0
    9.7500    4.0860    4.1340 C   0  0  0  0  0
    9.6070    2.8170    4.6840 C   0  0  0  0  0
    8.6060    4.7810    3.7540 C   0  0  0  0  0
    8.3480    2.2640    4.8850 C   0  0  0  0  0
    7.3410    4.2410    3.9470 C   0  0  0  0  0
    7.2050    2.9750    4.5070 C   0  0  0  0  0
    8.8740    3.9210   -1.6950 O   0  0  0  0  0
    9.7740    4.7300   -1.4280 C   0  0  0  0  0
    9.5660    5.8020   -0.3080 C   0  0  0  0  0
    9.9680    7.2040   -0.8260 C   0  0  0  0  0
    8.0970    5.8400    0.1360 C   0  0  0  0  0
   10.4000    5.4430    0.8680 N   0  0  0  0  0
    7.0340    6.5230   -0.6290 C   0  0  0  0  0
    5.7360    5.9740    0.0170 C   0  0  0  0  0
    4.5200    6.8140   -0.3790 C   0  0  0  0  0
    3.8640    6.2470   -1.6300 C   0  0  0  0  0
    3.1500    4.9380   -1.2870 C   0  0  0  0  0
    3.4420    3.9750   -2.2320 C   0  0  0  0  0
   10.9520    4.4840   -1.9020 N   0  0  0  0  0
   11.2230    3.5040   -2.9860 C   0  0  0  0  0
   11.0710    2.0650   -2.5520 C   0  0  0  0  0
   10.5630    1.2540   -3.3310 O   0  0  0  0  0
   12.5870    3.7630   -3.6140 C   0  0  0  0  0
   12.5740    4.9790   -4.5170 C   0  0  0  0  0
   11.5450    5.3030   -5.1430 O   0  0  0  0  0
   13.7060    5.6680   -4.5880 N   0  0  0  0  0
   11.4720    1.7440   -1.3190 N   0  0  0  0  0
   11.2980    0.3840   -0.8050 C   0  0  0  0  0
    9.8070    0.0350   -0.7060 C   0  0  0  0  0
    9.3940   -1.0680   -1.0710 O   0  0  0  0  0
   11.9880    0.1940    0.5590 C   0  0  0  0  0
   13.5240    0.2430    0.5650 C   0  0  0  0  0
   14.0630    0.4150    1.9760 C   0  0  0  0  0
   14.1300   -1.0000   -0.0890 C   0  0  0  0  0
    8.9990    0.9740   -0.2140 N   0  0  0  0  0
    7.5680    0.7220   -0.0990 C   0  0  0  0  0
    6.9180    0.6700   -1.4840 C   0  0  0  0  0
    6.0090   -0.1190   -1.7040 O   0  0  0  0  0
    6.8740    1.7540    0.7900 C   0  0  0  0  0
    5.5000    1.3210    1.2150 C   0  0  0  0  0
    4.3080    1.6370    0.6110 C   0  0  0  0  0
    5.1720    0.4920    2.3370 C   0  0  0  0  0
    3.2660    1.0540    1.2950 N   0  0  0  0  0
    3.7690    0.3430    2.3550 C   0  0  0  0  0
    5.9280   -0.1440    3.3230 C   0  0  0  0  0
    3.1130   -0.4030    3.3220 C   0  0  0  0  0
    5.2650   -0.8890    4.2930 C   0  0  0  0  0
    3.8750   -1.0120    4.2810 C   0  0  0  0  0
    7.3780    1.4990   -2.4170 N   0  0  0  0  0
    6.8850    1.3940   -3.8020 C   0  0  0  0  0
    7.1680    0.0170   -4.3990 C   0  0  0  0  0
    6.2930   -0.5700   -5.0320 O   0  0  0  0  0
    7.4700    2.4880   -4.6980 C   0  0  0  0  0
    6.8730    3.8400   -4.4370 C   0  0  0  0  0
    7.4160    4.9000   -5.3990 C   0  0  0  0  0
    6.9630    6.2210   -4.9700 N   0  0  0  0  0
    7.7460    7.2500   -4.6600 C   0  0  0  0  0
    9.0760    7.1720   -4.7360 N   0  0  0  0  0
    7.1830    8.3780   -4.2640 N   0  0  0  0  0
    8.3750   -0.5080   -4.1900 N   0  0  0  0  0
    8.6890   -1.8770   -4.6210 C   0  0  0  0  0
    7.7270   -2.9010   -4.0090 C   0  0  0  0  0
    7.2900   -3.8360   -4.6900 O   0  0  0  0  0
   10.1360   -2.2510   -4.2800 C   0  0  0  0  0
   11.2300   -1.6150   -5.1330 C   0  0  0  0  0
   12.6020   -1.9100   -4.5240 C   0  0  0  0  0
   11.1380   -2.1170   -6.5930 C   0  0  0  0  0
    7.3840   -2.7120   -2.7350 N   0  0  0  0  0
    6.3240   -3.4950   -2.0960 C   0  0  0  0  0
    5.0010   -3.3150   -2.8690 C   0  0  0  0  0
    4.3930   -4.3180   -3.2830 O   0  0  0  0  0
    6.1350   -3.0650   -0.6280 C   0  0  0  0  0
    5.4980   -4.0290    0.3870 C   0  0  0  0  0
    4.7570   -3.2560    1.4970 C   0  0  0  0  0
    4.5770   -5.0390   -0.2510 C   0  0  0  0  0
    2.9740   -2.5330   -5.1440 C   0  0  0  0  0
    4.3670   -2.2040   -3.0580 N   0  0  0  0  0
    1.8840   -2.5920   -5.7120 O   0  0  0  0  0
    3.0550   -1.8980   -3.7160 C   0  0  0  0  0
    2.9030   -0.3910   -3.8960 C   0  0  0  0  0
    2.7660    2.0380   -3.4590 C   0  0  0  0  0
    2.5070    2.9910   -2.4940 C   0  0  0  0  0
    2.6850    0.6190   -2.8700 C   0  0  0  0  0
    1.9320   -2.4320   -2.8120 C   0  0  0  0  0
    3.9250   -2.2850   -6.0910 N   0  0  0  0  0
    4.4930   -2.8220   -7.3690 C   0  0  0  0  0
    5.0400   -4.2240   -7.1530 C   0  0  0  0  0
    6.2480   -4.4680   -7.2800 O   0  0  0  0  0
    5.6120   -1.9350   -7.9020 C   0  0  0  0  0
    5.1860   -0.5290   -8.2810 C   0  0  0  0  0
    6.3740    0.3420   -8.6470 C   0  0  0  0  0
    7.5160   -0.1330   -8.6940 O   0  0  0  0  0
    6.1140    1.6270   -8.9060 N   0  0  0  0  0
    4.1360   -5.1320   -6.8130 N   0  0  0  0  0
    4.4580   -6.5460   -6.6320 C   0  0  0  0  0
    5.2410   -7.1260   -7.8100 C   0  0  0  0  0
    6.4730   -7.0490   -7.8460 O   0  0  0  0  0
    3.1620   -7.3270   -6.4350 C   0  0  0  0  0
    2.2960   -6.7290   -5.3480 C   0  0  0  0  0
    2.6870   -6.6870   -4.1830 O   0  0  0  0  0
    1.1230   -6.2390   -5.7280 N   0  0  0  0  0
    4.6540   -7.6810   -8.7440 O   0  0  0  0  0
   19.2707    3.8849    0.1005 H   0  0  0  0  0
   18.8080    2.3810    0.6491 H   0  0  0  0  0
   19.4143    2.5550   -0.8932 H   0  0  0  0  0
   17.5718    3.8686   -1.5599 H   0  0  0  0  0
   15.7328    2.0467   -1.0011 H   0  0  0  0  0
   17.2126    1.1355   -0.4391 H   0  0  0  0  0
   16.7346    2.2667   -3.2078 H   0  0  0  0  0
   18.1774    1.3783   -2.6599 H   0  0  0  0  0
   16.6012    0.5535   -2.7407 H   0  0  0  0  0
   15.5349    4.7096   -1.2520 H   0  0  0  0  0
   15.1518    5.9593    1.4253 H   0  0  0  0  0
   14.3442    6.4254   -1.4148 H   0  0  0  0  0
   14.7947    8.6208   -0.6723 H   0  0  0  0  0
   12.7133    7.4268    0.8887 H   0  0  0  0  0
   12.5620    7.9229   -0.8148 H   0  0  0  0  0
   12.2035    6.2442   -0.3411 H   0  0  0  0  0
   13.4016    5.5170    2.8110 H   0  0  0  0  0
   12.0024    3.1360    2.6817 H   0  0  0  0  0
   11.0258    5.7464    3.8164 H   0  0  0  0  0
   11.7835    4.3350    4.6710 H   0  0  0  0  0
   10.4945    2.2482    4.9613 H   0  0  0  0  0
    8.7043    5.7658    3.2972 H   0  0  0  0  0
    8.2517    1.2768    5.3370 H   0  0  0  0  0
    6.4558    4.8086    3.6600 H   0  0  0  0  0
    6.2155    2.5408    4.6500 H   0  0  0  0  0
   11.0176    7.1942   -1.1198 H   0  0  0  0  0
    9.3509    7.4627   -1.6864 H   0  0  0  0  0
    9.8176    7.9390   -0.0352 H   0  0  0  0  0
    8.1362    6.4104    1.0640 H   0  0  0  0  0
    7.7992    4.7926    0.0878 H   0  0  0  0  0
   10.8442    6.2430    1.3187 H   0  0  0  0  0
    7.0900    6.3266   -1.6997 H   0  0  0  0  0
    7.1062    7.6094   -0.5770 H   0  0  0  0  0
    5.8453    6.0109    1.1009 H   0  0  0  0  0
    5.5804    4.9527   -0.3306 H   0  0  0  0  0
    4.8456    7.8343   -0.5816 H   0  0  0  0  0
    3.7979    6.7981    0.4374 H   0  0  0  0  0
    4.6273    6.0562   -2.3844 H   0  0  0  0  0
    3.1396    6.9643   -2.0158 H   0  0  0  0  0
    2.5043    4.7876   -0.4218 H   0  0  0  0  0
    4.3939    3.9902   -2.7628 H   0  0  0  0  0
   11.7430    4.9935   -1.5080 H   0  0  0  0  0
   10.4552    3.6585   -3.7441 H   0  0  0  0  0
   12.8558    2.8946   -4.2154 H   0  0  0  0  0
   13.3032    3.9416   -2.8120 H   0  0  0  0  0
   13.7598    6.5016   -5.1733 H   0  0  0  0  0
   14.5222    5.3640   -4.0573 H   0  0  0  0  0
   11.9045    2.4545   -0.7286 H   0  0  0  0  0
   11.7748   -0.2966   -1.5104 H   0  0  0  0  0
   11.7172   -0.8063    0.8969 H   0  0  0  0  0
   11.6576    1.0251    1.1821 H   0  0  0  0  0
   13.8193    1.1110   -0.0245 H   0  0  0  0  0
   13.6831    1.3456    2.3978 H   0  0  0  0  0
   13.7388   -0.4237    2.5921 H   0  0  0  0  0
   15.1522    0.4460    1.9462 H   0  0  0  0  0
   13.8115   -1.8881    0.4569 H   0  0  0  0  0
   13.7915   -1.0666   -1.1229 H   0  0  0  0  0
   15.2174   -0.9279   -0.0653 H   0  0  0  0  0
    9.3830    1.8711    0.0828 H   0  0  0  0  0
    7.4449   -0.2490    0.3807 H   0  0  0  0  0
    6.7726    2.6757    0.2170 H   0  0  0  0  0
    7.4777    1.8824    1.6884 H   0  0  0  0  0
    4.2028    2.2578   -0.2787 H   0  0  0  0  0
    7.0146   -0.0588    3.3328 H   0  0  0  0  0
    2.0274   -0.5009    3.3183 H   0  0  0  0  0
    5.8405   -1.3846    5.0749 H   0  0  0  0  0
    3.3858   -1.6064    5.0527 H   0  0  0  0  0
    8.0713    2.2067   -2.1742 H   0  0  0  0  0
    5.8047    1.5323   -3.7581 H   0  0  0  0  0
    7.2519    2.2224   -5.7324 H   0  0  0  0  0
    8.5384    2.5509   -4.4914 H   0  0  0  0  0
    7.1313    4.1369   -3.4205 H   0  0  0  0  0
    5.7945    3.7703   -4.5790 H   0  0  0  0  0
    7.0510    4.6990   -6.4062 H   0  0  0  0  0
    8.5056    4.8700   -5.3968 H   0  0  0  0  0
    5.9558    6.3670   -4.9022 H   0  0  0  0  0
    9.6491    7.9789   -4.4895 H   0  0  0  0  0
    9.5195    6.3054   -5.0406 H   0  0  0  0  0
    6.1672    8.4464   -4.2012 H   0  0  0  0  0
    9.0913    0.0488   -3.7240 H   0  0  0  0  0
    8.5677   -1.9002   -5.7040 H   0  0  0  0  0
   10.2143   -3.3256   -4.4451 H   0  0  0  0  0
   10.3052   -1.8966   -3.2632 H   0  0  0  0  0
   11.0906   -0.5341   -5.1481 H   0  0  0  0  0
   12.6465   -1.4987   -3.5156 H   0  0  0  0  0
   12.7566   -2.9883   -4.4851 H   0  0  0  0  0
   13.3770   -1.4525   -5.1389 H   0  0  0  0  0
   11.2580   -3.2002   -6.6117 H   0  0  0  0  0
   10.1654   -1.8507   -7.0068 H   0  0  0  0  0
   11.9260   -1.6526   -7.1859 H   0  0  0  0  0
    7.8734   -2.0023   -2.1899 H   0  0  0  0  0
    6.6136   -4.5457   -2.1131 H   0  0  0  0  0
    5.4386   -2.2280   -0.6793 H   0  0  0  0  0
    7.1492   -2.9147   -0.2579 H   0  0  0  0  0
    6.3227   -4.5876    0.8296 H   0  0  0  0  0
    5.4622   -2.6117    2.0221 H   0  0  0  0  0
    3.9699   -2.6480    1.0512 H   0  0  0  0  0
    4.3171   -3.9640    2.1994 H   0  0  0  0  0
    3.7685   -4.5183   -0.7641 H   0  0  0  0  0
    5.1379   -5.6382   -0.9683 H   0  0  0  0  0
    4.1614   -5.6878    0.5200 H   0  0  0  0  0
    4.8490   -1.3833   -2.6913 H   0  0  0  0  0
    1.9613   -0.3400   -4.4425 H   0  0  0  0  0
    3.8993   -0.1211   -4.2462 H   0  0  0  0  0
    3.7719    2.1982   -3.8470 H   0  0  0  0  0
    2.0219    2.1308   -4.2501 H   0  0  0  0  0
    1.6378    3.5315   -2.8687 H   0  0  0  0  0
    2.4346    2.4270   -1.5641 H   0  0  0  0  0
    3.4581    0.5139   -2.1088 H   0  0  0  0  0
    1.6913    0.4749   -2.4458 H   0  0  0  0  0
    0.9654   -2.1850   -3.2511 H   0  0  0  0  0
    2.0249   -3.5141   -2.7201 H   0  0  0  0  0
    2.0123   -1.9742   -1.8261 H   0  0  0  0  0
    4.4261   -1.4328   -5.8398 H   0  0  0  0  0
    3.6841   -2.8427   -8.0994 H   0  0  0  0  0
    5.9842   -2.4080   -8.8108 H   0  0  0  0  0
    6.3461   -1.8378   -7.1021 H   0  0  0  0  0
    4.6843   -0.0806   -7.4234 H   0  0  0  0  0
    4.5285   -0.5927   -9.1480 H   0  0  0  0  0
    6.8734    2.2609   -9.1549 H   0  0  0  0  0
    5.1562    1.9739   -8.8548 H   0  0  0  0  0
    3.1721   -4.8301   -6.6713 H   0  0  0  0  0
    5.0977   -6.6336   -5.7538 H   0  0  0  0  0
    6.7873   -6.5961   -7.0601 H   0  0  0  0  0
    3.4198   -8.3449   -6.1425 H   0  0  0  0  0
    2.6023   -7.2978   -7.3699 H   0  0  0  0  0
    0.5050   -5.8056   -5.0420 H   0  0  0  0  0
    0.8393   -6.2957   -6.7061 H   0  0  0  0  0
  2  1  1  0  0  0
  3  2  1  0  0  0
  2  5  1  0  0  0
  3  4  2  0  0  0
  7  3  1  0  0  0
  5  6  1  0  0  0
  8  7  1  0  0  0
  9  8  1  0  0  0
  8 11  1  0  0  0
  9 10  2  0  0  0
 14  9  1  0  0  0
 11 12  1  0  0  0
 11 13  1  0  0  0
 15 14  1  0  0  0
 16 15  1  0  0  0
 15 18  1  0  0  0
 16 17  2  0  0  0
 30 16  1  0  0  0
 18 19  1  0  0  0
 19 20  4  0  0  0
 19 21  4  0  0  0
 20 22  4  0  0  0
 21 23  4  0  0  0
 22 24  4  0  0  0
 23 24  4  0  0  0
 26 25  2  0  0  0
 26 27  1  0  0  0
 37 26  1  0  0  0
 27 28  1  0  0  0
 27 29  1  0  0  0
 27 30  1  0  0  0
 29 31  1  0  0  0
 31 32  1  0  0  0
 32 33  1  0  0  0
 33 34  1  0  0  0
 34 35  1  0  0  0
 35 36  2  0  0  0
 36100  1  0  0  0
 38 37  1  0  0  0
 39 38  1  0  0  0
 38 41  1  0  0  0
 39 40  2  0  0  0
 45 39  1  0  0  0
 41 42  1  0  0  0
 42 43  2  0  0  0
 42 44  1  0  0  0
 46 45  1  0  0  0
 47 46  1  0  0  0
 46 49  1  0  0  0
 47 48  2  0  0  0
 53 47  1  0  0  0
 49 50  1  0  0  0
 50 51  1  0  0  0
 50 52  1  0  0  0
 54 53  1  0  0  0
 55 54  1  0  0  0
 54 57  1  0  0  0
 55 56  2  0  0  0
 67 55  1  0  0  0
 57 58  1  0  0  0
 58 59  4  0  0  0
 58 60  4  0  0  0
 59 61  4  0  0  0
 60 62  4  0  0  0
 60 63  4  0  0  0
 62 61  4  0  0  0
 62 64  4  0  0  0
 63 65  4  0  0  0
 64 66  4  0  0  0
 65 66  4  0  0  0
 68 67  1  0  0  0
 69 68  1  0  0  0
 68 71  1  0  0  0
 69 70  2  0  0  0
 78 69  1  0  0  0
 71 72  1  0  0  0
 72 73  1  0  0  0
 73 74  1  0  0  0
 74 75  1  0  0  0
 75 76  1  0  0  0
 75 77  2  0  0  0
 79 78  1  0  0  0
 80 79  1  0  0  0
 79 82  1  0  0  0
 80 81  2  0  0  0
 86 80  1  0  0  0
 82 83  1  0  0  0
 83 84  1  0  0  0
 83 85  1  0  0  0
 87 86  1  0  0  0
 88 87  1  0  0  0
 87 90  1  0  0  0
 88 89  2  0  0  0
 95 88  1  0  0  0
 90 91  1  0  0  0
 91 92  1  0  0  0
 91 93  1  0  0  0
 94 96  2  0  0  0
 97 94  1  0  0  0
 94103  1  0  0  0
 95 97  1  0  0  0
 97 98  1  0  0  0
 97102  1  0  0  0
 98101  1  0  0  0
100 99  1  0  0  0
 99101  1  0  0  0
103104  1  0  0  0
104105  1  0  0  0
104107  1  0  0  0
105106  2  0  0  0
105112  1  0  0  0
107108  1  0  0  0
108109  1  0  0  0
109110  2  0  0  0
109111  1  0  0  0
112113  1  0  0  0
113114  1  0  0  0
113116  1  0  0  0
114115  1  0  0  0
114120  2  0  0  0
116117  1  0  0  0
117118  2  0  0  0
117119  1  0  0  0
  1121  1  0  0  0
  1122  1  0  0  0
  1123  1  0  0  0
  2124  1  0  0  0
  5125  1  0  0  0
  5126  1  0  0  0
  6127  1  0  0  0
  6128  1  0  0  0
  6129  1  0  0  0
  7130  1  0  0  0
  8131  1  0  0  0
 11132  1  0  0  0
 12133  1  0  0  0
 13134  1  0  0  0
 13135  1  0  0  0
 13136  1  0  0  0
 14137  1  0  0  0
 15138  1  0  0  0
 18139  1  0  0  0
 18140  1  0  0  0
 20141  1  0  0  0
 21142  1  0  0  0
 22143  1  0  0  0
 23144  1  0  0  0
 24145  1  0  0  0
 28146  1  0  0  0
 28147  1  0  0  0
 28148  1  0  0  0
 29149  1  0  0  0
 29150  1  0  0  0
 30151  1  0  0  0
 31152  1  0  0  0
 31153  1  0  0  0
 32154  1  0  0  0
 32155  1  0  0  0
 33156  1  0  0  0
 33157  1  0  0  0
 34158  1  0  0  0
 34159  1  0  0  0
 35160  1  0  0  0
 36161  1  0  0  0
 37162  1  0  0  0
 38163  1  0  0  0
 41164  1  0  0  0
 41165  1  0  0  0
 44166  1  0  0  0
 44167  1  0  0  0
 45168  1  0  0  0
 46169  1  0  0  0
 49170  1  0  0  0
 49171  1  0  0  0
 50172  1  0  0  0
 51173  1  0  0  0
 51174  1  0  0  0
 51175  1  0  0  0
 52176  1  0  0  0
 52177  1  0  0  0
 52178  1  0  0  0
 53179  1  0  0  0
 54180  1  0  0  0
 57181  1  0  0  0
 57182  1  0  0  0
 59183  1  0  0  0
 63184  1  0  0  0
 64185  1  0  0  0
 65186  1  0  0  0
 66187  1  0  0  0
 67188  1  0  0  0
 68189  1  0  0  0
 71190  1  0  0  0
 71191  1  0  0  0
 72192  1  0  0  0
 72193  1  0  0  0
 73194  1  0  0  0
 73195  1  0  0  0
 74196  1  0  0  0
 76197  1  0  0  0
 76198  1  0  0  0
 77199  1  0  0  0
 78200  1  0  0  0
 79201  1  0  0  0
 82202  1  0  0  0
 82203  1  0  0  0
 83204  1  0  0  0
 84205  1  0  0  0
 84206  1  0  0  0
 84207  1  0  0  0
 85208  1  0  0  0
 85209  1  0  0  0
 85210  1  0  0  0
 86211  1  0  0  0
 87212  1  0  0  0
 90213  1  0  0  0
 90214  1  0  0  0
 91215  1  0  0  0
 92216  1  0  0  0
 92217  1  0  0  0
 92218  1  0  0  0
 93219  1  0  0  0
 93220  1  0  0  0
 93221  1  0  0  0
 95222  1  0  0  0
 98223  1  0  0  0
 98224  1  0  0  0
 99225  1  0  0  0
 99226  1  0  0  0
100227  1  0  0  0
100228  1  0  0  0
101229  1  0  0  0
101230  1  0  0  0
102231  1  0  0  0
102232  1  0  0  0
102233  1  0  0  0
103234  1  0  0  0
104235  1  0  0  0
107236  1  0  0  0
107237  1  0  0  0
108238  1  0  0  0
108239  1  0  0  0
111240  1  0  0  0
111241  1  0  0  0
112242  1  0  0  0
113243  1  0  0  0
115244  1  0  0  0
116245  1  0  0  0
116246  1  0  0  0
119247  1  0  0  0
119248  1  0  0  0
M  END
$$$$
