### 
### Created by X-TOOL on Mon Sep 10 21:13:09 2018
### 

@<TRIPOS>MOLECULE
3v3b_ligand
  249   252     1     0     0
SMALL
GAST_HUCK


@<TRIPOS>ATOM
      1 N          18.8510    2.9940   -0.1650 N.4       1 GLN         0.2379
      2 CA         17.4680    3.2310   -0.6820 C.3       1 GLN         0.0647
      3 C          16.5740    3.9900    0.3150 C.2       1 GLN         0.2268
      4 O          16.7510    3.9270    1.5280 O.2       1 GLN        -0.3907
      5 CB         16.8110    1.9130   -1.0890 C.3       1 GLN         0.0050
      6 CG         17.1020    1.4980   -2.5280 C.3       1 GLN        -0.0580
      7 N          15.6240    4.7210   -0.2360 N.am      1 THR        -0.2586
      8 CA         14.6960    5.5430    0.5270 C.3       1 THR         0.1566
      9 C          13.5170    4.6490    0.9590 C.2       1 THR         0.2066
     10 O          13.1170    3.7640    0.2040 O.2       1 THR        -0.3943
     11 CB         14.2430    6.7430   -0.3770 C.3       1 THR         0.0924
     12 OG1        15.0760    7.8900   -0.1170 O.3       1 THR        -0.3874
     13 CG2        12.8390    7.1080   -0.1460 C.3       1 THR        -0.0346
     14 N          12.9610    4.8680    2.1590 N.am      1 PHE        -0.2619
     15 CA         11.7230    4.1800    2.5400 C.3       1 PHE         0.1402
     16 C          10.6700    4.3100    1.4290 C.2       1 PHE         0.2030
     17 O          10.0380    3.3010    1.0730 O.2       1 PHE        -0.3945
     18 CB         11.1230    4.6620    3.8680 C.3       1 PHE         0.0214
     19 CG          9.7500    4.0860    4.1340 C.ar      1 PHE        -0.0386
     20 CD1         9.6070    2.8170    4.6840 C.ar      1 PHE        -0.0601
     21 CD2         8.6060    4.7810    3.7540 C.ar      1 PHE        -0.0601
     22 CE1         8.3480    2.2640    4.8850 C.ar      1 PHE        -0.0686
     23 CE2         7.3410    4.2410    3.9470 C.ar      1 PHE        -0.0686
     24 CZ          7.2050    2.9750    4.5070 C.ar      1 PHE        -0.0687
     25 OAD         8.8740    3.9210   -1.6950 O.2       1 0EH        -0.3419
     26 CAE         9.7740    4.7300   -1.4280 C.2       1 0EH         0.2264
     27 CAF         9.5660    5.8020   -0.3080 C.3       1 0EH         0.1303
     28 CAA         9.9680    7.2040   -0.8260 C.3       1 0EH        -0.0320
     29 CAB         8.0970    5.8400    0.1360 C.3       1 0EH        -0.0201
     30 NAC        10.4000    5.4430    0.8680 N.am      1 0EH        -0.2741
     31 CAO         7.0340    6.5230   -0.6290 C.3       1 0EH        -0.0514
     32 CAP         5.7360    5.9740    0.0170 C.3       1 0EH        -0.0516
     33 CAQ         4.5200    6.8140   -0.3790 C.3       1 0EH        -0.0464
     34 CAR         3.8640    6.2470   -1.6300 C.3       1 0EH        -0.0365
     35 CAS         3.1500    4.9380   -1.2870 C.2       1 0EH        -0.0987
     36 CAT         3.4420    3.9750   -2.2320 C.2       1 0EH        -0.0987
     37 N          10.9520    4.4840   -1.9020 N.am      1 ASN        -0.2608
     38 CA         11.2230    3.5040   -2.9860 C.3       1 ASN         0.1477
     39 C          11.0710    2.0650   -2.5520 C.2       1 ASN         0.2064
     40 O          10.5630    1.2540   -3.3310 O.2       1 ASN        -0.3942
     41 CB         12.5870    3.7630   -3.6140 C.3       1 ASN         0.0775
     42 CG         12.5740    4.9790   -4.5170 C.2       1 ASN         0.1781
     43 OD1        11.5450    5.3030   -5.1430 O.2       1 ASN        -0.3970
     44 ND2        13.7060    5.6680   -4.5880 N.am      1 ASN        -0.3007
     45 N          11.4720    1.7440   -1.3190 N.am      1 LEU        -0.2636
     46 CA         11.2980    0.3840   -0.8050 C.3       1 LEU         0.1312
     47 C           9.8070    0.0350   -0.7060 C.2       1 LEU         0.2040
     48 O           9.3940   -1.0680   -1.0710 O.2       1 LEU        -0.3944
     49 CB         11.9880    0.1940    0.5590 C.3       1 LEU        -0.0101
     50 CG         13.5240    0.2430    0.5650 C.3       1 LEU        -0.0425
     51 CD1        14.0630    0.4150    1.9760 C.3       1 LEU        -0.0625
     52 CD2        14.1300   -1.0000   -0.0890 C.3       1 LEU        -0.0625
     53 N           8.9990    0.9740   -0.2140 N.am      1 TRP        -0.2627
     54 CA          7.5680    0.7220   -0.0990 C.3       1 TRP         0.1352
     55 C           6.9180    0.6700   -1.4840 C.2       1 TRP         0.2052
     56 O           6.0090   -0.1190   -1.7040 O.2       1 TRP        -0.3942
     57 CB          6.8740    1.7540    0.7900 C.3       1 TRP         0.0042
     58 CG          5.5000    1.3210    1.2150 C.2       1 TRP        -0.0418
     59 CD1         4.3080    1.6370    0.6110 C.2       1 TRP         0.0167
     60 CD2         5.1720    0.4920    2.3370 C.ar      1 TRP        -0.0214
     61 NE1         3.2660    1.0540    1.2950 N.pl3     1 TRP        -0.2890
     62 CE2         3.7690    0.3430    2.3550 C.ar      1 TRP         0.0603
     63 CE3         5.9280   -0.1440    3.3230 C.ar      1 TRP        -0.0747
     64 CZ2         3.1130   -0.4030    3.3220 C.ar      1 TRP        -0.0443
     65 CZ3         5.2650   -0.8890    4.2930 C.ar      1 TRP        -0.0792
     66 CH2         3.8750   -1.0120    4.2810 C.ar      1 TRP        -0.0768
     67 N           7.3780    1.4990   -2.4170 N.am      1 ARG        -0.2636
     68 CA          6.8850    1.3940   -3.8020 C.3       1 ARG         0.1311
     69 C           7.1680    0.0170   -4.3990 C.2       1 ARG         0.2039
     70 O           6.2930   -0.5700   -5.0320 O.2       1 ARG        -0.3944
     71 CB          7.4700    2.4880   -4.6980 C.3       1 ARG        -0.0092
     72 CG          6.8730    3.8400   -4.4370 C.3       1 ARG        -0.0156
     73 CD          7.4160    4.9000   -5.3990 C.3       1 ARG         0.0627
     74 NE          6.9630    6.2210   -4.9700 N.pl3     1 ARG        -0.2723
     75 CZ          7.7460    7.2500   -4.6600 C.cat     1 ARG         0.2882
     76 NH1         9.0760    7.1720   -4.7360 N.pl3     1 ARG        -0.2849
     77 NH2         7.1830    8.3780   -4.2640 N.pl3     1 ARG        -0.2849
     78 N           8.3750   -0.5080   -4.1900 N.am      1 LEU        -0.2637
     79 CA          8.6890   -1.8770   -4.6210 C.3       1 LEU         0.1312
     80 C           7.7270   -2.9010   -4.0090 C.2       1 LEU         0.2039
     81 O           7.2900   -3.8360   -4.6900 O.2       1 LEU        -0.3944
     82 CB         10.1360   -2.2510   -4.2800 C.3       1 LEU        -0.0101
     83 CG         11.2300   -1.6150   -5.1330 C.3       1 LEU        -0.0425
     84 CD1        12.6020   -1.9100   -4.5240 C.3       1 LEU        -0.0625
     85 CD2        11.1380   -2.1170   -6.5930 C.3       1 LEU        -0.0625
     86 N           7.3840   -2.7120   -2.7350 N.am      1 LEU        -0.2637
     87 CA          6.3240   -3.4950   -2.0960 C.3       1 LEU         0.1309
     88 C           5.0010   -3.3150   -2.8690 C.2       1 LEU         0.2010
     89 O           4.3930   -4.3180   -3.2830 O.2       1 LEU        -0.3947
     90 CB          6.1350   -3.0650   -0.6280 C.3       1 LEU        -0.0101
     91 CG          5.4980   -4.0290    0.3870 C.3       1 LEU        -0.0425
     92 CD1         4.7570   -3.2560    1.4970 C.3       1 LEU        -0.0625
     93 CD2         4.5770   -5.0390   -0.2510 C.3       1 LEU        -0.0625
     94 C           2.9740   -2.5330   -5.1440 C.2       1 MK8         0.2263
     95 N           4.3670   -2.2040   -3.0580 N.am      1 MK8        -0.2743
     96 O           1.8840   -2.5920   -5.7120 O.2       1 MK8        -0.3419
     97 CA          3.0550   -1.8980   -3.7160 C.3       1 MK8         0.1302
     98 CB          2.9030   -0.3910   -3.8960 C.3       1 MK8        -0.0200
     99 CD          2.7660    2.0380   -3.4590 C.3       1 MK8        -0.0465
    100 CE          2.5070    2.9910   -2.4940 C.3       1 MK8        -0.0365
    101 CG          2.6850    0.6190   -2.8700 C.3       1 MK8        -0.0500
    102 CB1         1.9320   -2.4320   -2.8120 C.3       1 MK8        -0.0320
    103 N           3.9250   -2.2850   -6.0910 N.am      1 GLN        -0.2627
    104 CA          4.4930   -2.8220   -7.3690 C.3       1 GLN         0.1331
    105 C           5.0400   -4.2240   -7.1530 C.2       1 GLN         0.2038
    106 O           6.2480   -4.4680   -7.2800 O.2       1 GLN        -0.3944
    107 CB          5.6120   -1.9350   -7.9020 C.3       1 GLN         0.0047
    108 CG          5.1860   -0.5290   -8.2810 C.3       1 GLN         0.0413
    109 CD          6.3740    0.3420   -8.6470 C.2       1 GLN         0.1737
    110 OE1         7.5160   -0.1330   -8.6940 O.2       1 GLN        -0.3973
    111 NE2         6.1140    1.6270   -8.9060 N.am      1 GLN        -0.3009
    112 N           4.1360   -5.1320   -6.8130 N.am      1 ASN        -0.2673
    113 CA          4.4580   -6.5460   -6.6320 C.3       1 ASN         0.1110
    114 C           5.2410   -7.1260   -7.8100 C.2       1 ASN         0.0624
    115 O           6.4730   -7.0490   -7.8460 O.co2     1 ASN        -0.5665
    116 CB          3.1620   -7.3270   -6.4350 C.3       1 ASN         0.0718
    117 CG          2.2960   -6.7290   -5.3480 C.2       1 ASN         0.1774
    118 OD1         2.6870   -6.6870   -4.1830 O.2       1 ASN        -0.3971
    119 ND2         1.1230   -6.2390   -5.7280 N.am      1 ASN        -0.3007
    120 OXT         4.6540   -7.6810   -8.7440 O.co2     1 ASN        -0.5665
    121 H1         19.3877    2.4956   -0.8575 H         1 GLN         0.2015
    122 H2         18.8045    2.4480    0.6810 H         1 GLN         0.2015
    123 H3         19.2931    3.8787    0.0299 H         1 GLN         0.2015
    124 H4         17.5580    3.8550   -1.5834 H         1 GLN         0.1098
    125 H5         15.7223    2.0175   -0.9718 H         1 GLN         0.0343
    126 H6         17.1776    1.1214   -0.4190 H         1 GLN         0.0343
    127 H7         16.5971    0.5449   -2.7439 H         1 GLN         0.0233
    128 H8         18.1870    1.3768   -2.6624 H         1 GLN         0.0233
    129 H9         16.7316    2.2730   -3.2152 H         1 GLN         0.0233
    130 H10        15.5366    4.7098   -1.2321 H         1 THR         0.1885
    131 H11        15.1949    5.9387    1.4239 H         1 THR         0.0826
    132 H12        14.3588    6.4475   -1.4302 H         1 THR         0.0639
    133 H13        14.7977    8.6132   -0.6666 H         1 THR         0.2101
    134 H14        12.5670    7.9504   -0.7990 H         1 THR         0.0257
    135 H15        12.7046    7.4010    0.9057 H         1 THR         0.0257
    136 H16        12.1941    6.2460   -0.3718 H         1 THR         0.0257
    137 H17        13.3929    5.5043    2.7982 H         1 PHE         0.1885
    138 H18        11.9667    3.1137    2.6569 H         1 PHE         0.0823
    139 H19        11.0447    5.7589    3.8408 H         1 PHE         0.0474
    140 H20        11.7943    4.3625    4.6863 H         1 PHE         0.0474
    141 H21        10.4896    2.2513    4.9598 H         1 PHE         0.0557
    142 H22         8.7037    5.7603    3.2997 H         1 PHE         0.0557
    143 H23         8.2522    1.2822    5.3345 H         1 PHE         0.0599
    144 H24         6.4607    4.8055    3.6615 H         1 PHE         0.0599
    145 H25         6.2209    2.5432    4.6492 H         1 PHE         0.0559
    146 H26         9.8167    7.9467   -0.0288 H         1 0EH         0.0242
    147 H27         9.3459    7.4664   -1.6944 H         1 0EH         0.0242
    148 H28        11.0271    7.1954   -1.1229 H         1 0EH         0.0242
    149 H29         8.0957    6.3040    1.1333 H         1 0EH         0.0277
    150 H30         7.7804    4.7899    0.2197 H         1 0EH         0.0277
    151 H31        10.8355    6.2273    1.3098 H         1 0EH         0.1839
    152 H32         7.0853    6.2632   -1.6966 H         1 0EH         0.0265
    153 H33         7.1024    7.6148   -0.5136 H         1 0EH         0.0265
    154 H34         5.8442    5.9939    1.1115 H         1 0EH         0.0267
    155 H35         5.5799    4.9377   -0.3173 H         1 0EH         0.0267
    156 H36         4.8425    7.8470   -0.5761 H         1 0EH         0.0285
    157 H37         3.7920    6.8081    0.4456 H         1 0EH         0.0285
    158 H38         4.6337    6.0553   -2.3921 H         1 0EH         0.0388
    159 H39         3.1336    6.9709   -2.0205 H         1 0EH         0.0388
    160 H40         2.5049    4.7878   -0.4226 H         1 0EH         0.0450
    161 H41         4.3931    3.9902   -2.7623 H         1 0EH         0.0450
    162 H42        11.7274    4.9835   -1.5157 H         1 ASN         0.1891
    163 H43        10.4681    3.6774   -3.7671 H         1 ASN         0.0828
    164 H44        12.8778    2.8834   -4.2070 H         1 ASN         0.0551
    165 H45        13.3225    3.9240   -2.8120 H         1 ASN         0.0551
    166 H46        13.7608    6.4812   -5.1673 H         1 ASN         0.1814
    167 H47        14.5041    5.3739   -4.0622 H         1 ASN         0.1814
    168 H48        11.8960    2.4406   -0.7402 H         1 LEU         0.1883
    169 H49        11.7656   -0.3095   -1.5194 H         1 LEU         0.0800
    170 H50        11.6838   -0.7868    0.9534 H         1 LEU         0.0315
    171 H51        11.6261    0.9872    1.2296 H         1 LEU         0.0315
    172 H52        13.8328    1.1187   -0.0247 H         1 LEU         0.0298
    173 H53        15.1622    0.4464    1.9473 H         1 LEU         0.0232
    174 H54        13.7366   -0.4308    2.5989 H         1 LEU         0.0232
    175 H55        13.6804    1.3539    2.4028 H         1 LEU         0.0232
    176 H56        13.7303   -1.1100   -1.1079 H         1 LEU         0.0232
    177 H57        13.8714   -1.8895    0.5042 H         1 LEU         0.0232
    178 H58        15.2240   -0.8944   -0.1337 H         1 LEU         0.0232
    179 H59         9.3755    1.8535    0.0769 H         1 TRP         0.1884
    180 H60         7.4392   -0.2636    0.3722 H         1 TRP         0.0815
    181 H61         6.7888    2.6985    0.2326 H         1 TRP         0.0397
    182 H62         7.4870    1.9130    1.6894 H         1 TRP         0.0397
    183 H63         4.2028    2.2573   -0.2779 H         1 TRP         0.0795
    184 H64         2.2690    1.1379    1.0505 H         1 TRP         0.2216
    185 H65         7.0086   -0.0593    3.3327 H         1 TRP         0.0540
    186 H66         2.0334   -0.5004    3.3183 H         1 TRP         0.0541
    187 H67         5.8373   -1.3818    5.0706 H         1 TRP         0.0510
    188 H68         3.3884   -1.6031    5.0484 H         1 TRP         0.0530
    189 H69         8.0577    2.1928   -2.1789 H         1 ARG         0.1883
    190 H70         5.7938    1.5305   -3.7751 H         1 ARG         0.0800
    191 H71         7.2828    2.2188   -5.7480 H         1 ARG         0.0313
    192 H72         8.5543    2.5434   -4.5214 H         1 ARG         0.0313
    193 H73         7.1108    4.1406   -3.4059 H         1 ARG         0.0301
    194 H74         5.7815    3.7760   -4.5579 H         1 ARG         0.0301
    195 H75         7.0467    4.6973   -6.4151 H         1 ARG         0.0689
    196 H76         8.5156    4.8700   -5.3957 H         1 ARG         0.0689
    197 H77         5.9459    6.3685   -4.9015 H         1 ARG         0.2642
    198 H78         9.6547    7.9874   -4.4888 H         1 ARG         0.2615
    199 H79         9.5239    6.2964   -5.0419 H         1 ARG         0.2615
    200 H80         6.1572    8.4476   -4.2022 H         1 ARG         0.2615
    201 H81         7.7699    9.1876   -4.0171 H         1 ARG         0.2615
    202 H82         9.0773    0.0379   -3.7331 H         1 LEU         0.1883
    203 H83         8.5757   -1.9169   -5.7144 H         1 LEU         0.0800
    204 H84        10.2297   -3.3426   -4.3783 H         1 LEU         0.0315
    205 H85        10.3175   -1.9600   -3.2348 H         1 LEU         0.0315
    206 H86        11.0809   -0.5252   -5.1354 H         1 LEU         0.0298
    207 H87        13.3851   -1.4488   -5.1437 H         1 LEU         0.0232
    208 H88        12.7593   -2.9980   -4.4842 H         1 LEU         0.0232
    209 H89        12.6483   -1.4953   -3.5062 H         1 LEU         0.0232
    210 H90        10.1408   -1.8884   -6.9971 H         1 LEU         0.0232
    211 H91        11.3034   -3.2042   -6.6181 H         1 LEU         0.0232
    212 H92        11.9043   -1.6154   -7.2022 H         1 LEU         0.0232
    213 H93         7.8638   -2.0162   -2.2005 H         1 LEU         0.1883
    214 H94         6.6079   -4.5575   -2.1185 H         1 LEU         0.0800
    215 H95         5.5084   -2.1610   -0.6415 H         1 LEU         0.0315
    216 H96         7.1335   -2.8133   -0.2412 H         1 LEU         0.0315
    217 H97         6.3182   -4.5887    0.8603 H         1 LEU         0.0298
    218 H98         4.3126   -3.9694    2.2066 H         1 LEU         0.0232
    219 H99         3.9623   -2.6419    1.0483 H         1 LEU         0.0232
    220 H100        5.4676   -2.6054    2.0278 H         1 LEU         0.0232
    221 H101        5.1184   -5.5820   -1.0397 H         1 LEU         0.0232
    222 H102        3.7121   -4.5204   -0.6904 H         1 LEU         0.0232
    223 H103        4.2290   -5.7511    0.5117 H         1 LEU         0.0232
    224 H104        4.8396   -1.3994   -2.6985 H         1 MK8         0.1839
    225 H105        2.0513   -0.2776   -4.5829 H         1 MK8         0.0277
    226 H106        3.8273   -0.0770   -4.4030 H         1 MK8         0.0277
    227 H107        3.7754    2.2019   -3.8643 H         1 MK8         0.0285
    228 H108        2.0261    2.1345   -4.2673 H         1 MK8         0.0285
    229 H109        1.5806    3.5033   -2.7929 H         1 MK8         0.0388
    230 H110        2.3395    2.4513   -1.5503 H         1 MK8         0.0388
    231 H111        3.4533    0.5099   -2.0903 H         1 MK8         0.0266
    232 H112        1.6892    0.4710   -2.4268 H         1 MK8         0.0266
    233 H113        0.9568   -2.2191   -3.2742 H         1 MK8         0.0242
    234 H114        1.9872   -1.9405   -1.8295 H         1 MK8         0.0242
    235 H115        2.0484   -3.5185   -2.6855 H         1 MK8         0.0242
    236 H116        4.4163   -1.4495   -5.8447 H         1 GLN         0.1889
    237 H117        3.6880   -2.8630   -8.1175 H         1 GLN         0.0803
    238 H118        6.0338   -2.4171   -8.7962 H         1 GLN         0.0337
    239 H119        6.3876   -1.8596   -7.1257 H         1 GLN         0.0337
    240 H120        4.6608   -0.0743   -7.4281 H         1 GLN         0.0504
    241 H121        4.5058   -0.5837   -9.1437 H         1 GLN         0.0504
    242 H122        6.8581    2.2479   -9.1526 H         1 GLN         0.1814
    243 H123        5.1753    1.9677   -8.8533 H         1 GLN         0.1814
    244 H124        3.1910   -4.8360   -6.6741 H         1 ASN         0.1877
    245 H125        5.0755   -6.6472   -5.7273 H         1 ASN         0.0752
    246 H126        3.4104   -8.3629   -6.1607 H         1 ASN         0.0544
    247 H127        2.5985   -7.3229   -7.3797 H         1 ASN         0.0544
    248 H128        0.5088   -5.8313   -5.0523 H         1 ASN         0.1814
    249 H129        0.8531   -6.2774   -6.6901 H         1 ASN         0.1814
@<TRIPOS>BOND
     1    2    1 1  
     2    3    2 1  
     3    2    5 1  
     4    3    4 2  
     5    7    3 am 
     6    5    6 1  
     7    8    7 1  
     8    9    8 1  
     9    8   11 1  
    10    9   10 2  
    11   14    9 am 
    12   11   12 1  
    13   11   13 1  
    14   15   14 1  
    15   16   15 1  
    16   15   18 1  
    17   16   17 2  
    18   30   16 am 
    19   18   19 1  
    20   19   20 ar 
    21   19   21 ar 
    22   20   22 ar 
    23   21   23 ar 
    24   22   24 ar 
    25   23   24 ar 
    26   26   25 2  
    27   26   27 1  
    28   37   26 am 
    29   27   28 1  
    30   27   29 1  
    31   27   30 1  
    32   29   31 1  
    33   31   32 1  
    34   32   33 1  
    35   33   34 1  
    36   34   35 1  
    37   35   36 2  
    38   36  100 1  
    39   38   37 1  
    40   39   38 1  
    41   38   41 1  
    42   39   40 2  
    43   45   39 am 
    44   41   42 1  
    45   42   43 2  
    46   42   44 am 
    47   46   45 1  
    48   47   46 1  
    49   46   49 1  
    50   47   48 2  
    51   53   47 am 
    52   49   50 1  
    53   50   51 1  
    54   50   52 1  
    55   54   53 1  
    56   55   54 1  
    57   54   57 1  
    58   55   56 2  
    59   67   55 am 
    60   57   58 1  
    61   58   59 2  
    62   58   60 1  
    63   59   61 1  
    64   60   62 ar 
    65   60   63 ar 
    66   62   61 1  
    67   62   64 ar 
    68   63   65 ar 
    69   64   66 ar 
    70   65   66 ar 
    71   68   67 1  
    72   69   68 1  
    73   68   71 1  
    74   69   70 2  
    75   78   69 am 
    76   71   72 1  
    77   72   73 1  
    78   73   74 1  
    79   74   75 ar 
    80   75   76 ar 
    81   75   77 ar 
    82   79   78 1  
    83   80   79 1  
    84   79   82 1  
    85   80   81 2  
    86   86   80 am 
    87   82   83 1  
    88   83   84 1  
    89   83   85 1  
    90   87   86 1  
    91   88   87 1  
    92   87   90 1  
    93   88   89 2  
    94   95   88 am 
    95   90   91 1  
    96   91   92 1  
    97   91   93 1  
    98   94   96 2  
    99   97   94 1  
   100   94  103 am 
   101   95   97 1  
   102   97   98 1  
   103   97  102 1  
   104   98  101 1  
   105  100   99 1  
   106   99  101 1  
   107  103  104 1  
   108  104  105 1  
   109  104  107 1  
   110  105  106 2  
   111  105  112 am 
   112  107  108 1  
   113  108  109 1  
   114  109  110 2  
   115  109  111 am 
   116  112  113 1  
   117  113  114 1  
   118  113  116 1  
   119  114  115 ar 
   120  114  120 ar 
   121  116  117 1  
   122  117  118 2  
   123  117  119 am 
   124    1  121 1  
   125    1  122 1  
   126    1  123 1  
   127    2  124 1  
   128    5  125 1  
   129    5  126 1  
   130    6  127 1  
   131    6  128 1  
   132    6  129 1  
   133    7  130 1  
   134    8  131 1  
   135   11  132 1  
   136   12  133 1  
   137   13  134 1  
   138   13  135 1  
   139   13  136 1  
   140   14  137 1  
   141   15  138 1  
   142   18  139 1  
   143   18  140 1  
   144   20  141 1  
   145   21  142 1  
   146   22  143 1  
   147   23  144 1  
   148   24  145 1  
   149   28  146 1  
   150   28  147 1  
   151   28  148 1  
   152   29  149 1  
   153   29  150 1  
   154   30  151 1  
   155   31  152 1  
   156   31  153 1  
   157   32  154 1  
   158   32  155 1  
   159   33  156 1  
   160   33  157 1  
   161   34  158 1  
   162   34  159 1  
   163   35  160 1  
   164   36  161 1  
   165   37  162 1  
   166   38  163 1  
   167   41  164 1  
   168   41  165 1  
   169   44  166 1  
   170   44  167 1  
   171   45  168 1  
   172   46  169 1  
   173   49  170 1  
   174   49  171 1  
   175   50  172 1  
   176   51  173 1  
   177   51  174 1  
   178   51  175 1  
   179   52  176 1  
   180   52  177 1  
   181   52  178 1  
   182   53  179 1  
   183   54  180 1  
   184   57  181 1  
   185   57  182 1  
   186   59  183 1  
   187   61  184 1  
   188   63  185 1  
   189   64  186 1  
   190   65  187 1  
   191   66  188 1  
   192   67  189 1  
   193   68  190 1  
   194   71  191 1  
   195   71  192 1  
   196   72  193 1  
   197   72  194 1  
   198   73  195 1  
   199   73  196 1  
   200   74  197 1  
   201   76  198 1  
   202   76  199 1  
   203   77  200 1  
   204   77  201 1  
   205   78  202 1  
   206   79  203 1  
   207   82  204 1  
   208   82  205 1  
   209   83  206 1  
   210   84  207 1  
   211   84  208 1  
   212   84  209 1  
   213   85  210 1  
   214   85  211 1  
   215   85  212 1  
   216   86  213 1  
   217   87  214 1  
   218   90  215 1  
   219   90  216 1  
   220   91  217 1  
   221   92  218 1  
   222   92  219 1  
   223   92  220 1  
   224   93  221 1  
   225   93  222 1  
   226   93  223 1  
   227   95  224 1  
   228   98  225 1  
   229   98  226 1  
   230   99  227 1  
   231   99  228 1  
   232  100  229 1  
   233  100  230 1  
   234  101  231 1  
   235  101  232 1  
   236  102  233 1  
   237  102  234 1  
   238  102  235 1  
   239  103  236 1  
   240  104  237 1  
   241  107  238 1  
   242  107  239 1  
   243  108  240 1  
   244  108  241 1  
   245  111  242 1  
   246  111  243 1  
   247  112  244 1  
   248  113  245 1  
   249  116  246 1  
   250  116  247 1  
   251  119  248 1  
   252  119  249 1  
@<TRIPOS>SUBSTRUCTURE
     1 GLN         1

