1ocn_ligand
  -I-interpret- 

 45 46  0  0  0  0  0  0  0  0999 V2000
    6.2150   -8.7130   10.5050 C   0  0  0  0  0
    4.9030   -7.9790   10.5060 C   0  0  0  0  0
    4.8260   -6.9260   11.5800 C   0  0  0  0  0
    6.1040   -6.0780   11.6390 C   0  0  0  0  0
    6.2030   -5.2140   12.8810 C   0  0  0  0  0
    7.3710   -7.7060   10.5060 C   0  0  0  0  0
    6.3160   -9.5480    9.3540 O   0  0  0  0  0
    3.8600   -8.9320   10.6440 O   0  0  0  0  0
    3.7040   -6.1170   11.3310 O   0  0  0  0  0
    7.2640   -6.9180   11.6680 O   0  0  0  0  0
    6.3080   -6.0140   14.0310 O   0  0  0  0  0
    8.5540   -8.4180   10.5740 O   0  0  0  0  0
    9.7330   -7.6360   10.3530 C   0  0  0  0  0
   10.8080   -8.3620   11.1220 C   0  0  0  0  0
   10.7660   -7.8270   12.4310 O   0  0  0  0  0
   12.1590   -8.1750   10.4970 C   0  0  0  0  0
   12.1420   -8.8210    9.1590 N   0  3  0  0  0
   10.9960   -8.4870    8.3170 C   0  0  0  0  0
    9.9600   -7.5030    8.8430 C   0  0  0  0  0
   10.3060   -6.0870    8.3660 C   0  0  0  0  0
   11.3360   -5.5570    9.1320 O   0  0  0  0  0
    6.2681   -9.3337   11.3995 H   0  0  0  0  0
    4.8018   -7.4425    9.5626 H   0  0  0  0  0
    4.7287   -7.4142   12.5497 H   0  0  0  0  0
    6.0570   -5.4473   10.7512 H   0  0  0  0  0
    5.3053   -4.6005   12.9576 H   0  0  0  0  0
    7.0904   -4.5856   12.8050 H   0  0  0  0  0
    7.3447   -7.0807    9.6136 H   0  0  0  0  0
    5.5922  -10.1787    9.3531 H   0  0  0  0  0
    3.9342   -9.5889    9.9479 H   0  0  0  0  0
    2.9166   -6.6652   11.2979 H   0  0  0  0  0
    6.3696   -5.4513   14.8064 H   0  0  0  0  0
    9.6918   -6.6051   10.7046 H   0  0  0  0  0
   10.6353   -9.4382   11.1234 H   0  0  0  0  0
   11.4342   -8.2545   12.9718 H   0  0  0  0  0
   12.9283   -8.6273   11.1228 H   0  0  0  0  0
   12.3837   -7.1130   10.3986 H   0  0  0  0  0
   12.1007   -9.8271    9.3217 H   0  0  0  0  0
   12.9718   -8.4916    8.6658 H   0  0  0  0  0
   10.4555   -9.4252    8.1911 H   0  0  0  0  0
   11.4230   -8.0040    7.4381 H   0  0  0  0  0
    8.9855   -7.7476    8.4204 H   0  0  0  0  0
    9.4253   -5.4528    8.4674 H   0  0  0  0  0
   10.6242   -6.1308    7.3244 H   0  0  0  0  0
   11.5410   -4.6719    8.8220 H   0  0  0  0  0
  1  2  1  0  0  0
  1  6  1  0  0  0
  1  7  1  0  0  0
  2  3  1  0  0  0
  2  8  1  0  0  0
  3  4  1  0  0  0
  3  9  1  0  0  0
  4  5  1  0  0  0
  4 10  1  0  0  0
  5 11  1  0  0  0
  6 10  1  0  0  0
  6 12  1  0  0  0
 12 13  1  0  0  0
 13 14  1  0  0  0
 13 19  1  0  0  0
 14 15  1  0  0  0
 14 16  1  0  0  0
 16 17  1  0  0  0
 17 18  1  0  0  0
 18 19  1  0  0  0
 19 20  1  0  0  0
 20 21  1  0  0  0
  1 22  1  0  0  0
  2 23  1  0  0  0
  3 24  1  0  0  0
  4 25  1  0  0  0
  5 26  1  0  0  0
  5 27  1  0  0  0
  6 28  1  0  0  0
  7 29  1  0  0  0
  8 30  1  0  0  0
  9 31  1  0  0  0
 11 32  1  0  0  0
 13 33  1  0  0  0
 14 34  1  0  0  0
 15 35  1  0  0  0
 16 36  1  0  0  0
 16 37  1  0  0  0
 17 38  1  0  0  0
 17 39  1  0  0  0
 18 40  1  0  0  0
 18 41  1  0  0  0
 19 42  1  0  0  0
 20 43  1  0  0  0
 20 44  1  0  0  0
 21 45  1  0  0  0
M  END
$$$$
