3t1l_ligand
  -I-interpret- 

 47 48  0  0  0  0  0  0  0  0999 V2000
   20.5750   -8.7620   -1.5340 C   0  0  0  0  0
   21.5150   -9.8170   -1.3540 O   0  0  0  0  0
   19.1550   -9.2830   -1.3740 C   0  0  0  0  0
   19.0100   -9.8730   -0.0790 O   0  0  0  0  0
   18.1500   -8.1480   -1.5300 C   0  0  0  0  0
   16.8560   -8.6510   -1.1850 O   0  0  0  0  0
   18.5060   -6.9590   -0.6360 C   0  0  0  0  0
   18.1620   -7.2740    0.7170 O   0  0  0  0  0
   19.9900   -6.5950   -0.7610 C   0  0  0  0  0
   20.8010   -7.7520   -0.5550 O   0  0  0  0  0
   20.4420   -5.5190    0.2280 C   0  0  0  0  0
   21.8600   -5.3220    0.0940 O   0  0  0  0  0
   15.8780   -7.3990   -2.8880 O   0  0  0  0  0
   15.7420   -8.2700   -2.0440 C   0  0  0  0  0
   14.4220   -8.9660   -1.8660 C   0  0  0  0  0
   14.3730  -10.2320   -1.2830 C   0  0  0  0  0
   13.1490  -10.8770   -1.1130 C   0  0  0  0  0
   11.9730  -10.2600   -1.5250 C   0  0  0  0  0
   10.6520  -10.9590   -1.3430 C   0  0  0  0  0
   12.0200   -8.9960   -2.1050 C   0  0  0  0  0
   13.2410   -8.3500   -2.2750 C   0  0  0  0  0
   18.4360  -11.2120   -0.0370 C   0  0  0  0  0
   18.1700  -11.8890   -1.1520 O   0  0  0  0  0
   18.1770  -11.7650    1.1360 C   0  0  0  0  0
   22.8310   -9.4080   -1.7260 C   0  0  0  0  0
   20.7006   -8.3536   -2.5367 H   0  0  0  0  0
   18.9640  -10.0290   -2.1454 H   0  0  0  0  0
   18.1637   -7.7937   -2.5607 H   0  0  0  0  0
   17.9376   -6.0861   -0.9569 H   0  0  0  0  0
   17.2296   -7.4974    0.7652 H   0  0  0  0  0
   20.1107   -6.1972   -1.7686 H   0  0  0  0  0
   20.2104   -5.8354    1.2450 H   0  0  0  0  0
   19.9207   -4.5852    0.0172 H   0  0  0  0  0
   22.1481   -4.6472    0.7131 H   0  0  0  0  0
   15.2935  -10.7180   -0.9597 H   0  0  0  0  0
   13.1137  -11.8662   -0.6566 H   0  0  0  0  0
   10.6622  -11.9009   -1.8915 H   0  0  0  0  0
   10.4896  -11.1559   -0.2833 H   0  0  0  0  0
    9.8513  -10.3245   -1.7228 H   0  0  0  0  0
   11.0986   -8.5108   -2.4269 H   0  0  0  0  0
   13.2735   -7.3597   -2.7292 H   0  0  0  0  0
   17.1124  -11.9889    1.2036 H   0  0  0  0  0
   18.7505  -12.6865    1.2364 H   0  0  0  0  0
   18.4554  -11.0738    1.9315 H   0  0  0  0  0
   22.8356   -9.1139   -2.7756 H   0  0  0  0  0
   23.1353   -8.5625   -1.1091 H   0  0  0  0  0
   23.5234  -10.2364   -1.5764 H   0  0  0  0  0
  1  2  1  0  0  0
  1  3  1  0  0  0
  1 10  1  0  0  0
  2 25  1  0  0  0
  3  4  1  0  0  0
  3  5  1  0  0  0
  4 22  1  0  0  0
  5  6  1  0  0  0
  5  7  1  0  0  0
  6 14  1  0  0  0
  7  8  1  0  0  0
  7  9  1  0  0  0
  9 10  1  0  0  0
  9 11  1  0  0  0
 11 12  1  0  0  0
 14 13  2  0  0  0
 14 15  1  0  0  0
 15 16  4  0  0  0
 15 21  4  0  0  0
 16 17  4  0  0  0
 17 18  4  0  0  0
 18 19  1  0  0  0
 18 20  4  0  0  0
 20 21  4  0  0  0
 22 23  2  0  0  0
 22 24  1  0  0  0
  1 26  1  0  0  0
  3 27  1  0  0  0
  5 28  1  0  0  0
  7 29  1  0  0  0
  8 30  1  0  0  0
  9 31  1  0  0  0
 11 32  1  0  0  0
 11 33  1  0  0  0
 12 34  1  0  0  0
 16 35  1  0  0  0
 17 36  1  0  0  0
 19 37  1  0  0  0
 19 38  1  0  0  0
 19 39  1  0  0  0
 20 40  1  0  0  0
 21 41  1  0  0  0
 24 42  1  0  0  0
 24 43  1  0  0  0
 24 44  1  0  0  0
 25 45  1  0  0  0
 25 46  1  0  0  0
 25 47  1  0  0  0
M  END
$$$$
