6glb_ligand
  -I-interpret- 

 47 51  0  0  0  0  0  0  0  0999 V2000
   41.3720   52.0970    4.8560 C   0  0  0  0  0
   37.6240   53.8440    5.4810 C   0  0  0  0  0
   38.0360   54.5790    6.5440 C   0  0  0  0  0
   39.3670   54.3510    6.7910 N   0  0  0  0  0
   39.3160   50.5920    2.4540 C   0  0  0  0  0
   39.0130   49.6680    1.3850 C   0  0  0  0  0
   38.3980   51.4200    3.0560 N   0  0  0  0  0
   39.6920   49.0770    0.3770 C   0  0  0  0  0
   38.7490   48.3040   -0.3580 C   0  0  0  0  0
   37.5510   48.4580    0.2450 C   0  0  0  0  0
   36.1650   47.9260    0.0800 C   0  0  0  0  0
   40.5240   50.6970    2.9690 N   0  0  0  0  0
   35.3530   48.5630   -1.0330 C   0  0  0  0  0
   33.9980   48.9620   -0.5850 C   0  0  0  0  0
   36.9660   51.5550    2.6770 C   0  0  0  0  0
   32.9330   49.2810   -0.2910 N   0  0  0  0  0
   37.6880   49.2930    1.3180 O   0  0  0  0  0
   40.3940   51.6410    3.9800 C   0  0  0  0  0
   41.1250   52.9860    5.8260 N   0  0  0  0  0
   39.0870   52.1240    4.0620 C   0  0  0  0  0
   38.7580   53.0950    5.0370 C   0  0  0  0  0
   39.8630   53.4520    5.8940 C   0  0  0  0  0
   36.6400   52.8880    2.0270 C   0  0  0  0  0
   35.2020   52.8820    1.5230 C   0  0  0  0  0
   34.2370   52.5390    2.6410 C   0  0  0  0  0
   34.5680   51.1790    3.2590 C   0  0  0  0  0
   35.9980   51.1410    3.7800 C   0  0  0  0  0
   42.3865   51.7132    4.7483 H   0  0  0  0  0
   36.6232   53.8276    5.0494 H   0  0  0  0  0
   37.4017   55.2535    7.1192 H   0  0  0  0  0
   40.7572   49.1736    0.1670 H   0  0  0  0  0
   38.9556   47.7008   -1.2421 H   0  0  0  0  0
   35.6375   48.1363    1.0104 H   0  0  0  0  0
   36.2642   46.8701   -0.1715 H   0  0  0  0  0
   35.2422   47.8300   -1.8321 H   0  0  0  0  0
   35.8774   49.4599   -1.3627 H   0  0  0  0  0
   36.8042   50.8179    1.8905 H   0  0  0  0  0
   37.3145   53.0525    1.1867 H   0  0  0  0  0
   36.7601   53.6847    2.7612 H   0  0  0  0  0
   35.1093   52.1315    0.7380 H   0  0  0  0  0
   34.9598   53.8748    1.1438 H   0  0  0  0  0
   33.2283   52.4984    2.2300 H   0  0  0  0  0
   34.3162   53.3019    3.4155 H   0  0  0  0  0
   34.4581   50.4132    2.4912 H   0  0  0  0  0
   33.8898   51.0032    4.0940 H   0  0  0  0  0
   36.0928   51.8314    4.6181 H   0  0  0  0  0
   36.2351   50.1274    4.1034 H   0  0  0  0  0
  1 18  4  0  0  0
 19  1  4  0  0  0
  3  2  4  0  0  0
  2 21  4  0  0  0
  4  3  4  0  0  0
 22  4  4  0  0  0
  5  6  1  0  0  0
  7  5  4  0  0  0
 12  5  4  0  0  0
  6  8  4  0  0  0
  6 17  4  0  0  0
  7 15  1  0  0  0
 20  7  4  0  0  0
  8  9  4  0  0  0
 10  9  4  0  0  0
 10 11  1  0  0  0
 17 10  4  0  0  0
 11 13  1  0  0  0
 18 12  4  0  0  0
 13 14  1  0  0  0
 14 16  3  0  0  0
 15 23  1  0  0  0
 15 27  1  0  0  0
 18 20  4  0  0  0
 19 22  4  0  0  0
 20 21  4  0  0  0
 21 22  4  0  0  0
 23 24  1  0  0  0
 24 25  1  0  0  0
 25 26  1  0  0  0
 26 27  1  0  0  0
  1 28  1  0  0  0
  2 29  1  0  0  0
  3 30  1  0  0  0
  8 31  1  0  0  0
  9 32  1  0  0  0
 11 33  1  0  0  0
 11 34  1  0  0  0
 13 35  1  0  0  0
 13 36  1  0  0  0
 15 37  1  0  0  0
 23 38  1  0  0  0
 23 39  1  0  0  0
 24 40  1  0  0  0
 24 41  1  0  0  0
 25 42  1  0  0  0
 25 43  1  0  0  0
 26 44  1  0  0  0
 26 45  1  0  0  0
 27 46  1  0  0  0
 27 47  1  0  0  0
M  END
$$$$
