4gny_ligand
  -I-interpret- 

 43 42  0  0  0  0  0  0  0  0999 V2000
   25.8550   41.9890   17.5910 S   0  0  0  0  0
   26.0360   42.8360   16.4370 O   0  0  0  0  0
   25.1200   40.7540   17.2560 O   0  0  0  0  0
   27.1480   41.6690   18.2190 O   0  0  0  0  0
   25.0610   42.8460   18.4380 O   0  0  0  0  0
   23.8260   40.7930   16.7640 C   0  0  0  0  0
   22.2520   28.4280   20.6220 C   0  0  0  0  0
   22.5030   29.8840   20.3940 C   0  0  0  0  0
   23.1210   30.1190   19.0630 C   0  0  0  0  0
   23.7960   31.4470   19.0030 C   0  0  0  0  0
   22.8720   32.5990   19.2180 C   0  0  0  0  0
   23.3880   33.7660   18.4360 C   0  0  0  0  0
   22.7940   35.0660   18.8480 C   0  0  0  0  0
   23.4400   36.1220   18.0190 C   0  0  0  0  0
   22.8300   37.4630   18.2380 C   0  0  0  0  0
   23.6520   38.4760   17.5130 C   0  0  0  0  0
   22.9680   39.8040   17.4880 C   0  0  0  0  0
   27.0010   41.1059   18.9825 H   0  0  0  0  0
   23.8400   40.5439   15.7029 H   0  0  0  0  0
   23.4186   41.7934   16.9104 H   0  0  0  0  0
   21.5775   28.0521   19.8527 H   0  0  0  0  0
   23.1966   27.8861   20.5752 H   0  0  0  0  0
   21.7996   28.2880   21.6037 H   0  0  0  0  0
   23.1853   30.2448   21.1637 H   0  0  0  0  0
   21.5505   30.4124   20.4343 H   0  0  0  0  0
   22.3354   30.0958   18.3078 H   0  0  0  0  0
   23.8664   29.3437   18.8859 H   0  0  0  0  0
   24.2214   31.5519   18.0049 H   0  0  0  0  0
   24.5390   31.4716   19.8002 H   0  0  0  0  0
   22.8263   32.8494   20.2779 H   0  0  0  0  0
   21.8670   32.3400   18.8847 H   0  0  0  0  0
   23.1247   33.6022   17.3910 H   0  0  0  0  0
   24.4624   33.8272   18.6095 H   0  0  0  0  0
   22.9654   35.2496   19.9087 H   0  0  0  0  0
   21.7147   35.0625   18.6957 H   0  0  0  0  0
   23.3077   35.8571   16.9700 H   0  0  0  0  0
   24.4913   36.1781   18.3012 H   0  0  0  0  0
   22.8065   37.6936   19.3031 H   0  0  0  0  0
   21.8067   37.4740   17.8627 H   0  0  0  0  0
   23.7968   38.1384   16.4868 H   0  0  0  0  0
   24.6065   38.5845   18.0280 H   0  0  0  0  0
   22.0104   39.7100   16.9759 H   0  0  0  0  0
   22.8015   40.1463   18.5094 H   0  0  0  0  0
  1  2  2  0  0  0
  3  1  1  0  0  0
  1  4  1  0  0  0
  1  5  2  0  0  0
  6  3  1  0  0  0
 17  6  1  0  0  0
  8  7  1  0  0  0
  9  8  1  0  0  0
 10  9  1  0  0  0
 11 10  1  0  0  0
 12 11  1  0  0  0
 13 12  1  0  0  0
 14 13  1  0  0  0
 15 14  1  0  0  0
 16 15  1  0  0  0
 16 17  1  0  0  0
  4 18  1  0  0  0
  6 19  1  0  0  0
  6 20  1  0  0  0
  7 21  1  0  0  0
  7 22  1  0  0  0
  7 23  1  0  0  0
  8 24  1  0  0  0
  8 25  1  0  0  0
  9 26  1  0  0  0
  9 27  1  0  0  0
 10 28  1  0  0  0
 10 29  1  0  0  0
 11 30  1  0  0  0
 11 31  1  0  0  0
 12 32  1  0  0  0
 12 33  1  0  0  0
 13 34  1  0  0  0
 13 35  1  0  0  0
 14 36  1  0  0  0
 14 37  1  0  0  0
 15 38  1  0  0  0
 15 39  1  0  0  0
 16 40  1  0  0  0
 16 41  1  0  0  0
 17 42  1  0  0  0
 17 43  1  0  0  0
M  END
$$$$
