5qay_ligand
  -I-interpret- 

 26 27  0  0  0  0  0  0  0  0999 V2000
   14.2840  -90.8050  150.8660 N   0  0  0  0  0
   15.2070  -91.2820  149.8360 C   0  0  0  0  0
   11.3110  -96.8690  149.8290 O   0  0  0  0  0
   12.9450  -91.1680  151.0400 C   0  0  0  0  0
   13.5340  -89.6820  152.6350 C   0  0  0  0  0
   14.6230  -89.9060  151.8460 C   0  0  0  0  0
   12.2420  -92.1870  150.2410 C   0  0  0  0  0
   11.5640  -91.8940  149.0620 C   0  0  0  0  0
   10.9280  -92.9010  148.3550 C   0  0  0  0  0
   10.9550  -94.2030  148.8250 C   0  0  0  0  0
   11.6180  -94.5070  150.0090 C   0  0  0  0  0
   11.5840  -95.8950  150.5890 C   0  0  0  0  0
   12.2690  -93.4960  150.7070 C   0  0  0  0  0
   12.4760  -90.4720  152.1330 C   0  0  0  0  0
   11.8380  -95.9830  151.8050 O   0  0  0  0  0
   15.3140  -92.3636  149.9185 H   0  0  0  0  0
   14.8134  -91.0285  148.8517 H   0  0  0  0  0
   16.1789  -90.8080  149.9732 H   0  0  0  0  0
   11.1540  -96.5449  148.9391 H   0  0  0  0  0
   13.4881  -89.0151  153.4960 H   0  0  0  0  0
   15.6031  -89.4461  151.9728 H   0  0  0  0  0
   11.5332  -90.8686  148.6935 H   0  0  0  0  0
   10.4055  -92.6681  147.4272 H   0  0  0  0  0
   10.4546  -94.9929  148.2648 H   0  0  0  0  0
   12.8046  -93.7319  151.6266 H   0  0  0  0  0
   11.4657  -90.5223  152.5390 H   0  0  0  0  0
  1  2  1  0  0  0
  4  1  4  0  0  0
  1  6  4  0  0  0
 12  3  1  0  0  0
  7  4  1  0  0  0
  4 14  4  0  0  0
  5  6  4  0  0  0
 14  5  4  0  0  0
  8  7  4  0  0  0
  7 13  4  0  0  0
  9  8  4  0  0  0
 10  9  4  0  0  0
 11 10  4  0  0  0
 11 12  1  0  0  0
 11 13  4  0  0  0
 12 15  2  0  0  0
  2 16  1  0  0  0
  2 17  1  0  0  0
  2 18  1  0  0  0
  3 19  1  0  0  0
  5 20  1  0  0  0
  6 21  1  0  0  0
  8 22  1  0  0  0
  9 23  1  0  0  0
 10 24  1  0  0  0
 13 25  1  0  0  0
 14 26  1  0  0  0
M  END
$$$$
