6mhm_ligand
  -I-interpret- 

 27 26  0  0  0  0  0  0  0  0999 V2000
   -7.5830    4.8430   28.5860 C   0  0  0  0  0
   -7.8590    2.9000   29.1570 C   0  0  0  0  0
   -8.2120    1.4440   29.2960 C   0  0  0  0  0
   -8.9280    0.8110   30.4420 C   0  0  0  0  0
   -8.2760   -0.5650   30.4970 C   0  0  0  0  0
   -9.2560   -1.6060   31.0110 C   0  0  0  0  0
   -8.5610   -2.8730   31.4960 C   0  0  0  0  0
   -8.5020    4.1190   29.3850 N   0  3  0  0  0
   -7.8980    5.9490   28.5980 O   0  0  0  0  0
   -7.5876    4.4605   27.5653 H   0  0  0  0  0
   -6.5728    4.7342   28.9806 H   0  0  0  0  0
   -7.8286    2.9456   28.0684 H   0  0  0  0  0
   -7.1319    2.9580   29.9670 H   0  0  0  0  0
   -7.2268    0.9835   29.3691 H   0  0  0  0  0
   -8.9299    1.3121   28.4865 H   0  0  0  0  0
  -10.0092    0.7728   30.3092 H   0  0  0  0  0
   -8.8362    1.3711   31.3725 H   0  0  0  0  0
   -7.4218   -0.5225   31.1727 H   0  0  0  0  0
   -7.9607   -0.8450   29.4919 H   0  0  0  0  0
   -9.9180   -1.8792   30.1893 H   0  0  0  0  0
   -9.7940   -1.1737   31.8546 H   0  0  0  0  0
   -8.0007   -3.3163   30.6728 H   0  0  0  0  0
   -7.8788   -2.6233   32.3087 H   0  0  0  0  0
   -9.3082   -3.5822   31.8521 H   0  0  0  0  0
   -9.4947    4.1893   29.1613 H   0  0  0  0  0
   -8.6405    4.4175   30.3505 H   0  0  0  0  0
   -7.2877    6.4602   28.0615 H   0  0  0  0  0
  8  1  1  0  0  0
  1  9  1  0  0  0
  2  3  1  0  0  0
  2  8  1  0  0  0
  3  4  1  0  0  0
  4  5  1  0  0  0
  5  6  1  0  0  0
  6  7  1  0  0  0
  1 10  1  0  0  0
  1 11  1  0  0  0
  2 12  1  0  0  0
  2 13  1  0  0  0
  3 14  1  0  0  0
  3 15  1  0  0  0
  4 16  1  0  0  0
  4 17  1  0  0  0
  5 18  1  0  0  0
  5 19  1  0  0  0
  6 20  1  0  0  0
  6 21  1  0  0  0
  7 22  1  0  0  0
  7 23  1  0  0  0
  7 24  1  0  0  0
  8 25  1  0  0  0
  8 26  1  0  0  0
  9 27  1  0  0  0
M  END
$$$$
