2wa4_ligand
  -I-interpret- 

 18 18  0  0  0  0  0  0  0  0999 V2000
   17.0740   25.7740   29.1330 C   0  0  0  0  0
   16.1090   26.3830   29.8610 O   0  0  0  0  0
   18.3680   26.2490   29.2720 C   0  0  0  0  0
   19.4060   25.7080   28.5330 C   0  0  0  0  0
   20.8400   26.3270   28.6710 C   0  0  0  0  0
   21.0730   27.2610   29.4690 O   0  0  0  0  0
   21.7390   25.8450   27.8040 N   0  0  0  0  0
   19.1010   24.6390   27.6550 C   0  0  0  0  0
   17.7920   24.1450   27.5380 C   0  0  0  0  0
   16.7480   24.7270   28.2840 C   0  0  0  0  0
   23.0340   26.3190   27.7390 O   0  0  0  0  0
   15.2627   25.9676   29.6796 H   0  0  0  0  0
   18.5714   27.0591   29.9723 H   0  0  0  0  0
   21.4566   25.0996   27.1676 H   0  0  0  0  0
   19.8970   24.1919   27.0595 H   0  0  0  0  0
   17.5831   23.3101   26.8691 H   0  0  0  0  0
   15.7226   24.3678   28.1971 H   0  0  0  0  0
   23.5134   25.8443   27.0561 H   0  0  0  0  0
  1  2  1  0  0  0
  1  3  4  0  0  0
  1 10  4  0  0  0
  3  4  4  0  0  0
  4  5  1  0  0  0
  4  8  4  0  0  0
  5  6  2  0  0  0
  5  7  1  0  0  0
  7 11  1  0  0  0
  8  9  4  0  0  0
  9 10  4  0  0  0
  2 12  1  0  0  0
  3 13  1  0  0  0
  7 14  1  0  0  0
  8 15  1  0  0  0
  9 16  1  0  0  0
 10 17  1  0  0  0
 11 18  1  0  0  0
M  END
$$$$
