6ekq_ligand
  -I-interpret- 

 49 51  0  0  0  0  0  0  0  0999 V2000
   23.9680  -11.5330    5.4230 C   0  0  0  0  0
   24.8560  -15.7300    8.0390 C   0  0  0  0  0
   12.2080  -12.0090    6.6470 C   0  0  0  0  0
   15.3860  -11.6310   10.5050 C   0  0  0  0  0
   17.4720  -16.8940    8.3210 C   0  0  0  0  0
   13.7580  -11.8100    8.5990 C   0  0  0  0  0
   15.6630  -15.4050    7.3960 C   0  0  0  0  0
   14.0320  -13.6940    6.9850 C   0  0  0  0  0
   15.5090  -13.5250    8.8940 C   0  0  0  0  0
   21.7150  -15.3060    7.5470 C   0  0  0  0  0
   23.7410  -12.8300    6.2030 C   0  0  0  0  0
   17.1320  -15.7700    7.6730 C   0  0  0  0  0
   24.0670  -14.6300    7.3130 C   0  0  0  0  0
   19.3620  -15.4440    7.5700 C   0  0  0  0  0
   22.7370  -14.5190    7.1430 C   0  0  0  0  0
   13.6440  -12.2260    7.1320 C   0  0  0  0  0
   15.2020  -12.0450    9.0400 C   0  0  0  0  0
   24.6910  -13.5940    6.7370 N   0  0  0  0  0
   18.1520  -14.9750    7.2620 N   0  0  0  0  0
   20.4960  -14.7960    7.2480 N   0  0  0  0  0
   15.4040  -13.9530    7.4880 N   0  3  0  0  0
   21.8970  -16.3860    8.1110 O   0  0  0  0  0
   22.5270  -13.3540    6.4190 O   0  0  0  0  0
   19.1620  -16.9320    8.4080 S   0  0  0  0  0
   24.4771  -10.8109    6.0614 H   0  0  0  0  0
   24.5813  -11.7405    4.5461 H   0  0  0  0  0
   23.0067  -11.1271    5.1079 H   0  0  0  0  0
   24.5434  -15.7712    9.0824 H   0  0  0  0  0
   24.6610  -16.6904    7.5618 H   0  0  0  0  0
   25.9215  -15.5062    7.9862 H   0  0  0  0  0
   12.1329  -12.2958    5.5981 H   0  0  0  0  0
   11.5288  -12.6200    7.2416 H   0  0  0  0  0
   11.9436  -10.9573    6.7573 H   0  0  0  0  0
   14.7072  -12.2086   11.1325 H   0  0  0  0  0
   16.4152  -11.8224   10.8088 H   0  0  0  0  0
   15.1660  -10.5688   10.6114 H   0  0  0  0  0
   16.7873  -17.6436    8.7178 H   0  0  0  0  0
   13.0745  -12.3965    9.2130 H   0  0  0  0  0
   13.4927  -10.7593    8.7162 H   0  0  0  0  0
   15.0493  -15.9009    8.1480 H   0  0  0  0  0
   15.4272  -15.7215    6.3800 H   0  0  0  0  0
   13.9999  -13.9531    5.9267 H   0  0  0  0  0
   13.3336  -14.2936    7.5688 H   0  0  0  0  0
   14.7886  -14.0904    9.4852 H   0  0  0  0  0
   16.5274  -13.7053    9.2381 H   0  0  0  0  0
   14.3179  -11.6190    6.5275 H   0  0  0  0  0
   15.8752  -11.4496    8.4233 H   0  0  0  0  0
   20.4366  -13.8986    6.7669 H   0  0  0  0  0
   16.0843  -13.4337    6.9331 H   0  0  0  0  0
 11  1  1  0  0  0
 13  2  1  0  0  0
 16  3  1  0  0  0
 17  4  1  0  0  0
 12  5  4  0  0  0
  5 24  4  0  0  0
 16  6  1  0  0  0
 17  6  1  0  0  0
 12  7  1  0  0  0
  7 21  1  0  0  0
  8 16  1  0  0  0
 21  8  1  0  0  0
  9 17  1  0  0  0
 21  9  1  0  0  0
 10 15  1  0  0  0
 20 10  1  0  0  0
 10 22  2  0  0  0
 18 11  4  0  0  0
 11 23  4  0  0  0
 19 12  4  0  0  0
 15 13  4  0  0  0
 13 18  4  0  0  0
 14 19  4  0  0  0
 14 20  1  0  0  0
 14 24  4  0  0  0
 15 23  4  0  0  0
  1 25  1  0  0  0
  1 26  1  0  0  0
  1 27  1  0  0  0
  2 28  1  0  0  0
  2 29  1  0  0  0
  2 30  1  0  0  0
  3 31  1  0  0  0
  3 32  1  0  0  0
  3 33  1  0  0  0
  4 34  1  0  0  0
  4 35  1  0  0  0
  4 36  1  0  0  0
  5 37  1  0  0  0
  6 38  1  0  0  0
  6 39  1  0  0  0
  7 40  1  0  0  0
  7 41  1  0  0  0
  8 42  1  0  0  0
  8 43  1  0  0  0
  9 44  1  0  0  0
  9 45  1  0  0  0
 16 46  1  0  0  0
 17 47  1  0  0  0
 20 48  1  0  0  0
 21 49  1  0  0  0
M  END
$$$$
