2xaq_ligand
  -I-interpret- 

123130  0  0  0  0  0  0  0  0999 V2000
   -6.6120   67.9260   89.0660 P   0  0  0  0  0
   -5.5210   68.2470   88.0830 O   0  0  0  0  0
   -7.7470   66.9470   88.7690 O   0  0  0  0  0
   -7.0940   69.4000   89.4260 O   0  0  0  0  0
   -5.9940   70.2590   89.5110 C   0  0  0  0  0
   -6.6240   71.5900   89.7170 C   0  0  0  0  0
   -5.6910   72.6380   90.0420 O   0  0  0  0  0
   -7.3280   72.0170   88.4590 C   0  0  0  0  0
   -8.6130   72.5280   88.8850 O   0  0  0  0  0
   -6.4560   73.1690   88.0270 C   0  0  0  0  0
   -7.1410   74.0180   87.1370 O   0  0  0  0  0
   -6.1310   73.8160   89.3650 C   0  0  0  0  0
   -5.0130   74.7520   89.2520 N   0  0  0  0  0
   -3.8650   74.4040   88.6370 C   0  0  0  0  0
   -3.0300   75.4740   88.6930 N   0  0  0  0  0
   -3.6450   76.4590   89.3670 C   0  0  0  0  0
   -3.1750   77.7290   89.6900 C   0  0  0  0  0
   -1.9120   78.0270   89.2440 N   0  3  0  0  0
   -3.9710   78.6360   90.3740 N   0  0  0  0  0
   -5.3320   78.1920   90.7710 C   0  0  0  0  0
   -5.6990   76.7980   90.3910 N   0  0  0  0  0
   -4.9020   75.9990   89.7090 C   0  0  0  0  0
   -8.1940   58.4730   86.2120 N   0  0  0  0  0
   -9.0410   57.4310   86.4350 C   0  0  0  0  0
   -9.4340   57.1270   87.5770 O   0  0  0  0  0
   -9.5090   56.6740   85.4400 N   0  0  0  0  0
   -9.2030   56.9420   84.1700 C   0  0  0  0  0
   -9.6780   56.1460   83.1890 O   0  0  0  0  0
   -8.1660   57.9330   83.8700 C   0  0  0  0  0
   -7.8980   58.2970   82.4660 N   0  0  0  0  0
   -7.2680   59.5380   82.2760 C   0  0  0  0  0
   -7.2140   60.0480   80.9850 C   0  0  0  0  0
   -6.6550   61.3190   80.7470 C   0  0  0  0  0
   -6.5300   61.9180   79.3540 C   0  0  0  0  0
   -6.1820   62.0680   81.7980 C   0  0  0  0  0
   -5.5860   63.4180   81.5130 C   0  0  0  0  0
   -6.2650   61.5670   83.0940 C   0  0  0  0  0
   -6.8460   60.3210   83.3670 C   0  0  0  0  0
   -6.8710   59.7810   84.7000 N   0  0  0  0  0
   -7.8220   58.8210   84.9740 C   0  0  0  0  0
   -6.3550   60.4790   85.8760 C   0  0  0  0  0
   -7.2640   61.4790   86.5320 C   0  0  0  0  0
   -7.6190   62.4560   85.5510 O   0  0  0  0  0
   -6.4580   62.1710   87.6260 C   0  0  0  0  0
   -5.8320   61.1530   88.4100 O   0  0  0  0  0
   -7.2880   63.1160   88.4890 C   0  0  0  0  0
   -8.2420   63.8430   87.7110 O   0  0  0  0  0
   -6.4110   64.2020   89.0740 C   0  0  0  0  0
   -7.1930   65.1300   89.8320 O   0  0  0  0  0
   -6.3960   66.0000   90.9250 P   0  0  0  0  0
   -5.2000   65.2070   91.5140 O   0  0  0  0  0
   -7.4290   66.7760   91.7390 O   0  0  0  0  0
   -5.7590   67.2730   90.2190 O   0  0  0  0  0
   -6.1730   51.1540   87.4930 O   0  0  0  0  0
   -4.9510   51.1460   87.3970 C   0  0  0  0  0
   -4.1610   49.9220   87.8130 C   0  0  0  0  0
   -4.8080   48.7770   88.2980 C   0  0  0  0  0
   -4.0700   47.6500   88.6790 C   0  0  0  0  0
   -2.6770   47.6440   88.5860 C   0  0  0  0  0
   -2.0160   48.7860   88.1030 C   0  0  0  0  0
   -2.7610   49.9150   87.7210 C   0  0  0  0  0
   -4.2820   52.2090   86.9450 N   0  0  0  0  0
   -4.7520   53.1740   86.0330 C   0  0  0  0  0
   -4.2550   54.4530   86.2050 C   0  0  0  0  0
   -4.6590   55.4640   85.3450 C   0  0  0  0  0
   -5.6430   52.9240   84.9700 C   0  0  0  0  0
   -6.0480   53.9540   84.0980 C   0  0  0  0  0
   -5.5440   55.2440   84.2890 C   0  0  0  0  0
   -5.8770   56.4550   83.4440 C   0  0  0  0  0
   -6.5200   56.1150   82.1210 C   0  0  0  0  0
   -7.5370   57.1620   81.7100 C   0  0  0  0  0
   -8.1940   57.0150   80.6950 O   0  0  0  0  0
   -8.3285   66.8923   89.5309 H   0  0  0  0  0
   -5.3612   70.2239   88.6242 H   0  0  0  0  0
   -5.3075   69.9880   90.3131 H   0  0  0  0  0
   -7.3024   71.4590   90.5600 H   0  0  0  0  0
   -7.4723   71.2583   87.6898 H   0  0  0  0  0
   -9.1712   71.7973   89.1609 H   0  0  0  0  0
   -5.5630   72.8916   87.4669 H   0  0  0  0  0
   -6.5646   74.7409   86.8785 H   0  0  0  0  0
   -6.9389   74.3898   89.8190 H   0  0  0  0  0
   -3.6465   73.4396   88.1783 H   0  0  0  0  0
   -3.3028   78.3154   90.5999 H   0  0  0  0  0
   -1.6657   78.9740   89.5320 H   0  0  0  0  0
   -1.2467   77.3650   89.6434 H   0  0  0  0  0
   -1.8881   77.9628   88.2263 H   0  0  0  0  0
   -6.0201   78.8455   91.3073 H   0  0  0  0  0
   -6.6132   76.4442   90.6729 H   0  0  0  0  0
   -7.8342   59.0012   87.0070 H   0  0  0  0  0
  -10.1100   55.8782   85.6545 H   0  0  0  0  0
   -7.6056   59.4626   80.1531 H   0  0  0  0  0
   -5.9108   61.2688   78.7350 H   0  0  0  0  0
   -7.5208   62.0095   78.9090 H   0  0  0  0  0
   -6.0692   62.9033   79.4236 H   0  0  0  0  0
   -4.7300   63.3028   80.8481 H   0  0  0  0  0
   -6.3348   64.0512   81.0370 H   0  0  0  0  0
   -5.2625   63.8756   82.4479 H   0  0  0  0  0
   -5.8677   62.1593   83.9183 H   0  0  0  0  0
   -5.4912   61.0461   85.5291 H   0  0  0  0  0
   -6.1745   59.7068   86.6238 H   0  0  0  0  0
   -8.1558   61.0039   86.9406 H   0  0  0  0  0
   -8.2015   63.1084   85.9469 H   0  0  0  0  0
   -5.7116   62.8137   87.1593 H   0  0  0  0  0
   -5.3159   61.5611   89.1091 H   0  0  0  0  0
   -7.7623   62.4855   89.2410 H   0  0  0  0  0
   -8.7444   64.4255   88.2854 H   0  0  0  0  0
   -5.9214   64.7363   88.2598 H   0  0  0  0  0
   -5.6733   63.7429   89.7321 H   0  0  0  0  0
   -4.6986   64.8083   90.7990 H   0  0  0  0  0
   -5.8949   48.7640   88.3792 H   0  0  0  0  0
   -4.5889   46.7672   89.0525 H   0  0  0  0  0
   -2.1085   46.7633   88.8847 H   0  0  0  0  0
   -0.9289   48.7963   88.0248 H   0  0  0  0  0
   -2.2432   50.7985   87.3476 H   0  0  0  0  0
   -3.3328   52.3355   87.2962 H   0  0  0  0  0
   -3.5513   54.6652   87.0100 H   0  0  0  0  0
   -4.2695   56.4701   85.5005 H   0  0  0  0  0
   -6.0261   51.9147   84.8196 H   0  0  0  0  0
   -6.7448   53.7479   83.2855 H   0  0  0  0  0
   -4.9403   56.9689   83.2282 H   0  0  0  0  0
   -6.5893   57.0586   84.0065 H   0  0  0  0  0
   -7.0322   55.1582   82.2225 H   0  0  0  0  0
   -5.7410   56.0737   81.3597 H   0  0  0  0  0
  1  2  2  0  0  0
  1  3  1  0  0  0
  1  4  1  0  0  0
 53  1  1  0  0  0
  4  5  1  0  0  0
  5  6  1  0  0  0
  6  7  1  0  0  0
  6  8  1  0  0  0
  7 12  1  0  0  0
  8  9  1  0  0  0
  8 10  1  0  0  0
 10 11  1  0  0  0
 10 12  1  0  0  0
 12 13  1  0  0  0
 13 14  4  0  0  0
 13 22  4  0  0  0
 14 15  4  0  0  0
 16 15  4  0  0  0
 16 17  1  0  0  0
 22 16  4  0  0  0
 17 18  1  0  0  0
 17 19  1  0  0  0
 20 19  2  0  0  0
 21 20  1  0  0  0
 22 21  1  0  0  0
 23 24  1  0  0  0
 40 23  1  0  0  0
 24 25  2  0  0  0
 26 24  1  0  0  0
 27 26  1  0  0  0
 27 28  2  0  0  0
 29 27  1  0  0  0
 30 29  1  0  0  0
 29 40  2  0  0  0
 30 31  1  0  0  0
 71 30  1  0  0  0
 31 32  4  0  0  0
 31 38  4  0  0  0
 32 33  4  0  0  0
 33 34  1  0  0  0
 33 35  4  0  0  0
 35 36  1  0  0  0
 37 35  4  0  0  0
 38 37  4  0  0  0
 38 39  1  0  0  0
 40 39  1  0  0  0
 39 41  1  0  0  0
 41 42  1  0  0  0
 42 43  1  0  0  0
 42 44  1  0  0  0
 44 45  1  0  0  0
 44 46  1  0  0  0
 46 47  1  0  0  0
 46 48  1  0  0  0
 48 49  1  0  0  0
 49 50  1  0  0  0
 50 51  1  0  0  0
 50 52  2  0  0  0
 50 53  1  0  0  0
 55 54  2  0  0  0
 55 56  1  0  0  0
 62 55  1  0  0  0
 56 57  4  0  0  0
 56 61  4  0  0  0
 57 58  4  0  0  0
 58 59  4  0  0  0
 60 59  4  0  0  0
 61 60  4  0  0  0
 63 62  1  0  0  0
 64 63  4  0  0  0
 66 63  4  0  0  0
 65 64  4  0  0  0
 68 65  4  0  0  0
 67 66  4  0  0  0
 68 67  4  0  0  0
 69 68  1  0  0  0
 70 69  1  0  0  0
 70 71  1  0  0  0
 71 72  2  0  0  0
  3 73  1  0  0  0
  5 74  1  0  0  0
  5 75  1  0  0  0
  6 76  1  0  0  0
  8 77  1  0  0  0
  9 78  1  0  0  0
 10 79  1  0  0  0
 11 80  1  0  0  0
 12 81  1  0  0  0
 14 82  1  0  0  0
 17 83  1  0  0  0
 18 84  1  0  0  0
 18 85  1  0  0  0
 18 86  1  0  0  0
 20 87  1  0  0  0
 21 88  1  0  0  0
 23 89  1  0  0  0
 26 90  1  0  0  0
 32 91  1  0  0  0
 34 92  1  0  0  0
 34 93  1  0  0  0
 34 94  1  0  0  0
 36 95  1  0  0  0
 36 96  1  0  0  0
 36 97  1  0  0  0
 37 98  1  0  0  0
 41 99  1  0  0  0
 41100  1  0  0  0
 42101  1  0  0  0
 43102  1  0  0  0
 44103  1  0  0  0
 45104  1  0  0  0
 46105  1  0  0  0
 47106  1  0  0  0
 48107  1  0  0  0
 48108  1  0  0  0
 51109  1  0  0  0
 57110  1  0  0  0
 58111  1  0  0  0
 59112  1  0  0  0
 60113  1  0  0  0
 61114  1  0  0  0
 62115  1  0  0  0
 64116  1  0  0  0
 65117  1  0  0  0
 66118  1  0  0  0
 67119  1  0  0  0
 69120  1  0  0  0
 69121  1  0  0  0
 70122  1  0  0  0
 70123  1  0  0  0
M  END
$$$$
