### 
### Created by X-TOOL on Sun Sep  9 21:51:23 2018
### 

@<TRIPOS>MOLECULE
2xaq_ligand
  121   128     1     0     0
SMALL
GAST_HUCK


@<TRIPOS>ATOM
      1 PA         -6.6120   67.9260   89.0660 P.3       1 NON         0.2972
      2 O1A        -5.5210   68.2470   88.0830 O.co2     1 NON        -0.6127
      3 O2A        -7.7470   66.9470   88.7690 O.co2     1 NON        -0.6127
      4 O5B        -7.0940   69.4000   89.4260 O.3       1 NON        -0.2476
      5 C5B        -5.9940   70.2590   89.5110 C.3       1 NON         0.1128
      6 C4B        -6.6240   71.5900   89.7170 C.3       1 NON         0.1189
      7 O4B        -5.6910   72.6380   90.0420 O.3       1 NON        -0.3365
      8 C3B        -7.3280   72.0170   88.4590 C.3       1 NON         0.1150
      9 O3B        -8.6130   72.5280   88.8850 O.3       1 NON        -0.3864
     10 C2B        -6.4560   73.1690   88.0270 C.3       1 NON         0.1384
     11 O2B        -7.1410   74.0180   87.1370 O.3       1 NON        -0.3836
     12 C1B        -6.1310   73.8160   89.3650 C.3       1 NON         0.1978
     13 N9A        -5.0130   74.7520   89.2520 N.pl3     1 NON        -0.2055
     14 C8A        -3.8650   74.4040   88.6370 C.2       1 NON         0.0863
     15 N7A        -3.0300   75.4740   88.6930 N.2       1 NON        -0.3365
     16 C5A        -3.6450   76.4590   89.3670 C.2       1 NON         0.0689
     17 C6A        -3.1750   77.7290   89.6900 C.3       1 NON         0.0433
     18 N6A        -1.9120   78.0270   89.2440 N.4       1 NON         0.2321
     19 N1A        -3.9710   78.6360   90.3740 N.2       1 NON        -0.3007
     20 C2A        -5.3320   78.1920   90.7710 C.2       1 NON         0.1008
     21 N3A        -5.6990   76.7980   90.3910 N.pl3     1 NON        -0.2330
     22 C4A        -4.9020   75.9990   89.7090 C.2       1 NON         0.1804
     23 N1         -8.1940   58.4730   86.2120 N.am      1 NON        -0.1876
     24 C2         -9.0410   57.4310   86.4350 C.2       1 NON         0.3205
     25 O2         -9.4340   57.1270   87.5770 O.2       1 NON        -0.3858
     26 N3         -9.5090   56.6740   85.4400 N.am      1 NON        -0.1895
     27 C4         -9.2030   56.9420   84.1700 C.2       1 NON         0.2052
     28 O4         -9.6780   56.1460   83.1890 O.2       1 NON        -0.4203
     29 C4X        -8.1660   57.9330   83.8700 C.2       1 NON         0.1690
     30 N5         -7.8980   58.2970   82.4660 N.am      1 NON        -0.2103
     31 C5X        -7.2680   59.5380   82.2760 C.ar      1 NON         0.0887
     32 C6         -7.2140   60.0480   80.9850 C.ar      1 NON        -0.0542
     33 C7         -6.6550   61.3190   80.7470 C.ar      1 NON        -0.0716
     34 C7M        -6.5300   61.9180   79.3540 C.3       1 NON        -0.0431
     35 C8         -6.1820   62.0680   81.7980 C.ar      1 NON        -0.0715
     36 C8M        -5.5860   63.4180   81.5130 C.3       1 NON        -0.0442
     37 C9         -6.2650   61.5670   83.0940 C.ar      1 NON        -0.0569
     38 C9A        -6.8460   60.3210   83.3670 C.ar      1 NON         0.0781
     39 N10        -6.8710   59.7810   84.7000 N.pl3     1 NON        -0.2414
     40 C10        -7.8220   58.8210   84.9740 C.2       1 NON         0.1971
     41 C1'        -6.3550   60.4790   85.8760 C.3       1 NON         0.0727
     42 C2'        -7.2640   61.4790   86.5320 C.3       1 NON         0.1065
     43 O2'        -7.6190   62.4560   85.5510 O.3       1 NON        -0.3868
     44 C3'        -6.4580   62.1710   87.6260 C.3       1 NON         0.1115
     45 O3'        -5.8320   61.1530   88.4100 O.3       1 NON        -0.3865
     46 C4'        -7.2880   63.1160   88.4890 C.3       1 NON         0.1118
     47 O4'        -8.2420   63.8430   87.7110 O.3       1 NON        -0.3865
     48 C5'        -6.4110   64.2020   89.0740 C.3       1 NON         0.1124
     49 O5'        -7.1930   65.1300   89.8320 O.3       1 NON        -0.2477
     50 P          -6.3960   66.0000   90.9250 P.3       1 NON         0.2972
     51 O1P        -5.2000   65.2070   91.5140 O.co2     1 NON        -0.6127
     52 O2P        -7.4290   66.7760   91.7390 O.co2     1 NON        -0.6127
     53 O3P        -5.7590   67.2730   90.2190 O.3       1 NON        -0.1319
     54 O4B        -6.1730   51.1540   87.4930 O.2       1 NON        -0.3739
     55 C4B        -4.9510   51.1460   87.3970 C.2       1 NON         0.2306
     56 CW2        -4.1610   49.9220   87.8130 C.ar      1 NON         0.0556
     57 CW3        -4.8080   48.7770   88.2980 C.ar      1 NON        -0.0415
     58 CW4        -4.0700   47.6500   88.6790 C.ar      1 NON        -0.0562
     59 CW5        -2.6770   47.6440   88.5860 C.ar      1 NON        -0.0576
     60 CW6        -2.0160   48.7860   88.1030 C.ar      1 NON        -0.0562
     61 CW7        -2.7610   49.9150   87.7210 C.ar      1 NON        -0.0415
     62 NB4        -4.2820   52.2090   86.9450 N.am      1 NON        -0.2369
     63 CB4        -4.7520   53.1740   86.0330 C.ar      1 NON         0.0594
     64 CB3        -4.2550   54.4530   86.2050 C.ar      1 NON        -0.0472
     65 CB2        -4.6590   55.4640   85.3450 C.ar      1 NON        -0.0730
     66 CB5        -5.6430   52.9240   84.9700 C.ar      1 NON        -0.0472
     67 CB6        -6.0480   53.9540   84.0980 C.ar      1 NON        -0.0730
     68 CB1        -5.5440   55.2440   84.2890 C.ar      1 NON        -0.0553
     69 C3B        -5.8770   56.4550   83.4440 C.3       1 NON        -0.0087
     70 C2B        -6.5200   56.1150   82.1210 C.3       1 NON         0.0513
     71 C1B        -7.5370   57.1620   81.7100 C.2       1 NON         0.2080
     72 O1B        -8.1940   57.0150   80.6950 O.2       1 NON        -0.3866
     73 H1         -5.4049   70.2400   88.5823 H         1 NON         0.0648
     74 H2         -5.3483   69.9916   90.3604 H         1 NON         0.0648
     75 H3         -7.3531   71.5002   90.5357 H         1 NON         0.0651
     76 H4         -7.4188   71.2259   87.7002 H         1 NON         0.0648
     77 H5         -9.1060   72.8151   88.1254 H         1 NON         0.2100
     78 H6         -5.5385   72.8109   87.5373 H         1 NON         0.0676
     79 H7         -7.9146   74.3658   87.5650 H         1 NON         0.2101
     80 H8         -7.0005   74.2980   89.8357 H         1 NON         0.0995
     81 H9         -3.6467   73.4405   88.1787 H         1 NON         0.1101
     82 H10        -2.7716   77.3654   90.6465 H         1 NON         0.1003
     83 H11        -1.6675   78.9627   89.5280 H         1 NON         0.2008
     84 H12        -1.8872   77.9639   88.2383 H         1 NON         0.2008
     85 H13        -1.2536   77.3734   89.6381 H         1 NON         0.2008
     86 H14        -6.0195   78.8449   91.3068 H         1 NON         0.1466
     87 H15        -6.6222   76.4408   90.6757 H         1 NON         0.2236
     88 H16        -7.8413   58.9908   86.9914 H         1 NON         0.2370
     89 H17       -10.0982   55.8938   85.6503 H         1 NON         0.2245
     90 H18        -7.6034   59.4658   80.1577 H         1 NON         0.0366
     91 H19        -6.9450   61.2170   78.6149 H         1 NON         0.0352
     92 H20        -5.4695   62.1034   79.1284 H         1 NON         0.0352
     93 H21        -7.0852   62.8666   79.3116 H         1 NON         0.0352
     94 H22        -5.2591   63.8809   82.4558 H         1 NON         0.0345
     95 H23        -6.3407   64.0580   81.0326 H         1 NON         0.0345
     96 H24        -4.7219   63.3031   80.8421 H         1 NON         0.0345
     97 H25        -5.8699   62.1560   83.9138 H         1 NON         0.0390
     98 H26        -5.4419   61.0113   85.5713 H         1 NON         0.0584
     99 H27        -6.1018   59.7178   86.6286 H         1 NON         0.0584
    100 H28        -8.1592   60.9923   86.9463 H         1 NON         0.0643
    101 H29        -8.1954   63.1016   85.9428 H         1 NON         0.2100
    102 H30        -5.6731   62.7723   87.1440 H         1 NON         0.0647
    103 H31        -6.4986   60.5942   88.7920 H         1 NON         0.2100
    104 H32        -7.7883   62.5418   89.2827 H         1 NON         0.0647
    105 H33        -8.8313   63.2327   87.2834 H         1 NON         0.2100
    106 H34        -5.9065   64.7381   88.2567 H         1 NON         0.0647
    107 H35        -5.6579   63.7430   89.7314 H         1 NON         0.0647
    108 H36        -5.8889   48.7641   88.3787 H         1 NON         0.0669
    109 H37        -4.5860   46.7720   89.0504 H         1 NON         0.0629
    110 H38        -2.1117   46.7681   88.8831 H         1 NON         0.0652
    111 H39        -0.9348   48.7963   88.0252 H         1 NON         0.0629
    112 H40        -2.2461   50.7937   87.3497 H         1 NON         0.0669
    113 H41        -3.3514   52.3330   87.2893 H         1 NON         0.2231
    114 H42        -3.5552   54.6640   87.0055 H         1 NON         0.0488
    115 H43        -4.2717   56.4646   85.4996 H         1 NON         0.0520
    116 H44        -6.0240   51.9202   84.8204 H         1 NON         0.0488
    117 H45        -6.7410   53.7490   83.2900 H         1 NON         0.0520
    118 H46        -4.9461   57.0066   83.2458 H         1 NON         0.0423
    119 H47        -6.5686   57.0948   84.0117 H         1 NON         0.0423
    120 H48        -7.0251   55.1418   82.2090 H         1 NON         0.0525
    121 H49        -5.7385   56.0541   81.3493 H         1 NON         0.0525
@<TRIPOS>BOND
     1    1    2 ar 
     2    1    3 ar 
     3    1    4 1  
     4   53    1 1  
     5    4    5 1  
     6    5    6 1  
     7    6    7 1  
     8    6    8 1  
     9    7   12 1  
    10    8    9 1  
    11    8   10 1  
    12   10   11 1  
    13   10   12 1  
    14   12   13 1  
    15   13   14 1  
    16   13   22 1  
    17   14   15 2  
    18   16   15 1  
    19   16   17 1  
    20   22   16 2  
    21   17   18 1  
    22   17   19 1  
    23   20   19 2  
    24   21   20 1  
    25   22   21 1  
    26   23   24 am 
    27   40   23 am 
    28   24   25 2  
    29   26   24 am 
    30   27   26 am 
    31   27   28 2  
    32   29   27 1  
    33   30   29 am 
    34   29   40 2  
    35   30   31 1  
    36   71   30 am 
    37   31   32 ar 
    38   31   38 ar 
    39   32   33 ar 
    40   33   34 1  
    41   33   35 ar 
    42   35   36 1  
    43   37   35 ar 
    44   38   37 ar 
    45   38   39 1  
    46   40   39 1  
    47   39   41 1  
    48   41   42 1  
    49   42   43 1  
    50   42   44 1  
    51   44   45 1  
    52   44   46 1  
    53   46   47 1  
    54   46   48 1  
    55   48   49 1  
    56   49   50 1  
    57   50   51 ar 
    58   50   52 ar 
    59   50   53 1  
    60   55   54 2  
    61   55   56 1  
    62   62   55 am 
    63   56   57 ar 
    64   56   61 ar 
    65   57   58 ar 
    66   58   59 ar 
    67   60   59 ar 
    68   61   60 ar 
    69   63   62 1  
    70   64   63 ar 
    71   66   63 ar 
    72   65   64 ar 
    73   68   65 ar 
    74   67   66 ar 
    75   68   67 ar 
    76   69   68 1  
    77   70   69 1  
    78   70   71 1  
    79   71   72 2  
    80    5   73 1  
    81    5   74 1  
    82    6   75 1  
    83    8   76 1  
    84    9   77 1  
    85   10   78 1  
    86   11   79 1  
    87   12   80 1  
    88   14   81 1  
    89   17   82 1  
    90   18   83 1  
    91   18   84 1  
    92   18   85 1  
    93   20   86 1  
    94   21   87 1  
    95   23   88 1  
    96   26   89 1  
    97   32   90 1  
    98   34   91 1  
    99   34   92 1  
   100   34   93 1  
   101   36   94 1  
   102   36   95 1  
   103   36   96 1  
   104   37   97 1  
   105   41   98 1  
   106   41   99 1  
   107   42  100 1  
   108   43  101 1  
   109   44  102 1  
   110   45  103 1  
   111   46  104 1  
   112   47  105 1  
   113   48  106 1  
   114   48  107 1  
   115   57  108 1  
   116   58  109 1  
   117   59  110 1  
   118   60  111 1  
   119   61  112 1  
   120   62  113 1  
   121   64  114 1  
   122   65  115 1  
   123   66  116 1  
   124   67  117 1  
   125   69  118 1  
   126   69  119 1  
   127   70  120 1  
   128   70  121 1  
@<TRIPOS>SUBSTRUCTURE
     1 NON         1

