4pjt_ligand
  -I-interpret- 

 42 46  0  0  0  0  0  0  0  0999 V2000
  -40.4220    6.0250  -10.0010 N   0  0  0  0  0
  -37.9180    8.7860   -8.2690 N   0  0  0  0  0
  -41.6760    7.7080  -11.0760 C   0  0  0  0  0
  -38.4930    6.4420   -8.5600 C   0  0  0  0  0
  -38.0060    7.5030   -7.5590 C   0  0  0  0  0
  -38.9230    9.1610   -9.0810 C   0  0  0  0  0
  -39.1290   10.5150   -9.3240 C   0  0  0  0  0
  -41.0290   10.0250  -10.7270 C   0  0  0  0  0
  -34.2870    6.6360   -7.4600 C   0  0  0  0  0
  -35.3780    5.7760   -5.5060 C   0  0  0  0  0
  -38.7690    5.1990   -7.8650 C   0  0  0  0  0
  -33.0980    5.3820   -5.8270 F   0  0  0  0  0
  -34.2290    5.9450   -6.2620 C   0  0  0  0  0
  -35.5190    7.1610   -7.8660 C   0  0  0  0  0
  -36.5920    6.3140   -5.9120 C   0  0  0  0  0
  -36.6760    6.9950   -7.1030 C   0  0  0  0  0
  -39.6950    4.9420   -6.9230 N   0  0  0  0  0
  -39.5230    3.6600   -6.5080 C   0  0  0  0  0
  -38.4950    3.0980   -7.1600 N   0  0  0  0  0
  -38.0210    4.0920   -7.9840 N   0  0  0  0  0
  -36.8600    3.7330   -8.8370 C   0  0  0  0  0
  -39.6140    6.9070   -9.4140 C   0  0  0  0  0
  -39.7910    8.2500   -9.6550 C   0  0  0  0  0
  -40.1570   10.9310  -10.1200 C   0  0  0  0  0
  -40.3190   12.2290  -10.2750 F   0  0  0  0  0
  -40.8500    8.6650  -10.4760 C   0  0  0  0  0
  -42.6010    8.0090  -11.8350 O   0  0  0  0  0
  -41.4670    6.4270  -10.8460 N   0  0  0  0  0
  -37.1027    9.3868   -8.1475 H   0  0  0  0  0
  -37.6876    6.2545   -9.2701 H   0  0  0  0  0
  -38.6600    7.6646   -6.7021 H   0  0  0  0  0
  -38.4629   11.2513   -8.8743 H   0  0  0  0  0
  -41.8294   10.3720  -11.3805 H   0  0  0  0  0
  -33.3949    6.7680   -8.0722 H   0  0  0  0  0
  -35.3279    5.2104   -4.5756 H   0  0  0  0  0
  -35.5767    7.7144   -8.8033 H   0  0  0  0  0
  -37.4773    6.1964   -5.2870 H   0  0  0  0  0
  -40.1322    3.1608   -5.7545 H   0  0  0  0  0
  -37.1460    3.8042   -9.8864 H   0  0  0  0  0
  -36.0372    4.4190   -8.6360 H   0  0  0  0  0
  -36.5475    2.7131   -8.6127 H   0  0  0  0  0
  -42.0662    5.7269  -11.2832 H   0  0  0  0  0
 22  1  2  0  0  0
  1 28  1  0  0  0
  5  2  1  0  0  0
  2  6  1  0  0  0
  3 26  1  0  0  0
  3 27  2  0  0  0
 28  3  1  0  0  0
  5  4  1  0  0  0
  4 11  1  0  0  0
  4 22  1  0  0  0
 16  5  1  0  0  0
  6  7  4  0  0  0
  6 23  4  0  0  0
  7 24  4  0  0  0
 24  8  4  0  0  0
  8 26  4  0  0  0
  9 13  4  0  0  0
 14  9  4  0  0  0
 13 10  4  0  0  0
 10 15  4  0  0  0
 11 17  4  0  0  0
 11 20  4  0  0  0
 13 12  1  0  0  0
 14 16  4  0  0  0
 15 16  4  0  0  0
 17 18  4  0  0  0
 18 19  4  0  0  0
 19 20  4  0  0  0
 20 21  1  0  0  0
 22 23  1  0  0  0
 23 26  4  0  0  0
 24 25  1  0  0  0
  2 29  1  0  0  0
  4 30  1  0  0  0
  5 31  1  0  0  0
  7 32  1  0  0  0
  8 33  1  0  0  0
  9 34  1  0  0  0
 10 35  1  0  0  0
 14 36  1  0  0  0
 15 37  1  0  0  0
 18 38  1  0  0  0
 21 39  1  0  0  0
 21 40  1  0  0  0
 21 41  1  0  0  0
 28 42  1  0  0  0
M  END
$$$$
