### 
### Created by X-TOOL on Wed Jan  1 15:39:35 2020
### 

@<TRIPOS>MOLECULE
5yba_ligand
  105   108     1     0     0
SMALL
GAST_HUCK


@<TRIPOS>ATOM
      1 N          -8.1570   -0.6110   -1.8130 N.4       1 TYR         0.2392
      2 CA         -8.9650    0.4370   -1.1900 C.3       1 TYR         0.0730
      3 C          -8.1800    1.1210   -0.0750 C.2       1 TYR         0.2284
      4 O          -7.5970    0.4540    0.7830 O.2       1 TYR        -0.3905
      5 CB        -10.2710   -0.1360   -0.6330 C.3       1 TYR         0.0365
      6 CG        -11.3190    0.9080   -0.2560 C.ar      1 TYR        -0.0460
      7 CD1       -12.3280    1.2530   -1.1440 C.ar      1 TYR        -0.0684
      8 CD2       -11.3000    1.5390    0.9860 C.ar      1 TYR        -0.0684
      9 CE1       -13.2920    2.1970   -0.8140 C.ar      1 TYR        -0.0398
     10 CE2       -12.2620    2.4850    1.3250 C.ar      1 TYR        -0.0398
     11 CZ        -13.2560    2.8090    0.4200 C.ar      1 TYR         0.0805
     12 OH        -14.2310    3.7450    0.7290 O.3       1 TYR        -0.3376
     13 N          -8.1890    2.4510   -0.0890 N.am      1 GLY        -0.2636
     14 CA         -7.4190    3.2390    0.8450 C.3       1 GLY         0.1204
     15 C          -6.4060    4.1030    0.1270 C.2       1 GLY         0.2032
     16 O          -6.4490    4.2530   -1.0980 O.2       1 GLY        -0.3945
     17 N          -5.4600    4.6760    0.8710 N.am      1 PRO        -0.2501
     18 CA         -4.4710    5.5590    0.2540 C.3       1 PRO         0.1338
     19 C          -3.3640    4.7660   -0.4160 C.2       1 PRO         0.2041
     20 O          -2.9330    3.7260    0.0820 O.2       1 PRO        -0.3944
     21 CB         -3.9340    6.3560    1.4470 C.3       1 PRO        -0.0104
     22 CG         -4.0330    5.3900    2.5810 C.3       1 PRO        -0.0281
     23 CD         -5.3260    4.6520    2.3390 C.3       1 PRO         0.0369
     24 N          -2.8980    5.2750   -1.5550 N.am      1 LYS        -0.2637
     25 CA         -1.8140    4.6640   -2.3200 C.3       1 LYS         0.1310
     26 C          -0.4700    5.2770   -1.9250 C.2       1 LYS         0.2040
     27 O          -0.3920    6.4400   -1.5200 O.2       1 LYS        -0.3944
     28 CB         -2.0470    4.8440   -3.8280 C.3       1 LYS        -0.0122
     29 CG         -1.8660    6.2900   -4.3520 C.3       1 LYS        -0.0440
     30 CD         -3.0390    7.2100   -3.9980 C.3       1 LYS        -0.0124
     31 CE         -2.6860    8.6690   -4.2310 C.3       1 LYS        -0.0354
     32 NZ         -3.8910    9.5120   -4.0410 N.4       1 LYS         0.2185
     33 N           0.5990    4.4870   -2.0360 N.am      1 TRP        -0.2627
     34 CA          1.9380    4.9980   -1.7560 C.3       1 TRP         0.1351
     35 C           2.5650    5.5110   -3.0510 C.2       1 TRP         0.2047
     36 O           2.7310    4.7460   -4.0110 O.2       1 TRP        -0.3943
     37 CB          2.8390    3.9370   -1.1170 C.3       1 TRP         0.0042
     38 CG          4.2880    4.4010   -1.0630 C.2       1 TRP        -0.0418
     39 CD1         5.2150    4.3270   -2.0760 C.2       1 TRP         0.0167
     40 CD2         4.9590    5.0370    0.0400 C.ar      1 TRP        -0.0214
     41 NE1         6.4120    4.8730   -1.6680 N.pl3     1 TRP        -0.2890
     42 CE2         6.2830    5.3120   -0.3750 C.ar      1 TRP         0.0603
     43 CE3         4.5750    5.3880    1.3370 C.ar      1 TRP        -0.0747
     44 CZ2         7.2190    5.9290    0.4640 C.ar      1 TRP        -0.0443
     45 CZ3         5.5120    6.0030    2.1750 C.ar      1 TRP        -0.0792
     46 CH2         6.8100    6.2680    1.7320 C.ar      1 TRP        -0.0768
     47 N           2.9080    6.8050   -3.0730 N.am      1 ASN        -0.2673
     48 CA          3.7250    7.4050   -4.1420 C.3       1 ASN         0.1110
     49 C           5.0600    7.8760   -3.5700 C.2       1 ASN         0.0624
     50 O           5.2280    9.0610   -3.2680 O.co2     1 ASN        -0.5665
     51 CB          3.0230    8.5970   -4.8150 C.3       1 ASN         0.0718
     52 CG          1.6680    8.2340   -5.4150 C.2       1 ASN         0.1774
     53 OD1         1.1180    7.1720   -5.1370 O.2       1 ASN        -0.3971
     54 ND2         1.1230    9.1270   -6.2410 N.am      1 ASN        -0.3007
     55 OXT         5.9860    7.0770   -3.4030 O.co2     1 ASN        -0.5665
     56 H1         -8.6882   -1.0533   -2.5467 H         1 TYR         0.2017
     57 H2         -7.9051   -1.2980   -1.1197 H         1 TYR         0.2017
     58 H3         -7.3209   -0.2041   -2.2021 H         1 TYR         0.2017
     59 H4         -9.2119    1.1866   -1.9562 H         1 TYR         0.1120
     60 H5        -10.0316   -0.7210    0.2673 H         1 TYR         0.0486
     61 H6        -10.7068   -0.7983   -1.3955 H         1 TYR         0.0486
     62 H7        -12.3647    0.7754   -2.1164 H         1 TYR         0.0530
     63 H8        -10.5232    1.2888    1.6995 H         1 TYR         0.0530
     64 H9        -14.0699    2.4514   -1.5248 H         1 TYR         0.0525
     65 H10       -12.2325    2.9667    2.2957 H         1 TYR         0.0525
     66 H11       -14.8244    3.8373   -0.0071 H         1 TYR         0.2458
     67 H12        -8.7489    2.9222   -0.7705 H         1 GLY         0.1882
     68 H13        -6.8904    2.5637    1.5339 H         1 GLY         0.0763
     69 H14        -8.1010    3.8856    1.4166 H         1 GLY         0.0763
     70 H15        -4.9425    6.2235   -0.4850 H         1 PRO         0.0802
     71 H16        -4.5505    7.2475    1.6344 H         1 PRO         0.0313
     72 H17        -2.8904    6.6605    1.2793 H         1 PRO         0.0313
     73 H18        -4.0637    5.9222    3.5432 H         1 PRO         0.0287
     74 H19        -3.1813    4.6940    2.5739 H         1 PRO         0.0287
     75 H20        -5.2661    3.6191    2.7125 H         1 PRO         0.0524
     76 H21        -6.1701    5.1676    2.8203 H         1 PRO         0.0524
     77 H22        -3.3104    6.1167   -1.9036 H         1 LYS         0.1883
     78 H23        -1.7903    3.5877   -2.0940 H         1 LYS         0.0800
     79 H24        -3.0753    4.5256   -4.0545 H         1 LYS         0.0312
     80 H25        -1.3364    4.1964   -4.3624 H         1 LYS         0.0312
     81 H26        -1.7666    6.2555   -5.4469 H         1 LYS         0.0269
     82 H27        -0.9482    6.7088   -3.9134 H         1 LYS         0.0269
     83 H28        -3.2979    7.0689   -2.9383 H         1 LYS         0.0317
     84 H29        -3.9034    6.9460   -4.6250 H         1 LYS         0.0317
     85 H30        -2.3101    8.7948   -5.2571 H         1 LYS         0.0813
     86 H31        -1.9088    8.9758   -3.5156 H         1 LYS         0.0813
     87 H32        -3.6525   10.4790   -4.1965 H         1 LYS         0.1994
     88 H33        -4.2360    9.3981   -3.1008 H         1 LYS         0.1994
     89 H34        -4.6037    9.2322   -4.6966 H         1 LYS         0.1994
     90 H35         0.4821    3.5336   -2.3142 H         1 TRP         0.1884
     91 H36         1.8465    5.8382   -1.0519 H         1 TRP         0.0815
     92 H37         2.7807    3.0128   -1.7106 H         1 TRP         0.0397
     93 H38         2.4882    3.7382   -0.0936 H         1 TRP         0.0397
     94 H39         5.0294    3.8982   -3.0597 H         1 TRP         0.0795
     95 H40         7.2653    4.9406   -2.2409 H         1 TRP         0.2216
     96 H41         3.5691    5.1874    1.6878 H         1 TRP         0.0540
     97 H42         8.2288    6.1319    0.1262 H         1 TRP         0.0541
     98 H43         5.2260    6.2781    3.1838 H         1 TRP         0.0510
     99 H44         7.5105    6.7518    2.4031 H         1 TRP         0.0530
    100 H45         2.5943    7.3929   -2.3274 H         1 ASN         0.1877
    101 H46         3.9141    6.6357   -4.9052 H         1 ASN         0.0752
    102 H47         3.6711    8.9765   -5.6187 H         1 ASN         0.0544
    103 H48         2.8725    9.3849   -4.0623 H         1 ASN         0.0544
    104 H49         0.2357    8.9413   -6.6632 H         1 ASN         0.1814
    105 H50         1.6014    9.9826   -6.4385 H         1 ASN         0.1814
@<TRIPOS>BOND
     1    1    2 1  
     2    2    3 1  
     3    2    5 1  
     4    3    4 2  
     5    3   13 am 
     6    5    6 1  
     7    6    7 ar 
     8    6    8 ar 
     9    7    9 ar 
    10    8   10 ar 
    11    9   11 ar 
    12   10   11 ar 
    13   11   12 1  
    14   13   14 1  
    15   14   15 1  
    16   15   16 2  
    17   15   17 am 
    18   17   18 1  
    19   17   23 1  
    20   18   19 1  
    21   18   21 1  
    22   19   20 2  
    23   19   24 am 
    24   21   22 1  
    25   22   23 1  
    26   24   25 1  
    27   25   26 1  
    28   25   28 1  
    29   26   27 2  
    30   26   33 am 
    31   28   29 1  
    32   29   30 1  
    33   30   31 1  
    34   31   32 1  
    35   33   34 1  
    36   34   35 1  
    37   34   37 1  
    38   35   36 2  
    39   35   47 am 
    40   37   38 1  
    41   38   39 2  
    42   38   40 1  
    43   39   41 1  
    44   40   42 ar 
    45   40   43 ar 
    46   41   42 1  
    47   42   44 ar 
    48   43   45 ar 
    49   44   46 ar 
    50   45   46 ar 
    51   47   48 1  
    52   48   49 1  
    53   48   51 1  
    54   49   50 ar 
    55   49   55 ar 
    56   51   52 1  
    57   52   53 2  
    58   52   54 am 
    59    1   56 1  
    60    1   57 1  
    61    1   58 1  
    62    2   59 1  
    63    5   60 1  
    64    5   61 1  
    65    7   62 1  
    66    8   63 1  
    67    9   64 1  
    68   10   65 1  
    69   12   66 1  
    70   13   67 1  
    71   14   68 1  
    72   14   69 1  
    73   18   70 1  
    74   21   71 1  
    75   21   72 1  
    76   22   73 1  
    77   22   74 1  
    78   23   75 1  
    79   23   76 1  
    80   24   77 1  
    81   25   78 1  
    82   28   79 1  
    83   28   80 1  
    84   29   81 1  
    85   29   82 1  
    86   30   83 1  
    87   30   84 1  
    88   31   85 1  
    89   31   86 1  
    90   32   87 1  
    91   32   88 1  
    92   32   89 1  
    93   33   90 1  
    94   34   91 1  
    95   37   92 1  
    96   37   93 1  
    97   39   94 1  
    98   41   95 1  
    99   43   96 1  
   100   44   97 1  
   101   45   98 1  
   102   46   99 1  
   103   47  100 1  
   104   48  101 1  
   105   51  102 1  
   106   51  103 1  
   107   54  104 1  
   108   54  105 1  
@<TRIPOS>SUBSTRUCTURE
     1 TYR         1

