5yba_ligand
  -I-interpret- 

105108  0  0  0  0  0  0  0  0999 V2000
   -8.1570   -0.6110   -1.8130 N   0  3  0  0  0
   -8.9650    0.4370   -1.1900 C   0  0  0  0  0
   -8.1800    1.1210   -0.0750 C   0  0  0  0  0
   -7.5970    0.4540    0.7830 O   0  0  0  0  0
  -10.2710   -0.1360   -0.6330 C   0  0  0  0  0
  -11.3190    0.9080   -0.2560 C   0  0  0  0  0
  -12.3280    1.2530   -1.1440 C   0  0  0  0  0
  -11.3000    1.5390    0.9860 C   0  0  0  0  0
  -13.2920    2.1970   -0.8140 C   0  0  0  0  0
  -12.2620    2.4850    1.3250 C   0  0  0  0  0
  -13.2560    2.8090    0.4200 C   0  0  0  0  0
  -14.2310    3.7450    0.7290 O   0  0  0  0  0
   -8.1890    2.4510   -0.0890 N   0  0  0  0  0
   -7.4190    3.2390    0.8450 C   0  0  0  0  0
   -6.4060    4.1030    0.1270 C   0  0  0  0  0
   -6.4490    4.2530   -1.0980 O   0  0  0  0  0
   -5.4600    4.6760    0.8710 N   0  0  0  0  0
   -4.4710    5.5590    0.2540 C   0  0  0  0  0
   -3.3640    4.7660   -0.4160 C   0  0  0  0  0
   -2.9330    3.7260    0.0820 O   0  0  0  0  0
   -3.9340    6.3560    1.4470 C   0  0  0  0  0
   -4.0330    5.3900    2.5810 C   0  0  0  0  0
   -5.3260    4.6520    2.3390 C   0  0  0  0  0
   -2.8980    5.2750   -1.5550 N   0  0  0  0  0
   -1.8140    4.6640   -2.3200 C   0  0  0  0  0
   -0.4700    5.2770   -1.9250 C   0  0  0  0  0
   -0.3920    6.4400   -1.5200 O   0  0  0  0  0
   -2.0470    4.8440   -3.8280 C   0  0  0  0  0
   -1.8660    6.2900   -4.3520 C   0  0  0  0  0
   -3.0390    7.2100   -3.9980 C   0  0  0  0  0
   -2.6860    8.6690   -4.2310 C   0  0  0  0  0
   -3.8910    9.5120   -4.0410 N   0  3  0  0  0
    0.5990    4.4870   -2.0360 N   0  0  0  0  0
    1.9380    4.9980   -1.7560 C   0  0  0  0  0
    2.5650    5.5110   -3.0510 C   0  0  0  0  0
    2.7310    4.7460   -4.0110 O   0  0  0  0  0
    2.8390    3.9370   -1.1170 C   0  0  0  0  0
    4.2880    4.4010   -1.0630 C   0  0  0  0  0
    5.2150    4.3270   -2.0760 C   0  0  0  0  0
    4.9590    5.0370    0.0400 C   0  0  0  0  0
    6.4120    4.8730   -1.6680 N   0  0  0  0  0
    6.2830    5.3120   -0.3750 C   0  0  0  0  0
    4.5750    5.3880    1.3370 C   0  0  0  0  0
    7.2190    5.9290    0.4640 C   0  0  0  0  0
    5.5120    6.0030    2.1750 C   0  0  0  0  0
    6.8100    6.2680    1.7320 C   0  0  0  0  0
    2.9080    6.8050   -3.0730 N   0  0  0  0  0
    3.7250    7.4050   -4.1420 C   0  0  0  0  0
    5.0600    7.8760   -3.5700 C   0  0  0  0  0
    5.2280    9.0610   -3.2680 O   0  0  0  0  0
    3.0230    8.5970   -4.8150 C   0  0  0  0  0
    1.6680    8.2340   -5.4150 C   0  0  0  0  0
    1.1180    7.1720   -5.1370 O   0  0  0  0  0
    1.1230    9.1270   -6.2410 N   0  0  0  0  0
    5.9860    7.0770   -3.4030 O   0  0  0  0  0
   -7.2947   -0.2038   -2.1750 H   0  0  0  0  0
   -7.9325   -1.3236   -1.1186 H   0  0  0  0  0
   -8.6822   -1.0339   -2.5783 H   0  0  0  0  0
   -9.2101    1.1728   -1.9559 H   0  0  0  0  0
  -10.0166   -0.6731    0.2807 H   0  0  0  0  0
  -10.7069   -0.7522   -1.4193 H   0  0  0  0  0
  -12.3649    0.7727   -2.1218 H   0  0  0  0  0
  -10.5190    1.2874    1.7035 H   0  0  0  0  0
  -14.0742    2.4528   -1.5287 H   0  0  0  0  0
  -12.2323    2.9693    2.3010 H   0  0  0  0  0
  -14.0788    4.0836    1.6143 H   0  0  0  0  0
   -8.7601    2.9316   -0.7842 H   0  0  0  0  0
   -6.8873    2.5632    1.5148 H   0  0  0  0  0
   -8.0996    3.8869    1.3974 H   0  0  0  0  0
   -4.8892    6.1870   -0.5326 H   0  0  0  0  0
   -4.4973    7.2717    1.6266 H   0  0  0  0  0
   -2.9163    6.7127    1.2884 H   0  0  0  0  0
   -4.0255    5.8936    3.5477 H   0  0  0  0  0
   -3.1784    4.7144    2.6172 H   0  0  0  0  0
   -5.3135    3.6397    2.7429 H   0  0  0  0  0
   -6.1738    5.1133    2.8455 H   0  0  0  0  0
   -3.3186    6.1335   -1.9106 H   0  0  0  0  0
   -1.7971    3.5980   -2.0930 H   0  0  0  0  0
   -3.0836    4.5675   -4.0208 H   0  0  0  0  0
   -1.3031    4.2304   -4.3362 H   0  0  0  0  0
   -1.7995    6.2421   -5.4389 H   0  0  0  0  0
   -0.9707    6.7012   -3.8857 H   0  0  0  0  0
   -3.2796    7.0754   -2.9434 H   0  0  0  0  0
   -3.8862    6.9522   -4.6335 H   0  0  0  0  0
   -2.3156    8.7928   -5.2486 H   0  0  0  0  0
   -1.9174    8.9724   -3.5202 H   0  0  0  0  0
   -3.6485   10.4901   -4.1986 H   0  0  0  0  0
   -4.6114    9.2279   -4.7049 H   0  0  0  0  0
   -4.2391    9.3958   -3.0893 H   0  0  0  0  0
    0.4798    3.5146   -2.3198 H   0  0  0  0  0
    1.8437    5.8130   -1.0384 H   0  0  0  0  0
    2.7875    3.0299   -1.7192 H   0  0  0  0  0
    2.4943    3.7568   -0.0988 H   0  0  0  0  0
    5.0292    3.8978   -3.0606 H   0  0  0  0  0
    3.5636    5.1863    1.6897 H   0  0  0  0  0
    8.2344    6.1330    0.1243 H   0  0  0  0  0
    5.2244    6.2796    3.1894 H   0  0  0  0  0
    7.5144    6.7545    2.4068 H   0  0  0  0  0
    2.5880    7.4047   -2.3125 H   0  0  0  0  0
    3.8806    6.6346   -4.8973 H   0  0  0  0  0
    3.6627    8.9421   -5.6272 H   0  0  0  0  0
    2.8539    9.3558   -4.0510 H   0  0  0  0  0
    0.2159    8.9396   -6.6681 H   0  0  0  0  0
    1.6131    9.9978   -6.4460 H   0  0  0  0  0
    5.7063    6.2019   -3.6815 H   0  0  0  0  0
  1  2  1  0  0  0
  2  3  1  0  0  0
  2  5  1  0  0  0
  3  4  2  0  0  0
  3 13  1  0  0  0
  5  6  1  0  0  0
  6  7  4  0  0  0
  6  8  4  0  0  0
  7  9  4  0  0  0
  8 10  4  0  0  0
  9 11  4  0  0  0
 10 11  4  0  0  0
 11 12  1  0  0  0
 13 14  1  0  0  0
 14 15  1  0  0  0
 15 16  2  0  0  0
 15 17  1  0  0  0
 17 18  1  0  0  0
 17 23  1  0  0  0
 18 19  1  0  0  0
 18 21  1  0  0  0
 19 20  2  0  0  0
 19 24  1  0  0  0
 21 22  1  0  0  0
 22 23  1  0  0  0
 24 25  1  0  0  0
 25 26  1  0  0  0
 25 28  1  0  0  0
 26 27  2  0  0  0
 26 33  1  0  0  0
 28 29  1  0  0  0
 29 30  1  0  0  0
 30 31  1  0  0  0
 31 32  1  0  0  0
 33 34  1  0  0  0
 34 35  1  0  0  0
 34 37  1  0  0  0
 35 36  2  0  0  0
 35 47  1  0  0  0
 37 38  1  0  0  0
 38 39  4  0  0  0
 38 40  4  0  0  0
 39 41  4  0  0  0
 40 42  4  0  0  0
 40 43  4  0  0  0
 41 42  4  0  0  0
 42 44  4  0  0  0
 43 45  4  0  0  0
 44 46  4  0  0  0
 45 46  4  0  0  0
 47 48  1  0  0  0
 48 49  1  0  0  0
 48 51  1  0  0  0
 49 50  2  0  0  0
 49 55  1  0  0  0
 51 52  1  0  0  0
 52 53  2  0  0  0
 52 54  1  0  0  0
  1 56  1  0  0  0
  1 57  1  0  0  0
  1 58  1  0  0  0
  2 59  1  0  0  0
  5 60  1  0  0  0
  5 61  1  0  0  0
  7 62  1  0  0  0
  8 63  1  0  0  0
  9 64  1  0  0  0
 10 65  1  0  0  0
 12 66  1  0  0  0
 13 67  1  0  0  0
 14 68  1  0  0  0
 14 69  1  0  0  0
 18 70  1  0  0  0
 21 71  1  0  0  0
 21 72  1  0  0  0
 22 73  1  0  0  0
 22 74  1  0  0  0
 23 75  1  0  0  0
 23 76  1  0  0  0
 24 77  1  0  0  0
 25 78  1  0  0  0
 28 79  1  0  0  0
 28 80  1  0  0  0
 29 81  1  0  0  0
 29 82  1  0  0  0
 30 83  1  0  0  0
 30 84  1  0  0  0
 31 85  1  0  0  0
 31 86  1  0  0  0
 32 87  1  0  0  0
 32 88  1  0  0  0
 32 89  1  0  0  0
 33 90  1  0  0  0
 34 91  1  0  0  0
 37 92  1  0  0  0
 37 93  1  0  0  0
 39 94  1  0  0  0
 43 95  1  0  0  0
 44 96  1  0  0  0
 45 97  1  0  0  0
 46 98  1  0  0  0
 47 99  1  0  0  0
 48100  1  0  0  0
 51101  1  0  0  0
 51102  1  0  0  0
 54103  1  0  0  0
 54104  1  0  0  0
 55105  1  0  0  0
M  END
$$$$
