6h52_ligand
  -I-interpret- 

 39 42  0  0  0  0  0  0  0  0999 V2000
   87.8020   64.5400   14.2610 C   0  0  0  0  0
   81.4630   63.8390   11.4050 C   0  0  0  0  0
   82.0110   62.5600   11.6120 C   0  0  0  0  0
   85.7440   64.2520   12.9510 C   0  0  0  0  0
   87.9550   63.2350   14.0990 N   0  0  0  0  0
   87.0750   62.4720   13.4160 C   0  0  0  0  0
   80.5590   60.8110   12.6980 C   0  0  0  0  0
   81.3270   61.2330   11.4450 C   0  0  0  0  0
   83.3100   62.8110   11.9660 C   0  0  0  0  0
   80.3850   61.2130   10.2410 C   0  0  0  0  0
   88.5520   65.1820   14.9780 O   0  0  0  0  0
   86.6320   65.1120   13.6120 C   0  0  0  0  0
   86.4410   66.4870   13.5990 C   0  0  0  0  0
   85.9730   62.9070   12.8490 N   0  0  0  0  0
   84.6240   64.8790   12.3470 C   0  0  0  0  0
   84.4710   66.1980   12.2680 N   0  0  0  0  0
   85.3650   66.9710   12.8910 C   0  0  0  0  0
   83.4840   64.1470   11.9480 N   0  0  0  0  0
   82.3420   64.8030   11.5990 N   0  0  0  0  0
   79.7290   59.8440   10.1170 C   0  0  0  0  0
   78.9750   59.5050   11.3270 N   0  3  0  0  0
   79.8960   59.4600   12.4670 C   0  0  0  0  0
   80.4266   64.0140   11.1162 H   0  0  0  0  0
   88.7742   62.7859   14.5084 H   0  0  0  0  0
   87.2972   61.4085   13.3280 H   0  0  0  0  0
   79.7934   61.5548   12.9187 H   0  0  0  0  0
   81.2518   60.7336   13.5360 H   0  0  0  0  0
   82.1284   60.5147   11.2720 H   0  0  0  0  0
   84.0652   62.0660   12.2166 H   0  0  0  0  0
   80.9551   61.4213    9.3356 H   0  0  0  0  0
   79.6128   61.9702   10.3767 H   0  0  0  0  0
   87.1174   67.1574   14.1293 H   0  0  0  0  0
   85.2339   68.0516   12.8350 H   0  0  0  0  0
   80.5092   59.0966    9.9728 H   0  0  0  0  0
   79.0402   59.8639    9.2724 H   0  0  0  0  0
   78.5280   58.5957   11.2101 H   0  0  0  0  0
   78.2565   60.2097   11.4931 H   0  0  0  0  0
   79.3296   59.1948   13.3597 H   0  0  0  0  0
   80.6724   58.7245   12.2564 H   0  0  0  0  0
  1  5  1  0  0  0
  1 11  2  0  0  0
 12  1  1  0  0  0
  3  2  4  0  0  0
  2 19  4  0  0  0
  3  8  1  0  0  0
  9  3  4  0  0  0
  4 12  4  0  0  0
  4 14  1  0  0  0
 15  4  4  0  0  0
  6  5  1  0  0  0
 14  6  2  0  0  0
  8  7  1  0  0  0
  7 22  1  0  0  0
  8 10  1  0  0  0
 18  9  4  0  0  0
 10 20  1  0  0  0
 12 13  4  0  0  0
 13 17  4  0  0  0
 15 16  4  0  0  0
 15 18  1  0  0  0
 16 17  4  0  0  0
 18 19  4  0  0  0
 20 21  1  0  0  0
 21 22  1  0  0  0
  2 23  1  0  0  0
  5 24  1  0  0  0
  6 25  1  0  0  0
  7 26  1  0  0  0
  7 27  1  0  0  0
  8 28  1  0  0  0
  9 29  1  0  0  0
 10 30  1  0  0  0
 10 31  1  0  0  0
 13 32  1  0  0  0
 17 33  1  0  0  0
 20 34  1  0  0  0
 20 35  1  0  0  0
 21 36  1  0  0  0
 21 37  1  0  0  0
 22 38  1  0  0  0
 22 39  1  0  0  0
M  END
$$$$
