3fvl_ligand
  -I-interpret- 

 30 30  0  0  0  0  0  0  0  0999 V2000
  -27.0000    0.6110   -8.8690 C   0  0  0  0  0
  -28.2910    0.1580   -8.6170 C   0  0  0  0  0
  -28.7030   -0.0690   -7.3090 C   0  0  0  0  0
  -27.8240    0.1550   -6.2550 C   0  0  0  0  0
  -26.5330    0.6060   -6.5100 C   0  0  0  0  0
  -26.1200    0.8370   -7.8170 C   0  0  0  0  0
  -24.7100    1.3740   -8.0790 C   0  0  0  0  0
  -23.8660    0.4410   -8.9500 C   0  0  0  0  0
  -24.4280    0.4130  -10.3740 C   0  0  0  0  0
  -24.6820   -0.7090  -10.8640 O   0  0  0  0  0
  -24.5940    1.5150  -10.9390 O   0  0  0  0  0
  -22.4370    0.9880   -8.9940 C   0  0  0  0  0
  -21.4980    0.0780   -9.7910 C   0  0  0  0  0
  -21.1710   -1.0220   -9.3500 O   0  0  0  0  0
  -20.9490    0.5640  -11.1350 C   0  0  0  0  0
  -19.6300    0.0600  -11.3630 O   0  0  0  0  0
  -26.6775    0.7893   -9.8948 H   0  0  0  0  0
  -28.9785   -0.0187   -9.4442 H   0  0  0  0  0
  -29.7146   -0.4224   -7.1096 H   0  0  0  0  0
  -28.1466   -0.0228   -5.2291 H   0  0  0  0  0
  -25.8439    0.7786   -5.6833 H   0  0  0  0  0
  -24.2085    1.4728   -7.1163 H   0  0  0  0  0
  -24.8091    2.3220   -8.6078 H   0  0  0  0  0
  -23.8819   -0.5672   -8.5360 H   0  0  0  0  0
  -24.4647   -1.3923  -10.2257 H   0  0  0  0  0
  -22.0644    1.0501   -7.9715 H   0  0  0  0  0
  -22.4604    1.9631   -9.4805 H   0  0  0  0  0
  -20.9097    1.6532  -11.1232 H   0  0  0  0  0
  -21.6026    0.2049  -11.9299 H   0  0  0  0  0
  -19.3090    0.3782  -12.2099 H   0  0  0  0  0
  1  2  4  0  0  0
  1  6  4  0  0  0
  2  3  4  0  0  0
  3  4  4  0  0  0
  4  5  4  0  0  0
  5  6  4  0  0  0
  6  7  1  0  0  0
  7  8  1  0  0  0
  8  9  1  0  0  0
  8 12  1  0  0  0
  9 10  1  0  0  0
  9 11  2  0  0  0
 12 13  1  0  0  0
 13 14  2  0  0  0
 13 15  1  0  0  0
 15 16  1  0  0  0
  1 17  1  0  0  0
  2 18  1  0  0  0
  3 19  1  0  0  0
  4 20  1  0  0  0
  5 21  1  0  0  0
  7 22  1  0  0  0
  7 23  1  0  0  0
  8 24  1  0  0  0
 10 25  1  0  0  0
 12 26  1  0  0  0
 12 27  1  0  0  0
 15 28  1  0  0  0
 15 29  1  0  0  0
 16 30  1  0  0  0
M  END
$$$$
