4wi1_ligand
  -I-interpret- 

 41 43  0  0  0  0  0  0  0  0999 V2000
   -3.7490   25.6320   27.1190 C   0  0  0  0  0
   -1.7560   24.4440   27.9010 C   0  0  0  0  0
    1.6060   23.3070   30.4750 C   0  0  0  0  0
    2.5930   22.5770   29.8500 C   0  0  0  0  0
    1.2350   22.3130   27.9010 C   0  0  0  0  0
   -2.0790   27.1340   26.0470 C   0  0  0  0  0
   -3.3650   26.8080   26.6490 N   0  0  0  0  0
   -4.3830   27.6860   26.8180 N   0  0  0  0  0
   -5.3980   27.0570   27.3840 C   0  0  0  0  0
   -5.0470   25.7250   27.5870 C   0  0  0  0  0
   -5.7960   24.7100   28.1730 C   0  0  0  0  0
   -5.2510   24.0290   29.2460 C   0  0  0  0  0
   -5.9560   23.0180   29.8670 C   0  0  0  0  0
   -7.2150   22.6880   29.4140 C   0  0  0  0  0
   -7.8970   21.6940   30.0350 F   0  0  0  0  0
   -7.7730   23.3630   28.3410 C   0  0  0  0  0
   -7.0590   24.3750   27.7220 C   0  0  0  0  0
   -2.9260   24.4560   27.0820 N   0  0  0  0  0
   -1.4840   25.3640   28.6010 O   0  0  0  0  0
   -0.9620   23.2560   27.8060 N   0  0  0  0  0
    0.2500   23.0440   28.5310 C   0  0  0  0  0
    0.4230   23.5450   29.8120 C   0  0  0  0  0
    3.7480   22.3340   30.5130 F   0  0  0  0  0
    2.4190   22.0750   28.5700 C   0  0  0  0  0
   -6.7090   27.7280   27.7260 C   0  0  0  0  0
   -6.5420   29.0680   27.5810 F   0  0  0  0  0
   -7.0450   27.4290   29.0130 F   0  0  0  0  0
   -7.6680   27.2940   26.8610 F   0  0  0  0  0
    1.7599   23.6919   31.4831 H   0  0  0  0  0
    1.0815   21.9297   26.8922 H   0  0  0  0  0
   -1.2836   26.9456   26.7680 H   0  0  0  0  0
   -1.9251   26.5139   25.1639 H   0  0  0  0  0
   -2.0696   28.1856   25.7603 H   0  0  0  0  0
   -4.2560   24.2929   29.6044 H   0  0  0  0  0
   -5.5195   22.4837   30.7108 H   0  0  0  0  0
   -8.7691   23.0989   27.9857 H   0  0  0  0  0
   -7.4939   24.9088   26.8770 H   0  0  0  0  0
   -3.1678   23.6592   26.4930 H   0  0  0  0  0
   -1.2819   22.5154   27.1819 H   0  0  0  0  0
   -0.3694   24.1214   30.2894 H   0  0  0  0  0
    3.2112   21.4964   28.0949 H   0  0  0  0  0
  1  7  4  0  0  0
  1 10  4  0  0  0
 18  1  1  0  0  0
  2 18  1  0  0  0
  2 19  2  0  0  0
 20  2  1  0  0  0
  4  3  4  0  0  0
  3 22  4  0  0  0
  4 23  1  0  0  0
 24  4  4  0  0  0
 21  5  4  0  0  0
  5 24  4  0  0  0
  7  6  1  0  0  0
  7  8  4  0  0  0
  9  8  4  0  0  0
 10  9  4  0  0  0
  9 25  1  0  0  0
 10 11  1  0  0  0
 11 12  4  0  0  0
 11 17  4  0  0  0
 12 13  4  0  0  0
 13 14  4  0  0  0
 14 15  1  0  0  0
 16 14  4  0  0  0
 17 16  4  0  0  0
 20 21  1  0  0  0
 21 22  4  0  0  0
 25 26  1  0  0  0
 25 27  1  0  0  0
 25 28  1  0  0  0
  3 29  1  0  0  0
  5 30  1  0  0  0
  6 31  1  0  0  0
  6 32  1  0  0  0
  6 33  1  0  0  0
 12 34  1  0  0  0
 13 35  1  0  0  0
 16 36  1  0  0  0
 17 37  1  0  0  0
 18 38  1  0  0  0
 20 39  1  0  0  0
 22 40  1  0  0  0
 24 41  1  0  0  0
M  END
$$$$
