6dil_ligand
  -I-interpret- 

 75 78  0  0  0  0  0  0  0  0999 V2000
   13.3290   21.8950   62.8530 O   0  0  0  0  0
   12.1840   21.2230   63.1020 C   0  0  0  0  0
   12.1690   19.9290   63.6580 C   0  0  0  0  0
   13.4410   19.4290   63.9600 C   0  0  0  0  0
   14.6410   20.0240   63.5610 C   0  0  0  0  0
   14.5560   21.5470   63.4800 C   0  0  0  0  0
   11.1460   21.8260   62.7180 O   0  0  0  0  0
   13.5980   18.2010   64.4990 O   0  0  0  0  0
   14.7020   22.0100   64.9410 C   0  0  0  0  0
   14.5400   23.4850   65.1910 C   0  0  0  0  0
   14.6670   23.8490   66.6770 C   0  0  0  0  0
   15.6800   22.1480   62.6150 C   0  0  0  0  0
   15.7060   21.7420   61.1480 C   0  0  0  0  0
   16.7500   22.3580   60.4560 C   0  0  0  0  0
   16.5380   23.4950   59.6820 C   0  0  0  0  0
   17.5890   24.0670   58.9760 C   0  0  0  0  0
   18.8910   23.5880   59.1140 C   0  0  0  0  0
   19.1020   22.4070   59.8250 C   0  0  0  0  0
   18.0450   21.8620   60.5380 C   0  0  0  0  0
   10.9710   19.2310   63.8520 C   0  0  0  0  0
   10.7810   18.5360   65.1890 C   0  0  0  0  0
   10.8680   19.4360   66.4110 C   0  0  0  0  0
   10.5300   18.3750   62.8440 C   0  0  0  0  0
   11.4050   17.7650   61.9600 C   0  0  0  0  0
   10.9450   16.9020   60.9470 C   0  0  0  0  0
    9.5940   16.6530   60.7580 C   0  0  0  0  0
    8.6840   17.1580   61.7160 C   0  0  0  0  0
    7.3600   16.9880   61.4990 N   0  0  0  0  0
    9.1620   18.0450   62.6670 C   0  0  0  0  0
    6.6810   15.6270   62.1570 S   0  0  0  0  0
    5.2780   15.4100   61.6550 O   0  0  0  0  0
    7.5890   14.4170   61.7740 O   0  0  0  0  0
    6.8450   15.9370   63.8770 C   0  0  0  0  0
    7.8400   15.3600   64.5800 N   0  0  0  0  0
    7.9670   15.6390   65.9510 C   0  0  0  0  0
    7.0420   16.4570   66.6070 C   0  0  0  0  0
    6.0030   17.0370   65.8600 C   0  0  0  0  0
    5.8950   16.7250   64.5040 C   0  0  0  0  0
    7.2040   16.8850   67.9180 C   0  0  0  0  0
    7.8230   16.0320   68.7150 F   0  0  0  0  0
    6.0570   17.3250   68.4070 F   0  0  0  0  0
    8.0220   17.9600   67.8810 F   0  0  0  0  0
   14.8803   19.6519   62.5648 H   0  0  0  0  0
   15.3983   19.7733   64.3038 H   0  0  0  0  0
   14.5326   18.0302   64.6363 H   0  0  0  0  0
   15.7208   21.7614   65.2383 H   0  0  0  0  0
   13.9039   21.5180   65.4970 H   0  0  0  0  0
   13.5430   23.7741   64.8587 H   0  0  0  0  0
   15.3295   24.0059   64.6493 H   0  0  0  0  0
   13.8975   23.3260   67.2449 H   0  0  0  0  0
   15.6517   23.5535   67.0393 H   0  0  0  0  0
   14.5417   24.9250   66.7982 H   0  0  0  0  0
   16.6145   21.7855   63.0432 H   0  0  0  0  0
   15.5222   23.2265   62.6251 H   0  0  0  0  0
   14.7651   22.0494   60.6915 H   0  0  0  0  0
   15.8502   20.6629   61.0945 H   0  0  0  0  0
   15.5437   23.9384   59.6295 H   0  0  0  0  0
   17.3927   24.9027   58.3042 H   0  0  0  0  0
   19.7297   24.1273   58.6737 H   0  0  0  0  0
   20.0782   21.9221   59.8203 H   0  0  0  0  0
   18.2381   21.0096   61.1894 H   0  0  0  0  0
   10.3327   20.1141   63.8233 H   0  0  0  0  0
   11.5889   17.8099   65.2795 H   0  0  0  0  0
    9.7744   18.1180   65.1818 H   0  0  0  0  0
   11.8505   19.9068   66.4447 H   0  0  0  0  0
   10.0974   20.2045   66.3503 H   0  0  0  0  0
   10.7183   18.8398   67.3111 H   0  0  0  0  0
   12.4740   17.9575   62.0507 H   0  0  0  0  0
   11.6702   16.4167   60.2939 H   0  0  0  0  0
    9.2435   16.0847   59.8964 H   0  0  0  0  0
    6.8110   17.6588   60.9614 H   0  0  0  0  0
    8.4361   18.5225   63.3251 H   0  0  0  0  0
    8.7985   15.2117   66.5114 H   0  0  0  0  0
    5.2942   17.7182   66.3309 H   0  0  0  0  0
    5.0506   17.1072   63.9304 H   0  0  0  0  0
  1  2  1  0  0  0
  1  6  1  0  0  0
  2  3  1  0  0  0
  2  7  2  0  0  0
  3  4  2  0  0  0
  3 20  1  0  0  0
  4  5  1  0  0  0
  4  8  1  0  0  0
  5  6  1  0  0  0
  6  9  1  0  0  0
  6 12  1  0  0  0
  9 10  1  0  0  0
 10 11  1  0  0  0
 12 13  1  0  0  0
 13 14  1  0  0  0
 14 15  4  0  0  0
 14 19  4  0  0  0
 15 16  4  0  0  0
 16 17  4  0  0  0
 17 18  4  0  0  0
 18 19  4  0  0  0
 20 21  1  0  0  0
 20 23  1  0  0  0
 21 22  1  0  0  0
 23 24  4  0  0  0
 23 29  4  0  0  0
 24 25  4  0  0  0
 25 26  4  0  0  0
 26 27  4  0  0  0
 27 28  1  0  0  0
 27 29  4  0  0  0
 28 30  1  0  0  0
 30 31  2  0  0  0
 30 32  2  0  0  0
 30 33  1  0  0  0
 33 34  4  0  0  0
 33 38  4  0  0  0
 34 35  4  0  0  0
 35 36  4  0  0  0
 36 37  4  0  0  0
 36 39  1  0  0  0
 37 38  4  0  0  0
 39 40  1  0  0  0
 39 41  1  0  0  0
 39 42  1  0  0  0
  5 43  1  0  0  0
  5 44  1  0  0  0
  8 45  1  0  0  0
  9 46  1  0  0  0
  9 47  1  0  0  0
 10 48  1  0  0  0
 10 49  1  0  0  0
 11 50  1  0  0  0
 11 51  1  0  0  0
 11 52  1  0  0  0
 12 53  1  0  0  0
 12 54  1  0  0  0
 13 55  1  0  0  0
 13 56  1  0  0  0
 15 57  1  0  0  0
 16 58  1  0  0  0
 17 59  1  0  0  0
 18 60  1  0  0  0
 19 61  1  0  0  0
 20 62  1  0  0  0
 21 63  1  0  0  0
 21 64  1  0  0  0
 22 65  1  0  0  0
 22 66  1  0  0  0
 22 67  1  0  0  0
 24 68  1  0  0  0
 25 69  1  0  0  0
 26 70  1  0  0  0
 28 71  1  0  0  0
 29 72  1  0  0  0
 35 73  1  0  0  0
 37 74  1  0  0  0
 38 75  1  0  0  0
M  END
$$$$
