4mwq_ligand
  -I-interpret- 

 47 47  0  0  0  0  0  0  0  0999 V2000
  -19.8350   64.9760  -23.7980 C   0  0  0  0  0
  -19.7720   65.3330  -22.6320 O   0  0  0  0  0
  -21.0120   65.0050  -24.5050 O   0  0  0  0  0
  -18.6680   64.3980  -24.4940 C   0  0  0  0  0
  -17.3220   64.0370  -23.7460 C   0  0  0  0  0
  -16.4720   62.9380  -24.3680 C   0  0  0  0  0
  -16.5120   62.7500  -25.8540 C   0  0  0  0  0
  -15.6550   61.7140  -26.3980 N   0  0  0  0  0
  -14.3760   61.9600  -27.0350 C   0  0  0  0  0
  -13.9320   63.0980  -27.1370 O   0  0  0  0  0
  -13.6060   60.7580  -27.5570 C   0  0  0  0  0
  -17.8330   62.9180  -26.5750 C   0  0  0  0  0
  -18.9960   63.6540  -25.8610 C   0  0  0  0  0
  -17.8560   62.9430  -27.9950 O   0  0  0  0  0
  -18.0590   61.7610  -28.7550 C   0  0  0  0  0
  -19.4600   61.1780  -28.6080 C   0  0  0  0  0
  -17.6170   61.9630  -30.1900 C   0  0  0  0  0
  -16.2020   62.4260  -30.3860 C   0  0  0  0  0
  -20.6250   62.0170  -29.0320 C   0  0  0  0  0
  -15.2080   62.6780  -23.7370 N   0  3  0  0  0
  -20.8558   64.6877  -25.3975 H   0  0  0  0  0
  -18.2123   65.3519  -24.7596 H   0  0  0  0  0
  -17.6130   63.6721  -22.7610 H   0  0  0  0  0
  -16.7121   64.9401  -23.7702 H   0  0  0  0  0
  -17.0791   62.0825  -24.0718 H   0  0  0  0  0
  -16.0156   63.6810  -26.1278 H   0  0  0  0  0
  -15.9735   60.7475  -26.3277 H   0  0  0  0  0
  -13.4464   60.8682  -28.6296 H   0  0  0  0  0
  -12.6433   60.6965  -27.0495 H   0  0  0  0  0
  -14.1781   59.8503  -27.3649 H   0  0  0  0  0
  -18.1215   61.8810  -26.4034 H   0  0  0  0  0
  -19.3146   64.4358  -26.5505 H   0  0  0  0  0
  -19.7197   62.8797  -25.6064 H   0  0  0  0  0
  -17.4163   60.9866  -28.3363 H   0  0  0  0  0
  -19.5943   61.0203  -27.5379 H   0  0  0  0  0
  -19.4790   60.3079  -29.2643 H   0  0  0  0  0
  -18.2543   62.7473  -30.5983 H   0  0  0  0  0
  -17.6888   60.9879  -30.6718 H   0  0  0  0  0
  -16.0630   63.3859  -29.8886 H   0  0  0  0  0
  -15.5185   61.6919  -29.9594 H   0  0  0  0  0
  -16.0011   62.5351  -31.4518 H   0  0  0  0  0
  -20.6404   62.9370  -28.4476 H   0  0  0  0  0
  -20.5306   62.2590  -30.0906 H   0  0  0  0  0
  -21.5493   61.4638  -28.8654 H   0  0  0  0  0
  -15.2920   62.8353  -22.7327 H   0  0  0  0  0
  -14.9361   61.7101  -23.9092 H   0  0  0  0  0
  -14.5016   63.3046  -24.1226 H   0  0  0  0  0
  1  2  2  0  0  0
  1  3  1  0  0  0
  1  4  1  0  0  0
  4  5  1  0  0  0
  4 13  1  0  0  0
  5  6  1  0  0  0
  6  7  1  0  0  0
  6 20  1  0  0  0
  7  8  1  0  0  0
  7 12  1  0  0  0
  8  9  1  0  0  0
  9 10  2  0  0  0
  9 11  1  0  0  0
 12 13  1  0  0  0
 12 14  1  0  0  0
 14 15  1  0  0  0
 15 16  1  0  0  0
 15 17  1  0  0  0
 16 19  1  0  0  0
 17 18  1  0  0  0
  3 21  1  0  0  0
  4 22  1  0  0  0
  5 23  1  0  0  0
  5 24  1  0  0  0
  6 25  1  0  0  0
  7 26  1  0  0  0
  8 27  1  0  0  0
 11 28  1  0  0  0
 11 29  1  0  0  0
 11 30  1  0  0  0
 12 31  1  0  0  0
 13 32  1  0  0  0
 13 33  1  0  0  0
 15 34  1  0  0  0
 16 35  1  0  0  0
 16 36  1  0  0  0
 17 37  1  0  0  0
 17 38  1  0  0  0
 18 39  1  0  0  0
 18 40  1  0  0  0
 18 41  1  0  0  0
 19 42  1  0  0  0
 19 43  1  0  0  0
 19 44  1  0  0  0
 20 45  1  0  0  0
 20 46  1  0  0  0
 20 47  1  0  0  0
M  END
$$$$
