3cen_ligand
  -I-interpret- 

 50 53  0  0  0  0  0  0  0  0999 V2000
    2.6140   44.1490   64.6190 C   0  0  0  0  0
    3.8800   44.8420   64.8280 C   0  0  0  0  0
    5.0580   44.3360   64.1280 C   0  0  0  0  0
    6.3900   43.0150   61.2230 C   0  0  0  0  0
    7.0220   41.8910   60.4320 C   0  0  0  0  0
    7.8420   42.1940   59.2370 C   0  0  0  0  0
    8.3920   41.0990   58.4150 C   0  0  0  0  0
    8.1420   39.6780   58.7570 C   0  0  0  0  0
    7.3630   39.3820   59.9810 C   0  0  0  0  0
    8.5660   38.6400   57.8430 N   0  0  0  0  0
    7.7130   38.3430   56.6840 C   0  0  0  0  0
    8.1600   37.3770   55.6250 C   0  0  0  0  0
    9.7910   38.0050   58.0150 C   0  0  0  0  0
   10.2010   37.0630   57.0000 C   0  0  0  0  0
   11.5290   44.8570   64.6300 C   0  0  0  0  0
    4.9780   43.1950   63.2350 C   0  0  0  0  0
    3.7230   42.4800   63.0640 C   0  0  0  0  0
    2.5430   42.9620   63.7660 C   0  0  0  0  0
    6.6410   45.1360   64.3020 S   0  0  0  0  0
    7.8300   44.1030   64.8380 N   0  0  0  0  0
    6.0740   42.7220   62.5230 N   0  0  0  0  0
    6.1750   44.1220   60.7230 O   0  0  0  0  0
    6.8120   40.4790   60.8030 C   0  0  0  0  0
    6.6080   38.8870   56.5780 O   0  0  0  0  0
    9.4310   36.7480   55.8150 C   0  0  0  0  0
    9.1980   44.2460   65.1290 C   0  0  0  0  0
   10.1410   44.9200   64.2320 C   0  0  0  0  0
   11.9670   44.1310   65.8220 C   0  0  0  0  0
   10.9850   43.4910   66.6910 C   0  0  0  0  0
    9.6490   43.6010   66.3050 N   0  0  0  0  0
   13.7510   43.8780   66.2190 Cl  0  0  0  0  0
    6.4460   46.1540   65.3040 O   0  0  0  0  0
    7.0340   45.5490   62.9830 O   0  0  0  0  0
    1.7105   44.5193   65.1035 H   0  0  0  0  0
    3.9451   45.7092   65.4851 H   0  0  0  0  0
    8.0402   43.2303   58.9633 H   0  0  0  0  0
    8.9941   41.3395   57.5388 H   0  0  0  0  0
    7.1948   38.3468   60.2778 H   0  0  0  0  0
    7.5442   37.1645   54.7511 H   0  0  0  0  0
   10.4179   38.2103   58.8827 H   0  0  0  0  0
   11.1555   36.5543   57.1353 H   0  0  0  0  0
   12.2749   45.3679   64.0211 H   0  0  0  0  0
    3.6675   41.6004   62.4226 H   0  0  0  0  0
    1.5962   42.4333   63.6553 H   0  0  0  0  0
    7.4904   43.1532   64.9894 H   0  0  0  0  0
    6.7065   42.0936   63.0184 H   0  0  0  0  0
    6.2400   40.2406   61.6997 H   0  0  0  0  0
    9.8141   36.0419   55.0783 H   0  0  0  0  0
    9.8176   45.4337   63.3266 H   0  0  0  0  0
   11.2796   42.9556   67.5936 H   0  0  0  0  0
  2  1  4  0  0  0
  1 18  4  0  0  0
  3  2  4  0  0  0
  3 16  4  0  0  0
 19  3  1  0  0  0
  4  5  1  0  0  0
 21  4  1  0  0  0
  4 22  2  0  0  0
  5  6  4  0  0  0
  5 23  4  0  0  0
  6  7  4  0  0  0
  7  8  4  0  0  0
  9  8  4  0  0  0
  8 10  1  0  0  0
 23  9  4  0  0  0
 10 11  1  0  0  0
 10 13  1  0  0  0
 11 12  1  0  0  0
 11 24  2  0  0  0
 12 25  2  0  0  0
 13 14  2  0  0  0
 14 25  1  0  0  0
 27 15  4  0  0  0
 15 28  4  0  0  0
 16 17  4  0  0  0
 16 21  1  0  0  0
 17 18  4  0  0  0
 20 19  1  0  0  0
 19 32  2  0  0  0
 19 33  2  0  0  0
 26 20  1  0  0  0
 26 27  4  0  0  0
 26 30  4  0  0  0
 28 29  4  0  0  0
 28 31  1  0  0  0
 29 30  4  0  0  0
  1 34  1  0  0  0
  2 35  1  0  0  0
  6 36  1  0  0  0
  7 37  1  0  0  0
  9 38  1  0  0  0
 12 39  1  0  0  0
 13 40  1  0  0  0
 14 41  1  0  0  0
 15 42  1  0  0  0
 17 43  1  0  0  0
 18 44  1  0  0  0
 20 45  1  0  0  0
 21 46  1  0  0  0
 23 47  1  0  0  0
 25 48  1  0  0  0
 27 49  1  0  0  0
 29 50  1  0  0  0
M  END
$$$$
