4tjw_ligand
  -I-interpret- 

 40 42  0  0  0  0  0  0  0  0999 V2000
   26.6540   42.8360    5.3290 C   0  0  0  0  0
   28.0980   43.0300    4.6630 N   0  3  0  0  0
   28.3380   44.4530    4.7190 C   0  0  0  0  0
   28.2410   42.6420    3.1270 C   0  0  0  0  0
   27.0970   43.2150    2.2510 C   0  0  0  0  0
   25.9560   42.7740    2.4420 O   0  0  0  0  0
   27.2840   44.1690    1.2860 N   0  0  0  0  0
   26.1990   44.7660    0.4670 C   0  0  0  0  0
   26.0210   46.1070    0.4870 C   0  0  0  0  0
   25.0010   46.7760   -0.2340 C   0  0  0  0  0
   24.8420   48.2100   -0.2300 C   0  0  0  0  0
   25.6790   49.1200    0.5220 C   0  0  0  0  0
   25.4320   50.4710    0.4890 C   0  0  0  0  0
   24.2160   50.9970   -0.2330 C   0  0  0  0  0
   23.4250   50.1380   -0.9980 C   0  0  0  0  0
   23.7160   48.7940   -0.9970 C   0  0  0  0  0
   22.7770   47.9180   -1.8010 C   0  0  0  0  0
   21.8310   48.3070   -2.5260 O   0  0  0  0  0
   23.0210   46.6140   -1.7950 N   0  0  0  0  0
   24.0830   45.9860   -1.0040 C   0  0  0  0  0
   24.2140   44.5460   -1.0430 C   0  0  0  0  0
   25.2670   43.9520   -0.3270 C   0  0  0  0  0
   25.9260   43.4518    4.8009 H   0  0  0  0  0
   26.3621   41.7880    5.2618 H   0  0  0  0  0
   26.6948   43.1367    6.3759 H   0  0  0  0  0
   28.7366   42.4162    5.1688 H   0  0  0  0  0
   29.3386   44.6665    4.3431 H   0  0  0  0  0
   27.6000   44.9691    4.1048 H   0  0  0  0  0
   28.2558   44.7937    5.7511 H   0  0  0  0  0
   28.2043   41.5551    3.0533 H   0  0  0  0  0
   29.1798   43.0602    2.7639 H   0  0  0  0  0
   28.2367   44.4924    1.1181 H   0  0  0  0  0
   26.7008   46.7068    1.0921 H   0  0  0  0  0
   26.5070   48.7328    1.1157 H   0  0  0  0  0
   26.1139   51.1624    0.9840 H   0  0  0  0  0
   23.9540   52.0523   -0.1569 H   0  0  0  0  0
   22.5923   50.5253   -1.5851 H   0  0  0  0  0
   22.4351   46.0133   -2.3749 H   0  0  0  0  0
   23.5132   43.9367   -1.6137 H   0  0  0  0  0
   25.3950   42.8701   -0.3608 H   0  0  0  0  0
  1  2  1  0  0  0
  2  3  1  0  0  0
  2  4  1  0  0  0
  4  5  1  0  0  0
  5  6  2  0  0  0
  5  7  1  0  0  0
  7  8  1  0  0  0
  8  9  4  0  0  0
  8 22  4  0  0  0
  9 10  4  0  0  0
 10 11  1  0  0  0
 10 20  4  0  0  0
 11 12  4  0  0  0
 11 16  4  0  0  0
 12 13  4  0  0  0
 13 14  4  0  0  0
 14 15  4  0  0  0
 15 16  4  0  0  0
 16 17  1  0  0  0
 17 18  2  0  0  0
 17 19  1  0  0  0
 19 20  1  0  0  0
 20 21  4  0  0  0
 21 22  4  0  0  0
  1 23  1  0  0  0
  1 24  1  0  0  0
  1 25  1  0  0  0
  2 26  1  0  0  0
  3 27  1  0  0  0
  3 28  1  0  0  0
  3 29  1  0  0  0
  4 30  1  0  0  0
  4 31  1  0  0  0
  7 32  1  0  0  0
  9 33  1  0  0  0
 12 34  1  0  0  0
 13 35  1  0  0  0
 14 36  1  0  0  0
 15 37  1  0  0  0
 19 38  1  0  0  0
 21 39  1  0  0  0
 22 40  1  0  0  0
M  END
$$$$
