3gi4_ligand
  -I-interpret- 

 81 85  0  0  0  0  0  0  0  0999 V2000
   17.2130   31.4030   14.1340 O   0  0  0  0  0
   17.9960   32.4630   14.6980 S   0  0  0  0  0
   18.5220   33.3570   13.6940 O   0  0  0  0  0
   17.0950   33.2870   15.7700 C   0  0  0  0  0
   17.3270   34.6520   16.0130 C   0  0  0  0  0
   16.5440   35.3150   16.9670 C   0  0  0  0  0
   15.5660   34.6580   17.6760 C   0  0  0  0  0
   14.9590   35.5160   18.5480 O   0  0  0  0  0
   15.6140   36.7990   18.4140 C   0  0  0  0  0
   16.5830   36.6190   17.3640 O   0  0  0  0  0
   15.3180   33.3170   17.4640 C   0  0  0  0  0
   16.0940   32.6320   16.5050 C   0  0  0  0  0
   19.2910   31.8020   15.4220 N   0  0  0  0  0
   20.0680   32.7810   16.2280 C   0  0  0  0  0
   21.5540   32.3930   16.2680 C   0  0  0  0  0
   22.2050   32.2860   14.8830 C   0  0  0  0  0
   22.3050   33.3910   17.1440 C   0  0  0  0  0
   19.0200   30.5460   16.1410 C   0  0  0  0  0
   19.8930   29.4140   15.5820 C   0  0  0  0  0
   19.8200   28.2970   16.4900 O   0  0  0  0  0
   19.4530   29.0850   14.1530 C   0  0  0  0  0
   18.1380   28.3000   14.0710 C   0  0  0  0  0
   17.8060   28.0030   12.6170 C   0  0  0  0  0
   17.9460   26.7070   12.1180 C   0  0  0  0  0
   17.6660   26.4270   10.7900 C   0  0  0  0  0
   17.2370   27.4300    9.9320 C   0  0  0  0  0
   17.0990   28.7230   10.4150 C   0  0  0  0  0
   17.3840   29.0140   11.7540 C   0  0  0  0  0
   20.3760   28.2340   13.3960 N   0  0  0  0  0
   21.1240   28.6770   12.3760 C   0  0  0  0  0
   21.1990   29.8450   12.0010 O   0  0  0  0  0
   21.9000   27.6480   11.6040 C   0  0  0  0  0
   21.8600   26.3190   12.1450 O   0  0  0  0  0
   21.5120   25.4290   11.0580 C   0  0  0  0  0
   21.6170   24.2280   11.2130 O   0  0  0  0  0
   21.2100   27.5600   10.2300 C   0  0  0  0  0
   21.1460   26.1290    9.9840 N   0  0  0  0  0
   20.7690   25.6230    8.7180 C   0  0  0  0  0
   21.2460   24.3930    8.2560 C   0  0  0  0  0
   20.8730   23.9080    7.0050 C   0  0  0  0  0
   20.0400   24.6530    6.1790 C   0  0  0  0  0
   19.9300   26.3670    7.8720 C   0  0  0  0  0
   19.5530   25.8860    6.6150 C   0  0  0  0  0
   18.6400   26.7020    5.7300 C   0  0  0  0  0
   17.3890   26.6550    6.1410 F   0  0  0  0  0
   18.6360   26.2320    4.5130 F   0  0  0  0  0
   19.0520   27.9560    5.6900 F   0  0  0  0  0
   18.1045   35.1866   15.4673 H   0  0  0  0  0
   16.0843   37.1103   19.3468 H   0  0  0  0  0
   14.9038   37.5906   18.1750 H   0  0  0  0  0
   14.5402   32.7987   18.0248 H   0  0  0  0  0
   15.9124   31.5714   16.3311 H   0  0  0  0  0
   19.6780   32.7881   17.2458 H   0  0  0  0  0
   19.9732   33.7667   15.7725 H   0  0  0  0  0
   21.6146   31.3909   16.6926 H   0  0  0  0  0
   21.6877   31.5259   14.2975 H   0  0  0  0  0
   22.1352   33.2478   14.3749 H   0  0  0  0  0
   23.2530   32.0085   14.9960 H   0  0  0  0  0
   22.1971   34.3921   16.7265 H   0  0  0  0  0
   21.8919   33.3701   18.1525 H   0  0  0  0  0
   23.3606   33.1214   17.1767 H   0  0  0  0  0
   17.9701   30.2821   16.0136 H   0  0  0  0  0
   19.2493   30.6839   17.1976 H   0  0  0  0  0
   20.9409   29.7056   15.5118 H   0  0  0  0  0
   20.3613   27.5782   16.1554 H   0  0  0  0  0
   19.3848   30.0900   13.7366 H   0  0  0  0  0
   17.3359   28.8932   14.5102 H   0  0  0  0  0
   18.2435   27.3618   14.6157 H   0  0  0  0  0
   18.2789   25.9072   12.7795 H   0  0  0  0  0
   17.7837   25.4100   10.4160 H   0  0  0  0  0
   17.0110   27.2041    8.8899 H   0  0  0  0  0
   16.7664   29.5177    9.7472 H   0  0  0  0  0
   17.2758   30.0338   12.1234 H   0  0  0  0  0
   20.4531   27.2517   13.6598 H   0  0  0  0  0
   22.9439   27.9615   11.6055 H   0  0  0  0  0
   21.7514   28.0975    9.4515 H   0  0  0  0  0
   20.2282   28.0334   10.2205 H   0  0  0  0  0
   21.9180   23.8064    8.8824 H   0  0  0  0  0
   21.2373   22.9364    6.6711 H   0  0  0  0  0
   19.7678   24.2754    5.1934 H   0  0  0  0  0
   19.5654   27.3396    8.2027 H   0  0  0  0  0
  1  2  2  0  0  0
  2  3  2  0  0  0
  2  4  1  0  0  0
  2 13  1  0  0  0
  4  5  4  0  0  0
  4 12  4  0  0  0
  5  6  4  0  0  0
  6  7  4  0  0  0
  6 10  1  0  0  0
  7  8  1  0  0  0
  7 11  4  0  0  0
  8  9  1  0  0  0
  9 10  1  0  0  0
 11 12  4  0  0  0
 13 14  1  0  0  0
 13 18  1  0  0  0
 14 15  1  0  0  0
 15 16  1  0  0  0
 15 17  1  0  0  0
 18 19  1  0  0  0
 19 20  1  0  0  0
 19 21  1  0  0  0
 21 22  1  0  0  0
 21 29  1  0  0  0
 22 23  1  0  0  0
 23 24  4  0  0  0
 23 28  4  0  0  0
 24 25  4  0  0  0
 25 26  4  0  0  0
 26 27  4  0  0  0
 27 28  4  0  0  0
 29 30  1  0  0  0
 30 31  2  0  0  0
 30 32  1  0  0  0
 32 33  1  0  0  0
 32 36  1  0  0  0
 33 34  1  0  0  0
 34 35  2  0  0  0
 34 37  1  0  0  0
 36 37  1  0  0  0
 37 38  1  0  0  0
 38 39  4  0  0  0
 38 42  4  0  0  0
 39 40  4  0  0  0
 40 41  4  0  0  0
 41 43  4  0  0  0
 42 43  4  0  0  0
 43 44  1  0  0  0
 44 45  1  0  0  0
 44 46  1  0  0  0
 44 47  1  0  0  0
  5 48  1  0  0  0
  9 49  1  0  0  0
  9 50  1  0  0  0
 11 51  1  0  0  0
 12 52  1  0  0  0
 14 53  1  0  0  0
 14 54  1  0  0  0
 15 55  1  0  0  0
 16 56  1  0  0  0
 16 57  1  0  0  0
 16 58  1  0  0  0
 17 59  1  0  0  0
 17 60  1  0  0  0
 17 61  1  0  0  0
 18 62  1  0  0  0
 18 63  1  0  0  0
 19 64  1  0  0  0
 20 65  1  0  0  0
 21 66  1  0  0  0
 22 67  1  0  0  0
 22 68  1  0  0  0
 24 69  1  0  0  0
 25 70  1  0  0  0
 26 71  1  0  0  0
 27 72  1  0  0  0
 28 73  1  0  0  0
 29 74  1  0  0  0
 32 75  1  0  0  0
 36 76  1  0  0  0
 36 77  1  0  0  0
 39 78  1  0  0  0
 40 79  1  0  0  0
 41 80  1  0  0  0
 42 81  1  0  0  0
M  END
$$$$
