5div_ligand
  -I-interpret- 

 81 84  0  0  0  0  0  0  0  0999 V2000
   32.9370  -28.5750    0.8930 C   0  0  0  0  0
   33.4410  -29.2650   -0.3250 C   0  0  0  0  0
   33.9500  -28.1560   -1.2730 C   0  0  0  0  0
   33.9320  -26.8520   -0.4620 C   0  0  0  0  0
   32.7380  -27.0800    0.4430 C   0  0  0  0  0
   32.7930  -26.1710    1.6670 C   0  0  0  0  0
   33.3290  -26.5770    2.6870 O   0  0  0  0  0
   32.1230  -25.0500    1.6240 N   0  0  0  0  0
   31.5040  -26.9260   -0.3610 N   0  0  0  0  0
   30.2620  -27.2330    0.1150 C   0  0  0  0  0
   30.1010  -27.4300    1.3350 O   0  0  0  0  0
   29.1530  -27.1590   -0.8270 C   0  0  0  0  0
   28.2110  -28.3870   -0.6510 C   0  0  0  0  0
   28.8740  -29.6110   -1.0350 C   0  0  0  0  0
   29.1310  -29.5090   -2.5300 C   0  0  0  0  0
   30.0940  -28.3720   -2.8290 C   0  0  0  0  0
   29.5580  -27.1210   -2.2640 N   0  0  0  0  0
   29.4580  -25.9750   -2.9690 C   0  0  0  0  0
   28.9670  -24.9450   -2.5330 O   0  0  0  0  0
   29.9820  -25.9670   -4.4230 C   0  0  0  0  0
   29.3850  -24.7570   -5.2120 C   0  0  0  0  0
   30.0840  -24.5470   -6.5610 C   0  0  0  0  0
   29.5160  -23.3700   -7.2890 C   0  0  0  0  0
   28.0540  -23.7400   -7.5970 C   0  0  0  0  0
   27.3110  -23.8790   -6.2780 C   0  0  0  0  0
   27.8670  -25.0170   -5.5030 C   0  0  0  0  0
   31.4150  -25.8520   -4.4020 C   0  0  0  0  0
   32.0630  -24.8960   -3.6080 C   0  0  0  0  0
   32.1830  -26.6620   -5.2520 C   0  0  0  0  0
   33.5800  -26.5460   -5.2830 C   0  0  0  0  0
   34.4230  -27.2750   -6.0760 O   0  0  0  0  0
   33.8830  -28.1530   -7.0990 C   0  0  0  0  0
   34.1900  -25.5960   -4.4860 C   0  0  0  0  0
   35.5730  -25.4680   -4.5150 O   0  0  0  0  0
   36.2830  -26.3880   -3.6880 C   0  0  0  0  0
   33.4620  -24.7580   -3.6600 C   0  0  0  0  0
   34.2050  -23.8750   -2.8830 O   0  0  0  0  0
   33.4660  -22.8400   -2.2260 C   0  0  0  0  0
   33.6310  -28.6617    1.7291 H   0  0  0  0  0
   32.0116  -29.0182    1.2609 H   0  0  0  0  0
   32.6534  -29.8527   -0.7966 H   0  0  0  0  0
   34.2388  -29.9651   -0.0770 H   0  0  0  0  0
   33.3176  -28.0760   -2.1572 H   0  0  0  0  0
   34.9543  -28.3793   -1.6332 H   0  0  0  0  0
   33.8506  -25.9554   -1.0765 H   0  0  0  0  0
   34.8594  -26.6591    0.0772 H   0  0  0  0  0
   32.0324  -24.4775    2.4633 H   0  0  0  0  0
   31.6906  -24.7474    0.7511 H   0  0  0  0  0
   31.5859  -26.5741   -1.3149 H   0  0  0  0  0
   28.6578  -26.2167   -0.5923 H   0  0  0  0  0
   27.3368  -28.2497   -1.2874 H   0  0  0  0  0
   27.9256  -28.4597    0.3984 H   0  0  0  0  0
   28.2576  -30.4794   -0.8024 H   0  0  0  0  0
   29.8066  -29.7397   -0.4856 H   0  0  0  0  0
   28.1867  -29.3160   -3.0390 H   0  0  0  0  0
   29.5689  -30.4444   -2.8784 H   0  0  0  0  0
   30.2104  -28.2656   -3.9075 H   0  0  0  0  0
   31.0647  -28.5882   -2.3828 H   0  0  0  0  0
   29.6814  -26.8925   -4.9142 H   0  0  0  0  0
   29.5293  -23.8710   -4.5938 H   0  0  0  0  0
   29.9355  -25.4377   -7.1715 H   0  0  0  0  0
   31.1431  -24.3646   -6.3788 H   0  0  0  0  0
   30.0741  -23.1584   -8.2011 H   0  0  0  0  0
   29.5794  -22.4620   -6.6893 H   0  0  0  0  0
   28.0136  -24.6782   -8.1504 H   0  0  0  0  0
   27.5918  -22.9642   -8.2074 H   0  0  0  0  0
   26.2550  -24.0613   -6.4774 H   0  0  0  0  0
   27.4261  -22.9609   -5.7018 H   0  0  0  0  0
   27.3273  -25.1138   -4.5609 H   0  0  0  0  0
   27.7591  -25.9364   -6.0785 H   0  0  0  0  0
   31.4796  -24.2557   -2.9464 H   0  0  0  0  0
   31.6882  -27.3895   -5.8954 H   0  0  0  0  0
   33.2458  -28.9040   -6.6321 H   0  0  0  0  0
   33.2971  -27.5667   -7.8069 H   0  0  0  0  0
   34.7023  -28.6450   -7.6232 H   0  0  0  0  0
   35.9787  -26.2514   -2.6503 H   0  0  0  0  0
   36.0572  -27.4068   -4.0031 H   0  0  0  0  0
   37.3538  -26.2065   -3.7809 H   0  0  0  0  0
   32.9551  -22.2308   -2.9716 H   0  0  0  0  0
   32.7320  -23.2884   -1.5564 H   0  0  0  0  0
   34.1501  -22.2155   -1.6515 H   0  0  0  0  0
  1  2  1  0  0  0
  1  5  1  0  0  0
  2  3  1  0  0  0
  3  4  1  0  0  0
  4  5  1  0  0  0
  5  6  1  0  0  0
  5  9  1  0  0  0
  6  7  2  0  0  0
  6  8  1  0  0  0
  9 10  1  0  0  0
 10 11  2  0  0  0
 10 12  1  0  0  0
 12 13  1  0  0  0
 12 17  1  0  0  0
 13 14  1  0  0  0
 14 15  1  0  0  0
 15 16  1  0  0  0
 16 17  1  0  0  0
 17 18  1  0  0  0
 18 19  2  0  0  0
 18 20  1  0  0  0
 20 21  1  0  0  0
 20 27  1  0  0  0
 21 22  1  0  0  0
 21 26  1  0  0  0
 22 23  1  0  0  0
 23 24  1  0  0  0
 24 25  1  0  0  0
 25 26  1  0  0  0
 27 28  4  0  0  0
 27 29  4  0  0  0
 28 36  4  0  0  0
 29 30  4  0  0  0
 30 31  1  0  0  0
 30 33  4  0  0  0
 31 32  1  0  0  0
 33 34  1  0  0  0
 33 36  4  0  0  0
 34 35  1  0  0  0
 36 37  1  0  0  0
 37 38  1  0  0  0
  1 39  1  0  0  0
  1 40  1  0  0  0
  2 41  1  0  0  0
  2 42  1  0  0  0
  3 43  1  0  0  0
  3 44  1  0  0  0
  4 45  1  0  0  0
  4 46  1  0  0  0
  8 47  1  0  0  0
  8 48  1  0  0  0
  9 49  1  0  0  0
 12 50  1  0  0  0
 13 51  1  0  0  0
 13 52  1  0  0  0
 14 53  1  0  0  0
 14 54  1  0  0  0
 15 55  1  0  0  0
 15 56  1  0  0  0
 16 57  1  0  0  0
 16 58  1  0  0  0
 20 59  1  0  0  0
 21 60  1  0  0  0
 22 61  1  0  0  0
 22 62  1  0  0  0
 23 63  1  0  0  0
 23 64  1  0  0  0
 24 65  1  0  0  0
 24 66  1  0  0  0
 25 67  1  0  0  0
 25 68  1  0  0  0
 26 69  1  0  0  0
 26 70  1  0  0  0
 28 71  1  0  0  0
 29 72  1  0  0  0
 32 73  1  0  0  0
 32 74  1  0  0  0
 32 75  1  0  0  0
 35 76  1  0  0  0
 35 77  1  0  0  0
 35 78  1  0  0  0
 38 79  1  0  0  0
 38 80  1  0  0  0
 38 81  1  0  0  0
M  END
$$$$
