### 
### Created by X-TOOL on Mon Sep 10 21:12:55 2018
### 

@<TRIPOS>MOLECULE
2v87_ligand
  151   150     1     0     0
SMALL
GAST_HUCK


@<TRIPOS>ATOM
      1 N           9.9000   20.8400  -36.4590 N.4       1 ALA         0.2377
      2 CA         10.8250   20.2650  -35.4420 C.3       1 ALA         0.0621
      3 C          11.0910   18.8020  -35.7510 C.2       1 ALA         0.2264
      4 O          10.2310   18.1090  -36.2830 O.2       1 ALA        -0.3907
      5 CB         10.2200   20.3980  -34.0400 C.3       1 ALA        -0.0040
      6 N          12.2930   18.3390  -35.4240 N.am      1 2MR        -0.2610
      7 CA         12.6460   16.9490  -35.6610 C.3       1 2MR         0.1312
      8 CB         14.1570   16.7600  -35.6050 C.3       1 2MR        -0.0092
      9 CG         14.8750   17.0010  -36.9180 C.3       1 2MR        -0.0156
     10 CD         16.3050   17.4810  -36.6670 C.3       1 2MR         0.0627
     11 NE         17.0870   16.5680  -35.8190 N.pl3     1 2MR        -0.2721
     12 CZ         18.2380   16.7920  -35.0950 C.cat     1 2MR         0.2920
     13 NH1        18.6750   15.7520  -34.3810 N.pl3     1 2MR        -0.2748
     14 CQ1        19.8550   15.9050  -33.4850 C.3       1 2MR         0.0514
     15 NH2        18.9490   17.9750  -35.0050 N.pl3     1 2MR        -0.2748
     16 CQ2        18.7160   19.1980  -35.7470 C.3       1 2MR         0.0514
     17 C          11.9440   16.0790  -34.6230 C.2       1 2MR         0.2040
     18 O          11.8990   16.4200  -33.4480 O.2       1 2MR        -0.3944
     19 N          11.3960   14.9560  -35.0750 N.am      1 THR        -0.2613
     20 CA         10.6730   14.0490  -34.1950 C.3       1 THR         0.1565
     21 C          10.9570   12.5840  -34.5090 C.2       1 THR         0.2065
     22 O          11.6300   12.2640  -35.4840 O.2       1 THR        -0.3943
     23 CB          9.1510   14.2500  -34.3270 C.3       1 THR         0.0924
     24 OG1         8.7520   13.9390  -35.6660 O.3       1 THR        -0.3874
     25 CG2         8.7600   15.6900  -34.0070 C.3       1 THR        -0.0346
     26 N          10.4160   11.7110  -33.6630 N.am      1 M3L        -0.2637
     27 CA         10.5450   10.2710  -33.8070 C.3       1 M3L         0.1310
     28 CB         11.5670    9.7080  -32.8180 C.3       1 M3L        -0.0122
     29 CG         12.9670   10.2790  -32.9310 C.3       1 M3L        -0.0440
     30 CD         13.9010    9.5240  -32.0060 C.3       1 M3L        -0.0123
     31 CE         15.3100   10.1040  -32.0150 C.3       1 M3L        -0.0309
     32 NZ         16.3230    9.2420  -31.3170 N.4       1 M3L         0.2369
     33 C           9.1870    9.6450  -33.5040 C.2       1 M3L         0.2039
     34 O           8.4790   10.0930  -32.6060 O.2       1 M3L        -0.3944
     35 CM1        16.4740    7.9400  -32.0560 C.3       1 M3L        -0.0418
     36 CM2        17.6130   10.0070  -31.3930 C.3       1 M3L        -0.0418
     37 CM3        15.9880    8.9470  -29.8810 C.3       1 M3L        -0.0418
     38 N           8.8450    8.6090  -34.2630 N.am      1 GLN        -0.2636
     39 CA          7.5910    7.8830  -34.0990 C.3       1 GLN         0.1330
     40 C           6.3610    8.7690  -34.2660 C.2       1 GLN         0.2041
     41 O           5.4060    8.6670  -33.5000 O.2       1 GLN        -0.3944
     42 CB          7.5510    7.2080  -32.7250 C.3       1 GLN         0.0045
     43 CG          8.7620    6.3270  -32.4130 C.3       1 GLN         0.0412
     44 CD          8.9550    5.2040  -33.4160 C.2       1 GLN         0.1737
     45 OE1         8.0150    4.5070  -33.7670 O.2       1 GLN        -0.3973
     46 NE2        10.1910    5.0180  -33.8680 N.am      1 GLN        -0.3009
     47 N           6.3880    9.6340  -35.2760 N.am      1 THR        -0.2613
     48 CA          5.2650   10.5250  -35.5510 C.3       1 THR         0.1565
     49 C           4.6700   10.2380  -36.9240 C.2       1 THR         0.2065
     50 O           3.7300   10.9020  -37.3530 O.2       1 THR        -0.3943
     51 CB          5.6890   12.0040  -35.4950 C.3       1 THR         0.0924
     52 OG1         6.8650   12.1980  -36.2940 O.3       1 THR        -0.3874
     53 CG2         5.9650   12.4190  -34.0580 C.3       1 THR        -0.0346
     54 N           5.2280    9.2440  -37.6060 N.am      1 ALA        -0.2639
     55 CA          4.7400    8.8620  -38.9270 C.3       1 ALA         0.1282
     56 C           3.4740    8.0370  -38.7530 C.2       1 ALA         0.2036
     57 O           3.4040    7.1870  -37.8770 O.2       1 ALA        -0.3944
     58 CB          5.7990    8.0490  -39.6620 C.3       1 ALA        -0.0244
     59 N           2.4730    8.3000  -39.5870 N.am      1 ARG        -0.2640
     60 CA          1.2160    7.5660  -39.5130 C.3       1 ARG         0.1282
     61 C           1.4560    6.1090  -39.8980 C.2       1 ARG         0.2036
     62 O           2.3280    5.8120  -40.7040 O.2       1 ARG        -0.3944
     63 CB          0.1840    8.1960  -40.4400 C.3       1 ARG        -0.0244
     64 N           0.6740    5.2060  -39.3150 N.am      1 LYS        -0.2640
     65 CA          0.8160    3.7790  -39.5830 C.3       1 LYS         0.1279
     66 C          -0.0920    3.2750  -40.7020 C.2       1 LYS         0.1989
     67 O          -0.7650    4.1010  -41.3540 O.2       1 LYS        -0.3947
     68 CB          0.5560    2.9870  -38.3050 C.3       1 LYS        -0.0244
     69 N          -0.1090    2.0460  -40.9150 N.am      1 SER        -0.2990
     70 H1          9.7287   21.8104  -36.2468 H         1 ALA         0.2015
     71 H2          9.0283   20.3340  -36.4446 H         1 ALA         0.2015
     72 H3         10.3172   20.7646  -37.3735 H         1 ALA         0.2015
     73 H4         11.7764   20.8161  -35.4738 H         1 ALA         0.1095
     74 H5         10.9122   19.9702  -33.2999 H         1 ALA         0.0310
     75 H6          9.2623   19.8583  -34.0012 H         1 ALA         0.0310
     76 H7         10.0514   21.4610  -33.8127 H         1 ALA         0.0310
     77 H8         12.9632   18.9547  -35.0096 H         1 2MR         0.1884
     78 H9         12.2959   16.6583  -36.6625 H         1 2MR         0.0800
     79 H10        14.3615   15.7269  -35.2874 H         1 2MR         0.0313
     80 H11        14.5624   17.4599  -34.8595 H         1 2MR         0.0313
     81 H12        14.3321   17.7661  -37.4922 H         1 2MR         0.0301
     82 H13        14.9037   16.0632  -37.4922 H         1 2MR         0.0301
     83 H14        16.2617   18.4635  -36.1742 H         1 2MR         0.0689
     84 H15        16.8152   17.5793  -37.6366 H         1 2MR         0.0689
     85 H16        16.7153   15.6094  -35.7565 H         1 2MR         0.2642
     86 H17        18.1957   14.8429  -34.4498 H         1 2MR         0.2639
     87 H18        20.0621   14.9475  -32.9847 H         1 2MR         0.0652
     88 H19        19.6439   16.6755  -32.7289 H         1 2MR         0.0652
     89 H20        20.7305   16.2048  -34.0796 H         1 2MR         0.0652
     90 H21        19.7318   17.9883  -34.3357 H         1 2MR         0.2639
     91 H22        19.4540   19.9559  -35.4456 H         1 2MR         0.0652
     92 H23        17.7023   19.5684  -35.5344 H         1 2MR         0.0652
     93 H24        18.8149   18.9979  -36.8241 H         1 2MR         0.0652
     94 H25        11.4824   14.7279  -36.0448 H         1 THR         0.1884
     95 H26        10.9786   14.2587  -33.1593 H         1 THR         0.0826
     96 H27         8.6375   13.5750  -33.6265 H         1 THR         0.0639
     97 H28         9.2046   14.5141  -36.2718 H         1 THR         0.2101
     98 H29         7.6708   15.8054  -34.1087 H         1 THR         0.0257
     99 H30         9.2677   16.3716  -34.7053 H         1 THR         0.0257
    100 H31         9.0595   15.9309  -32.9764 H         1 THR         0.0257
    101 H32         9.8932   12.0646  -32.8874 H         1 M3L         0.1883
    102 H33        10.8543   10.0283  -34.8343 H         1 M3L         0.0800
    103 H34        11.6302    8.6215  -32.9775 H         1 M3L         0.0312
    104 H35        11.2003    9.9086  -31.8005 H         1 M3L         0.0312
    105 H36        12.9526   11.3420  -32.6485 H         1 M3L         0.0269
    106 H37        13.3201   10.1799  -33.9681 H         1 M3L         0.0269
    107 H38        13.9479    8.4737  -32.3295 H         1 M3L         0.0317
    108 H39        13.5032    9.5748  -30.9817 H         1 M3L         0.0317
    109 H40        15.2853   11.0839  -31.5159 H         1 M3L         0.0815
    110 H41        15.6257   10.2330  -33.0608 H         1 M3L         0.0815
    111 H42        17.2162    7.3110  -31.5427 H         1 M3L         0.0778
    112 H43        16.8103    8.1389  -33.0843 H         1 M3L         0.0778
    113 H44        15.5060    7.4183  -32.0812 H         1 M3L         0.0778
    114 H45        17.5065   10.9598  -30.8537 H         1 M3L         0.0778
    115 H46        17.8590   10.2074  -32.4462 H         1 M3L         0.0778
    116 H47        18.4184    9.4143  -30.9347 H         1 M3L         0.0778
    117 H48        15.0425    8.3868  -29.8327 H         1 M3L         0.0778
    118 H49        15.8831    9.8917  -29.3274 H         1 M3L         0.0778
    119 H50        16.7932    8.3466  -29.4325 H         1 M3L         0.0778
    120 H51         9.4768    8.3137  -34.9797 H         1 GLN         0.1883
    121 H52         7.5519    7.1018  -34.8724 H         1 GLN         0.0801
    122 H53         6.6488    6.5805  -32.6771 H         1 GLN         0.0337
    123 H54         7.4920    7.9943  -31.9580 H         1 GLN         0.0337
    124 H55         8.6259    5.8854  -31.4148 H         1 GLN         0.0504
    125 H56         9.6635    6.9573  -32.4153 H         1 GLN         0.0504
    126 H57        10.3772    4.2925  -34.5306 H         1 GLN         0.1814
    127 H58        10.9347    5.6035  -33.5455 H         1 GLN         0.1814
    128 H59         7.1977    9.6749  -35.8614 H         1 THR         0.1884
    129 H60         4.4929   10.3515  -34.7869 H         1 THR         0.0826
    130 H61         4.8750   12.6256  -35.8962 H         1 THR         0.0639
    131 H62         7.1242   13.1112  -36.2575 H         1 THR         0.2101
    132 H63         6.2665   13.4766  -34.0333 H         1 THR         0.0257
    133 H64         6.7736   11.7975  -33.6457 H         1 THR         0.0257
    134 H65         5.0546   12.2831  -33.4558 H         1 THR         0.0257
    135 H66         5.9983    8.7474  -37.2059 H         1 ALA         0.1883
    136 H67         4.5111    9.7667  -39.5093 H         1 ALA         0.0797
    137 H68         5.4205    7.7669  -40.6555 H         1 ALA         0.0277
    138 H69         6.0292    7.1407  -39.0859 H         1 ALA         0.0277
    139 H70         6.7116    8.6526  -39.7752 H         1 ALA         0.0277
    140 H71         2.5844    9.0144  -40.2778 H         1 ARG         0.1883
    141 H72         0.8376    7.6059  -38.4809 H         1 ARG         0.0797
    142 H73        -0.7591    7.6335  -40.3750 H         1 ARG         0.0277
    143 H74         0.5561    8.1696  -41.4748 H         1 ARG         0.0277
    144 H75         0.0098    9.2397  -40.1395 H         1 ARG         0.0277
    145 H76        -0.0307    5.5131  -38.6754 H         1 LYS         0.1883
    146 H77         1.8559    3.6010  -39.8943 H         1 LYS         0.0797
    147 H78         0.6641    1.9120  -38.5115 H         1 LYS         0.0277
    148 H79        -0.4644    3.1911  -37.9483 H         1 LYS         0.0277
    149 H80         1.2809    3.2869  -37.5339 H         1 LYS         0.0277
    150 H81        -0.6893    1.6719  -41.6384 H         1 SER         0.1815
    151 H82         0.4577    1.4349  -40.3624 H         1 SER         0.1815
@<TRIPOS>BOND
     1    1    2 1  
     2    2    3 1  
     3    2    5 1  
     4    3    4 2  
     5    3    6 am 
     6    6    7 1  
     7    7    8 1  
     8    7   17 1  
     9    8    9 1  
    10    9   10 1  
    11   10   11 1  
    12   11   12 ar 
    13   12   13 ar 
    14   12   15 ar 
    15   13   14 1  
    16   15   16 1  
    17   17   18 2  
    18   17   19 am 
    19   19   20 1  
    20   20   21 1  
    21   20   23 1  
    22   21   22 2  
    23   21   26 am 
    24   23   24 1  
    25   23   25 1  
    26   26   27 1  
    27   27   28 1  
    28   27   33 1  
    29   28   29 1  
    30   29   30 1  
    31   30   31 1  
    32   31   32 1  
    33   32   35 1  
    34   32   36 1  
    35   32   37 1  
    36   33   34 2  
    37   33   38 am 
    38   38   39 1  
    39   39   40 1  
    40   39   42 1  
    41   40   41 2  
    42   40   47 am 
    43   42   43 1  
    44   43   44 1  
    45   44   45 2  
    46   44   46 am 
    47   47   48 1  
    48   48   49 1  
    49   48   51 1  
    50   49   50 2  
    51   49   54 am 
    52   51   52 1  
    53   51   53 1  
    54   54   55 1  
    55   55   56 1  
    56   55   58 1  
    57   56   57 2  
    58   56   59 am 
    59   59   60 1  
    60   60   61 1  
    61   60   63 1  
    62   61   62 2  
    63   61   64 am 
    64   64   65 1  
    65   65   66 1  
    66   65   68 1  
    67   66   67 2  
    68   66   69 am 
    69    1   70 1  
    70    1   71 1  
    71    1   72 1  
    72    2   73 1  
    73    5   74 1  
    74    5   75 1  
    75    5   76 1  
    76    6   77 1  
    77    7   78 1  
    78    8   79 1  
    79    8   80 1  
    80    9   81 1  
    81    9   82 1  
    82   10   83 1  
    83   10   84 1  
    84   11   85 1  
    85   13   86 1  
    86   14   87 1  
    87   14   88 1  
    88   14   89 1  
    89   15   90 1  
    90   16   91 1  
    91   16   92 1  
    92   16   93 1  
    93   19   94 1  
    94   20   95 1  
    95   23   96 1  
    96   24   97 1  
    97   25   98 1  
    98   25   99 1  
    99   25  100 1  
   100   26  101 1  
   101   27  102 1  
   102   28  103 1  
   103   28  104 1  
   104   29  105 1  
   105   29  106 1  
   106   30  107 1  
   107   30  108 1  
   108   31  109 1  
   109   31  110 1  
   110   35  111 1  
   111   35  112 1  
   112   35  113 1  
   113   36  114 1  
   114   36  115 1  
   115   36  116 1  
   116   37  117 1  
   117   37  118 1  
   118   37  119 1  
   119   38  120 1  
   120   39  121 1  
   121   42  122 1  
   122   42  123 1  
   123   43  124 1  
   124   43  125 1  
   125   46  126 1  
   126   46  127 1  
   127   47  128 1  
   128   48  129 1  
   129   51  130 1  
   130   52  131 1  
   131   53  132 1  
   132   53  133 1  
   133   53  134 1  
   134   54  135 1  
   135   55  136 1  
   136   58  137 1  
   137   58  138 1  
   138   58  139 1  
   139   59  140 1  
   140   60  141 1  
   141   63  142 1  
   142   63  143 1  
   143   63  144 1  
   144   64  145 1  
   145   65  146 1  
   146   68  147 1  
   147   68  148 1  
   148   68  149 1  
   149   69  150 1  
   150   69  151 1  
@<TRIPOS>SUBSTRUCTURE
     1 ALA         1

