2v87_ligand
  -I-interpret- 

152151  0  0  0  0  0  0  0  0999 V2000
    9.9000   20.8400  -36.4590 N   0  3  0  0  0
   10.8250   20.2650  -35.4420 C   0  0  0  0  0
   11.0910   18.8020  -35.7510 C   0  0  0  0  0
   10.2310   18.1090  -36.2830 O   0  0  0  0  0
   10.2200   20.3980  -34.0400 C   0  0  0  0  0
   12.2930   18.3390  -35.4240 N   0  0  0  0  0
   12.6460   16.9490  -35.6610 C   0  0  0  0  0
   14.1570   16.7600  -35.6050 C   0  0  0  0  0
   14.8750   17.0010  -36.9180 C   0  0  0  0  0
   16.3050   17.4810  -36.6670 C   0  0  0  0  0
   17.0870   16.5680  -35.8190 N   0  0  0  0  0
   18.2380   16.7920  -35.0950 C   0  0  0  0  0
   18.6750   15.7520  -34.3810 N   0  0  0  0  0
   19.8550   15.9050  -33.4850 C   0  0  0  0  0
   18.9490   17.9750  -35.0050 N   0  0  0  0  0
   18.7160   19.1980  -35.7470 C   0  0  0  0  0
   11.9440   16.0790  -34.6230 C   0  0  0  0  0
   11.8990   16.4200  -33.4480 O   0  0  0  0  0
   11.3960   14.9560  -35.0750 N   0  0  0  0  0
   10.6730   14.0490  -34.1950 C   0  0  0  0  0
   10.9570   12.5840  -34.5090 C   0  0  0  0  0
   11.6300   12.2640  -35.4840 O   0  0  0  0  0
    9.1510   14.2500  -34.3270 C   0  0  0  0  0
    8.7520   13.9390  -35.6660 O   0  0  0  0  0
    8.7600   15.6900  -34.0070 C   0  0  0  0  0
   10.4160   11.7110  -33.6630 N   0  0  0  0  0
   10.5450   10.2710  -33.8070 C   0  0  0  0  0
   11.5670    9.7080  -32.8180 C   0  0  0  0  0
   12.9670   10.2790  -32.9310 C   0  0  0  0  0
   13.9010    9.5240  -32.0060 C   0  0  0  0  0
   15.3100   10.1040  -32.0150 C   0  0  0  0  0
   16.3230    9.2420  -31.3170 N   0  3  0  0  0
    9.1870    9.6450  -33.5040 C   0  0  0  0  0
    8.4790   10.0930  -32.6060 O   0  0  0  0  0
   16.4740    7.9400  -32.0560 C   0  0  0  0  0
   17.6130   10.0070  -31.3930 C   0  0  0  0  0
   15.9880    8.9470  -29.8810 C   0  0  0  0  0
    8.8450    8.6090  -34.2630 N   0  0  0  0  0
    7.5910    7.8830  -34.0990 C   0  0  0  0  0
    6.3610    8.7690  -34.2660 C   0  0  0  0  0
    5.4060    8.6670  -33.5000 O   0  0  0  0  0
    7.5510    7.2080  -32.7250 C   0  0  0  0  0
    8.7620    6.3270  -32.4130 C   0  0  0  0  0
    8.9550    5.2040  -33.4160 C   0  0  0  0  0
    8.0150    4.5070  -33.7670 O   0  0  0  0  0
   10.1910    5.0180  -33.8680 N   0  0  0  0  0
    6.3880    9.6340  -35.2760 N   0  0  0  0  0
    5.2650   10.5250  -35.5510 C   0  0  0  0  0
    4.6700   10.2380  -36.9240 C   0  0  0  0  0
    3.7300   10.9020  -37.3530 O   0  0  0  0  0
    5.6890   12.0040  -35.4950 C   0  0  0  0  0
    6.8650   12.1980  -36.2940 O   0  0  0  0  0
    5.9650   12.4190  -34.0580 C   0  0  0  0  0
    5.2280    9.2440  -37.6060 N   0  0  0  0  0
    4.7400    8.8620  -38.9270 C   0  0  0  0  0
    3.4740    8.0370  -38.7530 C   0  0  0  0  0
    3.4040    7.1870  -37.8770 O   0  0  0  0  0
    5.7990    8.0490  -39.6620 C   0  0  0  0  0
    2.4730    8.3000  -39.5870 N   0  0  0  0  0
    1.2160    7.5660  -39.5130 C   0  0  0  0  0
    1.4560    6.1090  -39.8980 C   0  0  0  0  0
    2.3280    5.8120  -40.7040 O   0  0  0  0  0
    0.1840    8.1960  -40.4400 C   0  0  0  0  0
    0.6740    5.2060  -39.3150 N   0  0  0  0  0
    0.8160    3.7790  -39.5830 C   0  0  0  0  0
   -0.0920    3.2750  -40.7020 C   0  0  0  0  0
   -0.7650    4.1010  -41.3540 O   0  0  0  0  0
    0.5560    2.9870  -38.3050 C   0  0  0  0  0
   -0.1090    2.0460  -40.9150 N   0  0  0  0  0
   10.3145   20.7450  -37.3861 H   0  0  0  0  0
    9.0113   20.3402  -36.4297 H   0  0  0  0  0
    9.7433   21.8270  -36.2549 H   0  0  0  0  0
   11.7659   20.8144  -35.4742 H   0  0  0  0  0
    9.2826   19.8436  -33.9961 H   0  0  0  0  0
   10.9169   19.9948  -33.3052 H   0  0  0  0  0
   10.0318   21.4499  -33.8252 H   0  0  0  0  0
   12.9766   18.9670  -35.0013 H   0  0  0  0  0
   12.3193   16.6524  -36.6577 H   0  0  0  0  0
   14.3366   15.7203  -35.3315 H   0  0  0  0  0
   14.5419   17.4912  -34.8942 H   0  0  0  0  0
   14.3385   17.7658  -37.4796 H   0  0  0  0  0
   14.9085   16.0674  -37.4795 H   0  0  0  0  0
   16.2443   18.4387  -36.1501 H   0  0  0  0  0
   16.8056   17.5419  -37.6333 H   0  0  0  0  0
   17.4409   15.9235  -36.5260 H   0  0  0  0  0
   18.1792   17.6156  -35.8066 H   0  0  0  0  0
   18.9725   15.0708  -35.0795 H   0  0  0  0  0
   20.7218   16.2022  -34.0754 H   0  0  0  0  0
   19.6445   16.6688  -32.7364 H   0  0  0  0  0
   20.0592   14.9556  -32.9899 H   0  0  0  0  0
   19.8592   17.6906  -35.3669 H   0  0  0  0  0
   18.8142   18.9984  -36.8141 H   0  0  0  0  0
   17.7113   19.5640  -35.5355 H   0  0  0  0  0
   19.4479   19.9482  -35.4475 H   0  0  0  0  0
   11.4842   14.7234  -36.0642 H   0  0  0  0  0
   11.0160   14.2822  -33.1870 H   0  0  0  0  0
    8.6498   13.5905  -33.6185 H   0  0  0  0  0
    7.8040   14.0628  -35.7531 H   0  0  0  0  0
    9.0574   15.9275  -32.9856 H   0  0  0  0  0
    9.2637   16.3644  -34.6995 H   0  0  0  0  0
    7.6806   15.8031  -34.1081 H   0  0  0  0  0
    9.8827   12.0717  -32.8718 H   0  0  0  0  0
   10.8781   10.0429  -34.8195 H   0  0  0  0  0
   11.6485    8.6417  -33.0289 H   0  0  0  0  0
   11.2073    9.9626  -31.8211 H   0  0  0  0  0
   12.9522   11.3320  -32.6498 H   0  0  0  0  0
   13.3167   10.1794  -33.9586 H   0  0  0  0  0
   13.9567    8.4908  -32.3487 H   0  0  0  0  0
   13.5090    9.5994  -30.9917 H   0  0  0  0  0
   15.2735   11.0566  -31.4865 H   0  0  0  0  0
   15.6194   10.1918  -33.0565 H   0  0  0  0  0
   15.5142    7.4241  -32.0803 H   0  0  0  0  0
   16.8072    8.1384  -33.0747 H   0  0  0  0  0
   17.2097    7.3177  -31.5465 H   0  0  0  0  0
   17.8769   10.1688  -32.4381 H   0  0  0  0  0
   17.4936   10.9687  -30.8940 H   0  0  0  0  0
   18.4015    9.4368  -30.9019 H   0  0  0  0  0
   15.9222    9.8823  -29.3251 H   0  0  0  0  0
   15.0320    8.4257  -29.8320 H   0  0  0  0  0
   16.7678    8.3200  -29.4487 H   0  0  0  0  0
    9.4894    8.3078  -34.9940 H   0  0  0  0  0
    7.5590    7.1347  -34.8909 H   0  0  0  0  0
    6.6748    6.5598  -32.7143 H   0  0  0  0  0
    7.5359    8.0035  -31.9800 H   0  0  0  0  0
    8.5989    5.8737  -31.4353 H   0  0  0  0  0
    9.6494    6.9589  -32.4482 H   0  0  0  0  0
   10.3832    4.2699  -34.5342 H   0  0  0  0  0
   10.9473    5.6233  -33.5487 H   0  0  0  0  0
    7.2139    9.6758  -35.8732 H   0  0  0  0  0
    4.5181   10.3402  -34.7789 H   0  0  0  0  0
    4.8799   12.6202  -35.8871 H   0  0  0  0  0
    7.1269   13.1209  -36.2571 H   0  0  0  0  0
    5.0622   12.2839  -33.4624 H   0  0  0  0  0
    6.7663   11.8025  -33.6506 H   0  0  0  0  0
    6.2636   13.4670  -34.0348 H   0  0  0  0  0
    6.0137    8.7374  -37.1979 H   0  0  0  0  0
    4.5242    9.7536  -39.5157 H   0  0  0  0  0
    6.7027    8.6482  -39.7734 H   0  0  0  0  0
    6.0263    7.1493  -39.0901 H   0  0  0  0  0
    5.4228    7.7701  -40.6463 H   0  0  0  0  0
    2.5866    9.0287  -40.2916 H   0  0  0  0  0
    0.8330    7.6081  -38.4934 H   0  0  0  0  0
    0.0123    9.2301  -40.1412 H   0  0  0  0  0
    0.5539    8.1693  -41.4650 H   0  0  0  0  0
   -0.7499    7.6378  -40.3747 H   0  0  0  0  0
   -0.0448    5.5192  -38.6626 H   0  0  0  0  0
    1.8395    3.6260  -39.9251 H   0  0  0  0  0
    1.2748    3.2851  -37.5418 H   0  0  0  0  0
   -0.4553    3.1901  -37.9526 H   0  0  0  0  0
    0.6634    1.9220  -38.5109 H   0  0  0  0  0
   -0.6961    1.6651  -41.6570 H   0  0  0  0  0
    0.4642    1.4220  -40.3472 H   0  0  0  0  0
  1  2  1  0  0  0
  2  3  1  0  0  0
  2  5  1  0  0  0
  3  4  2  0  0  0
  3  6  1  0  0  0
  6  7  1  0  0  0
  7  8  1  0  0  0
  7 17  1  0  0  0
  8  9  1  0  0  0
  9 10  1  0  0  0
 10 11  1  0  0  0
 11 12  1  0  0  0
 12 13  1  0  0  0
 12 15  1  0  0  0
 13 14  1  0  0  0
 15 16  1  0  0  0
 17 18  2  0  0  0
 17 19  1  0  0  0
 19 20  1  0  0  0
 20 21  1  0  0  0
 20 23  1  0  0  0
 21 22  2  0  0  0
 21 26  1  0  0  0
 23 24  1  0  0  0
 23 25  1  0  0  0
 26 27  1  0  0  0
 27 28  1  0  0  0
 27 33  1  0  0  0
 28 29  1  0  0  0
 29 30  1  0  0  0
 30 31  1  0  0  0
 31 32  1  0  0  0
 32 35  1  0  0  0
 32 36  1  0  0  0
 32 37  1  0  0  0
 33 34  2  0  0  0
 33 38  1  0  0  0
 38 39  1  0  0  0
 39 40  1  0  0  0
 39 42  1  0  0  0
 40 41  2  0  0  0
 40 47  1  0  0  0
 42 43  1  0  0  0
 43 44  1  0  0  0
 44 45  2  0  0  0
 44 46  1  0  0  0
 47 48  1  0  0  0
 48 49  1  0  0  0
 48 51  1  0  0  0
 49 50  2  0  0  0
 49 54  1  0  0  0
 51 52  1  0  0  0
 51 53  1  0  0  0
 54 55  1  0  0  0
 55 56  1  0  0  0
 55 58  1  0  0  0
 56 57  2  0  0  0
 56 59  1  0  0  0
 59 60  1  0  0  0
 60 61  1  0  0  0
 60 63  1  0  0  0
 61 62  2  0  0  0
 61 64  1  0  0  0
 64 65  1  0  0  0
 65 66  1  0  0  0
 65 68  1  0  0  0
 66 67  2  0  0  0
 66 69  1  0  0  0
  1 70  1  0  0  0
  1 71  1  0  0  0
  1 72  1  0  0  0
  2 73  1  0  0  0
  5 74  1  0  0  0
  5 75  1  0  0  0
  5 76  1  0  0  0
  6 77  1  0  0  0
  7 78  1  0  0  0
  8 79  1  0  0  0
  8 80  1  0  0  0
  9 81  1  0  0  0
  9 82  1  0  0  0
 10 83  1  0  0  0
 10 84  1  0  0  0
 11 85  1  0  0  0
 12 86  1  0  0  0
 13 87  1  0  0  0
 14 88  1  0  0  0
 14 89  1  0  0  0
 14 90  1  0  0  0
 15 91  1  0  0  0
 16 92  1  0  0  0
 16 93  1  0  0  0
 16 94  1  0  0  0
 19 95  1  0  0  0
 20 96  1  0  0  0
 23 97  1  0  0  0
 24 98  1  0  0  0
 25 99  1  0  0  0
 25100  1  0  0  0
 25101  1  0  0  0
 26102  1  0  0  0
 27103  1  0  0  0
 28104  1  0  0  0
 28105  1  0  0  0
 29106  1  0  0  0
 29107  1  0  0  0
 30108  1  0  0  0
 30109  1  0  0  0
 31110  1  0  0  0
 31111  1  0  0  0
 35112  1  0  0  0
 35113  1  0  0  0
 35114  1  0  0  0
 36115  1  0  0  0
 36116  1  0  0  0
 36117  1  0  0  0
 37118  1  0  0  0
 37119  1  0  0  0
 37120  1  0  0  0
 38121  1  0  0  0
 39122  1  0  0  0
 42123  1  0  0  0
 42124  1  0  0  0
 43125  1  0  0  0
 43126  1  0  0  0
 46127  1  0  0  0
 46128  1  0  0  0
 47129  1  0  0  0
 48130  1  0  0  0
 51131  1  0  0  0
 52132  1  0  0  0
 53133  1  0  0  0
 53134  1  0  0  0
 53135  1  0  0  0
 54136  1  0  0  0
 55137  1  0  0  0
 58138  1  0  0  0
 58139  1  0  0  0
 58140  1  0  0  0
 59141  1  0  0  0
 60142  1  0  0  0
 63143  1  0  0  0
 63144  1  0  0  0
 63145  1  0  0  0
 64146  1  0  0  0
 65147  1  0  0  0
 68148  1  0  0  0
 68149  1  0  0  0
 68150  1  0  0  0
 69151  1  0  0  0
 69152  1  0  0  0
M  END
$$$$
