4zw3_ligand
  -I-interpret- 

 37 37  0  0  0  0  0  0  0  0999 V2000
   88.8140  120.2540   13.6180 C   0  0  0  0  0
   89.4500  119.9130   12.3010 C   0  0  0  0  0
   91.5860  119.7660   11.3440 C   0  0  0  0  0
   88.6490  120.5310   11.1850 C   0  0  0  0  0
   91.8360  118.2460    9.4270 C   0  0  0  0  0
   91.0110  117.1290    8.8170 C   0  0  0  0  0
   92.0000  119.3150    8.3620 C   0  0  0  0  0
   93.2060  117.7150    9.8200 C   0  0  0  0  0
   88.7640  119.2450   14.5640 C   0  0  0  0  0
   88.1730  119.4960   15.7920 C   0  0  0  0  0
   90.7930  120.3270   12.2610 N   0  0  0  0  0
   88.9850  121.7020   10.6440 N   0  0  0  0  0
   88.2730  121.5150   13.8560 C   0  0  0  0  0
   86.8320  121.0440   17.7300 Br  0  0  0  0  0
   87.6390  120.7410   16.0290 C   0  0  0  0  0
   87.6770  121.7590   15.0860 C   0  0  0  0  0
   91.1200  118.6780   10.5710 O   0  0  0  0  0
   92.6820  120.2590   11.1770 O   0  0  0  0  0
   87.6740  119.9470   10.7480 O   0  0  0  0  0
   88.1070  122.1510    9.5790 O   0  0  0  0  0
   89.4500  118.8302   12.1759 H   0  0  0  0  0
   90.9012  116.3226    9.5420 H   0  0  0  0  0
   90.0272  117.5121    8.5459 H   0  0  0  0  0
   91.5138  116.7525    7.9262 H   0  0  0  0  0
   91.0171  119.6420    8.0229 H   0  0  0  0  0
   92.5420  120.1630    8.7806 H   0  0  0  0  0
   92.5583  118.9050    7.5204 H   0  0  0  0  0
   93.7724  118.5046   10.3138 H   0  0  0  0  0
   93.0860  116.8721   10.5007 H   0  0  0  0  0
   93.7380  117.3890    8.9262 H   0  0  0  0  0
   89.1849  118.2636   14.3455 H   0  0  0  0  0
   88.1321  118.7203   16.5567 H   0  0  0  0  0
   91.1489  121.0301   12.9086 H   0  0  0  0  0
   89.7946  122.2396   10.9537 H   0  0  0  0  0
   88.3165  122.2929   13.0938 H   0  0  0  0  0
   87.2455  122.7351   15.3078 H   0  0  0  0  0
   88.4166  122.9963    9.2456 H   0  0  0  0  0
  2  1  1  0  0  0
  1  9  4  0  0  0
  1 13  4  0  0  0
  2  4  1  0  0  0
 11  2  1  0  0  0
  3 11  1  0  0  0
 17  3  1  0  0  0
  3 18  2  0  0  0
  4 12  1  0  0  0
  4 19  2  0  0  0
  5  6  1  0  0  0
  5  7  1  0  0  0
  5  8  1  0  0  0
  5 17  1  0  0  0
  9 10  4  0  0  0
 10 15  4  0  0  0
 12 20  1  0  0  0
 13 16  4  0  0  0
 15 14  1  0  0  0
 15 16  4  0  0  0
  2 21  1  0  0  0
  6 22  1  0  0  0
  6 23  1  0  0  0
  6 24  1  0  0  0
  7 25  1  0  0  0
  7 26  1  0  0  0
  7 27  1  0  0  0
  8 28  1  0  0  0
  8 29  1  0  0  0
  8 30  1  0  0  0
  9 31  1  0  0  0
 10 32  1  0  0  0
 11 33  1  0  0  0
 12 34  1  0  0  0
 13 35  1  0  0  0
 16 36  1  0  0  0
 20 37  1  0  0  0
M  END
$$$$
