### 
### Created by X-TOOL on Fri Nov  2 11:07:25 2018
### 

@<TRIPOS>MOLECULE
5xp7_ligand
   41    43     1     0     0
SMALL
GAST_HUCK


@<TRIPOS>ATOM
      1 PB          2.4220   14.8530   38.5920 P.3       1 MOL         0.0973
      2 O1B         2.3020   14.1640   37.2910 O.co2     1 MOL        -0.5602
      3 O2B         1.3230   15.8540   38.5630 O.co2     1 MOL        -0.5602
      4 O3B         1.9860   13.8540   39.5890 O.co2     1 MOL        -0.5602
      5 PA          5.3480   14.2830   38.6990 P.3       1 MOL         0.1548
      6 O1A         5.1880   13.5770   37.4130 O.co2     1 MOL        -0.6185
      7 O2A         5.1450   13.1710   39.6530 O.co2     1 MOL        -0.6185
      8 O5'         6.8370   14.9070   38.8450 O.3       1 MOL        -0.2745
      9 C5'         7.2860   15.9680   37.9780 C.3       1 MOL         0.1108
     10 C4'         8.7400   15.7950   37.6490 C.3       1 MOL         0.1190
     11 O4'         9.5240   15.3920   38.8650 O.3       1 MOL        -0.3364
     12 C3'         8.9220   14.7310   36.6430 C.3       1 MOL         0.1150
     13 O3'         8.9760   15.2950   35.2990 O.3       1 MOL        -0.3864
     14 C2'        10.1710   14.0550   36.9670 C.3       1 MOL         0.1385
     15 C1'        10.4440   14.2870   38.3910 C.3       1 MOL         0.2010
     16 N9         10.2450   13.1170   39.1280 N.pl3     1 MOL        -0.1919
     17 C8          9.0640   12.7870   39.4920 C.2       1 MOL         0.1123
     18 N7          9.1700   11.6110   40.1960 N.2       1 MOL        -0.2958
     19 C5         10.6610   11.2810   40.1950 C.ar      1 MOL         0.1045
     20 C6         11.4810   10.2750   40.6940 C.ar      1 MOL         0.1298
     21 N6         10.9150    9.1580   41.4360 N.pl3     1 MOL        -0.3152
     22 N1         12.8020   10.3480   40.4790 N.ar      1 MOL        -0.2698
     23 C2         13.3260   11.3730   39.7790 C.ar      1 MOL         0.0533
     24 N3         12.5940   12.3800   39.2550 N.ar      1 MOL        -0.2714
     25 C4         11.2610   12.3890   39.4310 C.ar      1 MOL         0.1613
     26 O          11.2580   14.6230   36.1660 O.3       1 MOL        -0.3836
     27 C3A         4.0710   15.5650   38.9250 C.3       1 MOL         0.1903
     28 CL2         4.1340   16.1500   40.5540 Cl        1 MOL        -0.0795
     29 H1          7.1412   16.9345   38.4830 H         1 MOL         0.0650
     30 H2          6.6992   15.9488   37.0478 H         1 MOL         0.0650
     31 H3          9.1314   16.7453   37.2569 H         1 MOL         0.0651
     32 H4          8.0864   14.0178   36.6995 H         1 MOL         0.0648
     33 H5          9.7049   15.9014   35.2403 H         1 MOL         0.2100
     34 H6         10.0830   12.9770   36.7666 H         1 MOL         0.0676
     35 H7         11.4891   14.6075   38.5140 H         1 MOL         0.0996
     36 H8          8.1464   13.3350   39.2833 H         1 MOL         0.1349
     37 H9         11.5308    8.4177   41.8016 H         1 MOL         0.1820
     38 H10         9.8987    9.1078   41.5955 H         1 MOL         0.1820
     39 H11        14.3992   11.3906   39.6273 H         1 MOL         0.0996
     40 H12        11.0823   14.4734   35.2445 H         1 MOL         0.2101
     41 H13         4.2578   16.3961   38.2290 H         1 MOL         0.0886
@<TRIPOS>BOND
     1    1    2 ar 
     2    1    3 ar 
     3    1    4 ar 
     4   27    1 1  
     5    5    6 ar 
     6    5    7 ar 
     7    5    8 1  
     8    5   27 1  
     9    8    9 1  
    10    9   10 1  
    11   10   11 1  
    12   10   12 1  
    13   11   15 1  
    14   12   13 1  
    15   12   14 1  
    16   14   15 1  
    17   14   26 1  
    18   15   16 1  
    19   16   17 1  
    20   16   25 1  
    21   17   18 2  
    22   18   19 1  
    23   19   20 ar 
    24   19   25 ar 
    25   20   21 1  
    26   20   22 ar 
    27   22   23 ar 
    28   23   24 ar 
    29   24   25 ar 
    30   27   28 1  
    31    9   29 1  
    32    9   30 1  
    33   10   31 1  
    34   12   32 1  
    35   13   33 1  
    36   14   34 1  
    37   15   35 1  
    38   17   36 1  
    39   21   37 1  
    40   21   38 1  
    41   23   39 1  
    42   26   40 1  
    43   27   41 1  
@<TRIPOS>SUBSTRUCTURE
     1 MOL         1

