5xp7_ligand
  -I-interpret- 

 44 46  0  0  0  0  0  0  0  0999 V2000
    2.4220   14.8530   38.5920 P   0  0  0  0  0
    2.3020   14.1640   37.2910 O   0  0  0  0  0
    1.3230   15.8540   38.5630 O   0  0  0  0  0
    1.9860   13.8540   39.5890 O   0  0  0  0  0
    5.3480   14.2830   38.6990 P   0  0  0  0  0
    5.1880   13.5770   37.4130 O   0  0  0  0  0
    5.1450   13.1710   39.6530 O   0  0  0  0  0
    6.8370   14.9070   38.8450 O   0  0  0  0  0
    7.2860   15.9680   37.9780 C   0  0  0  0  0
    8.7400   15.7950   37.6490 C   0  0  0  0  0
    9.5240   15.3920   38.8650 O   0  0  0  0  0
    8.9220   14.7310   36.6430 C   0  0  0  0  0
    8.9760   15.2950   35.2990 O   0  0  0  0  0
   10.1710   14.0550   36.9670 C   0  0  0  0  0
   10.4440   14.2870   38.3910 C   0  0  0  0  0
   10.2450   13.1170   39.1280 N   0  0  0  0  0
    9.0640   12.7870   39.4920 C   0  0  0  0  0
    9.1700   11.6110   40.1960 N   0  0  0  0  0
   10.6610   11.2810   40.1950 C   0  0  0  0  0
   11.4810   10.2750   40.6940 C   0  0  0  0  0
   10.9150    9.1580   41.4360 N   0  0  0  0  0
   12.8020   10.3480   40.4790 N   0  0  0  0  0
   13.3260   11.3730   39.7790 C   0  0  0  0  0
   12.5940   12.3800   39.2550 N   0  0  0  0  0
   11.2610   12.3890   39.4310 C   0  0  0  0  0
   11.2580   14.6230   36.1660 O   0  0  0  0  0
    4.0710   15.5650   38.9250 C   0  0  0  0  0
    4.1340   16.1500   40.5540 Cl  0  0  0  0  0
    1.3262   16.3548   39.3820 H   0  0  0  0  0
    2.0385   14.2367   40.4679 H   0  0  0  0  0
    5.2249   13.5022   40.5505 H   0  0  0  0  0
    7.1480   16.9230   38.4849 H   0  0  0  0  0
    6.7074   15.9407   37.0546 H   0  0  0  0  0
    9.0945   16.7530   37.2686 H   0  0  0  0  0
    8.0854   14.0326   36.6617 H   0  0  0  0  0
    9.0945   14.5876   34.6609 H   0  0  0  0  0
   10.0965   12.9884   36.7552 H   0  0  0  0  0
   11.4835   14.5820   38.5344 H   0  0  0  0  0
    8.1455   13.3355   39.2831 H   0  0  0  0  0
    9.9085    9.1083   41.5939 H   0  0  0  0  0
   11.5248    8.4249   41.7981 H   0  0  0  0  0
   14.4051   11.3907   39.6264 H   0  0  0  0  0
   12.0799   14.1760   36.3812 H   0  0  0  0  0
    4.2520   16.3880   38.2336 H   0  0  0  0  0
  1  2  2  0  0  0
  1  3  1  0  0  0
  1  4  1  0  0  0
 27  1  1  0  0  0
  5  6  2  0  0  0
  5  7  1  0  0  0
  5  8  1  0  0  0
  5 27  1  0  0  0
  8  9  1  0  0  0
  9 10  1  0  0  0
 10 11  1  0  0  0
 10 12  1  0  0  0
 11 15  1  0  0  0
 12 13  1  0  0  0
 12 14  1  0  0  0
 14 15  1  0  0  0
 14 26  1  0  0  0
 15 16  1  0  0  0
 16 17  4  0  0  0
 16 25  4  0  0  0
 17 18  4  0  0  0
 18 19  4  0  0  0
 19 20  4  0  0  0
 19 25  4  0  0  0
 20 21  1  0  0  0
 20 22  4  0  0  0
 22 23  4  0  0  0
 23 24  4  0  0  0
 24 25  4  0  0  0
 27 28  1  0  0  0
  3 29  1  0  0  0
  4 30  1  0  0  0
  7 31  1  0  0  0
  9 32  1  0  0  0
  9 33  1  0  0  0
 10 34  1  0  0  0
 12 35  1  0  0  0
 13 36  1  0  0  0
 14 37  1  0  0  0
 15 38  1  0  0  0
 17 39  1  0  0  0
 21 40  1  0  0  0
 21 41  1  0  0  0
 23 42  1  0  0  0
 26 43  1  0  0  0
 27 44  1  0  0  0
M  END
$$$$
