3bki_ligand
  -I-interpret- 

 21 23  0  0  0  0  0  0  0  0999 V2000
    2.8330   -1.5850    5.6640 O   0  0  0  0  0
    2.2500   -2.4660    6.2830 C   0  0  0  0  0
    1.1390   -3.1940    5.8100 C   0  0  0  0  0
    0.6040   -3.0340    4.7220 O   0  0  0  0  0
    0.5550   -4.1890    6.6180 N   0  0  0  0  0
    1.0590   -4.4810    7.9060 C   0  0  0  0  0
    0.4720   -5.4820    8.6980 C   0  0  0  0  0
    1.0220   -5.7400    9.9730 C   0  0  0  0  0
    0.6820   -6.6080   10.9060 N   0  3  0  0  0
   -0.4100   -7.5080   10.7260 O   0  0  0  0  0
    1.5550   -6.4730   12.0230 O   0  0  0  0  0
    2.4510   -5.4400   11.6630 N   0  0  0  0  0
    2.1250   -5.0170   10.4430 C   0  0  0  0  0
    2.7190   -4.0110    9.6540 C   0  0  0  0  0
    2.1780   -3.7480    8.3830 C   0  0  0  0  0
    2.7540   -2.7590    7.5720 N   0  0  0  0  0
   -0.2485   -4.7098    6.2664 H   0  0  0  0  0
   -0.3878   -6.0463    8.3369 H   0  0  0  0  0
   -0.5024   -8.0577   11.5076 H   0  0  0  0  0
    3.5783   -3.4497   10.0209 H   0  0  0  0  0
    3.5578   -2.2371    7.9210 H   0  0  0  0  0
  1  2  2  0  0  0
  2  3  1  0  0  0
  2 16  1  0  0  0
  3  4  2  0  0  0
  3  5  1  0  0  0
  5  6  1  0  0  0
  6  7  4  0  0  0
  6 15  4  0  0  0
  7  8  4  0  0  0
  8  9  4  0  0  0
  8 13  4  0  0  0
  9 10  1  0  0  0
  9 11  4  0  0  0
 11 12  4  0  0  0
 12 13  4  0  0  0
 13 14  4  0  0  0
 14 15  4  0  0  0
 15 16  1  0  0  0
  5 17  1  0  0  0
  7 18  1  0  0  0
 10 19  1  0  0  0
 14 20  1  0  0  0
 16 21  1  0  0  0
M  END
$$$$
