4aba_ligand
  -I-interpret- 

 21 22  0  0  0  0  0  0  0  0999 V2000
    1.8110  -15.9810   18.2400 C   0  0  0  0  0
    3.1200  -15.6030   18.8920 N   0  3  0  0  0
    1.1450  -14.5090   14.5470 S   0  0  0  0  0
    1.6800  -15.1300   16.9770 C   0  0  0  0  0
    2.2500  -13.9070   16.6750 N   0  0  0  0  0
    3.9420  -11.2810   15.7790 S   0  0  0  0  0
    1.0550  -15.5770   15.8520 C   0  0  0  0  0
    2.0500  -13.4350   15.4870 C   0  0  0  0  0
    2.6050  -12.1410   15.0510 C   0  0  0  0  0
    2.1160  -11.3860   14.0130 C   0  0  0  0  0
    2.8070  -10.1400   13.8480 C   0  0  0  0  0
    3.8160   -9.9320   14.7280 C   0  0  0  0  0
    0.9760  -15.7990   18.9165 H   0  0  0  0  0
    1.7948  -17.0427   17.9936 H   0  0  0  0  0
    3.2456  -16.1516   19.7427 H   0  0  0  0  0
    3.8871  -15.7930   18.2471 H   0  0  0  0  0
    3.1082  -14.6100   19.1250 H   0  0  0  0  0
    0.5428  -16.5377   15.7990 H   0  0  0  0  0
    1.2872  -11.7016   13.3792 H   0  0  0  0  0
    2.5415   -9.4178   13.0760 H   0  0  0  0  0
    4.4490   -9.0453   14.7625 H   0  0  0  0  0
  1  2  1  0  0  0
  4  1  1  0  0  0
  3  7  4  0  0  0
  8  3  4  0  0  0
  5  4  4  0  0  0
  4  7  4  0  0  0
  8  5  4  0  0  0
  9  6  4  0  0  0
  6 12  4  0  0  0
  8  9  1  0  0  0
  9 10  4  0  0  0
 10 11  4  0  0  0
 11 12  4  0  0  0
  1 13  1  0  0  0
  1 14  1  0  0  0
  2 15  1  0  0  0
  2 16  1  0  0  0
  2 17  1  0  0  0
  7 18  1  0  0  0
 10 19  1  0  0  0
 11 20  1  0  0  0
 12 21  1  0  0  0
M  END
$$$$
