1avd_ligand
  -I-interpret- 

 32 33  0  0  0  0  0  0  0  0999 V2000
   33.3470    7.5510   14.5800 C   0  0  0  0  0
   32.4630    6.7800   14.3090 O   0  0  0  0  0
   34.6310    7.3580   14.2570 O   0  0  0  0  0
   33.0640    8.8120   15.3570 C   0  0  0  0  0
   34.3370    9.2700   16.1400 C   0  0  0  0  0
   34.1000   10.3970   17.1550 C   0  0  0  0  0
   35.4080   11.0180   17.7030 C   0  0  0  0  0
   36.0120   10.2850   18.9330 C   0  0  0  0  0
   35.0490   10.3590   20.4690 S   0  0  0  0  0
   36.5110    9.7330   21.3280 C   0  0  0  0  0
   37.5950   10.6450   20.7660 C   0  0  0  0  0
   37.4320   11.9640   21.3400 N   0  0  0  0  0
   37.0050   12.8970   20.5100 C   0  0  0  0  0
   36.7480   14.0660   20.8030 O   0  0  0  0  0
   36.9170   12.3440   19.2800 N   0  0  0  0  0
   37.3380   10.9370   19.2710 C   0  0  0  0  0
   35.1540    8.0986   14.5726 H   0  0  0  0  0
   32.2617    8.6169   16.0686 H   0  0  0  0  0
   32.7741    9.5992   14.6610 H   0  0  0  0  0
   35.0412    9.6531   15.4015 H   0  0  0  0  0
   34.6888    8.4060   16.7038 H   0  0  0  0  0
   33.5607    9.9692   18.0002 H   0  0  0  0  0
   33.5501   11.1878   16.6447 H   0  0  0  0  0
   35.1666   12.0309   18.0253 H   0  0  0  0  0
   36.1466   10.9565   16.9038 H   0  0  0  0  0
   36.0614    9.2406   18.6249 H   0  0  0  0  0
   36.6986    8.6723   21.1614 H   0  0  0  0  0
   36.4298    9.7640   22.4145 H   0  0  0  0  0
   38.5515   10.1604   20.9616 H   0  0  0  0  0
   37.6337   12.1592   22.3206 H   0  0  0  0  0
   36.5951   12.8463   18.4527 H   0  0  0  0  0
   38.1776   10.6511   18.6374 H   0  0  0  0  0
  1  2  2  0  0  0
  1  3  1  0  0  0
  1  4  1  0  0  0
  4  5  1  0  0  0
  5  6  1  0  0  0
  6  7  1  0  0  0
  7  8  1  0  0  0
  8  9  1  0  0  0
  8 16  1  0  0  0
  9 10  1  0  0  0
 10 11  1  0  0  0
 11 12  1  0  0  0
 11 16  1  0  0  0
 12 13  1  0  0  0
 13 14  2  0  0  0
 13 15  1  0  0  0
 15 16  1  0  0  0
  3 17  1  0  0  0
  4 18  1  0  0  0
  4 19  1  0  0  0
  5 20  1  0  0  0
  5 21  1  0  0  0
  6 22  1  0  0  0
  6 23  1  0  0  0
  7 24  1  0  0  0
  7 25  1  0  0  0
  8 26  1  0  0  0
 10 27  1  0  0  0
 10 28  1  0  0  0
 11 29  1  0  0  0
 12 30  1  0  0  0
 15 31  1  0  0  0
 16 32  1  0  0  0
M  END
$$$$
