4jr3_ligand
  -I-interpret- 

 59 63  0  0  0  0  0  0  0  0999 V2000
   50.0260   23.0730    6.6860 C   0  0  0  0  0
   49.5430   22.3480    5.4260 C   0  0  0  0  0
   48.5880   21.5740    5.4930 O   0  0  0  0  0
   50.2520   22.6420    4.3100 N   0  0  0  0  0
   49.9530   22.1100    3.1040 C   0  0  0  0  0
   51.0130   21.8170    2.2400 C   0  0  0  0  0
   48.6450   21.8850    2.6520 C   0  0  0  0  0
   48.4290   21.3560    1.3780 C   0  0  0  0  0
   49.4990   21.0660    0.5280 C   0  0  0  0  0
   50.8080   21.2990    0.9520 C   0  0  0  0  0
   51.8760   21.0320    0.1690 C   0  0  0  0  0
   52.7670   21.9520   -0.2920 C   0  0  0  0  0
   52.2600   19.8170   -0.2660 C   0  0  0  0  0
   51.7170   18.5950   -0.0900 C   0  0  0  0  0
   50.9340   18.2360    1.0180 C   0  0  0  0  0
   50.4150   16.9450    1.1340 C   0  0  0  0  0
   50.6750   15.9900    0.1570 C   0  0  0  0  0
   51.4570   16.3290   -0.9420 C   0  0  0  0  0
   51.9750   17.6190   -1.0630 C   0  0  0  0  0
   53.3460   19.9760   -0.9810 O   0  0  0  0  0
   53.6730   21.2640   -1.0110 C   0  0  0  0  0
   54.7080   21.8690   -1.6210 N   0  0  0  0  0
   54.8700   23.2490   -1.5180 C   0  0  0  0  0
   53.9380   23.9550   -0.7790 N   0  0  0  0  0
   52.9280   23.3000   -0.1790 C   0  0  0  0  0
   52.0210   24.0090    0.5000 N   0  0  0  0  0
   52.2610   25.3610    1.0540 C   0  0  0  0  0
   51.1360   25.6170    2.0440 C   0  0  0  0  0
   51.7850   26.1120    3.2120 O   0  0  0  0  0
   52.2810   26.3510    0.0410 C   0  0  0  0  0
   51.7830   26.1210   -1.2540 C   0  0  0  0  0
   51.8330   27.1180   -2.2290 C   0  0  0  0  0
   52.3730   28.3620   -1.9200 C   0  0  0  0  0
   52.8680   28.6000   -0.6390 C   0  0  0  0  0
   52.8260   27.6010    0.3340 C   0  0  0  0  0
   49.2162   23.6838    7.0851 H   0  0  0  0  0
   50.3306   22.3388    7.4318 H   0  0  0  0  0
   50.8736   23.7105    6.4345 H   0  0  0  0  0
   51.0387   23.2872    4.3822 H   0  0  0  0  0
   52.0333   21.9972    2.5786 H   0  0  0  0  0
   47.7974   22.1229    3.2947 H   0  0  0  0  0
   47.4097   21.1664    1.0415 H   0  0  0  0  0
   49.3117   20.6582   -0.4653 H   0  0  0  0  0
   50.7291   18.9720    1.7954 H   0  0  0  0  0
   49.8017   16.6838    1.9964 H   0  0  0  0  0
   50.2688   14.9830    0.2519 H   0  0  0  0  0
   51.6658   15.5851   -1.7108 H   0  0  0  0  0
   52.5895   17.8718   -1.9270 H   0  0  0  0  0
   55.7039   23.7556   -2.0039 H   0  0  0  0  0
   51.1022   23.5908    0.6463 H   0  0  0  0  0
   53.2375   25.4114    1.5357 H   0  0  0  0  0
   50.5632   24.7128    2.2503 H   0  0  0  0  0
   50.4057   26.3261    1.6541 H   0  0  0  0  0
   51.1284   26.2974    3.8873 H   0  0  0  0  0
   51.3520   25.1504   -1.4995 H   0  0  0  0  0
   51.4498   26.9224   -3.2305 H   0  0  0  0  0
   52.4089   29.1467   -2.6757 H   0  0  0  0  0
   53.2913   29.5745   -0.3954 H   0  0  0  0  0
   53.2219   27.7988    1.3301 H   0  0  0  0  0
  1  2  1  0  0  0
  2  3  2  0  0  0
  2  4  1  0  0  0
  4  5  1  0  0  0
  5  6  4  0  0  0
  5  7  4  0  0  0
  6 10  4  0  0  0
  7  8  4  0  0  0
  8  9  4  0  0  0
  9 10  4  0  0  0
 10 11  1  0  0  0
 11 12  4  0  0  0
 11 13  4  0  0  0
 12 21  4  0  0  0
 12 25  4  0  0  0
 13 14  1  0  0  0
 13 20  4  0  0  0
 14 15  4  0  0  0
 14 19  4  0  0  0
 15 16  4  0  0  0
 16 17  4  0  0  0
 17 18  4  0  0  0
 18 19  4  0  0  0
 20 21  4  0  0  0
 21 22  4  0  0  0
 22 23  4  0  0  0
 23 24  4  0  0  0
 24 25  4  0  0  0
 25 26  1  0  0  0
 26 27  1  0  0  0
 27 28  1  0  0  0
 27 30  1  0  0  0
 28 29  1  0  0  0
 30 31  4  0  0  0
 30 35  4  0  0  0
 31 32  4  0  0  0
 32 33  4  0  0  0
 33 34  4  0  0  0
 34 35  4  0  0  0
  1 36  1  0  0  0
  1 37  1  0  0  0
  1 38  1  0  0  0
  4 39  1  0  0  0
  6 40  1  0  0  0
  7 41  1  0  0  0
  8 42  1  0  0  0
  9 43  1  0  0  0
 15 44  1  0  0  0
 16 45  1  0  0  0
 17 46  1  0  0  0
 18 47  1  0  0  0
 19 48  1  0  0  0
 23 49  1  0  0  0
 26 50  1  0  0  0
 27 51  1  0  0  0
 28 52  1  0  0  0
 28 53  1  0  0  0
 29 54  1  0  0  0
 31 55  1  0  0  0
 32 56  1  0  0  0
 33 57  1  0  0  0
 34 58  1  0  0  0
 35 59  1  0  0  0
M  END
$$$$
