6p3v_ligand
  -I-interpret- 

 44 46  0  0  0  0  0  0  0  0999 V2000
   21.7310  -11.3710   36.5200 C   0  0  0  0  0
   21.0310  -11.8760   35.3660 N   0  0  0  0  0
   21.4880  -12.7460   34.4140 C   0  0  0  0  0
   22.7400  -13.3890   34.2550 C   0  0  0  0  0
   22.9160  -14.2250   33.1560 C   0  0  0  0  0
   21.8920  -14.4410   32.1980 C   0  0  0  0  0
   22.1410  -15.2760   31.1410 F   0  0  0  0  0
   20.6500  -13.8190   32.3280 C   0  0  0  0  0
   20.4720  -12.9810   33.4520 C   0  0  0  0  0
   19.3520  -12.1840   33.8720 C   0  0  0  0  0
   19.7550  -11.5370   35.0470 C   0  0  0  0  0
   18.8570  -10.7120   35.6480 N   0  0  0  0  0
   17.6420  -10.5560   35.0970 C   0  0  0  0  0
   16.5020   -9.4430   35.9430 S   0  0  0  0  0
   17.3830   -7.8470   36.2690 C   0  0  0  0  0
   18.4390   -7.9710   37.3530 C   0  0  0  0  0
   18.1780   -7.2250   38.6170 N   0  3  0  0  0
   19.5100   -6.9830   39.2590 C   0  0  0  0  0
   20.1420   -8.3080   39.7020 C   0  0  0  0  0
   17.4410   -5.9320   38.4410 C   0  0  0  0  0
   16.5170   -5.6110   39.5740 C   0  0  0  0  0
   17.2660  -11.1520   33.9940 N   0  0  0  0  0
   18.1220  -11.9870   33.3610 N   0  0  0  0  0
   22.0209  -12.2038   37.1607 H   0  0  0  0  0
   22.6218  -10.8328   36.1962 H   0  0  0  0  0
   21.0779  -10.6958   37.0729 H   0  0  0  0  0
   23.5442  -13.2333   34.9741 H   0  0  0  0  0
   23.8729  -14.7308   33.0271 H   0  0  0  0  0
   19.8552  -13.9720   31.5979 H   0  0  0  0  0
   16.6439   -7.1192   36.6037 H   0  0  0  0  0
   17.8826   -7.5465   35.3480 H   0  0  0  0  0
   19.3538   -7.5504   36.9354 H   0  0  0  0  0
   18.4731   -9.0261   37.6245 H   0  0  0  0  0
   17.5593   -7.7913   39.1974 H   0  0  0  0  0
   19.3711   -6.3473   40.1335 H   0  0  0  0  0
   20.1686   -6.5008   38.5367 H   0  0  0  0  0
   19.4862   -8.7995   40.4206 H   0  0  0  0  0
   20.2789   -8.9521   38.8334 H   0  0  0  0  0
   21.1085   -8.1109   40.1658 H   0  0  0  0  0
   16.8347   -6.0211   37.5396 H   0  0  0  0  0
   18.1841   -5.1363   38.3894 H   0  0  0  0  0
   15.7721   -6.4011   39.6687 H   0  0  0  0  0
   17.0897   -5.5371   40.4985 H   0  0  0  0  0
   16.0187   -4.6618   39.3770 H   0  0  0  0  0
  1  2  1  0  0  0
  2  3  4  0  0  0
  2 11  4  0  0  0
  3  4  4  0  0  0
  3  9  4  0  0  0
  4  5  4  0  0  0
  5  6  4  0  0  0
  6  7  1  0  0  0
  6  8  4  0  0  0
  8  9  4  0  0  0
  9 10  4  0  0  0
 10 11  4  0  0  0
 10 23  4  0  0  0
 11 12  4  0  0  0
 12 13  4  0  0  0
 13 14  1  0  0  0
 13 22  4  0  0  0
 14 15  1  0  0  0
 15 16  1  0  0  0
 16 17  1  0  0  0
 17 18  1  0  0  0
 17 20  1  0  0  0
 18 19  1  0  0  0
 20 21  1  0  0  0
 22 23  4  0  0  0
  1 24  1  0  0  0
  1 25  1  0  0  0
  1 26  1  0  0  0
  4 27  1  0  0  0
  5 28  1  0  0  0
  8 29  1  0  0  0
 15 30  1  0  0  0
 15 31  1  0  0  0
 16 32  1  0  0  0
 16 33  1  0  0  0
 17 34  1  0  0  0
 18 35  1  0  0  0
 18 36  1  0  0  0
 19 37  1  0  0  0
 19 38  1  0  0  0
 19 39  1  0  0  0
 20 40  1  0  0  0
 20 41  1  0  0  0
 21 42  1  0  0  0
 21 43  1  0  0  0
 21 44  1  0  0  0
M  END
$$$$
