3wgw_ligand
  -I-interpret- 

 37 38  0  0  0  0  0  0  0  0999 V2000
  -47.9150   -3.3860   37.6960 O   0  0  0  0  0
  -47.3460   -3.3980   39.0310 C   0  0  0  0  0
  -46.7230   -2.0980   39.6460 C   0  0  0  0  0
  -47.3580   -0.8640   39.1700 N   0  3  0  0  0
  -46.8850   -2.1470   41.1690 C   0  0  0  0  0
  -45.9260   -3.0090   42.0040 C   0  0  0  0  0
  -44.5410   -2.6940   42.1360 C   0  0  0  0  0
  -43.7590   -3.4000   42.9830 C   0  0  0  0  0
  -41.7430   -2.9780   43.0810 I   0  0  0  0  0
  -44.3220   -4.5340   43.7440 C   0  0  0  0  0
  -45.7610   -4.9190   43.6190 C   0  0  0  0  0
  -46.7250   -6.5280   44.7480 I   0  0  0  0  0
  -46.4880   -4.0740   42.7390 C   0  0  0  0  0
  -43.5080   -5.2930   44.5100 O   0  0  0  0  0
  -43.2400   -5.0190   45.8220 C   0  0  0  0  0
  -42.4590   -5.8930   46.6110 C   0  0  0  0  0
  -42.1870   -5.6090   47.9580 C   0  0  0  0  0
  -42.7190   -4.4470   48.4920 C   0  0  0  0  0
  -42.5130   -4.0880   49.7820 O   0  0  0  0  0
  -43.4870   -3.6000   47.6960 C   0  0  0  0  0
  -43.7370   -3.8600   46.3620 C   0  0  0  0  0
  -48.2480   -4.2609   37.4834 H   0  0  0  0  0
  -46.5053   -4.0878   38.9568 H   0  0  0  0  0
  -48.1926   -3.6214   39.6802 H   0  0  0  0  0
  -45.6780   -2.0753   39.3367 H   0  0  0  0  0
  -47.2652   -0.8046   38.1560 H   0  0  0  0  0
  -48.3463   -0.8724   39.4223 H   0  0  0  0  0
  -46.9024   -0.0601   39.6020 H   0  0  0  0  0
  -47.8672   -2.5918   41.3287 H   0  0  0  0  0
  -46.6985   -1.1254   41.5002 H   0  0  0  0  0
  -44.1114   -1.8805   41.5514 H   0  0  0  0  0
  -47.5555   -4.2615   42.6233 H   0  0  0  0  0
  -42.0605   -6.8044   46.1653 H   0  0  0  0  0
  -41.5778   -6.2800   48.5635 H   0  0  0  0  0
  -42.9612   -3.2574   49.9573 H   0  0  0  0  0
  -43.9065   -2.6983   48.1422 H   0  0  0  0  0
  -44.3139   -3.1625   45.7548 H   0  0  0  0  0
  1  2  1  0  0  0
  2  3  1  0  0  0
  3  4  1  0  0  0
  3  5  1  0  0  0
  5  6  1  0  0  0
  6  7  4  0  0  0
  6 13  4  0  0  0
  7  8  4  0  0  0
  8  9  1  0  0  0
  8 10  4  0  0  0
 10 11  4  0  0  0
 10 14  1  0  0  0
 11 12  1  0  0  0
 11 13  4  0  0  0
 14 15  1  0  0  0
 15 16  4  0  0  0
 15 21  4  0  0  0
 16 17  4  0  0  0
 17 18  4  0  0  0
 18 19  1  0  0  0
 18 20  4  0  0  0
 20 21  4  0  0  0
  1 22  1  0  0  0
  2 23  1  0  0  0
  2 24  1  0  0  0
  3 25  1  0  0  0
  4 26  1  0  0  0
  4 27  1  0  0  0
  4 28  1  0  0  0
  5 29  1  0  0  0
  5 30  1  0  0  0
  7 31  1  0  0  0
 13 32  1  0  0  0
 16 33  1  0  0  0
 17 34  1  0  0  0
 19 35  1  0  0  0
 20 36  1  0  0  0
 21 37  1  0  0  0
M  END
$$$$
