5n21_ligand
  -I-interpret- 

 53 57  0  0  0  0  0  0  0  0999 V2000
   11.5680    2.8140    3.0620 C   0  0  0  0  0
   10.5360    3.7540    3.0500 C   0  0  0  0  0
    9.8550    4.0360    1.8550 C   0  0  0  0  0
   10.1390    4.3950    4.2360 N   0  0  0  0  0
   14.1050    2.5650   -0.5130 C   0  0  0  0  0
   15.3760    2.3110   -1.0490 C   0  0  0  0  0
   14.4630    0.8070   -2.5350 C   0  0  0  0  0
   12.9390   -0.3710   -3.6500 C   0  0  0  0  0
   14.3230   -0.1720   -3.5370 C   0  0  0  0  0
   15.3600   -0.9050   -4.1820 C   0  0  0  0  0
   17.8250    2.7710   -1.1830 C   0  0  0  0  0
   18.7130    3.7770   -0.4680 C   0  0  0  0  0
   17.9600    4.1250    0.7870 C   0  0  0  0  0
   16.4930    4.1090    0.3560 C   0  0  0  0  0
    8.6670    4.9660    1.8870 C   0  0  0  0  0
    8.8000    5.9910    2.9950 C   0  0  0  0  0
    9.2730    5.4300    4.3040 C   0  0  0  0  0
    8.9280    5.9130    5.3810 O   0  0  0  0  0
   10.2650    3.4130    0.6770 C   0  0  0  0  0
   11.3240    2.5120    0.6850 C   0  0  0  0  0
   11.9680    2.2080    1.8830 C   0  0  0  0  0
   11.7250    1.9100   -0.5170 N   0  0  0  0  0
   12.9800    1.9250   -1.0250 C   0  0  0  0  0
   13.1830    1.0760   -2.0930 N   0  0  0  0  0
   12.2240    0.3810   -2.7800 N   0  0  0  0  0
   16.1510   -1.5230   -4.7040 N   0  0  0  0  0
   15.5620    1.3940   -2.0260 N   0  0  0  0  0
   16.4710    3.0680   -0.6950 N   0  0  0  0  0
   15.9690    5.4590   -0.1670 C   0  0  0  0  0
   16.1720    6.5890    0.8260 C   0  0  0  0  0
   15.7860    6.3270    2.0550 O   0  0  0  0  0
   16.6410    7.6630    0.4980 O   0  0  0  0  0
   12.0594    2.5568    4.0004 H   0  0  0  0  0
   10.5345    4.0530    5.1118 H   0  0  0  0  0
   13.9973    3.2697    0.3116 H   0  0  0  0  0
   12.4863   -1.0593   -4.3638 H   0  0  0  0  0
   18.1197    1.7427   -0.9734 H   0  0  0  0  0
   17.8980    2.8578   -2.2671 H   0  0  0  0  0
   18.9089    4.6559   -1.0822 H   0  0  0  0  0
   19.6993    3.3671   -0.2506 H   0  0  0  0  0
   18.2601    5.0906    1.1941 H   0  0  0  0  0
   18.1601    3.4230    1.5965 H   0  0  0  0  0
   15.8308    3.9077    1.1980 H   0  0  0  0  0
    7.7687    4.3754    2.0667 H   0  0  0  0  0
    8.6115    5.4910    0.9334 H   0  0  0  0  0
    7.8077    6.4086    3.1655 H   0  0  0  0  0
    9.5444    6.7182    2.6707 H   0  0  0  0  0
    9.7509    3.6342   -0.2583 H   0  0  0  0  0
   12.7890    1.4911    1.8919 H   0  0  0  0  0
   11.0102    1.4191   -1.0541 H   0  0  0  0  0
   14.8984    5.3570   -0.3444 H   0  0  0  0  0
   16.5229    5.7053   -1.0729 H   0  0  0  0  0
   15.4485    5.4294    2.0987 H   0  0  0  0  0
  1  2  4  0  0  0
 21  1  4  0  0  0
  3  2  4  0  0  0
  2  4  1  0  0  0
  3 15  1  0  0  0
 19  3  4  0  0  0
  4 17  1  0  0  0
  5  6  4  0  0  0
 23  5  4  0  0  0
  6 27  4  0  0  0
  6 28  1  0  0  0
  7  9  4  0  0  0
  7 24  4  0  0  0
 27  7  4  0  0  0
  9  8  4  0  0  0
  8 25  4  0  0  0
  9 10  1  0  0  0
 10 26  3  0  0  0
 11 12  1  0  0  0
 28 11  1  0  0  0
 13 12  1  0  0  0
 14 13  1  0  0  0
 28 14  1  0  0  0
 14 29  1  0  0  0
 15 16  1  0  0  0
 16 17  1  0  0  0
 17 18  2  0  0  0
 20 19  4  0  0  0
 20 21  4  0  0  0
 22 20  1  0  0  0
 22 23  1  0  0  0
 23 24  4  0  0  0
 24 25  4  0  0  0
 29 30  1  0  0  0
 30 31  1  0  0  0
 30 32  2  0  0  0
  1 33  1  0  0  0
  4 34  1  0  0  0
  5 35  1  0  0  0
  8 36  1  0  0  0
 11 37  1  0  0  0
 11 38  1  0  0  0
 12 39  1  0  0  0
 12 40  1  0  0  0
 13 41  1  0  0  0
 13 42  1  0  0  0
 14 43  1  0  0  0
 15 44  1  0  0  0
 15 45  1  0  0  0
 16 46  1  0  0  0
 16 47  1  0  0  0
 19 48  1  0  0  0
 21 49  1  0  0  0
 22 50  1  0  0  0
 29 51  1  0  0  0
 29 52  1  0  0  0
 31 53  1  0  0  0
M  END
$$$$
