5ji6_ligand
  -I-interpret- 

 29 31  0  0  0  0  0  0  0  0999 V2000
   13.9540   30.4890   18.6970 C   0  0  0  0  0
   15.1840   30.3810   18.0720 C   0  0  0  0  0
   15.4530   31.1220   16.9050 C   0  0  0  0  0
   16.8020   30.9840   16.2760 C   0  0  0  0  0
   18.8250   32.0560   15.4610 C   0  0  0  0  0
   17.3870   29.7240   15.9550 C   0  0  0  0  0
   14.5560   32.8580   15.2110 C   0  0  0  0  0
   14.4260   31.9850   16.4360 C   0  0  0  0  0
   13.2260   32.0320   17.1310 C   0  0  0  0  0
   13.0260   31.3000   18.2150 N   0  0  0  0  0
   17.5580   32.1240   16.0290 C   0  0  0  0  0
   19.4040   30.8420   15.1300 C   0  0  0  0  0
   18.6890   29.6680   15.3800 C   0  0  0  0  0
   18.9720   28.3430   15.1820 N   0  0  0  0  0
   17.8760   27.5990   15.6370 N   0  0  0  0  0
   16.9440   28.3900   16.0780 C   0  0  0  0  0
   19.5440   33.3560   15.2320 C   0  0  0  0  0
   20.0180   33.7860   16.4620 F   0  0  0  0  0
   20.6170   33.1920   14.3490 F   0  0  0  0  0
   18.6530   34.3250   14.7690 F   0  0  0  0  0
   13.7482   29.9022   19.5922 H   0  0  0  0  0
   15.9468   29.7205   18.4842 H   0  0  0  0  0
   15.3876   33.5496   15.3459 H   0  0  0  0  0
   14.7405   32.2318   14.3381 H   0  0  0  0  0
   13.6334   33.4206   15.0678 H   0  0  0  0  0
   12.4301   32.6867   16.7760 H   0  0  0  0  0
   17.1456   33.0991   16.2881 H   0  0  0  0  0
   20.3976   30.8034   14.6834 H   0  0  0  0  0
   15.9797   28.0751   16.4769 H   0  0  0  0  0
  1  2  4  0  0  0
  1 10  4  0  0  0
  2  3  4  0  0  0
  3  4  1  0  0  0
  3  8  4  0  0  0
  4  6  4  0  0  0
  4 11  4  0  0  0
 11  5  4  0  0  0
  5 12  4  0  0  0
  5 17  1  0  0  0
  6 13  4  0  0  0
  6 16  4  0  0  0
  8  7  1  0  0  0
  8  9  4  0  0  0
  9 10  4  0  0  0
 12 13  4  0  0  0
 13 14  4  0  0  0
 14 15  4  0  0  0
 15 16  4  0  0  0
 17 18  1  0  0  0
 17 19  1  0  0  0
 17 20  1  0  0  0
  1 21  1  0  0  0
  2 22  1  0  0  0
  7 23  1  0  0  0
  7 24  1  0  0  0
  7 25  1  0  0  0
  9 26  1  0  0  0
 11 27  1  0  0  0
 12 28  1  0  0  0
 16 29  1  0  0  0
M  END
$$$$
