4yrc_ligand
  -I-interpret- 

 20 21  0  0  0  0  0  0  0  0999 V2000
   65.7560    8.9690   20.7960 C   0  0  0  0  0
   64.4130    8.7790   20.9210 C   0  0  0  0  0
   63.6600    8.2340   19.8570 C   0  0  0  0  0
   62.2660    8.0120   19.8970 C   0  0  0  0  0
   61.6190    7.4510   18.8380 C   0  0  0  0  0
   62.3040    7.0910   17.6900 C   0  0  0  0  0
   63.6530    7.2980   17.5950 C   0  0  0  0  0
   64.3130    6.9380   16.4660 O   0  0  0  0  0
   64.3630    7.8820   18.6800 C   0  0  0  0  0
   65.7160    8.0810   18.5400 N   0  0  0  0  0
   66.3740    8.6190   19.5700 C   0  0  0  0  0
   67.6900    8.8530   19.3780 N   0  0  0  0  0
   66.3408    9.3801   21.6188 H   0  0  0  0  0
   63.9141    9.0502   21.8514 H   0  0  0  0  0
   61.7012    8.2929   20.7859 H   0  0  0  0  0
   60.5436    7.2826   18.8952 H   0  0  0  0  0
   61.7652    6.6399   16.8568 H   0  0  0  0  0
   65.2447    7.1491   16.5603 H   0  0  0  0  0
   68.2446    9.2839   20.1177 H   0  0  0  0  0
   68.1294    8.5989   18.4933 H   0  0  0  0  0
  1  2  4  0  0  0
  1 11  4  0  0  0
  2  3  4  0  0  0
  3  4  4  0  0  0
  3  9  4  0  0  0
  4  5  4  0  0  0
  5  6  4  0  0  0
  6  7  4  0  0  0
  7  8  1  0  0  0
  7  9  4  0  0  0
  9 10  4  0  0  0
 10 11  4  0  0  0
 11 12  1  0  0  0
  1 13  1  0  0  0
  2 14  1  0  0  0
  4 15  1  0  0  0
  5 16  1  0  0  0
  6 17  1  0  0  0
  8 18  1  0  0  0
 12 19  1  0  0  0
 12 20  1  0  0  0
M  END
$$$$
