5jk3_ligand
  -I-interpret- 

 43 45  0  0  0  0  0  0  0  0999 V2000
  -18.0620  -51.3980  -19.4200 C   0  0  0  0  0
  -14.8430  -51.7180  -16.9540 C   0  0  0  0  0
  -13.2270  -52.9040  -18.8700 C   0  0  0  0  0
  -12.6900  -52.0010  -17.9660 C   0  0  0  0  0
   -9.3340  -50.2760  -18.9720 C   0  0  0  0  0
  -11.1140  -48.4910  -14.7450 Cl  0  0  0  0  0
  -12.7220  -48.1740  -15.4480 C   0  0  0  0  0
  -13.2780  -46.9040  -15.4060 C   0  0  0  0  0
  -14.4700  -46.6920  -15.9340 N   0  0  0  0  0
  -15.1450  -47.6720  -16.5030 C   0  0  0  0  0
  -16.4540  -47.3640  -17.0650 N   0  0  0  0  0
  -17.3220  -48.3660  -17.6700 C   0  0  0  0  0
  -16.9400  -49.5230  -18.3060 C   0  0  0  0  0
  -18.0320  -50.1310  -18.7070 N   0  0  0  0  0
  -19.1390  -49.4020  -18.3620 N   0  0  0  0  0
  -18.7110  -48.3070  -17.7220 C   0  0  0  0  0
  -14.6530  -48.9000  -16.5650 N   0  0  0  0  0
  -13.4620  -49.1850  -16.0600 C   0  0  0  0  0
  -12.9100  -50.4900  -16.1020 O   0  0  0  0  0
  -13.4960  -51.3910  -17.0110 C   0  0  0  0  0
  -15.3860  -52.6190  -17.8600 C   0  0  0  0  0
  -14.5780  -53.2140  -18.8180 C   0  0  0  0  0
  -11.2760  -51.6730  -18.0150 N   0  0  0  0  0
  -10.8170  -50.6350  -18.9200 C   0  0  0  0  0
   -9.0960  -48.9040  -18.3540 C   0  0  0  0  0
  -11.5910  -50.0670  -19.6070 O   0  0  0  0  0
  -17.5138  -51.2993  -20.3569 H   0  0  0  0  0
  -17.5985  -52.1701  -18.8059 H   0  0  0  0  0
  -19.0962  -51.6710  -19.6298 H   0  0  0  0  0
  -15.4788  -51.2649  -16.1934 H   0  0  0  0  0
  -12.5886  -53.3699  -19.6207 H   0  0  0  0  0
   -9.0102  -50.2570  -20.0126 H   0  0  0  0  0
   -8.7693  -51.0204  -18.4107 H   0  0  0  0  0
  -12.7331  -46.0837  -14.9388 H   0  0  0  0  0
  -16.7791  -46.3977  -17.0332 H   0  0  0  0  0
  -15.9175  -49.8718  -18.4509 H   0  0  0  0  0
  -19.3373  -47.5130  -17.3153 H   0  0  0  0  0
  -16.4484  -52.8592  -17.8186 H   0  0  0  0  0
  -15.0037  -53.9232  -19.5279 H   0  0  0  0  0
  -10.6118  -52.1673  -17.4192 H   0  0  0  0  0
   -9.6623  -48.1546  -18.9071 H   0  0  0  0  0
   -9.4226  -48.9137  -17.3141 H   0  0  0  0  0
   -8.0334  -48.6655  -18.4002 H   0  0  0  0  0
 14  1  1  0  0  0
 20  2  4  0  0  0
  2 21  4  0  0  0
  4  3  4  0  0  0
  3 22  4  0  0  0
  4 20  4  0  0  0
 23  4  1  0  0  0
 24  5  1  0  0  0
  5 25  1  0  0  0
  7  6  1  0  0  0
  7  8  4  0  0  0
 18  7  4  0  0  0
  8  9  4  0  0  0
 10  9  4  0  0  0
 10 11  1  0  0  0
 17 10  4  0  0  0
 11 12  1  0  0  0
 12 13  4  0  0  0
 12 16  4  0  0  0
 13 14  4  0  0  0
 15 14  4  0  0  0
 16 15  4  0  0  0
 18 17  4  0  0  0
 19 18  1  0  0  0
 20 19  1  0  0  0
 22 21  4  0  0  0
 23 24  1  0  0  0
 24 26  2  0  0  0
  1 27  1  0  0  0
  1 28  1  0  0  0
  1 29  1  0  0  0
  2 30  1  0  0  0
  3 31  1  0  0  0
  5 32  1  0  0  0
  5 33  1  0  0  0
  8 34  1  0  0  0
 11 35  1  0  0  0
 13 36  1  0  0  0
 16 37  1  0  0  0
 21 38  1  0  0  0
 22 39  1  0  0  0
 23 40  1  0  0  0
 25 41  1  0  0  0
 25 42  1  0  0  0
 25 43  1  0  0  0
M  END
$$$$
