4i5h_ligand
  -I-interpret- 

 55 59  0  0  0  0  0  0  0  0999 V2000
  -12.5520   75.7480  133.5100 F   0  0  0  0  0
  -12.1840   74.9720  132.4960 C   0  0  0  0  0
  -11.2990   75.6620  131.7440 F   0  0  0  0  0
  -11.5340   74.0510  132.9460 F   0  0  0  0  0
  -13.3940   74.5770  131.7800 C   0  0  0  0  0
  -14.5430   74.1430  132.4710 C   0  0  0  0  0
  -13.4510   74.6600  130.3990 C   0  0  0  0  0
  -14.6390   74.2980  129.7390 C   0  0  0  0  0
  -15.7710   73.8570  130.4480 C   0  0  0  0  0
  -15.7640   73.7580  131.8580 C   0  0  0  0  0
  -16.8820   73.3300  132.6260 C   0  0  0  0  0
  -16.9800   73.7410  133.7720 O   0  0  0  0  0
  -17.8560   72.5100  132.0500 N   0  0  0  0  0
  -18.9120   71.9790  132.7330 C   0  0  0  0  0
  -19.5060   72.4710  133.8980 C   0  0  0  0  0
  -19.3990   70.7730  132.2350 C   0  0  0  0  0
  -20.4310   70.1190  132.8620 C   0  0  0  0  0
  -21.0050   70.6340  134.0190 C   0  0  0  0  0
  -22.0650   69.9300  134.5950 C   0  0  0  0  0
  -20.5420   71.8340  134.5660 C   0  0  0  0  0
  -21.1530   72.3700  135.7140 C   0  0  0  0  0
  -20.9630   71.8560  137.0060 C   0  0  0  0  0
  -22.0150   73.4710  135.5650 C   0  0  0  0  0
  -22.6800   74.0250  136.6560 C   0  0  0  0  0
  -22.4910   73.5140  137.9410 C   0  0  0  0  0
  -23.1230   74.0520  139.0170 N   0  0  0  0  0
  -21.6290   72.4220  138.0960 C   0  0  0  0  0
  -21.4620   71.9010  139.3830 C   0  0  0  0  0
  -22.1270   72.4780  140.4660 N   0  0  0  0  0
  -22.9290   73.5320  140.2580 C   0  0  0  0  0
  -23.5190   74.0200  141.3130 N   0  0  0  0  0
  -24.4730   75.1070  141.1810 C   0  0  0  0  0
  -23.9000   76.5000  141.3190 C   0  0  0  0  0
  -24.7250   75.8900  142.4450 C   0  0  0  0  0
  -14.4901   74.0997  133.5589 H   0  0  0  0  0
  -12.5860   75.0016  129.8305 H   0  0  0  0  0
  -14.6836   74.3607  128.6517 H   0  0  0  0  0
  -16.6725   73.5859  129.8986 H   0  0  0  0  0
  -17.7726   72.2946  131.0565 H   0  0  0  0  0
  -19.1336   73.4106  134.3062 H   0  0  0  0  0
  -18.9557   70.3431  131.3368 H   0  0  0  0  0
  -20.8053   69.1832  132.4469 H   0  0  0  0  0
  -22.8840   69.8592  133.8792 H   0  0  0  0  0
  -21.7299   68.9288  134.8659 H   0  0  0  0  0
  -22.4054   70.4546  135.4878 H   0  0  0  0  0
  -20.2923   71.0107  137.1599 H   0  0  0  0  0
  -22.1659   73.9000  134.5744 H   0  0  0  0  0
  -23.3555   74.8669  136.5047 H   0  0  0  0  0
  -20.8104   71.0416  139.5408 H   0  0  0  0  0
  -23.3098   73.6369  142.2349 H   0  0  0  0  0
  -25.1009   74.6070  140.4435 H   0  0  0  0  0
  -23.8488   77.4270  140.7479 H   0  0  0  0  0
  -22.9480   77.0133  141.1838 H   0  0  0  0  0
  -24.6588   75.7470  143.5235 H   0  0  0  0  0
  -25.5636   76.1625  143.0857 H   0  0  0  0  0
  1  2  1  0  0  0
  2  3  1  0  0  0
  2  4  1  0  0  0
  2  5  1  0  0  0
  5  6  4  0  0  0
  5  7  4  0  0  0
  6 10  4  0  0  0
  7  8  4  0  0  0
  8  9  4  0  0  0
  9 10  4  0  0  0
 10 11  1  0  0  0
 11 12  2  0  0  0
 11 13  1  0  0  0
 13 14  1  0  0  0
 14 15  4  0  0  0
 14 16  4  0  0  0
 15 20  4  0  0  0
 16 17  4  0  0  0
 17 18  4  0  0  0
 18 19  1  0  0  0
 18 20  4  0  0  0
 20 21  1  0  0  0
 21 22  4  0  0  0
 21 23  4  0  0  0
 22 27  4  0  0  0
 23 24  4  0  0  0
 24 25  4  0  0  0
 25 26  4  0  0  0
 25 27  4  0  0  0
 26 30  4  0  0  0
 27 28  4  0  0  0
 28 29  4  0  0  0
 29 30  4  0  0  0
 30 31  1  0  0  0
 31 32  1  0  0  0
 32 33  1  0  0  0
 32 34  1  0  0  0
 33 34  1  0  0  0
  6 35  1  0  0  0
  7 36  1  0  0  0
  8 37  1  0  0  0
  9 38  1  0  0  0
 13 39  1  0  0  0
 15 40  1  0  0  0
 16 41  1  0  0  0
 17 42  1  0  0  0
 19 43  1  0  0  0
 19 44  1  0  0  0
 19 45  1  0  0  0
 22 46  1  0  0  0
 23 47  1  0  0  0
 24 48  1  0  0  0
 28 49  1  0  0  0
 31 50  1  0  0  0
 32 51  1  0  0  0
 33 52  1  0  0  0
 33 53  1  0  0  0
 34 54  1  0  0  0
 34 55  1  0  0  0
M  END
$$$$
