6mjf_ligand
  -I-interpret- 

 47 49  0  0  0  0  0  0  0  0999 V2000
  -62.1540   28.1470   -3.5890 N   0  3  0  0  0
  -61.2060   28.6460   -4.5790 C   0  0  0  0  0
  -61.8390   29.7450   -5.4250 C   0  0  0  0  0
  -63.0540   29.3080   -6.2370 C   0  0  0  0  0
  -64.0530   30.7080   -6.8040 S   0  0  0  0  0
  -59.9350   29.1630   -3.9180 C   0  0  0  0  0
  -59.2660   30.0550   -4.4400 O   0  0  0  0  0
  -59.5460   28.6910   -2.8500 O   0  0  0  0  0
  -63.1620   30.7760   -8.3800 C   0  0  0  0  0
  -62.2050   31.9620   -8.4390 C   0  0  0  0  0
  -60.9960   31.6510   -7.7680 O   0  0  0  0  0
  -61.8140   32.3350   -9.8600 C   0  0  0  0  0
  -62.6800   33.2980  -10.4090 O   0  0  0  0  0
  -60.4180   32.8880   -9.7060 C   0  0  0  0  0
  -60.4660   34.2660   -9.4190 O   0  0  0  0  0
  -59.8900   32.1610   -8.4890 C   0  0  0  0  0
  -59.0530   31.0520   -8.9720 N   0  0  0  0  0
  -59.4440   29.7510   -9.1540 C   0  0  0  0  0
  -58.3890   29.0490   -9.6270 N   0  0  0  0  0
  -57.3390   29.8890   -9.7610 C   0  0  0  0  0
  -56.0380   29.6980  -10.2010 C   0  0  0  0  0
  -55.6290   28.4950  -10.5930 N   0  0  0  0  0
  -55.1710   30.7690  -10.2280 N   0  0  0  0  0
  -55.5920   32.0180   -9.8240 C   0  0  0  0  0
  -56.8870   32.2000   -9.3900 N   0  0  0  0  0
  -57.7440   31.1520   -9.3570 C   0  0  0  0  0
  -62.9919   27.8091   -4.0625 H   0  0  0  0  0
  -61.7265   27.3832   -3.0654 H   0  0  0  0  0
  -62.4042   28.9011   -2.9493 H   0  0  0  0  0
  -60.9381   27.8115   -5.2270 H   0  0  0  0  0
  -61.0821   30.0704   -6.1386 H   0  0  0  0  0
  -62.1803   30.5176   -4.7360 H   0  0  0  0  0
  -63.6800   28.6870   -5.5962 H   0  0  0  0  0
  -62.6950   28.7740   -7.1168 H   0  0  0  0  0
  -59.6827   30.3272   -5.2609 H   0  0  0  0  0
  -63.8922   30.8848   -9.1819 H   0  0  0  0  0
  -62.5797   29.8605   -8.4841 H   0  0  0  0  0
  -62.7374   32.7911   -7.9729 H   0  0  0  0  0
  -61.8688   31.4859  -10.5413 H   0  0  0  0  0
  -62.4001   33.5056  -11.3035 H   0  0  0  0  0
  -59.8138   32.7578  -10.6038 H   0  0  0  0  0
  -59.5722   34.6032   -9.3239 H   0  0  0  0  0
  -59.3079   32.8179   -7.8427 H   0  0  0  0  0
  -60.4371   29.3499   -8.9518 H   0  0  0  0  0
  -56.2738   27.7050  -10.5713 H   0  0  0  0  0
  -54.6704   28.3622  -10.9154 H   0  0  0  0  0
  -54.9011   32.8607   -9.8479 H   0  0  0  0  0
  1  2  1  0  0  0
  2  3  1  0  0  0
  2  6  1  0  0  0
  3  4  1  0  0  0
  4  5  1  0  0  0
  5  9  1  0  0  0
  6  7  1  0  0  0
  6  8  2  0  0  0
  9 10  1  0  0  0
 10 11  1  0  0  0
 10 12  1  0  0  0
 11 16  1  0  0  0
 12 13  1  0  0  0
 12 14  1  0  0  0
 14 15  1  0  0  0
 14 16  1  0  0  0
 16 17  1  0  0  0
 17 18  4  0  0  0
 17 26  4  0  0  0
 18 19  4  0  0  0
 19 20  4  0  0  0
 20 21  4  0  0  0
 20 26  4  0  0  0
 21 22  1  0  0  0
 21 23  4  0  0  0
 23 24  4  0  0  0
 24 25  4  0  0  0
 25 26  4  0  0  0
  1 27  1  0  0  0
  1 28  1  0  0  0
  1 29  1  0  0  0
  2 30  1  0  0  0
  3 31  1  0  0  0
  3 32  1  0  0  0
  4 33  1  0  0  0
  4 34  1  0  0  0
  7 35  1  0  0  0
  9 36  1  0  0  0
  9 37  1  0  0  0
 10 38  1  0  0  0
 12 39  1  0  0  0
 13 40  1  0  0  0
 14 41  1  0  0  0
 15 42  1  0  0  0
 16 43  1  0  0  0
 18 44  1  0  0  0
 22 45  1  0  0  0
 22 46  1  0  0  0
 24 47  1  0  0  0
M  END
$$$$
