4c1y_ligand
  -I-interpret- 

 26 26  0  0  0  0  0  0  0  0999 V2000
  -44.2040   16.2970   -9.2500 C   0  0  0  0  0
  -42.7480   16.6460   -8.9220 C   0  0  0  0  0
  -42.1340   15.8180   -7.8020 C   0  0  0  0  0
  -42.4120   14.3370   -8.0100 C   0  0  0  0  0
  -43.9290   14.1490   -8.2170 C   0  0  0  0  0
  -44.3400   12.6980   -8.3610 C   0  0  0  0  0
  -44.5380   16.9790  -10.4730 O   0  0  0  0  0
  -42.6580   18.0350   -8.5520 O   0  0  0  0  0
  -40.7340   16.1140   -7.8080 O   0  0  0  0  0
  -41.7100   13.9040   -9.1730 O   0  0  0  0  0
  -44.3530   14.8700   -9.3890 O   0  0  0  0  0
  -45.9620   17.0790  -10.6700 C   0  0  0  0  0
  -44.8750   16.6120   -8.4508 H   0  0  0  0  0
  -42.1849   16.4218   -9.8279 H   0  0  0  0  0
  -42.5676   16.0643   -6.8328 H   0  0  0  0  0
  -42.0851   13.7559   -7.1477 H   0  0  0  0  0
  -44.4123   14.5369   -7.3203 H   0  0  0  0  0
  -45.4237   12.6369   -8.4610 H   0  0  0  0  0
  -43.8676   12.2741   -9.2471 H   0  0  0  0  0
  -44.0234   12.1427   -7.4781 H   0  0  0  0  0
  -43.0408   18.5755   -9.2469 H   0  0  0  0  0
  -40.6067   17.0560   -7.6739 H   0  0  0  0  0
  -40.7669   14.0231   -9.0390 H   0  0  0  0  0
  -46.3929   16.0787  -10.7112 H   0  0  0  0  0
  -46.4041   17.6326   -9.8416 H   0  0  0  0  0
  -46.1623   17.6011  -11.6056 H   0  0  0  0  0
  1  2  1  0  0  0
  1  7  1  0  0  0
  1 11  1  0  0  0
  2  3  1  0  0  0
  2  8  1  0  0  0
  3  4  1  0  0  0
  3  9  1  0  0  0
  4  5  1  0  0  0
  4 10  1  0  0  0
  5  6  1  0  0  0
  5 11  1  0  0  0
  7 12  1  0  0  0
  1 13  1  0  0  0
  2 14  1  0  0  0
  3 15  1  0  0  0
  4 16  1  0  0  0
  5 17  1  0  0  0
  6 18  1  0  0  0
  6 19  1  0  0  0
  6 20  1  0  0  0
  8 21  1  0  0  0
  9 22  1  0  0  0
 10 23  1  0  0  0
 12 24  1  0  0  0
 12 25  1  0  0  0
 12 26  1  0  0  0
M  END
$$$$
