4nat_ligand
  -I-interpret- 

 51 53  0  0  0  0  0  0  0  0999 V2000
   26.6110   44.3150  -32.5050 C   0  0  0  0  0
   24.5480   43.5960  -31.5580 C   0  0  0  0  0
   21.3200   40.7940  -29.8370 C   0  0  0  0  0
   22.7360   43.0050  -32.8100 C   0  0  0  0  0
   21.9840   42.7000  -34.0300 C   0  0  0  0  0
   22.5710   41.5370  -34.8870 C   0  0  0  0  0
   22.2080   41.8240  -36.3470 C   0  0  0  0  0
   20.6930   41.5830  -36.4690 C   0  0  0  0  0
   19.9460   42.6820  -35.7180 C   0  0  0  0  0
   19.8380   44.1750  -33.6080 C   0  0  0  0  0
   18.2550   44.9410  -32.0320 C   0  0  0  0  0
   19.8390   44.6540  -30.1100 C   0  0  0  0  0
   18.8230   46.8140  -30.6040 C   0  0  0  0  0
   25.7840   44.1610  -31.3630 O   0  0  0  0  0
   23.8630   43.1410  -30.3920 C   0  0  0  0  0
   22.5960   42.5660  -30.5270 C   0  0  0  0  0
   21.8640   42.0890  -29.4720 O   0  0  0  0  0
   22.0790   42.5250  -31.7550 N   0  0  0  0  0
   23.9780   43.5300  -32.7580 N   0  0  0  0  0
   20.6040   43.1620  -34.4450 C   0  0  0  0  0
   20.1360   45.3000  -33.8590 O   0  0  0  0  0
   18.9130   43.8190  -32.6850 N   0  0  0  0  0
   19.0210   45.4690  -30.8860 C   0  0  0  0  0
   20.5090   45.2290  -29.0270 C   0  0  0  0  0
   20.2970   46.5920  -28.7520 C   0  0  0  0  0
   21.0260   47.3020  -27.3720 Cl  0  0  0  0  0
   19.4660   47.3730  -29.5240 C   0  0  0  0  0
   19.2620   49.0620  -29.2170 Cl  0  0  0  0  0
   26.8023   43.3376  -32.9479 H   0  0  0  0  0
   26.1088   44.9529  -33.2323 H   0  0  0  0  0
   27.5551   44.7724  -32.2093 H   0  0  0  0  0
   20.6820   40.9034  -30.7140 H   0  0  0  0  0
   22.1370   40.1090  -30.0637 H   0  0  0  0  0
   20.7339   40.4004  -29.0065 H   0  0  0  0  0
   22.0878   43.7843  -34.0711 H   0  0  0  0  0
   22.1582   40.5795  -34.5695 H   0  0  0  0  0
   23.6525   41.4773  -34.7645 H   0  0  0  0  0
   22.7644   41.1764  -37.0245 H   0  0  0  0  0
   22.4663   42.8466  -36.6221 H   0  0  0  0  0
   20.4420   40.6126  -36.0407 H   0  0  0  0  0
   20.4044   41.5979  -37.5200 H   0  0  0  0  0
   18.9823   42.2617  -35.4302 H   0  0  0  0  0
   19.9016   43.5409  -36.3877 H   0  0  0  0  0
   17.2937   44.5903  -31.6565 H   0  0  0  0  0
   18.1579   45.7421  -32.7647 H   0  0  0  0  0
   19.9542   43.5949  -30.3407 H   0  0  0  0  0
   18.1669   47.4188  -31.2299 H   0  0  0  0  0
   24.3219   43.2405  -29.4083 H   0  0  0  0  0
   21.1516   42.2911  -34.0848 H   0  0  0  0  0
   18.6959   42.8467  -32.4660 H   0  0  0  0  0
   21.1813   44.6342  -28.4087 H   0  0  0  0  0
 14  1  1  0  0  0
  2 14  1  0  0  0
 15  2  4  0  0  0
  2 19  4  0  0  0
 17  3  1  0  0  0
  4  5  1  0  0  0
  4 18  4  0  0  0
 19  4  4  0  0  0
  5  6  1  0  0  0
  5 20  1  0  0  0
  6  7  1  0  0  0
  7  8  1  0  0  0
  9  8  1  0  0  0
 20  9  1  0  0  0
 20 10  1  0  0  0
 10 21  2  0  0  0
 10 22  1  0  0  0
 22 11  1  0  0  0
 11 23  1  0  0  0
 23 12  4  0  0  0
 12 24  4  0  0  0
 23 13  4  0  0  0
 13 27  4  0  0  0
 16 15  4  0  0  0
 16 17  1  0  0  0
 16 18  4  0  0  0
 24 25  4  0  0  0
 25 26  1  0  0  0
 25 27  4  0  0  0
 27 28  1  0  0  0
  1 29  1  0  0  0
  1 30  1  0  0  0
  1 31  1  0  0  0
  3 32  1  0  0  0
  3 33  1  0  0  0
  3 34  1  0  0  0
  5 35  1  0  0  0
  6 36  1  0  0  0
  6 37  1  0  0  0
  7 38  1  0  0  0
  7 39  1  0  0  0
  8 40  1  0  0  0
  8 41  1  0  0  0
  9 42  1  0  0  0
  9 43  1  0  0  0
 11 44  1  0  0  0
 11 45  1  0  0  0
 12 46  1  0  0  0
 13 47  1  0  0  0
 15 48  1  0  0  0
 20 49  1  0  0  0
 22 50  1  0  0  0
 24 51  1  0  0  0
M  END
$$$$
