### 
### Created by X-TOOL on Mon Sep 10 21:13:06 2018
### 

@<TRIPOS>MOLECULE
3qem_ligand
   54    56     1     0     0
SMALL
GAST_HUCK


@<TRIPOS>ATOM
      1 C          90.3090    9.4610  -32.0140 C.ar      1 QEM        -0.0663
      2 N          85.7180    6.4090  -32.3030 N.4       1 QEM         0.4032
      3 O          92.0740   12.7470  -31.8080 O.3       1 QEM        -0.3376
      4 C01        80.5040    3.1050  -31.3310 C.ar      1 QEM        -0.0603
      5 O01        87.9650    9.0930  -34.7650 O.3       1 QEM        -0.3809
      6 C02        81.8930    2.9090  -31.1000 C.ar      1 QEM        -0.0428
      7 C03        82.4780    1.6770  -31.3330 C.ar      1 QEM        -0.0603
      8 C04        81.6890    0.6110  -31.8060 C.ar      1 QEM        -0.0686
      9 C05        80.3040    0.8100  -32.0490 C.ar      1 QEM        -0.0687
     10 C06        79.7150    2.0390  -31.8150 C.ar      1 QEM        -0.0686
     11 C07        82.7440    4.0560  -30.5850 C.3       1 QEM        -0.0165
     12 C08        84.0680    4.2060  -31.4010 C.3       1 QEM        -0.0350
     13 C09        84.9880    4.8830  -30.5240 C.3       1 QEM        -0.0672
     14 C10        86.1390    5.5770  -31.1970 C.3       1 QEM        -0.1126
     15 C11        84.9960    5.6140  -33.2550 C.3       1 QEM        -0.1126
     16 C12        83.8010    4.9540  -32.6460 C.3       1 QEM        -0.0672
     17 C13        86.3600    7.3130  -33.2510 C.3       1 QEM        -0.1064
     18 C14        87.2370    8.3710  -32.6290 C.3       1 QEM        -0.0278
     19 C15        88.4050    8.6430  -33.5170 C.3       1 QEM         0.0849
     20 C16        89.3760    9.7090  -33.0300 C.ar      1 QEM        -0.0253
     21 C17        86.3920    9.6320  -32.3450 C.3       1 QEM        -0.0603
     22 C18        89.3610   10.9500  -33.6230 C.ar      1 QEM        -0.0663
     23 C19        90.2480   11.9630  -33.2210 C.ar      1 QEM        -0.0397
     24 C20        91.1630   11.7190  -32.2190 C.ar      1 QEM         0.0805
     25 C21        91.1760   10.4590  -31.6210 C.ar      1 QEM        -0.0397
     26 H          90.3493    8.4823  -31.5359 H         1 QEM         0.0531
     27 H          92.6370   12.4122  -31.1062 H         1 QEM         0.2458
     28 H          80.0493    4.0760  -31.1349 H         1 QEM         0.0557
     29 H          87.4592    9.9011  -34.6524 H         1 QEM         0.2127
     30 H          83.5430    1.5325  -31.1515 H         1 QEM         0.0557
     31 H          82.1403   -0.3649  -31.9853 H         1 QEM         0.0599
     32 H          79.6986   -0.0152  -32.4241 H         1 QEM         0.0559
     33 H          78.6510    2.1835  -32.0026 H         1 QEM         0.0599
     34 H          83.0025    3.8519  -29.5460 H         1 QEM         0.0429
     35 H          82.1728    4.9789  -30.6851 H         1 QEM         0.0429
     36 H          84.4902    3.2509  -31.7135 H         1 QEM         0.0321
     37 H          85.4224    4.1171  -29.8815 H         1 QEM         0.0250
     38 H          84.4153    5.6581  -30.0147 H         1 QEM         0.0250
     39 H          86.6211    6.2186  -30.4594 H         1 QEM         0.0017
     40 H          86.8088    4.8117  -31.5892 H         1 QEM         0.0017
     41 H          85.6637    4.8350  -33.6231 H         1 QEM         0.0017
     42 H          84.6513    6.2704  -34.0540 H         1 QEM         0.0017
     43 H          83.0985    5.7477  -32.3918 H         1 QEM         0.0250
     44 H          83.4350    4.2311  -33.3751 H         1 QEM         0.0250
     45 H          85.5615    7.8357  -33.7776 H         1 QEM         0.0022
     46 H          87.0045    6.7012  -33.8822 H         1 QEM         0.0022
     47 H          87.6374    8.0266  -31.6755 H         1 QEM         0.0323
     48 H          88.9279    7.6870  -33.5422 H         1 QEM         0.0738
     49 H          85.9747   10.0063  -33.2798 H         1 QEM         0.0234
     50 H          85.5828    9.3789  -31.6600 H         1 QEM         0.0234
     51 H          87.0242   10.3978  -31.8954 H         1 QEM         0.0234
     52 H          88.6465   11.1518  -34.4210 H         1 QEM         0.0531
     53 H          90.2127   12.9410  -33.7010 H         1 QEM         0.0525
     54 H          91.8899   10.2578  -30.8223 H         1 QEM         0.0525
@<TRIPOS>BOND
     1   20    1 ar 
     2    1   25 ar 
     3    2   14 1  
     4    2   15 1  
     5   17    2 1  
     6   24    3 1  
     7    6    4 ar 
     8    4   10 ar 
     9   19    5 1  
    10    6    7 ar 
    11   11    6 1  
    12    7    8 ar 
    13    8    9 ar 
    14   10    9 ar 
    15   12   11 1  
    16   13   12 1  
    17   16   12 1  
    18   14   13 1  
    19   15   16 1  
    20   18   17 1  
    21   19   18 1  
    22   18   21 1  
    23   20   19 1  
    24   22   20 ar 
    25   23   22 ar 
    26   23   24 ar 
    27   24   25 ar 
    28    1   26 1  
    29    3   27 1  
    30    4   28 1  
    31    5   29 1  
    32    7   30 1  
    33    8   31 1  
    34    9   32 1  
    35   10   33 1  
    36   11   34 1  
    37   11   35 1  
    38   12   36 1  
    39   13   37 1  
    40   13   38 1  
    41   14   39 1  
    42   14   40 1  
    43   15   41 1  
    44   15   42 1  
    45   16   43 1  
    46   16   44 1  
    47   17   45 1  
    48   17   46 1  
    49   18   47 1  
    50   19   48 1  
    51   21   49 1  
    52   21   50 1  
    53   21   51 1  
    54   22   52 1  
    55   23   53 1  
    56   25   54 1  
@<TRIPOS>SUBSTRUCTURE
     1 QEM         1

