3qem_ligand
  -I-interpret- 

 55 57  0  0  0  0  0  0  0  0999 V2000
   90.3090    9.4610  -32.0140 C   0  0  0  0  0
   85.7180    6.4090  -32.3030 N   0  3  0  0  0
   92.0740   12.7470  -31.8080 O   0  0  0  0  0
   80.5040    3.1050  -31.3310 C   0  0  0  0  0
   87.9650    9.0930  -34.7650 O   0  0  0  0  0
   81.8930    2.9090  -31.1000 C   0  0  0  0  0
   82.4780    1.6770  -31.3330 C   0  0  0  0  0
   81.6890    0.6110  -31.8060 C   0  0  0  0  0
   80.3040    0.8100  -32.0490 C   0  0  0  0  0
   79.7150    2.0390  -31.8150 C   0  0  0  0  0
   82.7440    4.0560  -30.5850 C   0  0  0  0  0
   84.0680    4.2060  -31.4010 C   0  0  0  0  0
   84.9880    4.8830  -30.5240 C   0  0  0  0  0
   86.1390    5.5770  -31.1970 C   0  0  0  0  0
   84.9960    5.6140  -33.2550 C   0  0  0  0  0
   83.8010    4.9540  -32.6460 C   0  0  0  0  0
   86.3600    7.3130  -33.2510 C   0  0  0  0  0
   87.2370    8.3710  -32.6290 C   0  0  0  0  0
   88.4050    8.6430  -33.5170 C   0  0  0  0  0
   89.3760    9.7090  -33.0300 C   0  0  0  0  0
   86.3920    9.6320  -32.3450 C   0  0  0  0  0
   89.3610   10.9500  -33.6230 C   0  0  0  0  0
   90.2480   11.9630  -33.2210 C   0  0  0  0  0
   91.1630   11.7190  -32.2190 C   0  0  0  0  0
   91.1760   10.4590  -31.6210 C   0  0  0  0  0
   90.3493    8.4823  -31.5359 H   0  0  0  0  0
   85.4208    7.0729  -31.5879 H   0  0  0  0  0
   92.6370   12.4122  -31.1062 H   0  0  0  0  0
   80.0493    4.0760  -31.1349 H   0  0  0  0  0
   88.7236    9.2647  -35.3277 H   0  0  0  0  0
   83.5430    1.5325  -31.1515 H   0  0  0  0  0
   82.1403   -0.3649  -31.9853 H   0  0  0  0  0
   79.6986   -0.0152  -32.4241 H   0  0  0  0  0
   78.6510    2.1835  -32.0026 H   0  0  0  0  0
   83.0025    3.8519  -29.5460 H   0  0  0  0  0
   82.1728    4.9789  -30.6851 H   0  0  0  0  0
   84.4902    3.2509  -31.7135 H   0  0  0  0  0
   85.4224    4.1171  -29.8815 H   0  0  0  0  0
   84.4153    5.6581  -30.0147 H   0  0  0  0  0
   86.6211    6.2186  -30.4594 H   0  0  0  0  0
   86.8088    4.8117  -31.5892 H   0  0  0  0  0
   85.6637    4.8350  -33.6231 H   0  0  0  0  0
   84.6513    6.2704  -34.0540 H   0  0  0  0  0
   83.0985    5.7477  -32.3918 H   0  0  0  0  0
   83.4350    4.2311  -33.3751 H   0  0  0  0  0
   85.5615    7.8357  -33.7776 H   0  0  0  0  0
   87.0045    6.7012  -33.8822 H   0  0  0  0  0
   87.6374    8.0266  -31.6755 H   0  0  0  0  0
   88.9279    7.6870  -33.5422 H   0  0  0  0  0
   85.9747   10.0063  -33.2798 H   0  0  0  0  0
   85.5828    9.3789  -31.6600 H   0  0  0  0  0
   87.0242   10.3978  -31.8954 H   0  0  0  0  0
   88.6465   11.1518  -34.4210 H   0  0  0  0  0
   90.2127   12.9410  -33.7010 H   0  0  0  0  0
   91.8899   10.2578  -30.8223 H   0  0  0  0  0
 20  1  4  0  0  0
  1 25  4  0  0  0
  2 14  1  0  0  0
  2 15  1  0  0  0
 17  2  1  0  0  0
 24  3  1  0  0  0
  6  4  4  0  0  0
  4 10  4  0  0  0
 19  5  1  0  0  0
  6  7  4  0  0  0
 11  6  1  0  0  0
  7  8  4  0  0  0
  8  9  4  0  0  0
 10  9  4  0  0  0
 12 11  1  0  0  0
 13 12  1  0  0  0
 16 12  1  0  0  0
 14 13  1  0  0  0
 15 16  1  0  0  0
 18 17  1  0  0  0
 19 18  1  0  0  0
 18 21  1  0  0  0
 20 19  1  0  0  0
 22 20  4  0  0  0
 23 22  4  0  0  0
 23 24  4  0  0  0
 24 25  4  0  0  0
  1 26  1  0  0  0
  2 27  1  0  0  0
  3 28  1  0  0  0
  4 29  1  0  0  0
  5 30  1  0  0  0
  7 31  1  0  0  0
  8 32  1  0  0  0
  9 33  1  0  0  0
 10 34  1  0  0  0
 11 35  1  0  0  0
 11 36  1  0  0  0
 12 37  1  0  0  0
 13 38  1  0  0  0
 13 39  1  0  0  0
 14 40  1  0  0  0
 14 41  1  0  0  0
 15 42  1  0  0  0
 15 43  1  0  0  0
 16 44  1  0  0  0
 16 45  1  0  0  0
 17 46  1  0  0  0
 17 47  1  0  0  0
 18 48  1  0  0  0
 19 49  1  0  0  0
 21 50  1  0  0  0
 21 51  1  0  0  0
 21 52  1  0  0  0
 22 53  1  0  0  0
 23 54  1  0  0  0
 25 55  1  0  0  0
M  END
$$$$
