2osm_ligand
  -I-interpret- 

 14 14  0  0  0  0  0  0  0  0999 V2000
   -6.8630    3.2400   16.5570 C   0  0  0  0  0
   -6.5390    1.9290   16.9080 C   0  0  0  0  0
   -5.7030    1.1540   16.1110 C   0  0  0  0  0
   -5.1450    1.6440   14.9170 C   0  0  0  0  0
   -5.4810    2.9660   14.5740 C   0  0  0  0  0
   -6.3090    3.7360   15.3670 C   0  0  0  0  0
   -7.0440    1.4420   18.0620 O   0  0  0  0  0
   -5.2890   -0.4640   16.6500 S   0  0  0  0  0
   -7.5169    3.8512   17.1791 H   0  0  0  0  0
   -4.4903    1.0349   14.2937 H   0  0  0  0  0
   -5.0767    3.3946   13.6570 H   0  0  0  0  0
   -6.5383    4.7565   15.0602 H   0  0  0  0  0
   -6.7467    0.5373   18.1835 H   0  0  0  0  0
   -4.4873   -1.0358   15.7560 H   0  0  0  0  0
  1  2  4  0  0  0
  1  6  4  0  0  0
  2  3  4  0  0  0
  2  7  1  0  0  0
  3  4  4  0  0  0
  3  8  1  0  0  0
  4  5  4  0  0  0
  5  6  4  0  0  0
  1  9  1  0  0  0
  4 10  1  0  0  0
  5 11  1  0  0  0
  6 12  1  0  0  0
  7 13  1  0  0  0
  8 14  1  0  0  0
M  END
$$$$
