5qqp_ligand
  -I-interpret- 

 68 72  0  0  0  0  0  0  0  0999 V2000
   46.5830  -20.8850   30.7400 C   0  0  0  0  0
   48.7390  -21.9120   32.6550 C   0  0  0  0  0
   44.2550  -22.4270   30.7590 C   0  0  0  0  0
   45.2960  -22.7090   31.6390 C   0  0  0  0  0
   50.7380  -22.1580   33.9140 C   0  0  0  0  0
   39.9010  -23.6150   28.6980 C   0  0  0  0  0
   40.4860  -24.9590   28.9250 C   0  0  0  0  0
   44.3660  -21.3290   29.8740 C   0  0  0  0  0
   45.5400  -20.5750   29.8840 C   0  0  0  0  0
   37.2190  -14.6660   27.3140 C   0  0  0  0  0
   36.6530  -15.7640   27.9580 C   0  0  0  0  0
   33.4470  -14.1120   29.6970 Cl  0  0  0  0  0
   39.7560  -20.5770   28.3080 C   0  0  0  0  0
   39.2380  -21.6180   27.2900 C   0  0  0  0  0
   39.7870  -22.9980   27.5280 C   0  0  0  0  0
   39.2000  -19.2280   28.1690 N   0  0  0  0  0
   41.2490  -20.6160   28.3410 C   0  0  0  0  0
   42.0180  -20.4440   27.2480 N   0  0  0  0  0
   43.3060  -20.6480   27.6200 C   0  0  0  0  0
   43.2860  -20.9460   28.9520 C   0  0  0  0  0
   41.9740  -20.9120   29.4020 N   0  0  0  0  0
   46.4560  -21.9370   31.6480 C   0  0  0  0  0
   47.4390  -22.3120   32.6000 N   0  0  0  0  0
   49.3070  -21.2140   31.8420 O   0  0  0  0  0
   49.3230  -22.4360   33.7440 O   0  0  0  0  0
   43.1090  -23.2640   30.7350 N   0  0  0  0  0
   41.5650  -24.9780   30.0230 C   0  0  0  0  0
   42.7160  -24.0530   29.7100 C   0  0  0  0  0
   43.2440  -24.0340   28.6030 O   0  0  0  0  0
   38.2340  -17.2300   29.2370 C   0  0  0  0  0
   39.1170  -18.4530   29.2890 C   0  0  0  0  0
   37.3640  -17.1060   28.0020 C   0  0  0  0  0
   38.2380  -17.4060   26.7910 C   0  0  0  0  0
   38.7330  -18.8560   26.8170 C   0  0  0  0  0
   36.6200  -13.4180   27.3870 C   0  0  0  0  0
   35.4290  -13.2500   28.0730 C   0  0  0  0  0
   34.8810  -14.3360   28.7250 C   0  0  0  0  0
   35.4700  -15.5860   28.6720 C   0  0  0  0  0
   39.7110  -18.7440   30.3180 O   0  0  0  0  0
   47.5057  -20.3059   30.7046 H   0  0  0  0  0
   45.2024  -23.5459   32.3311 H   0  0  0  0  0
   51.2894  -22.5510   33.0598 H   0  0  0  0  0
   50.8898  -21.0807   33.9816 H   0  0  0  0  0
   51.0933  -22.6343   34.8278 H   0  0  0  0  0
   39.5297  -23.0838   29.5744 H   0  0  0  0  0
   40.9584  -25.2734   27.9944 H   0  0  0  0  0
   39.6796  -25.6188   29.2451 H   0  0  0  0  0
   45.6376  -19.7271   29.2060 H   0  0  0  0  0
   38.1418  -14.7894   26.7472 H   0  0  0  0  0
   39.3752  -20.8720   29.2858 H   0  0  0  0  0
   39.5588  -21.3000   26.2980 H   0  0  0  0  0
   38.1540  -21.6702   27.3915 H   0  0  0  0  0
   40.1260  -23.5478   26.6500 H   0  0  0  0  0
   44.1861  -20.5861   26.9799 H   0  0  0  0  0
   47.1358  -22.9575   33.3292 H   0  0  0  0  0
   42.5257  -23.2709   31.5718 H   0  0  0  0  0
   41.9563  -25.9927   30.0954 H   0  0  0  0  0
   41.1064  -24.6447   30.9540 H   0  0  0  0  0
   38.8992  -16.3665   29.2363 H   0  0  0  0  0
   37.5568  -17.2995   30.0883 H   0  0  0  0  0
   36.5495  -17.8303   28.0130 H   0  0  0  0  0
   39.1016  -16.7412   26.8096 H   0  0  0  0  0
   37.6477  -17.2541   25.8874 H   0  0  0  0  0
   37.9098  -19.5131   26.5367 H   0  0  0  0  0
   39.5639  -18.9559   26.1187 H   0  0  0  0  0
   37.0898  -12.5629   26.9010 H   0  0  0  0  0
   34.9340  -12.2792   28.0976 H   0  0  0  0  0
   35.0102  -16.4293   29.1872 H   0  0  0  0  0
  9  1  4  0  0  0
  1 22  4  0  0  0
 23  2  1  0  0  0
  2 24  2  0  0  0
  2 25  1  0  0  0
  3  4  4  0  0  0
  8  3  4  0  0  0
  3 26  1  0  0  0
  4 22  4  0  0  0
 25  5  1  0  0  0
  6  7  1  0  0  0
 15  6  2  0  0  0
  7 27  1  0  0  0
  8  9  4  0  0  0
 20  8  1  0  0  0
 10 11  4  0  0  0
 35 10  4  0  0  0
 11 32  1  0  0  0
 11 38  4  0  0  0
 37 12  1  0  0  0
 13 14  1  0  0  0
 16 13  1  0  0  0
 13 17  1  0  0  0
 14 15  1  0  0  0
 31 16  1  0  0  0
 34 16  1  0  0  0
 17 18  4  0  0  0
 17 21  4  0  0  0
 18 19  4  0  0  0
 20 19  4  0  0  0
 21 20  4  0  0  0
 22 23  1  0  0  0
 26 28  1  0  0  0
 27 28  1  0  0  0
 28 29  2  0  0  0
 30 31  1  0  0  0
 32 30  1  0  0  0
 31 39  2  0  0  0
 32 33  1  0  0  0
 33 34  1  0  0  0
 36 35  4  0  0  0
 36 37  4  0  0  0
 37 38  4  0  0  0
  1 40  1  0  0  0
  4 41  1  0  0  0
  5 42  1  0  0  0
  5 43  1  0  0  0
  5 44  1  0  0  0
  6 45  1  0  0  0
  7 46  1  0  0  0
  7 47  1  0  0  0
  9 48  1  0  0  0
 10 49  1  0  0  0
 13 50  1  0  0  0
 14 51  1  0  0  0
 14 52  1  0  0  0
 15 53  1  0  0  0
 19 54  1  0  0  0
 23 55  1  0  0  0
 26 56  1  0  0  0
 27 57  1  0  0  0
 27 58  1  0  0  0
 30 59  1  0  0  0
 30 60  1  0  0  0
 32 61  1  0  0  0
 33 62  1  0  0  0
 33 63  1  0  0  0
 34 64  1  0  0  0
 34 65  1  0  0  0
 35 66  1  0  0  0
 36 67  1  0  0  0
 38 68  1  0  0  0
M  END
$$$$
