1gi1_ligand
  -I-interpret- 

 30 32  0  0  0  0  0  0  0  0999 V2000
   29.4210   15.0020   17.0370 C   0  0  0  0  0
   28.8930   15.8180   18.0960 C   0  0  0  0  0
   28.5980   15.3160   19.3690 C   0  0  0  0  0
   28.8270   13.9780   19.5530 C   0  0  0  0  0
   29.3210   13.1610   18.5880 C   0  0  0  0  0
   29.6350   13.6280   17.3210 C   0  0  0  0  0
   29.6800   15.5650   15.7540 C   0  0  0  0  0
   30.4010   14.8940   14.8730 N   0  0  0  0  0
   29.2050   16.7530   15.4620 N   0  0  0  0  0
   28.6260   13.2350   20.5950 N   0  0  0  0  0
   29.4480   11.9030   19.0050 N   0  0  0  0  0
   28.9910   12.0450   20.2460 C   0  0  0  0  0
   28.8670   10.9880   21.1720 C   0  0  0  0  0
   29.4510    9.7290   20.9700 C   0  0  0  0  0
   29.2910    8.6930   21.8900 C   0  0  0  0  0
   28.5360    8.8870   23.0280 C   0  0  0  0  0
   27.9540   10.1080   23.2610 C   0  0  0  0  0
   28.1100   11.1460   22.3510 C   0  0  0  0  0
   27.4980   12.3310   22.6670 O   0  0  0  0  0
   28.7143   16.8751   17.8990 H   0  0  0  0  0
   28.2097   15.9510   20.1653 H   0  0  0  0  0
   30.0363   12.9566   16.5618 H   0  0  0  0  0
   30.5927   15.2988   13.9566 H   0  0  0  0  0
   30.7658   13.9713   15.1094 H   0  0  0  0  0
   29.3913   17.1663   14.5483 H   0  0  0  0  0
   30.0444    9.5559   20.0722 H   0  0  0  0  0
   29.7638    7.7276   21.7093 H   0  0  0  0  0
   28.4020    8.0729   23.7403 H   0  0  0  0  0
   27.3659   10.2641   24.1654 H   0  0  0  0  0
   27.0349   12.2378   23.5027 H   0  0  0  0  0
  1  2  4  0  0  0
  1  6  4  0  0  0
  1  7  1  0  0  0
  2  3  4  0  0  0
  3  4  4  0  0  0
  4  5  4  0  0  0
  4 10  4  0  0  0
  5  6  4  0  0  0
  5 11  4  0  0  0
  7  8  1  0  0  0
  7  9  2  0  0  0
 10 12  4  0  0  0
 11 12  4  0  0  0
 12 13  1  0  0  0
 13 14  4  0  0  0
 13 18  4  0  0  0
 14 15  4  0  0  0
 15 16  4  0  0  0
 16 17  4  0  0  0
 17 18  4  0  0  0
 18 19  1  0  0  0
  2 20  1  0  0  0
  3 21  1  0  0  0
  6 22  1  0  0  0
  8 23  1  0  0  0
  8 24  1  0  0  0
  9 25  1  0  0  0
 14 26  1  0  0  0
 15 27  1  0  0  0
 16 28  1  0  0  0
 17 29  1  0  0  0
 19 30  1  0  0  0
M  END
$$$$
