4knj_ligand
  -I-interpret- 

 31 32  0  0  0  0  0  0  0  0999 V2000
   -5.2810    0.9990   18.2230 O   0  0  0  0  0
   -1.1540    8.3340   15.0240 C   0  0  0  0  0
   -4.1770    4.0320   14.0120 C   0  0  0  0  0
   -5.5920    3.4000   15.8160 C   0  0  0  0  0
   -6.6640    3.8650   17.1110 Cl  0  0  0  0  0
   -5.0940    4.4100   14.9970 C   0  0  0  0  0
   -3.7880    2.6840   13.7840 C   0  0  0  0  0
   -4.2970    1.6630   14.6070 C   0  0  0  0  0
   -5.1810    2.0520   15.6150 C   0  0  0  0  0
   -5.8060    0.7420   16.6810 S   0  0  0  0  0
   -5.0160   -0.7010   16.1160 N   0  0  0  0  0
   -7.3500    0.8130   16.6030 O   0  0  0  0  0
   -3.6260    5.1210   13.1820 C   0  0  0  0  0
   -4.3210    6.1050   12.9000 O   0  0  0  0  0
   -2.1900    4.9960   12.7940 C   0  0  0  0  0
   -1.8940    6.3250   11.5900 S   0  0  0  0  0
   -1.5180    7.5830   12.7890 C   0  0  0  0  0
   -1.3100    8.8320   12.2590 N   0  0  0  0  0
   -1.0340    9.8540   13.1400 C   0  0  0  0  0
   -0.9450    9.6070   14.5300 C   0  0  0  0  0
   -1.4610    7.3290   14.1490 N   0  0  0  0  0
   -1.0756    8.1341   16.0926 H   0  0  0  0  0
   -5.4049    5.4476   15.1184 H   0  0  0  0  0
   -3.0984    2.4425   12.9751 H   0  0  0  0  0
   -4.0151    0.6197   14.4647 H   0  0  0  0  0
   -4.3698   -1.2011   16.7266 H   0  0  0  0  0
   -5.1989   -1.0471   15.1741 H   0  0  0  0  0
   -1.9756    4.0161   12.3676 H   0  0  0  0  0
   -1.5333    5.0877   13.6592 H   0  0  0  0  0
   -0.8824   10.8650   12.7618 H   0  0  0  0  0
   -0.7109   10.4234   15.2132 H   0  0  0  0  0
 10  1  2  0  0  0
  2 20  4  0  0  0
 21  2  4  0  0  0
  3  6  4  0  0  0
  3  7  4  0  0  0
 13  3  1  0  0  0
  4  5  1  0  0  0
  6  4  4  0  0  0
  4  9  4  0  0  0
  7  8  4  0  0  0
  8  9  4  0  0  0
  9 10  1  0  0  0
 10 11  1  0  0  0
 10 12  2  0  0  0
 13 14  2  0  0  0
 15 13  1  0  0  0
 16 15  1  0  0  0
 17 16  1  0  0  0
 17 18  4  0  0  0
 17 21  4  0  0  0
 18 19  4  0  0  0
 19 20  4  0  0  0
  2 22  1  0  0  0
  6 23  1  0  0  0
  7 24  1  0  0  0
  8 25  1  0  0  0
 11 26  1  0  0  0
 11 27  1  0  0  0
 15 28  1  0  0  0
 15 29  1  0  0  0
 19 30  1  0  0  0
 20 31  1  0  0  0
M  END
$$$$
