5c7d_ligand
  -I-interpret- 

 41 43  0  0  0  0  0  0  0  0999 V2000
  -15.4820  -21.5650   -0.3400 C   0  0  0  0  0
  -15.9400  -20.1800   -0.7710 C   0  0  0  0  0
  -15.9310  -20.0100   -2.2880 C   0  0  0  0  0
  -16.2950  -18.6450   -2.6870 N   0  3  0  0  0
  -16.4840  -18.4850   -4.1340 C   0  0  0  0  0
  -15.2970  -18.8430   -5.0100 C   0  0  0  0  0
  -16.6400  -18.9460   -8.4410 C   0  0  0  0  0
  -15.1740  -19.2430   -8.5910 C   0  0  0  0  0
  -14.4120  -19.5530   -9.6980 C   0  0  0  0  0
  -12.5370  -19.7120   -8.4210 C   0  0  0  0  0
  -13.1920  -19.4140   -7.2590 C   0  0  0  0  0
  -15.3910  -17.7610   -0.5850 C   0  0  0  0  0
  -14.2060  -19.1140   -4.5200 O   0  0  0  0  0
  -15.5010  -18.8470   -6.3700 N   0  0  0  0  0
  -16.7530  -18.4000   -7.0340 C   0  0  0  0  0
  -13.1010  -19.7860   -9.6150 N   0  0  0  0  0
  -10.8280  -20.0240   -8.3680 Cl  0  0  0  0  0
  -14.5440  -19.1750   -7.3570 C   0  0  0  0  0
  -15.3800  -17.6570   -2.1000 C   0  0  0  0  0
  -15.0380  -19.1430   -0.1660 N   0  3  0  0  0
  -14.4593  -21.7300   -0.6791 H   0  0  0  0  0
  -15.5219  -21.6376    0.7468 H   0  0  0  0  0
  -16.1377  -22.3164   -0.7800 H   0  0  0  0  0
  -16.9658  -20.0573   -0.4234 H   0  0  0  0  0
  -16.6621  -20.6973   -2.7137 H   0  0  0  0  0
  -14.9232  -20.2148   -2.6493 H   0  0  0  0  0
  -17.2187  -18.4604   -2.2958 H   0  0  0  0  0
  -16.6755  -17.4249   -4.3001 H   0  0  0  0  0
  -17.2852  -19.1693   -4.4133 H   0  0  0  0  0
  -17.2611  -19.8283   -8.5959 H   0  0  0  0  0
  -17.0005  -18.2416   -9.1907 H   0  0  0  0  0
  -14.8968  -19.6095  -10.6726 H   0  0  0  0  0
  -12.6702  -19.3679   -6.3031 H   0  0  0  0  0
  -16.3879  -17.5189   -0.2168 H   0  0  0  0  0
  -14.6608  -17.0645   -0.1730 H   0  0  0  0  0
  -17.6437  -18.7633   -6.5213 H   0  0  0  0  0
  -16.8621  -17.3156   -7.0204 H   0  0  0  0  0
  -15.7032  -16.6572   -2.3899 H   0  0  0  0  0
  -14.3700  -17.8491   -2.4620 H   0  0  0  0  0
  -14.0868  -19.3327   -0.4816 H   0  0  0  0  0
  -15.1344  -19.1972    0.8480 H   0  0  0  0  0
  2  1  1  0  0  0
  3  2  1  0  0  0
  2 20  1  0  0  0
  4  3  1  0  0  0
  5  4  1  0  0  0
  4 19  1  0  0  0
  6  5  1  0  0  0
  6 13  2  0  0  0
 14  6  1  0  0  0
  7  8  1  0  0  0
 15  7  1  0  0  0
  8  9  4  0  0  0
  8 18  4  0  0  0
  9 16  4  0  0  0
 11 10  4  0  0  0
 16 10  4  0  0  0
 10 17  1  0  0  0
 18 11  4  0  0  0
 19 12  1  0  0  0
 12 20  1  0  0  0
 14 15  1  0  0  0
 14 18  1  0  0  0
  1 21  1  0  0  0
  1 22  1  0  0  0
  1 23  1  0  0  0
  2 24  1  0  0  0
  3 25  1  0  0  0
  3 26  1  0  0  0
  4 27  1  0  0  0
  5 28  1  0  0  0
  5 29  1  0  0  0
  7 30  1  0  0  0
  7 31  1  0  0  0
  9 32  1  0  0  0
 11 33  1  0  0  0
 12 34  1  0  0  0
 12 35  1  0  0  0
 15 36  1  0  0  0
 15 37  1  0  0  0
 19 38  1  0  0  0
 19 39  1  0  0  0
 20 40  1  0  0  0
 20 41  1  0  0  0
M  END
$$$$
