1k1o_ligand
  -I-interpret- 

 70 71  0  0  0  0  0  0  0  0999 V2000
   43.4400   22.9820   50.9150 C   0  0  0  0  0
   44.5390   23.4540   51.1630 O   0  0  0  0  0
   43.2750   21.6880   50.5110 N   0  0  0  0  0
   44.4400   20.8410   50.3640 C   0  0  0  0  0
   44.2490   19.5460   51.1810 C   0  0  0  0  0
   45.6050   19.0610   51.7200 C   0  0  0  0  0
   45.4150   17.9810   52.6720 N   0  0  0  0  0
   45.8710   18.0630   53.8890 C   0  0  0  0  0
   46.3220   19.1800   54.4130 N   0  0  0  0  0
   45.8990   16.9860   54.6130 N   0  0  0  0  0
   42.4870   24.9140   52.0770 N   0  0  0  0  0
   42.2220   23.8780   51.0500 C   0  0  0  0  0
   42.0170   24.5030   49.6710 C   0  0  0  0  0
   40.8310   25.5080   49.6850 C   0  0  0  0  0
   41.1820   26.6250   50.7080 C   0  0  0  0  0
   41.4450   26.0160   52.1120 C   0  0  0  0  0
   43.0750   23.1830   53.4900 O   0  0  0  0  0
   42.6750   24.3610   53.3240 C   0  0  0  0  0
   42.3870   25.1930   54.5340 C   0  0  0  0  0
   41.2530   24.4910   55.3750 C   0  0  0  0  0
   39.0480   24.5180   56.5380 C   0  0  0  0  0
   40.1120   25.4250   55.8380 C   0  0  0  0  0
   39.4760   26.2390   54.6620 C   0  0  0  0  0
   38.1080   26.8590   55.0430 C   0  0  0  0  0
   37.1670   25.7630   55.5090 C   0  0  0  0  0
   37.7150   25.2280   56.8220 C   0  0  0  0  0
   43.5210   25.3000   55.4180 N   0  3  0  0  0
   44.8470   24.9030   54.9380 C   0  0  0  0  0
   45.7340   24.7210   56.1220 C   0  0  0  0  0
   45.2390   24.7270   57.2860 O   0  0  0  0  0
   47.0460   24.5800   55.9490 O   0  0  0  0  0
   42.3429   21.3229   50.3153 H   0  0  0  0  0
   45.3200   21.3711   50.7282 H   0  0  0  0  0
   44.5720   20.5880   49.3120 H   0  0  0  0  0
   43.8217   18.7760   50.5387 H   0  0  0  0  0
   43.5802   19.7451   52.0183 H   0  0  0  0  0
   46.1054   19.8905   52.2197 H   0  0  0  0  0
   46.2084   18.6984   50.8878 H   0  0  0  0  0
   44.9142   17.1412   52.3815 H   0  0  0  0  0
   46.6827   19.1866   55.3671 H   0  0  0  0  0
   46.3115   20.0407   53.8658 H   0  0  0  0  0
   46.2651   17.0204   55.5644 H   0  0  0  0  0
   41.3314   23.3337   51.3642 H   0  0  0  0  0
   41.7945   23.7097   48.9573 H   0  0  0  0  0
   42.9248   25.0375   49.3911 H   0  0  0  0  0
   39.9068   25.0051   49.9698 H   0  0  0  0  0
   40.6776   25.9324   48.6928 H   0  0  0  0  0
   40.3441   27.3190   50.7750 H   0  0  0  0  0
   42.0813   27.1416   50.3726 H   0  0  0  0  0
   41.8149   26.8101   52.7606 H   0  0  0  0  0
   40.5110   25.5862   52.4740 H   0  0  0  0  0
   42.1095   26.1833   54.1730 H   0  0  0  0  0
   41.7253   24.0997   56.2761 H   0  0  0  0  0
   40.8015   23.7383   54.7288 H   0  0  0  0  0
   39.4637   24.2124   57.4982 H   0  0  0  0  0
   38.8361   23.6877   55.8644 H   0  0  0  0  0
   40.5067   26.1773   56.5210 H   0  0  0  0  0
   39.3156   25.5560   53.8278 H   0  0  0  0  0
   40.1558   27.0527   54.4093 H   0  0  0  0  0
   37.6810   27.3586   54.1734 H   0  0  0  0  0
   38.2484   27.5826   55.8460 H   0  0  0  0  0
   37.1063   24.9678   54.7660 H   0  0  0  0  0
   36.1590   26.1548   55.6451 H   0  0  0  0  0
   37.8712   26.0482   57.5228 H   0  0  0  0  0
   37.0063   24.5278   57.2642 H   0  0  0  0  0
   43.3171   24.6546   56.1811 H   0  0  0  0  0
   43.6039   26.2975   55.6144 H   0  0  0  0  0
   45.2531   25.6708   54.2794 H   0  0  0  0  0
   44.7789   23.9730   54.3737 H   0  0  0  0  0
   47.2476   24.5975   55.0106 H   0  0  0  0  0
  1  2  2  0  0  0
  1  3  1  0  0  0
  1 12  1  0  0  0
  3  4  1  0  0  0
  4  5  1  0  0  0
  5  6  1  0  0  0
  6  7  1  0  0  0
  7  8  1  0  0  0
  8  9  1  0  0  0
  8 10  2  0  0  0
 12 11  1  0  0  0
 11 16  1  0  0  0
 11 18  1  0  0  0
 12 13  1  0  0  0
 13 14  1  0  0  0
 14 15  1  0  0  0
 15 16  1  0  0  0
 18 17  2  0  0  0
 18 19  1  0  0  0
 19 20  1  0  0  0
 19 27  1  0  0  0
 20 22  1  0  0  0
 22 21  1  0  0  0
 21 26  1  0  0  0
 22 23  1  0  0  0
 23 24  1  0  0  0
 24 25  1  0  0  0
 25 26  1  0  0  0
 27 28  1  0  0  0
 28 29  1  0  0  0
 29 30  2  0  0  0
 29 31  1  0  0  0
  3 32  1  0  0  0
  4 33  1  0  0  0
  4 34  1  0  0  0
  5 35  1  0  0  0
  5 36  1  0  0  0
  6 37  1  0  0  0
  6 38  1  0  0  0
  7 39  1  0  0  0
  9 40  1  0  0  0
  9 41  1  0  0  0
 10 42  1  0  0  0
 12 43  1  0  0  0
 13 44  1  0  0  0
 13 45  1  0  0  0
 14 46  1  0  0  0
 14 47  1  0  0  0
 15 48  1  0  0  0
 15 49  1  0  0  0
 16 50  1  0  0  0
 16 51  1  0  0  0
 19 52  1  0  0  0
 20 53  1  0  0  0
 20 54  1  0  0  0
 21 55  1  0  0  0
 21 56  1  0  0  0
 22 57  1  0  0  0
 23 58  1  0  0  0
 23 59  1  0  0  0
 24 60  1  0  0  0
 24 61  1  0  0  0
 25 62  1  0  0  0
 25 63  1  0  0  0
 26 64  1  0  0  0
 26 65  1  0  0  0
 27 66  1  0  0  0
 27 67  1  0  0  0
 28 68  1  0  0  0
 28 69  1  0  0  0
 31 70  1  0  0  0
M  END
$$$$
