1bmq_ligand
  -I-interpret- 

 72 74  0  0  0  0  0  0  0  0999 V2000
   34.2130   70.0440   11.3720 C   0  0  0  0  0
   34.5360   68.8900   10.5870 C   0  0  0  0  0
   35.7850   68.7480    9.8930 C   0  0  0  0  0
   36.7550   69.7900    9.9520 C   0  0  0  0  0
   36.4610   70.9540   10.7180 C   0  0  0  0  0
   35.1640   71.1030   11.4660 C   0  0  0  0  0
   34.9430   72.2750   12.2620 C   0  0  0  0  0
   35.9560   73.3010   12.3350 C   0  0  0  0  0
   37.1990   73.1710   11.6110 C   0  0  0  0  0
   37.4430   72.0010   10.8110 C   0  0  0  0  0
   33.5470   67.8210   10.4700 C   0  0  0  0  0
   32.5810   67.6660   11.2140 O   0  0  0  0  0
   33.7680   66.9870    9.4460 N   0  0  0  0  0
   32.9160   65.8570    9.1460 C   0  0  0  0  0
   33.8450   64.8570    8.4600 C   0  0  0  0  0
   34.7280   65.2450    7.6940 O   0  0  0  0  0
   31.7930   66.2700    8.1690 C   0  0  0  0  0
   30.7730   65.1480    8.0400 C   0  0  0  0  0
   31.1220   67.5450    8.6510 C   0  0  0  0  0
   33.6690   63.5550    8.7410 N   0  0  0  0  0
   34.5310   62.5540    8.1060 C   0  0  0  0  0
   34.1510   62.3430    6.6380 C   0  0  0  0  0
   32.9680   62.3310    6.2910 O   0  0  0  0  0
   34.3050   61.3000    8.9460 C   0  0  0  0  0
   32.9250   61.4650    9.4930 C   0  0  0  0  0
   32.6900   62.9450    9.6590 C   0  0  0  0  0
   35.1990   62.1830    5.7990 N   0  0  0  0  0
   35.4540   62.6050    3.3400 C   0  0  0  0  0
   34.3940   63.4640    2.6940 C   0  0  0  0  0
   33.2020   62.8630    2.3380 N   0  0  0  0  0
   34.6210   64.6530    2.4930 O   0  0  0  0  0
   34.8940   61.7220    4.4500 C   0  0  0  0  0
   31.9200   62.2980    3.3010 S   0  0  0  0  0
   31.4050   63.3940    4.0810 O   0  0  0  0  0
   32.3220   61.1080    4.0020 O   0  0  0  0  0
   30.5750   61.6910    2.2590 C   0  0  0  0  0
   34.3580   59.4410    3.8250 O   0  0  0  0  0
   35.4060   60.2890    4.2820 C   0  0  0  0  0
   33.2559   70.1117   11.8892 H   0  0  0  0  0
   35.9910   67.8432    9.3211 H   0  0  0  0  0
   37.7028   69.6981    9.4216 H   0  0  0  0  0
   34.0094   72.3914   12.8124 H   0  0  0  0  0
   35.7802   74.1867   12.9454 H   0  0  0  0  0
   37.9507   73.9581   11.6708 H   0  0  0  0  0
   38.3836   71.9065   10.2685 H   0  0  0  0  0
   34.5768   67.1568    8.8481 H   0  0  0  0  0
   32.4361   65.4550   10.0383 H   0  0  0  0  0
   32.2296   66.4576    7.1880 H   0  0  0  0  0
   31.2658   64.2525    7.6615 H   0  0  0  0  0
   30.3386   64.9395    9.0177 H   0  0  0  0  0
   29.9867   65.4513    7.3488 H   0  0  0  0  0
   30.6929   67.3772    9.6388 H   0  0  0  0  0
   31.8607   68.3446    8.7054 H   0  0  0  0  0
   30.3326   67.8247    7.9533 H   0  0  0  0  0
   35.5801   62.8487    8.0796 H   0  0  0  0  0
   35.0493   61.1957    9.7355 H   0  0  0  0  0
   34.4064   60.3883    8.3573 H   0  0  0  0  0
   32.8247   60.9493   10.4480 H   0  0  0  0  0
   32.1881   61.0311    8.8171 H   0  0  0  0  0
   31.6647   63.2334    9.4275 H   0  0  0  0  0
   32.8216   63.2756   10.6893 H   0  0  0  0  0
   36.1559   62.3753    6.0952 H   0  0  0  0  0
   36.2001   63.2663    3.7806 H   0  0  0  0  0
   35.8735   61.9547    2.5724 H   0  0  0  0  0
   33.0697   62.7380    1.3344 H   0  0  0  0  0
   33.8101   61.7705    4.3457 H   0  0  0  0  0
   29.7515   61.3558    2.8896 H   0  0  0  0  0
   30.2314   62.4941    1.6070 H   0  0  0  0  0
   30.9333   60.8582    1.6539 H   0  0  0  0  0
   34.6924   58.5468    3.7241 H   0  0  0  0  0
   35.7653   59.9241    5.2442 H   0  0  0  0  0
   36.2137   60.2830    3.5501 H   0  0  0  0  0
  2  1  4  0  0  0
  1  6  4  0  0  0
  2  3  4  0  0  0
 11  2  1  0  0  0
  3  4  4  0  0  0
  4  5  4  0  0  0
  6  5  4  0  0  0
  5 10  4  0  0  0
  6  7  4  0  0  0
  7  8  4  0  0  0
  8  9  4  0  0  0
 10  9  4  0  0  0
 11 12  2  0  0  0
 13 11  1  0  0  0
 14 13  1  0  0  0
 15 14  1  0  0  0
 14 17  1  0  0  0
 15 16  2  0  0  0
 20 15  1  0  0  0
 17 18  1  0  0  0
 17 19  1  0  0  0
 21 20  1  0  0  0
 20 26  1  0  0  0
 22 21  1  0  0  0
 21 24  1  0  0  0
 22 23  2  0  0  0
 27 22  1  0  0  0
 24 25  1  0  0  0
 25 26  1  0  0  0
 32 27  1  0  0  0
 28 29  1  0  0  0
 28 32  1  0  0  0
 29 30  1  0  0  0
 29 31  2  0  0  0
 30 33  1  0  0  0
 32 38  1  0  0  0
 33 34  2  0  0  0
 33 35  2  0  0  0
 33 36  1  0  0  0
 38 37  1  0  0  0
  1 39  1  0  0  0
  3 40  1  0  0  0
  4 41  1  0  0  0
  7 42  1  0  0  0
  8 43  1  0  0  0
  9 44  1  0  0  0
 10 45  1  0  0  0
 13 46  1  0  0  0
 14 47  1  0  0  0
 17 48  1  0  0  0
 18 49  1  0  0  0
 18 50  1  0  0  0
 18 51  1  0  0  0
 19 52  1  0  0  0
 19 53  1  0  0  0
 19 54  1  0  0  0
 21 55  1  0  0  0
 24 56  1  0  0  0
 24 57  1  0  0  0
 25 58  1  0  0  0
 25 59  1  0  0  0
 26 60  1  0  0  0
 26 61  1  0  0  0
 27 62  1  0  0  0
 28 63  1  0  0  0
 28 64  1  0  0  0
 30 65  1  0  0  0
 32 66  1  0  0  0
 36 67  1  0  0  0
 36 68  1  0  0  0
 36 69  1  0  0  0
 37 70  1  0  0  0
 38 71  1  0  0  0
 38 72  1  0  0  0
M  END
$$$$
