4gwk_ligand
  -I-interpret- 

 18 17  0  0  0  0  0  0  0  0999 V2000
   59.6170   22.1390  -11.0480 C   0  0  0  0  0
   60.0340   21.0600  -10.5810 O   0  0  0  0  0
   58.8810   22.9550  -10.4620 O   0  0  0  0  0
   60.0880   22.4830  -12.4610 C   0  0  0  0  0
   59.4400   23.6440  -13.0030 O   0  0  0  0  0
   59.8720   21.2900  -13.3930 C   0  0  0  0  0
   58.4700   21.0870  -13.5890 O   0  0  0  0  0
   57.9220   19.6870  -14.1510 P   0  0  0  0  0
   58.2470   19.7190  -15.7410 O   0  0  0  0  0
   58.7780   18.4830  -13.5030 O   0  0  0  0  0
   56.4600   19.5310  -13.9420 O   0  0  0  0  0
   60.5822   20.6201  -11.2350 H   0  0  0  0  0
   61.1505   22.7149  -12.3872 H   0  0  0  0  0
   59.5782   24.3901  -12.4149 H   0  0  0  0  0
   60.3100   20.3967  -12.9478 H   0  0  0  0  0
   60.3486   21.4877  -14.3532 H   0  0  0  0  0
   59.1928   19.8199  -15.8712 H   0  0  0  0  0
   59.7122   18.6322  -13.6660 H   0  0  0  0  0
  1  2  1  0  0  0
  1  3  2  0  0  0
  1  4  1  0  0  0
  4  5  1  0  0  0
  4  6  1  0  0  0
  6  7  1  0  0  0
  7  8  1  0  0  0
  8  9  1  0  0  0
  8 10  1  0  0  0
  8 11  2  0  0  0
  2 12  1  0  0  0
  4 13  1  0  0  0
  5 14  1  0  0  0
  6 15  1  0  0  0
  6 16  1  0  0  0
  9 17  1  0  0  0
 10 18  1  0  0  0
M  END
$$$$
