### 
### Created by X-TOOL on Mon Sep 10 21:13:09 2018
### 

@<TRIPOS>MOLECULE
4gwk_ligand
   15    14     1     0     0
SMALL
GAST_HUCK


@<TRIPOS>ATOM
      1 C1         59.6170   22.1390  -11.0480 C.2       1 3PG         0.0659
      2 O1         60.0340   21.0600  -10.5810 O.co2     1 3PG        -0.5663
      3 O2         58.8810   22.9550  -10.4620 O.co2     1 3PG        -0.5663
      4 C2         60.0880   22.4830  -12.4610 C.3       1 3PG         0.1348
      5 O3         59.4400   23.6440  -13.0030 O.3       1 3PG        -0.3751
      6 C3         59.8720   21.2900  -13.3930 C.3       1 3PG         0.1159
      7 O1P        58.4700   21.0870  -13.5890 O.3       1 3PG        -0.2718
      8 P          57.9220   19.6870  -14.1510 P.3       1 3PG         0.2009
      9 O2P        58.2470   19.7190  -15.7410 O.co2     1 3PG        -0.5537
     10 O3P        58.7780   18.4830  -13.5030 O.co2     1 3PG        -0.5537
     11 O4P        56.4600   19.5310  -13.9420 O.co2     1 3PG        -0.5537
     12 H          61.1505   22.7149  -12.3872 H         1 3PG         0.0790
     13 H          58.4928   23.4923  -13.0402 H         1 3PG         0.2125
     14 H          60.3100   20.3967  -12.9478 H         1 3PG         0.0657
     15 H          60.3486   21.4877  -14.3532 H         1 3PG         0.0657
@<TRIPOS>BOND
     1    1    2 ar 
     2    1    3 ar 
     3    1    4 1  
     4    4    5 1  
     5    4    6 1  
     6    6    7 1  
     7    7    8 1  
     8    8    9 ar 
     9    8   10 ar 
    10    8   11 ar 
    11    4   12 1  
    12    5   13 1  
    13    6   14 1  
    14    6   15 1  
@<TRIPOS>SUBSTRUCTURE
     1 3PG         1

