3tcy_ligand
  -I-interpret- 

 24 24  0  0  0  0  0  0  0  0999 V2000
    5.0730   -7.9540  -16.9720 N   0  3  0  0  0
    6.2070   -7.6850  -16.0830 C   0  0  0  0  0
    7.4870   -8.2940  -16.5950 C   0  0  0  0  0
    7.5980   -8.5970  -17.7850 O   0  0  0  0  0
    5.9630   -8.2370  -14.6730 C   0  0  0  0  0
    5.0310   -7.3600  -13.8790 C   0  0  0  0  0
    5.5010   -6.1680  -13.3070 C   0  0  0  0  0
    3.7100   -7.7690  -13.7040 C   0  0  0  0  0
    4.6080   -5.3690  -12.5750 C   0  0  0  0  0
    2.8330   -6.9680  -12.9740 C   0  0  0  0  0
    3.2870   -5.7720  -12.4230 C   0  0  0  0  0
    8.4280   -8.4480  -15.7940 O   0  0  0  0  0
    5.2705   -7.5737  -17.8976 H   0  0  0  0  0
    4.9279   -8.9613  -17.0408 H   0  0  0  0  0
    4.2343   -7.5135  -16.5940 H   0  0  0  0  0
    6.3026   -6.5996  -16.0522 H   0  0  0  0  0
    6.9196   -8.2782  -14.1522 H   0  0  0  0  0
    5.5075   -9.2228  -14.7664 H   0  0  0  0  0
    6.5416   -5.8674  -13.4288 H   0  0  0  0  0
    3.3650   -8.7088  -14.1350 H   0  0  0  0  0
    4.9500   -4.4358  -12.1275 H   0  0  0  0  0
    1.7968   -7.2763  -12.8351 H   0  0  0  0  0
    2.5950   -5.1423  -11.8637 H   0  0  0  0  0
    8.1542   -8.1579  -14.9208 H   0  0  0  0  0
  1  2  1  0  0  0
  2  3  1  0  0  0
  2  5  1  0  0  0
  3  4  2  0  0  0
  3 12  1  0  0  0
  5  6  1  0  0  0
  6  7  4  0  0  0
  6  8  4  0  0  0
  7  9  4  0  0  0
  8 10  4  0  0  0
  9 11  4  0  0  0
 10 11  4  0  0  0
  1 13  1  0  0  0
  1 14  1  0  0  0
  1 15  1  0  0  0
  2 16  1  0  0  0
  5 17  1  0  0  0
  5 18  1  0  0  0
  7 19  1  0  0  0
  8 20  1  0  0  0
  9 21  1  0  0  0
 10 22  1  0  0  0
 11 23  1  0  0  0
 12 24  1  0  0  0
M  END
$$$$
