6pf6_ligand
  -I-interpret- 

 48 51  0  0  0  0  0  0  0  0999 V2000
   48.9950   22.6400   12.1700 C   0  0  0  0  0
   47.1400   19.4850   13.2220 C   0  0  0  0  0
   41.7310   20.6790   15.0410 C   0  0  0  0  0
   43.4510   20.0350   16.3340 C   0  0  0  0  0
   43.7810   19.7150   15.0370 C   0  0  0  0  0
   40.2820   21.1450   13.3600 C   0  0  0  0  0
   42.3700   20.0820   12.7760 C   0  0  0  0  0
   42.6780   20.1270   14.2200 C   0  0  0  0  0
   45.0570   19.0480   14.5850 C   0  0  0  0  0
   46.8810   22.2710   13.5510 C   0  0  0  0  0
   47.9610   21.7540   12.7990 C   0  0  0  0  0
   48.0800   20.3580   12.6460 C   0  0  0  0  0
   50.0220   24.9320   12.4800 C   0  0  0  0  0
   50.8510   24.9430   11.3300 C   0  0  0  0  0
   51.7260   26.0150   11.0610 C   0  0  0  0  0
   51.7770   27.0930   11.9640 C   0  0  0  0  0
   50.9680   27.0970   13.1130 C   0  0  0  0  0
   50.0860   26.0280   13.3920 C   0  0  0  0  0
   49.2460   26.0950   14.6480 C   0  0  0  0  0
   52.6020   26.0280    9.8400 C   0  0  0  0  0
   46.0640   20.0000   13.9680 C   0  0  0  0  0
   45.9380   21.3950   14.1300 C   0  0  0  0  0
   40.5110   21.2040   14.6450 N   0  0  0  0  0
   41.1760   20.6000   12.4230 N   0  0  0  0  0
   42.2030   20.6250   16.3300 N   0  0  0  0  0
   39.1330   21.6060   12.7480 N   0  0  0  0  0
   49.1430   23.8420   12.7620 N   0  0  0  0  0
   43.1460   19.6080   11.9490 O   0  0  0  0  0
   49.6280   22.2350   11.1950 O   0  0  0  0  0
   49.8240   26.7920   15.6700 O   0  0  0  0  0
   48.1400   25.5650   14.7500 O   0  0  0  0  0
   53.4630   26.8910    9.6780 O   0  0  0  0  0
   52.3740   25.0200    8.9470 O   0  0  0  0  0
   47.2451   18.4081   13.0904 H   0  0  0  0  0
   44.0689   19.8537   17.2135 H   0  0  0  0  0
   44.7883   18.3200   13.8195 H   0  0  0  0  0
   45.5237   18.6101   15.4674 H   0  0  0  0  0
   46.7766   23.3478   13.6838 H   0  0  0  0  0
   48.9124   19.9493   12.0731 H   0  0  0  0  0
   50.8108   24.1024   10.6372 H   0  0  0  0  0
   52.4481   27.9300   11.7711 H   0  0  0  0  0
   51.0215   27.9400   13.8019 H   0  0  0  0  0
   45.1063   21.7998   14.7066 H   0  0  0  0  0
   39.8444   21.6049   15.3048 H   0  0  0  0  0
   39.0254   21.5235   11.7371 H   0  0  0  0  0
   48.5164   24.0013   13.5509 H   0  0  0  0  0
   50.6797   27.1223   15.3868 H   0  0  0  0  0
   51.6617   24.4632    9.2697 H   0  0  0  0  0
  1 11  1  0  0  0
 27  1  1  0  0  0
  1 29  2  0  0  0
 12  2  4  0  0  0
  2 21  4  0  0  0
  8  3  4  0  0  0
  3 23  1  0  0  0
  3 25  4  0  0  0
  5  4  4  0  0  0
  4 25  4  0  0  0
  5  8  4  0  0  0
  9  5  1  0  0  0
 23  6  1  0  0  0
 24  6  4  0  0  0
  6 26  2  0  0  0
  8  7  1  0  0  0
  7 24  1  0  0  0
  7 28  2  0  0  0
 21  9  1  0  0  0
 11 10  4  0  0  0
 10 22  4  0  0  0
 11 12  4  0  0  0
 13 14  4  0  0  0
 13 18  4  0  0  0
 13 27  1  0  0  0
 14 15  4  0  0  0
 15 16  4  0  0  0
 15 20  1  0  0  0
 16 17  4  0  0  0
 17 18  4  0  0  0
 18 19  1  0  0  0
 19 30  1  0  0  0
 19 31  2  0  0  0
 20 32  2  0  0  0
 20 33  1  0  0  0
 21 22  4  0  0  0
  2 34  1  0  0  0
  4 35  1  0  0  0
  9 36  1  0  0  0
  9 37  1  0  0  0
 10 38  1  0  0  0
 12 39  1  0  0  0
 14 40  1  0  0  0
 16 41  1  0  0  0
 17 42  1  0  0  0
 22 43  1  0  0  0
 23 44  1  0  0  0
 26 45  1  0  0  0
 27 46  1  0  0  0
 30 47  1  0  0  0
 33 48  1  0  0  0
M  END
$$$$
