3gvb_ligand
  -I-interpret- 

 27 28  0  0  0  0  0  0  0  0999 V2000
   10.6950   45.9040   27.6200 O   0  0  0  0  0
   11.6200   45.6950   26.8510 C   0  0  0  0  0
   11.6820   46.2100   25.4390 C   0  0  0  0  0
   12.7120   44.9870   27.0890 N   0  0  0  0  0
   13.6140   44.7690   25.9690 C   0  0  0  0  0
   12.8010   45.3730   24.8190 C   0  0  0  0  0
   12.2160   44.2710   23.9810 C   0  0  0  0  0
   11.0200   43.9420   24.1510 O   0  0  0  0  0
   12.9500   43.7150   23.1350 O   0  0  0  0  0
   12.9990   44.4750   28.3680 C   0  0  0  0  0
   13.0000   43.1020   28.6060 C   0  0  0  0  0
   12.7250   42.2200   27.6050 O   0  0  0  0  0
   13.2900   42.6120   29.8790 C   0  0  0  0  0
   13.5740   43.4910   30.9220 C   0  0  0  0  0
   13.5730   44.8650   30.6890 C   0  0  0  0  0
   13.2880   45.3550   29.4140 C   0  0  0  0  0
   11.8765   47.2813   25.3874 H   0  0  0  0  0
   10.7346   46.1087   24.9095 H   0  0  0  0  0
   13.8849   43.7242   25.8171 H   0  0  0  0  0
   14.5973   45.2208   26.0995 H   0  0  0  0  0
   13.4313   45.9918   24.1804 H   0  0  0  0  0
   10.6347   44.4860   24.8418 H   0  0  0  0  0
   12.7704   41.3244   27.9477 H   0  0  0  0  0
   13.2945   41.5369   30.0588 H   0  0  0  0  0
   13.7962   43.1053   31.9170 H   0  0  0  0  0
   13.7947   45.5563   31.5021 H   0  0  0  0  0
   13.2908   46.4299   29.2331 H   0  0  0  0  0
  1  2  2  0  0  0
  2  3  1  0  0  0
  2  4  1  0  0  0
  3  6  1  0  0  0
  4  5  1  0  0  0
  4 10  1  0  0  0
  5  6  1  0  0  0
  6  7  1  0  0  0
  7  8  1  0  0  0
  7  9  2  0  0  0
 10 11  4  0  0  0
 10 16  4  0  0  0
 11 12  1  0  0  0
 11 13  4  0  0  0
 13 14  4  0  0  0
 14 15  4  0  0  0
 15 16  4  0  0  0
  3 17  1  0  0  0
  3 18  1  0  0  0
  5 19  1  0  0  0
  5 20  1  0  0  0
  6 21  1  0  0  0
  8 22  1  0  0  0
 12 23  1  0  0  0
 13 24  1  0  0  0
 14 25  1  0  0  0
 15 26  1  0  0  0
 16 27  1  0  0  0
M  END
$$$$
