1f5l_ligand
  -I-interpret- 

 22 22  0  0  0  0  0  0  0  0999 V2000
   31.1120    7.6690   27.6830 N   0  0  0  0  0
   30.5020    6.7410   28.4320 C   0  0  0  0  0
   31.2400    5.3550   28.6010 C   0  0  0  0  0
   32.5550    5.2790   28.1310 N   0  0  0  0  0
   33.2510    4.1770   28.0800 C   0  0  0  0  0
   32.7670    3.0180   28.4620 N   0  0  0  0  0
   34.4700    4.2400   27.6300 N   0  0  0  0  0
   30.6520    4.3960   29.1150 O   0  0  0  0  0
   29.2610    7.0260   29.0190 C   0  0  0  0  0
   28.5730    6.0860   29.8140 N   0  0  0  0  0
   28.6930    8.2380   28.8250 N   0  0  0  0  0
   29.3140    9.1790   28.0650 C   0  0  0  0  0
   28.6660   10.4360   27.8950 N   0  0  0  0  0
   30.5610    8.8800   27.4780 C   0  0  0  0  0
   31.4320   10.0160   26.4870 Cl  0  0  0  0  0
   31.8122    2.9555   28.8153 H   0  0  0  0  0
   33.3458    2.1800   28.4055 H   0  0  0  0  0
   34.8569    5.1345   27.3289 H   0  0  0  0  0
   28.9768    5.1638   29.9777 H   0  0  0  0  0
   27.6716    6.3284   30.2252 H   0  0  0  0  0
   27.7632   10.6083   28.3373 H   0  0  0  0  0
   29.1048   11.1638   27.3309 H   0  0  0  0  0
 14  1  4  0  0  0
  1  2  4  0  0  0
  2  9  4  0  0  0
  2  3  1  0  0  0
  3  8  2  0  0  0
  3  4  1  0  0  0
  4  5  4  0  0  0
  5  7  2  0  0  0
  5  6  1  0  0  0
  9 11  4  0  0  0
  9 10  1  0  0  0
 11 12  4  0  0  0
 12 14  4  0  0  0
 12 13  1  0  0  0
 14 15  1  0  0  0
  6 16  1  0  0  0
  6 17  1  0  0  0
  7 18  1  0  0  0
 10 19  1  0  0  0
 10 20  1  0  0  0
 13 21  1  0  0  0
 13 22  1  0  0  0
M  END
$$$$
