4yrs_ligand
  -I-interpret- 

 27 28  0  0  0  0  0  0  0  0999 V2000
   63.2630    7.6840   20.1340 N   0  0  0  0  0
   64.8910    6.8310   18.0820 C   0  0  0  0  0
   64.5770    7.9450   20.2040 C   0  0  0  0  0
   62.7300    7.0220   19.0940 C   0  0  0  0  0
   63.5230    6.5640   18.0300 C   0  0  0  0  0
   65.0840    8.6440   21.2970 C   0  0  0  0  0
   61.4300    4.8400   15.4290 C   0  0  0  0  0
   61.7410    5.5630   16.7370 C   0  0  0  0  0
   66.7860    7.8020   19.2400 C   0  0  0  0  0
   67.3060    8.5010   20.3300 C   0  0  0  0  0
   66.4560    8.9220   21.3590 C   0  0  0  0  0
   60.8370    5.8320   17.5140 O   0  0  0  0  0
   59.9750    4.3880   15.2790 C   0  0  0  0  0
   63.0360    5.8750   16.9510 N   0  0  0  0  0
   65.4190    7.5250   19.1720 C   0  0  0  0  0
   65.5447    6.4993   17.2753 H   0  0  0  0  0
   61.6562    6.8359   19.0757 H   0  0  0  0  0
   64.4197    8.9717   22.0966 H   0  0  0  0  0
   62.0455    3.9406   15.4092 H   0  0  0  0  0
   61.6283    5.5449   14.6216 H   0  0  0  0  0
   67.4483    7.4715   18.4399 H   0  0  0  0  0
   68.3728    8.7188   20.3799 H   0  0  0  0  0
   66.8622    9.4675   22.2108 H   0  0  0  0  0
   59.7241    3.7010   16.0872 H   0  0  0  0  0
   59.3193    5.2576   15.3230 H   0  0  0  0  0
   59.8492    3.8847   14.3204 H   0  0  0  0  0
   63.7106    5.5716   16.2487 H   0  0  0  0  0
  3  1  4  0  0  0
  1  4  4  0  0  0
  2  5  4  0  0  0
 15  2  4  0  0  0
  3  6  4  0  0  0
 15  3  4  0  0  0
  5  4  4  0  0  0
  5 14  1  0  0  0
  6 11  4  0  0  0
  8  7  1  0  0  0
  7 13  1  0  0  0
  8 12  2  0  0  0
 14  8  1  0  0  0
  9 10  4  0  0  0
  9 15  4  0  0  0
 10 11  4  0  0  0
  2 16  1  0  0  0
  4 17  1  0  0  0
  6 18  1  0  0  0
  7 19  1  0  0  0
  7 20  1  0  0  0
  9 21  1  0  0  0
 10 22  1  0  0  0
 11 23  1  0  0  0
 13 24  1  0  0  0
 13 25  1  0  0  0
 13 26  1  0  0  0
 14 27  1  0  0  0
M  END
$$$$
