5osd_ligand
  -I-interpret- 

 26 27  0  0  0  0  0  0  0  0999 V2000
   -4.5990   29.8230  -26.0760 C   0  0  0  0  0
   -3.4600   30.2200  -25.2440 C   0  0  0  0  0
   -2.8670   31.3930  -24.9290 C   0  0  0  0  0
   -1.8150   31.0880  -24.0800 C   0  0  0  0  0
   -1.7870   29.7420  -23.8950 C   0  0  0  0  0
   -0.4030   26.5950  -22.4130 C   0  0  0  0  0
   -1.1950   27.4590  -23.1420 C   0  0  0  0  0
   -0.9470   28.8320  -23.1290 C   0  0  0  0  0
    0.6410   27.0990  -21.6670 C   0  0  0  0  0
    0.9080   28.4560  -21.6340 C   0  0  0  0  0
    0.1120   29.3160  -22.3640 C   0  0  0  0  0
   -2.8070   29.1830  -24.6170 O   0  0  0  0  0
   -4.8810   28.6380  -26.2550 O   0  0  0  0  0
   -5.3110   30.8210  -26.6230 N   0  0  0  0  0
   -5.0860   32.1700  -26.3180 N   0  3  0  0  0
    1.6430   26.0120  -20.7480 Cl  0  0  0  0  0
   -3.1590   32.3846  -25.2749 H   0  0  0  0  0
   -1.1262   31.8065  -23.6356 H   0  0  0  0  0
   -0.6013   25.5233  -22.4270 H   0  0  0  0  0
   -2.0217   27.0651  -23.7332 H   0  0  0  0  0
    1.7362   28.8413  -21.0393 H   0  0  0  0  0
    0.3146   30.3868  -22.3415 H   0  0  0  0  0
   -6.0473   30.5873  -27.2891 H   0  0  0  0  0
   -5.7383   32.7500  -26.8457 H   0  0  0  0  0
   -5.2275   32.3197  -25.3190 H   0  0  0  0  0
   -4.1289   32.4188  -26.5681 H   0  0  0  0  0
  2  1  1  0  0  0
  1 13  2  0  0  0
  1 14  1  0  0  0
  2  3  4  0  0  0
 12  2  4  0  0  0
  4  3  4  0  0  0
  5  4  4  0  0  0
  8  5  1  0  0  0
  5 12  4  0  0  0
  7  6  4  0  0  0
  6  9  4  0  0  0
  7  8  4  0  0  0
  8 11  4  0  0  0
  9 10  4  0  0  0
  9 16  1  0  0  0
 10 11  4  0  0  0
 14 15  1  0  0  0
  3 17  1  0  0  0
  4 18  1  0  0  0
  6 19  1  0  0  0
  7 20  1  0  0  0
 10 21  1  0  0  0
 11 22  1  0  0  0
 14 23  1  0  0  0
 15 24  1  0  0  0
 15 25  1  0  0  0
 15 26  1  0  0  0
M  END
$$$$
