6mom_ligand
  -I-interpret- 

 53 57  0  0  0  0  0  0  0  0999 V2000
   26.9160   10.1150   -9.2910 C   0  0  0  0  0
   25.0570   11.5500   -6.4060 C   0  0  0  0  0
   23.9570   13.6310   -5.3960 C   0  0  0  0  0
   25.1110   12.3490   -8.4630 C   0  0  0  0  0
   30.3280   10.7780  -13.5710 C   0  0  0  0  0
   29.9300   12.0680  -13.2950 C   0  0  0  0  0
   29.0310   12.2520  -12.2460 C   0  0  0  0  0
   27.8360   13.8340  -10.7260 C   0  0  0  0  0
   28.2680   16.0900   -9.8050 C   0  0  0  0  0
   28.7430   13.7610   -9.4870 C   0  0  0  0  0
   24.9090    7.3350   -5.8840 C   0  0  0  0  0
   25.8830    8.6630   -7.6800 C   0  0  0  0  0
   26.4900    7.5970   -8.2350 C   0  0  0  0  0
   27.3380    7.7550   -9.3640 C   0  0  0  0  0
   28.6810    7.5570  -11.0350 C   0  0  0  0  0
   28.3900    8.8940  -10.9800 C   0  0  0  0  0
   26.0920    9.9950   -8.2210 C   0  0  0  0  0
   25.4560   11.2080   -7.6780 C   0  0  0  0  0
   28.9310    9.9550  -11.8340 C   0  0  0  0  0
   29.8380    9.7030  -12.8410 C   0  0  0  0  0
   27.3020   15.3020  -10.7310 C   0  0  0  0  0
   28.0230    6.8590  -10.0520 N   0  0  0  0  0
   27.5290    9.0280   -9.8730 N   0  0  0  0  0
   24.5230   12.7990   -6.4590 N   0  0  0  0  0
   24.5480   13.2960   -7.7440 N   0  0  0  0  0
   28.5750   13.4930  -11.9090 N   0  0  0  0  0
   29.3260   15.1080   -9.5060 N   0  3  0  0  0
   28.5510   11.2120  -11.5500 N   0  0  0  0  0
   25.0640    8.5800   -6.5930 O   0  0  0  0  0
   27.0996   11.1065   -9.7049 H   0  0  0  0  0
   25.1522   10.9298   -5.5147 H   0  0  0  0  0
   23.1094   13.1151   -4.9450 H   0  0  0  0  0
   24.7173   13.8156   -4.6371 H   0  0  0  0  0
   23.6243   14.5797   -5.8171 H   0  0  0  0  0
   25.2930   12.4268   -9.5349 H   0  0  0  0  0
   31.0400   10.5981  -14.3765 H   0  0  0  0  0
   30.3038   12.9120  -13.8747 H   0  0  0  0  0
   27.0091   13.1242  -10.7032 H   0  0  0  0  0
   27.7767   16.4646   -8.9070 H   0  0  0  0  0
   28.6550   16.9946  -10.2741 H   0  0  0  0  0
   29.4772   12.9560   -9.5177 H   0  0  0  0  0
   28.2190   13.5140   -8.5637 H   0  0  0  0  0
   24.5145    6.5786   -6.5625 H   0  0  0  0  0
   25.8778    7.0127   -5.5022 H   0  0  0  0  0
   24.2179    7.4753   -5.0529 H   0  0  0  0  0
   26.3295    6.6043   -7.8146 H   0  0  0  0  0
   29.3502    7.1040  -11.7664 H   0  0  0  0  0
   30.1625    8.6855  -13.0588 H   0  0  0  0  0
   26.2724   15.3565  -10.3775 H   0  0  0  0  0
   27.2810   15.7187  -11.7380 H   0  0  0  0  0
   28.7786   14.2514  -12.5600 H   0  0  0  0  0
   29.7383   15.3154   -8.5964 H   0  0  0  0  0
   30.0509   15.1572  -10.2219 H   0  0  0  0  0
  1 17  4  0  0  0
 23  1  4  0  0  0
 18  2  4  0  0  0
  2 24  4  0  0  0
 24  3  1  0  0  0
 18  4  4  0  0  0
  4 25  4  0  0  0
  5  6  4  0  0  0
 20  5  4  0  0  0
  6  7  4  0  0  0
  7 26  1  0  0  0
  7 28  4  0  0  0
  8 10  1  0  0  0
  8 21  1  0  0  0
 26  8  1  0  0  0
 21  9  1  0  0  0
  9 27  1  0  0  0
 10 27  1  0  0  0
 29 11  1  0  0  0
 13 12  4  0  0  0
 17 12  4  0  0  0
 12 29  1  0  0  0
 14 13  4  0  0  0
 14 22  4  0  0  0
 23 14  4  0  0  0
 16 15  4  0  0  0
 15 22  4  0  0  0
 19 16  1  0  0  0
 16 23  4  0  0  0
 17 18  1  0  0  0
 19 20  4  0  0  0
 19 28  4  0  0  0
 24 25  4  0  0  0
  1 30  1  0  0  0
  2 31  1  0  0  0
  3 32  1  0  0  0
  3 33  1  0  0  0
  3 34  1  0  0  0
  4 35  1  0  0  0
  5 36  1  0  0  0
  6 37  1  0  0  0
  8 38  1  0  0  0
  9 39  1  0  0  0
  9 40  1  0  0  0
 10 41  1  0  0  0
 10 42  1  0  0  0
 11 43  1  0  0  0
 11 44  1  0  0  0
 11 45  1  0  0  0
 13 46  1  0  0  0
 15 47  1  0  0  0
 20 48  1  0  0  0
 21 49  1  0  0  0
 21 50  1  0  0  0
 26 51  1  0  0  0
 27 52  1  0  0  0
 27 53  1  0  0  0
M  END
$$$$
