4lbu_ligand
  -I-interpret- 

 51 54  0  0  0  0  0  0  0  0999 V2000
    9.6320   17.5660   91.6710 C   0  0  0  0  0
   10.6500   17.9360   90.8110 C   0  0  0  0  0
   10.3640   17.8290   89.4590 C   0  0  0  0  0
    9.1620   17.3220   88.9710 C   0  0  0  0  0
    8.1240   16.8590   89.8190 C   0  0  0  0  0
    6.8340   16.2510   89.2430 C   0  0  0  0  0
    5.8170   17.1820   88.7430 C   0  0  0  0  0
    8.4060   17.0320   91.2160 C   0  0  0  0  0
    9.8890   17.7310   93.1390 C   0  0  0  0  0
    7.4410   16.6870   92.1500 N   0  0  0  0  0
    7.6570   16.8930   93.4470 C   0  0  0  0  0
    6.6940   16.5820   94.3270 N   0  0  0  0  0
    8.8150   17.4000   93.9200 N   0  0  0  0  0
   10.9050   18.1370   93.5940 O   0  0  0  0  0
   11.0690   18.1940   88.3240 N   0  0  0  0  0
    9.1400   17.3930   87.5940 N   0  0  0  0  0
   10.2820   17.9080   87.2430 C   0  0  0  0  0
   10.7080   18.2080   85.9710 N   0  0  0  0  0
    9.7180   18.3100   84.8970 C   0  0  0  0  0
    2.8510   17.2220   86.8980 C   0  0  0  0  0
    3.4620   17.8210   85.7700 O   0  0  0  0  0
    3.4370   19.2500   85.7650 C   0  0  0  0  0
    3.5870   17.5900   88.0760 O   0  0  0  0  0
    4.4950   16.5230   88.4210 C   0  0  0  0  0
    4.4210   15.5530   87.2630 C   0  0  0  0  0
    4.7330   14.2240   87.5820 O   0  0  0  0  0
    2.9540   15.7090   86.8290 C   0  0  0  0  0
    2.0250   15.1540   87.7600 O   0  0  0  0  0
    1.6090   13.8180   87.4930 C   0  0  0  0  0
   11.6155   18.2892   91.1733 H   0  0  0  0  0
    6.3647   15.7171   90.0693 H   0  0  0  0  0
    7.1449   15.6621   88.3801 H   0  0  0  0  0
    6.1986   17.6156   87.8186 H   0  0  0  0  0
    5.6327   17.9155   89.5280 H   0  0  0  0  0
    6.5612   16.2733   91.8415 H   0  0  0  0  0
    6.8473   16.7303   95.3244 H   0  0  0  0  0
   11.6984   18.3573   85.7783 H   0  0  0  0  0
    9.1960   17.3587   84.7942 H   0  0  0  0  0
    9.0013   19.0949   85.1386 H   0  0  0  0  0
   10.2223   18.5521   83.9615 H   0  0  0  0  0
    1.8112   17.5483   86.9210 H   0  0  0  0  0
    2.4029   19.5941   85.7836 H   0  0  0  0  0
    3.9617   19.6244   86.6440 H   0  0  0  0  0
    3.9274   19.6175   84.8636 H   0  0  0  0  0
    4.2756   15.9260   89.3062 H   0  0  0  0  0
    5.1600   15.7752   86.4932 H   0  0  0  0  0
    4.6610   13.6814   86.7933 H   0  0  0  0  0
    2.7265   15.2196   85.8820 H   0  0  0  0  0
    1.1263   13.7774   86.5165 H   0  0  0  0  0
    2.4782   13.1604   87.4977 H   0  0  0  0  0
    0.9052   13.4976   88.2612 H   0  0  0  0  0
  1  2  4  0  0  0
  8  1  4  0  0  0
  1  9  1  0  0  0
  3  2  4  0  0  0
  4  3  4  0  0  0
  3 15  4  0  0  0
  5  4  4  0  0  0
  4 16  4  0  0  0
  6  5  1  0  0  0
  5  8  4  0  0  0
  7  6  1  0  0  0
 24  7  1  0  0  0
  8 10  1  0  0  0
  9 13  1  0  0  0
  9 14  2  0  0  0
 10 11  1  0  0  0
 11 12  2  0  0  0
 11 13  4  0  0  0
 17 15  4  0  0  0
 16 17  4  0  0  0
 17 18  1  0  0  0
 18 19  1  0  0  0
 20 21  1  0  0  0
 23 20  1  0  0  0
 20 27  1  0  0  0
 21 22  1  0  0  0
 23 24  1  0  0  0
 24 25  1  0  0  0
 25 26  1  0  0  0
 25 27  1  0  0  0
 27 28  1  0  0  0
 28 29  1  0  0  0
  2 30  1  0  0  0
  6 31  1  0  0  0
  6 32  1  0  0  0
  7 33  1  0  0  0
  7 34  1  0  0  0
 10 35  1  0  0  0
 12 36  1  0  0  0
 18 37  1  0  0  0
 19 38  1  0  0  0
 19 39  1  0  0  0
 19 40  1  0  0  0
 20 41  1  0  0  0
 22 42  1  0  0  0
 22 43  1  0  0  0
 22 44  1  0  0  0
 24 45  1  0  0  0
 25 46  1  0  0  0
 26 47  1  0  0  0
 27 48  1  0  0  0
 29 49  1  0  0  0
 29 50  1  0  0  0
 29 51  1  0  0  0
M  END
$$$$
