4ou3_ligand
  -I-interpret- 

 75 75  0  0  0  0  0  0  0  0999 V2000
   30.9990   15.1400   60.5680 N   0  3  0  0  0
   30.1970   15.5250   59.4470 C   0  0  0  0  0
   28.8940   16.1990   59.8860 C   0  0  0  0  0
   28.3760   15.9240   60.9270 O   0  0  0  0  0
   29.9510   14.2770   58.6120 C   0  0  0  0  0
   28.8700   14.3540   57.2000 S   0  0  0  0  0
   28.3510   17.0730   59.0520 N   0  0  0  0  0
   27.0310   17.6800   59.2880 C   0  0  0  0  0
   26.2180   17.7220   58.0050 C   0  0  0  0  0
   26.7350   18.0430   56.9810 O   0  0  0  0  0
   27.1780   19.0850   59.8810 C   0  0  0  0  0
   25.9040   19.6220   60.5420 C   0  0  0  0  0
   25.0630   18.8970   61.0330 O   0  0  0  0  0
   25.7930   20.9190   60.5530 N   0  0  0  0  0
   24.9450   17.3840   58.0800 N   0  0  0  0  0
   24.1050   17.3080   56.9060 C   0  0  0  0  0
   23.7020   15.8720   56.6920 C   0  0  0  0  0
   23.0660   15.3020   57.5400 O   0  0  0  0  0
   24.1490   15.2940   55.5840 N   0  0  0  0  0
   23.9390   13.9030   55.2110 C   0  0  0  0  0
   25.1450   12.9950   55.4730 C   0  0  0  0  0
   25.9990   12.7910   54.6320 O   0  0  0  0  0
   23.7270   13.9130   53.7380 C   0  0  0  0  0
   22.7590   12.9320   53.2430 C   0  0  0  0  0
   21.9450   13.8140   52.3800 C   0  0  0  0  0
   22.6800   14.2320   51.2080 N   0  0  0  0  0
   22.3180   15.2910   50.5160 C   0  0  0  0  0
   21.3400   16.0620   50.9580 N   0  0  0  0  0
   22.9220   15.5900   49.3960 N   0  0  0  0  0
   25.2160   12.4180   56.6470 N   0  0  0  0  0
   26.4450   11.8050   57.0880 C   0  0  0  0  0
   26.3570   10.2840   57.2520 C   0  0  0  0  0
   25.2890    9.7340   57.3630 O   0  0  0  0  0
   26.9040   12.5430   58.3380 C   0  0  0  0  0
   27.0880   14.2980   58.0020 S   0  0  0  0  0
   27.5030    9.6290   57.1630 N   0  0  0  0  0
   27.6380    8.1990   57.3090 C   0  0  0  0  0
   29.0910    7.9360   57.6030 C   0  0  0  0  0
   29.4680    6.8020   58.0120 O   0  0  0  0  0
   29.8110    8.9450   57.3890 O   0  0  0  0  0
   31.1825   15.9573   61.1500 H   0  0  0  0  0
   30.5020   14.4366   61.1145 H   0  0  0  0  0
   31.8821   14.7526   60.2357 H   0  0  0  0  0
   30.7173   16.2718   58.8473 H   0  0  0  0  0
   29.4602   13.5834   59.2948 H   0  0  0  0  0
   30.9275   14.0295   58.1958 H   0  0  0  0  0
   28.8680   17.3358   58.2130 H   0  0  0  0  0
   26.4975   17.0595   60.0080 H   0  0  0  0  0
   27.4229   19.7578   59.0591 H   0  0  0  0  0
   27.9439   19.0299   60.6546 H   0  0  0  0  0
   24.9792   21.3576   60.9841 H   0  0  0  0  0
   26.5198   21.4967   60.1306 H   0  0  0  0  0
   24.5420   17.1702   58.9923 H   0  0  0  0  0
   24.6510   17.6728   56.0360 H   0  0  0  0  0
   23.2172   17.9247   57.0456 H   0  0  0  0  0
   24.6854   15.8741   54.9389 H   0  0  0  0  0
   23.1098   13.5143   55.8022 H   0  0  0  0  0
   24.6854   13.6661   53.2813 H   0  0  0  0  0
   23.3338   14.8974   53.4842 H   0  0  0  0  0
   22.1999   12.4099   54.0194 H   0  0  0  0  0
   23.1978   12.0736   52.7344 H   0  0  0  0  0
   21.6726   14.7012   52.9517 H   0  0  0  0  0
   21.0628   13.2619   52.0559 H   0  0  0  0  0
   23.4953   13.6956   50.9114 H   0  0  0  0  0
   21.0598   16.8858   50.4258 H   0  0  0  0  0
   20.8653   15.8333   51.8314 H   0  0  0  0  0
   23.6802   15.0006   49.0523 H   0  0  0  0  0
   24.3962   12.4021   57.2537 H   0  0  0  0  0
   27.2032   11.9084   56.3118 H   0  0  0  0  0
   27.8666   12.1403   58.6531 H   0  0  0  0  0
   26.1584   12.4091   59.1217 H   0  0  0  0  0
   28.3476   10.1705   56.9789 H   0  0  0  0  0
   27.3230    7.6822   56.4025 H   0  0  0  0  0
   27.0030    7.8266   58.1129 H   0  0  0  0  0
   28.7076    6.2208   58.0862 H   0  0  0  0  0
  1  2  1  0  0  0
  2  3  1  0  0  0
  2  5  1  0  0  0
  3  4  2  0  0  0
  3  7  1  0  0  0
  5  6  1  0  0  0
  6 35  1  0  0  0
  7  8  1  0  0  0
  8  9  1  0  0  0
  8 11  1  0  0  0
  9 10  2  0  0  0
  9 15  1  0  0  0
 11 12  1  0  0  0
 12 13  2  0  0  0
 12 14  1  0  0  0
 15 16  1  0  0  0
 16 17  1  0  0  0
 17 18  2  0  0  0
 17 19  1  0  0  0
 19 20  1  0  0  0
 20 21  1  0  0  0
 20 23  1  0  0  0
 21 22  2  0  0  0
 21 30  1  0  0  0
 23 24  1  0  0  0
 24 25  1  0  0  0
 25 26  1  0  0  0
 26 27  1  0  0  0
 27 28  1  0  0  0
 27 29  2  0  0  0
 30 31  1  0  0  0
 31 32  1  0  0  0
 31 34  1  0  0  0
 32 33  2  0  0  0
 32 36  1  0  0  0
 34 35  1  0  0  0
 36 37  1  0  0  0
 37 38  1  0  0  0
 38 39  1  0  0  0
 38 40  2  0  0  0
  1 41  1  0  0  0
  1 42  1  0  0  0
  1 43  1  0  0  0
  2 44  1  0  0  0
  5 45  1  0  0  0
  5 46  1  0  0  0
  7 47  1  0  0  0
  8 48  1  0  0  0
 11 49  1  0  0  0
 11 50  1  0  0  0
 14 51  1  0  0  0
 14 52  1  0  0  0
 15 53  1  0  0  0
 16 54  1  0  0  0
 16 55  1  0  0  0
 19 56  1  0  0  0
 20 57  1  0  0  0
 23 58  1  0  0  0
 23 59  1  0  0  0
 24 60  1  0  0  0
 24 61  1  0  0  0
 25 62  1  0  0  0
 25 63  1  0  0  0
 26 64  1  0  0  0
 28 65  1  0  0  0
 28 66  1  0  0  0
 29 67  1  0  0  0
 30 68  1  0  0  0
 31 69  1  0  0  0
 34 70  1  0  0  0
 34 71  1  0  0  0
 36 72  1  0  0  0
 37 73  1  0  0  0
 37 74  1  0  0  0
 39 75  1  0  0  0
M  END
$$$$
