3zo4_ligand
  -I-interpret- 

 50 54  0  0  0  0  0  0  0  0999 V2000
   23.0050  -12.7000   -0.2920 C   0  0  0  0  0
   23.0690  -11.3290   -0.4330 C   0  0  0  0  0
   23.5600  -10.5400    0.6020 C   0  0  0  0  0
   23.9930  -11.1160    1.7930 C   0  0  0  0  0
   23.9250  -12.4990    1.9190 C   0  0  0  0  0
   23.4330  -13.2860    0.8820 C   0  0  0  0  0
   24.5350  -10.2680    2.9320 C   0  0  0  0  0
   23.5430   -9.2330    3.4880 C   0  0  0  0  0
   24.1820   -8.4040    4.5880 C   0  0  0  0  0
   25.4240   -7.7480    4.1440 N   0  3  0  0  0
   25.8710   -9.6130    2.5590 C   0  0  0  0  0
   28.8150   -8.7070    2.6910 C   0  0  0  0  0
   27.5570   -7.8840    2.9210 C   0  0  0  0  0
   28.5800   -9.2410    5.0950 C   0  0  0  0  0
   27.1170   -9.5380    4.8000 C   0  0  0  0  0
   30.8310   -9.5810    3.9510 C   0  0  0  0  0
   31.3310   -9.6710    5.2050 N   0  0  0  0  0
   32.6660   -9.7890    5.2460 C   0  0  0  0  0
   33.5330   -9.8240    4.2270 N   0  0  0  0  0
   32.9530   -9.7680    3.0090 C   0  0  0  0  0
   26.4910   -8.7120    3.6620 C   0  0  0  0  0
   33.5670   -9.8380    1.7890 N   0  0  0  0  0
   32.5810   -9.7930    0.8610 C   0  0  0  0  0
   31.3690   -9.6900    1.3730 N   0  0  0  0  0
   31.5920   -9.6630    2.7410 C   0  0  0  0  0
   29.4380   -9.2700    3.8980 N   0  0  0  0  0
   22.6186  -13.3169   -1.1033 H   0  0  0  0  0
   22.7335  -10.8623   -1.3591 H   0  0  0  0  0
   23.6063   -9.4579    0.4790 H   0  0  0  0  0
   24.2612  -12.9727    2.8414 H   0  0  0  0  0
   23.3855  -14.3688    0.9974 H   0  0  0  0  0
   24.7043  -10.9698    3.7487 H   0  0  0  0  0
   22.6829   -9.7596    3.9015 H   0  0  0  0  0
   23.2412   -8.5678    2.6790 H   0  0  0  0  0
   24.4286   -9.0709    5.4141 H   0  0  0  0  0
   23.4752   -7.6274    4.8800 H   0  0  0  0  0
   25.8069   -7.2490    4.9470 H   0  0  0  0  0
   25.1835   -7.1444    3.3577 H   0  0  0  0  0
   25.6775   -8.9706    1.6999 H   0  0  0  0  0
   26.5788  -10.4222    2.3790 H   0  0  0  0  0
   29.5491   -8.0322    2.2507 H   0  0  0  0  0
   28.5207   -9.5543    2.0716 H   0  0  0  0  0
   27.1556   -7.5774    1.9551 H   0  0  0  0  0
   27.8113   -7.0146    3.5272 H   0  0  0  0  0
   28.9404  -10.0126    5.7753 H   0  0  0  0  0
   28.6327   -8.2352    5.5117 H   0  0  0  0  0
   26.5613   -9.2919    5.7048 H   0  0  0  0  0
   27.0681  -10.5818    4.4898 H   0  0  0  0  0
   33.1032   -9.8667    6.2414 H   0  0  0  0  0
   32.7715   -9.8378   -0.2113 H   0  0  0  0  0
  2  1  4  0  0  0
  6  1  4  0  0  0
  3  2  4  0  0  0
  4  3  4  0  0  0
  4  5  4  0  0  0
  7  4  1  0  0  0
  5  6  4  0  0  0
  7  8  1  0  0  0
 11  7  1  0  0  0
  9  8  1  0  0  0
 10  9  1  0  0  0
 21 10  1  0  0  0
 21 11  1  0  0  0
 12 13  1  0  0  0
 26 12  1  0  0  0
 13 21  1  0  0  0
 14 15  1  0  0  0
 26 14  1  0  0  0
 15 21  1  0  0  0
 16 17  4  0  0  0
 16 25  4  0  0  0
 16 26  1  0  0  0
 17 18  4  0  0  0
 18 19  4  0  0  0
 19 20  4  0  0  0
 20 22  4  0  0  0
 20 25  4  0  0  0
 22 23  4  0  0  0
 23 24  4  0  0  0
 24 25  4  0  0  0
  1 27  1  0  0  0
  2 28  1  0  0  0
  3 29  1  0  0  0
  5 30  1  0  0  0
  6 31  1  0  0  0
  7 32  1  0  0  0
  8 33  1  0  0  0
  8 34  1  0  0  0
  9 35  1  0  0  0
  9 36  1  0  0  0
 10 37  1  0  0  0
 10 38  1  0  0  0
 11 39  1  0  0  0
 11 40  1  0  0  0
 12 41  1  0  0  0
 12 42  1  0  0  0
 13 43  1  0  0  0
 13 44  1  0  0  0
 14 45  1  0  0  0
 14 46  1  0  0  0
 15 47  1  0  0  0
 15 48  1  0  0  0
 18 49  1  0  0  0
 23 50  1  0  0  0
M  END
$$$$
