3n8n_ligand
  -I-interpret- 

 40 40  0  0  0  0  0  0  0  0999 V2000
   -1.4720   33.7410   81.5030 C   0  0  0  0  0
   -1.3220   34.8570   80.4840 C   0  0  0  0  0
   -1.3670   34.0210   82.7230 O   0  0  0  0  0
   -0.9230   34.2300   79.1320 C   0  0  0  0  0
   -1.6910   32.5740   81.0880 O   0  0  0  0  0
   -1.2010   35.1400   77.9280 C   0  0  0  0  0
   -0.9830   34.4380   76.6930 O   0  0  0  0  0
   -2.6170   35.7420   77.9260 C   0  0  0  0  0
   -2.5530   37.1230   77.5500 O   0  0  0  0  0
   -3.3400   35.6550   79.2560 C   0  0  0  0  0
   -2.6140   35.6520   80.3940 C   0  0  0  0  0
   -4.6920   35.5800   79.2850 C   0  0  0  0  0
   -5.3310   35.5000   80.4710 N   0  0  0  0  0
   -6.6520   36.0300   80.8270 C   0  0  0  0  0
   -7.6630   34.8770   80.8210 C   0  0  0  0  0
   -7.1360   37.1330   79.8850 C   0  0  0  0  0
   -6.5480   36.6070   82.2350 C   0  0  0  0  0
   -5.3170   35.5580   78.2230 O   0  0  0  0  0
   -0.3080   35.7780   80.9040 O   0  0  0  0  0
   -1.5174   33.3256   79.0027 H   0  0  0  0  0
    0.1508   34.0451   79.1613 H   0  0  0  0  0
   -1.7349   32.5796   80.1290 H   0  0  0  0  0
   -0.4970   35.9671   78.0191 H   0  0  0  0  0
   -0.1000   34.0614   76.6919 H   0  0  0  0  0
   -3.1831   35.1444   77.2116 H   0  0  0  0  0
   -2.0982   37.2036   76.7084 H   0  0  0  0  0
   -4.2028   35.6667   79.9220 H   0  0  0  0  0
   -2.2996   36.6887   80.5140 H   0  0  0  0  0
   -3.2689   35.1831   81.1284 H   0  0  0  0  0
   -4.8328   35.0092   81.2135 H   0  0  0  0  0
   -7.6981   34.4314   79.8269 H   0  0  0  0  0
   -7.3577   34.1240   81.5475 H   0  0  0  0  0
   -8.6493   35.2590   81.0843 H   0  0  0  0  0
   -6.4312   37.9642   79.9084 H   0  0  0  0  0
   -7.2022   36.7396   78.8706 H   0  0  0  0  0
   -8.1183   37.4787   80.2068 H   0  0  0  0  0
   -6.2528   35.8193   82.9282 H   0  0  0  0  0
   -5.8017   37.4014   82.2465 H   0  0  0  0  0
   -7.5154   37.0112   82.5330 H   0  0  0  0  0
    0.5313   35.3175   80.9751 H   0  0  0  0  0
  1  2  1  0  0  0
  1  3  2  0  0  0
  1  5  1  0  0  0
  2  4  1  0  0  0
  2 11  1  0  0  0
  2 19  1  0  0  0
  4  6  1  0  0  0
  6  7  1  0  0  0
  6  8  1  0  0  0
  8  9  1  0  0  0
  8 10  1  0  0  0
 10 11  1  0  0  0
 10 12  1  0  0  0
 12 13  1  0  0  0
 12 18  2  0  0  0
 13 14  1  0  0  0
 14 15  1  0  0  0
 14 16  1  0  0  0
 14 17  1  0  0  0
  4 20  1  0  0  0
  4 21  1  0  0  0
  5 22  1  0  0  0
  6 23  1  0  0  0
  7 24  1  0  0  0
  8 25  1  0  0  0
  9 26  1  0  0  0
 10 27  1  0  0  0
 11 28  1  0  0  0
 11 29  1  0  0  0
 13 30  1  0  0  0
 15 31  1  0  0  0
 15 32  1  0  0  0
 15 33  1  0  0  0
 16 34  1  0  0  0
 16 35  1  0  0  0
 16 36  1  0  0  0
 17 37  1  0  0  0
 17 38  1  0  0  0
 17 39  1  0  0  0
 19 40  1  0  0  0
M  END
$$$$
