3ads_ligand
  -I-interpret- 

 41 43  0  0  0  0  0  0  0  0999 V2000
   17.2700   67.6780    9.1220 C   0  0  0  0  0
   16.2160   67.0750    9.8870 C   0  0  0  0  0
   16.5010   65.9500   10.7250 C   0  0  0  0  0
   17.8170   65.4330   10.7950 C   0  0  0  0  0
   18.8540   66.0300   10.0380 C   0  0  0  0  0
   18.5880   67.1380    9.2120 C   0  0  0  0  0
   17.7610   63.0020   11.2700 C   0  0  0  0  0
   14.9890   67.8430    9.5790 C   0  0  0  0  0
   15.3270   68.8100    8.6970 C   0  0  0  0  0
   17.4310   69.5610    7.5250 C   0  0  0  0  0
   17.5910   71.0680    7.6520 C   0  0  0  0  0
   18.3580   71.7700    6.6590 C   0  0  0  0  0
   18.5190   73.1650    6.7340 C   0  0  0  0  0
   17.9270   73.8900    7.7880 C   0  0  0  0  0
   17.1730   73.2200    8.7780 C   0  0  0  0  0
   17.0020   71.8210    8.7180 C   0  0  0  0  0
   14.3290   69.8080    8.1250 C   0  0  0  0  0
   13.5780   67.6100   10.1310 C   0  0  0  0  0
   12.9790   66.2720    9.7200 C   0  0  0  0  0
   16.7090   68.7430    8.3990 N   0  0  0  0  0
   18.0880   64.3570   11.5940 O   0  0  0  0  0
   17.9750   69.0140    6.5770 O   0  0  0  0  0
   13.5940   65.4910    9.0300 O   0  0  0  0  0
   11.7430   65.9500   10.1310 O   0  0  0  0  0
   18.1240   75.6110    7.8720 Cl  0  0  0  0  0
   15.7039   65.4910   11.3098 H   0  0  0  0  0
   19.8657   65.6285   10.0954 H   0  0  0  0  0
   19.3963   67.5880    8.6355 H   0  0  0  0  0
   16.6826   62.9109   11.1404 H   0  0  0  0  0
   18.2646   62.7191   10.3456 H   0  0  0  0  0
   18.0877   62.3475   12.0781 H   0  0  0  0  0
   18.8187   71.2162    5.8410 H   0  0  0  0  0
   19.1027   73.6867    5.9756 H   0  0  0  0  0
   16.7214   73.7871    9.5920 H   0  0  0  0  0
   16.4196   71.3115    9.4857 H   0  0  0  0  0
   13.5466   69.2708    7.5890 H   0  0  0  0  0
   13.8854   70.3828    8.9380 H   0  0  0  0  0
   14.8433   70.4822    7.4401 H   0  0  0  0  0
   12.9355   68.3939    9.7299 H   0  0  0  0  0
   13.6460   67.6184   11.2188 H   0  0  0  0  0
   11.3883   66.6645   10.6651 H   0  0  0  0  0
  1  2  4  0  0  0
  1  6  4  0  0  0
 20  1  4  0  0  0
  2  3  4  0  0  0
  8  2  4  0  0  0
  3  4  4  0  0  0
  5  4  4  0  0  0
  4 21  1  0  0  0
  6  5  4  0  0  0
 21  7  1  0  0  0
  9  8  4  0  0  0
  8 18  1  0  0  0
  9 17  1  0  0  0
 20  9  4  0  0  0
 10 11  1  0  0  0
 10 20  1  0  0  0
 10 22  2  0  0  0
 11 12  4  0  0  0
 11 16  4  0  0  0
 12 13  4  0  0  0
 13 14  4  0  0  0
 14 15  4  0  0  0
 14 25  1  0  0  0
 15 16  4  0  0  0
 18 19  1  0  0  0
 19 23  2  0  0  0
 19 24  1  0  0  0
  3 26  1  0  0  0
  5 27  1  0  0  0
  6 28  1  0  0  0
  7 29  1  0  0  0
  7 30  1  0  0  0
  7 31  1  0  0  0
 12 32  1  0  0  0
 13 33  1  0  0  0
 15 34  1  0  0  0
 16 35  1  0  0  0
 17 36  1  0  0  0
 17 37  1  0  0  0
 17 38  1  0  0  0
 18 39  1  0  0  0
 18 40  1  0  0  0
 24 41  1  0  0  0
M  END
$$$$
