6cyb_ligand
  -I-interpret- 

 40 42  0  0  0  0  0  0  0  0999 V2000
   32.8130   -6.8650   14.3820 C   0  0  0  0  0
   29.7530   -4.9310   14.2680 C   0  0  0  0  0
   29.8160   -3.0610   16.0010 C   0  0  0  0  0
   30.7310   -0.8890   15.4780 C   0  0  0  0  0
   30.6640   -2.6300   13.8090 C   0  0  0  0  0
   31.1480    0.4800   15.9130 C   0  0  0  0  0
   28.8250   -5.7450   15.1690 C   0  0  0  0  0
   33.8590   -7.5860   15.1860 C   0  0  0  0  0
   34.9870   -6.7160   15.6020 C   0  0  0  0  0
   31.5620   -6.4790   10.5130 C   0  0  0  0  0
   34.3330   -8.1470   11.9230 O   0  0  0  0  0
   33.2840   -7.4990   11.8560 C   0  0  0  0  0
   32.6110   -6.9010   12.9830 C   0  0  0  0  0
   32.6830   -7.2500   10.6230 N   0  0  0  0  0
   31.1160   -6.2670    9.3210 O   0  0  0  0  0
   30.9310   -5.9250   11.5270 N   0  0  0  0  0
   31.4530   -6.1360   12.7460 C   0  0  0  0  0
   31.0140   -5.6910   13.9480 N   0  0  0  0  0
   31.8660   -6.1220   14.9470 N   0  0  0  0  0
   35.5310   -6.0760   14.5860 F   0  0  0  0  0
   35.9600   -7.4360   16.1560 F   0  0  0  0  0
   34.6070   -5.7900   16.4970 F   0  0  0  0  0
   30.0760   -3.5130   14.7100 C   0  0  0  0  0
   30.9880   -1.3360   14.1880 C   0  0  0  0  0
   30.2930    1.3920   15.5930 F   0  0  0  0  0
   31.2650    0.5720   17.2310 F   0  0  0  0  0
   32.3120    0.8720   15.3750 F   0  0  0  0  0
   30.1300   -1.7630   16.3790 C   0  0  0  0  0
   29.1563   -4.7905   13.3667 H   0  0  0  0  0
   29.3595   -3.7360   16.7249 H   0  0  0  0  0
   30.8727   -2.9602   12.7914 H   0  0  0  0  0
   28.5524   -6.6721   14.6647 H   0  0  0  0  0
   29.3375   -5.9751   16.1031 H   0  0  0  0  0
   27.9256   -5.1664   15.3795 H   0  0  0  0  0
   34.2687   -8.3768   14.5577 H   0  0  0  0  0
   33.3791   -7.9569   16.0917 H   0  0  0  0  0
   33.0918   -7.6547    9.7807 H   0  0  0  0  0
   30.0893   -5.3646   11.3935 H   0  0  0  0  0
   31.4493   -0.6623   13.4659 H   0  0  0  0  0
   29.9039   -1.4252   17.3904 H   0  0  0  0  0
  1  8  1  0  0  0
 13  1  4  0  0  0
  1 19  4  0  0  0
  2  7  1  0  0  0
 18  2  1  0  0  0
  2 23  1  0  0  0
 23  3  4  0  0  0
  3 28  4  0  0  0
  4  6  1  0  0  0
 24  4  4  0  0  0
 28  4  4  0  0  0
 23  5  4  0  0  0
  5 24  4  0  0  0
  6 25  1  0  0  0
  6 26  1  0  0  0
  6 27  1  0  0  0
  8  9  1  0  0  0
  9 20  1  0  0  0
  9 21  1  0  0  0
  9 22  1  0  0  0
 10 14  1  0  0  0
 10 15  2  0  0  0
 16 10  1  0  0  0
 12 11  2  0  0  0
 13 12  1  0  0  0
 12 14  1  0  0  0
 17 13  4  0  0  0
 17 16  1  0  0  0
 17 18  4  0  0  0
 18 19  4  0  0  0
  2 29  1  0  0  0
  3 30  1  0  0  0
  5 31  1  0  0  0
  7 32  1  0  0  0
  7 33  1  0  0  0
  7 34  1  0  0  0
  8 35  1  0  0  0
  8 36  1  0  0  0
 14 37  1  0  0  0
 16 38  1  0  0  0
 24 39  1  0  0  0
 28 40  1  0  0  0
M  END
$$$$
