### 
### Created by X-TOOL on Mon Sep 10 21:13:23 2018
### 

@<TRIPOS>MOLECULE
4xkc_ligand
   65    72     1     0     0
SMALL
GAST_HUCK


@<TRIPOS>ATOM
      1 CMB         1.2040  -21.5050   16.4660 C.3       1 MD9        -0.0270
      2 CMC         2.2720  -28.4950   19.6060 C.3       1 MD9        -0.0239
      3 CMA         5.2130  -18.6540   18.2750 C.3       1 MD9         0.0684
      4 CMD         9.5400  -26.6560   21.8020 C.3       1 MD9         0.0431
      5 CAA         7.7870  -19.2390   20.0270 C.3       1 MD9         0.0591
      6 CBA         7.4860  -18.6510   21.3940 C.3       1 MD9         0.0262
      7 CGA         7.8040  -19.4800   22.5760 C.2       1 MD9         0.0398
      8 O1A         8.9290  -20.0430   22.6650 O.co2     1 MD9        -0.5686
      9 CAD        10.3460  -23.5650   21.7540 C.3       1 MD9         0.0936
     10 CBD        10.2360  -22.7300   22.9910 C.3       1 MD9         0.0423
     11 CGD        11.3650  -22.7290   23.9690 C.2       1 MD9         0.0431
     12 O1D        11.2480  -22.0990   25.0470 O.co2     1 MD9        -0.5683
     13 C2A         6.8080  -20.2670   19.4810 C.2       1 MD9         0.1843
     14 C3A         5.7000  -19.9990   18.7260 C.2       1 MD9         0.1936
     15 C4A         5.1390  -21.2450   18.4810 C.2       1 MD9         0.2713
     16 NA          5.7920  -22.3310   19.0200 N.2       1 MD9        -0.1050
     17 C1A         6.8390  -21.6460   19.6370 C.2       1 MD9         0.2513
     18 CHB         3.9020  -21.1860   17.6600 C.2       1 MD9         0.1001
     19 C1B         3.2160  -22.4750   17.7880 C.2       1 MD9         0.1033
     20 C2B         1.9580  -22.5700   17.2050 C.2       1 MD9        -0.0101
     21 C3B         1.5650  -23.8560   17.4610 C.2       1 MD9        -0.0326
     22 C4B         2.6030  -24.4410   18.1720 C.2       1 MD9         0.0838
     23 NB          3.6420  -23.6000   18.4020 N.2       1 MD9        -0.2668
     24 CHC         2.4090  -25.8290   18.5620 C.2       1 MD9         0.0635
     25 C1C         3.6160  -26.3160   19.1850 C.2       1 MD9         0.1130
     26 C2C         3.4800  -27.6050   19.6680 C.2       1 MD9        -0.0014
     27 C3C         4.6900  -27.8910   20.2110 C.2       1 MD9        -0.0247
     28 C4C         5.4530  -26.7610   20.0130 C.2       1 MD9         0.0999
     29 NC          4.8280  -25.7170   19.3680 N.2       1 MD9        -0.2515
     30 CHD         6.8140  -26.9100   20.5600 C.2       1 MD9         0.1077
     31 C1D         7.4570  -25.5850   20.6770 C.2       1 MD9         0.2694
     32 C2D         8.7230  -25.5190   21.2630 C.2       1 MD9         0.1953
     33 C3D         9.0610  -24.1980   21.2380 C.2       1 MD9         0.2114
     34 C4D         7.9720  -23.5520   20.6420 C.2       1 MD9         0.2949
     35 ND          6.9670  -24.3780   20.3000 N.2       1 MD9        -0.0790
     36 CHA         8.0150  -22.0870   20.4620 C.2       1 MD9         0.1444
     37 O2D        12.4210  -23.3530   23.7110 O.co2     1 MD9        -0.5683
     38 O2A         6.9550  -19.6240   23.4870 O.co2     1 MD9        -0.5686
     39 MG          5.5250  -24.0120   19.0330 Mg        1 MD9         2.0000
     40 H           0.2360  -21.9063   16.1314 H         1 MD9         0.0415
     41 H           1.7885  -21.1812   15.5922 H         1 MD9         0.0415
     42 H           1.0343  -20.6464   17.1323 H         1 MD9         0.0415
     43 H           2.5015  -29.4585   20.0846 H         1 MD9         0.0428
     44 H           1.9949  -28.6645   18.5551 H         1 MD9         0.0428
     45 H           1.4348  -28.0141   20.1330 H         1 MD9         0.0428
     46 H           5.8949  -17.8742   18.6450 H         1 MD9         0.0922
     47 H           4.2031  -18.4771   18.6735 H         1 MD9         0.0922
     48 H           5.1839  -18.6242   17.1758 H         1 MD9         0.0922
     49 H           8.9867  -27.5980   21.6740 H         1 MD9         0.0691
     50 H           9.7390  -26.4901   22.8710 H         1 MD9         0.0691
     51 H          10.4933  -26.7136   21.2562 H         1 MD9         0.0691
     52 H           8.7744  -19.7203   20.0840 H         1 MD9         0.0707
     53 H           7.8260  -18.4059   19.3098 H         1 MD9         0.0707
     54 H           6.4094  -18.4279   21.4275 H         1 MD9         0.0487
     55 H           8.0574  -17.7154   21.4839 H         1 MD9         0.0487
     56 H          11.0570  -24.3779   21.9630 H         1 MD9         0.0978
     57 H          10.7461  -22.9244   20.9543 H         1 MD9         0.0978
     58 H           9.3417  -23.0725   23.5322 H         1 MD9         0.0525
     59 H          10.0914  -21.6894   22.6652 H         1 MD9         0.0525
     60 H           3.5665  -20.3400   17.0710 H         1 MD9         0.1537
     61 H           0.6274  -24.3250   17.1663 H         1 MD9         0.0415
     62 H           1.5034  -26.4048   18.4092 H         1 MD9         0.1537
     63 H           4.9933  -28.8161   20.6991 H         1 MD9         0.0431
     64 H           7.2745  -27.8519   20.8354 H         1 MD9         0.1622
     65 H           8.7781  -21.4302   20.8636 H         1 MD9         0.1627
@<TRIPOS>BOND
     1   20    1 1  
     2   26    2 1  
     3   14    3 1  
     4   32    4 1  
     5    5    6 1  
     6   13    5 1  
     7    6    7 1  
     8    7    8 ar 
     9    7   38 ar 
    10    9   10 1  
    11   33    9 1  
    12   10   11 1  
    13   11   12 ar 
    14   11   37 ar 
    15   14   13 2  
    16   17   13 1  
    17   15   14 1  
    18   15   16 2  
    19   18   15 1  
    20   16   17 1  
    21   17   36 2  
    22   19   18 2  
    23   19   20 1  
    24   23   19 1  
    25   21   20 2  
    26   22   21 1  
    27   22   23 2  
    28   24   22 1  
    29   25   24 2  
    30   25   26 1  
    31   29   25 1  
    32   27   26 2  
    33   28   27 1  
    34   28   29 2  
    35   30   28 1  
    36   31   30 2  
    37   32   31 1  
    38   31   35 1  
    39   32   33 2  
    40   33   34 1  
    41   34   35 2  
    42   34   36 1  
    43   16   39 1  
    44   39   23 1  
    45   39   29 1  
    46   39   35 1  
    47    1   40 1  
    48    1   41 1  
    49    1   42 1  
    50    2   43 1  
    51    2   44 1  
    52    2   45 1  
    53    3   46 1  
    54    3   47 1  
    55    3   48 1  
    56    4   49 1  
    57    4   50 1  
    58    4   51 1  
    59    5   52 1  
    60    5   53 1  
    61    6   54 1  
    62    6   55 1  
    63    9   56 1  
    64    9   57 1  
    65   10   58 1  
    66   10   59 1  
    67   18   60 1  
    68   21   61 1  
    69   24   62 1  
    70   27   63 1  
    71   30   64 1  
    72   36   65 1  
@<TRIPOS>SUBSTRUCTURE
     1 MD9         1

