4xkc_ligand
  -I-interpret- 

 67 74  0  0  0  0  0  0  0  0999 V2000
    1.2040  -21.5050   16.4660 C   0  0  0  0  0
    2.2720  -28.4950   19.6060 C   0  0  0  0  0
    5.2130  -18.6540   18.2750 C   0  0  0  0  0
    9.5400  -26.6560   21.8020 C   0  0  0  0  0
    7.7870  -19.2390   20.0270 C   0  0  0  0  0
    7.4860  -18.6510   21.3940 C   0  0  0  0  0
    7.8040  -19.4800   22.5760 C   0  0  0  0  0
    8.9290  -20.0430   22.6650 O   0  0  0  0  0
   10.3460  -23.5650   21.7540 C   0  0  0  0  0
   10.2360  -22.7300   22.9910 C   0  0  0  0  0
   11.3650  -22.7290   23.9690 C   0  0  0  0  0
   11.2480  -22.0990   25.0470 O   0  0  0  0  0
    6.8080  -20.2670   19.4810 C   0  0  0  0  0
    5.7000  -19.9990   18.7260 C   0  0  0  0  0
    5.1390  -21.2450   18.4810 C   0  0  0  0  0
    5.7920  -22.3310   19.0200 N   0  3  0  0  0
    6.8390  -21.6460   19.6370 C   0  0  0  0  0
    3.9020  -21.1860   17.6600 C   0  0  0  0  0
    3.2160  -22.4750   17.7880 C   0  0  0  0  0
    1.9580  -22.5700   17.2050 C   0  0  0  0  0
    1.5650  -23.8560   17.4610 C   0  0  0  0  0
    2.6030  -24.4410   18.1720 C   0  0  0  0  0
    3.6420  -23.6000   18.4020 N   0  3  0  0  0
    2.4090  -25.8290   18.5620 C   0  0  0  0  0
    3.6160  -26.3160   19.1850 C   0  0  0  0  0
    3.4800  -27.6050   19.6680 C   0  0  0  0  0
    4.6900  -27.8910   20.2110 C   0  0  0  0  0
    5.4530  -26.7610   20.0130 C   0  0  0  0  0
    4.8280  -25.7170   19.3680 N   0  3  0  0  0
    6.8140  -26.9100   20.5600 C   0  0  0  0  0
    7.4570  -25.5850   20.6770 C   0  0  0  0  0
    8.7230  -25.5190   21.2630 C   0  0  0  0  0
    9.0610  -24.1980   21.2380 C   0  0  0  0  0
    7.9720  -23.5520   20.6420 C   0  0  0  0  0
    6.9670  -24.3780   20.3000 N   0  3  0  0  0
    8.0150  -22.0870   20.4620 C   0  0  0  0  0
   12.4210  -23.3530   23.7110 O   0  0  0  0  0
    6.9550  -19.6240   23.4870 O   0  0  0  0  0
    5.5250  -24.0120   19.0330 Mg  0  0  0  0  0
    1.0060  -21.8415   15.4483 H   0  0  0  0  0
    0.2604  -21.3097   16.9755 H   0  0  0  0  0
    1.7995  -20.5924   16.4389 H   0  0  0  0  0
    2.5173  -29.4002   19.0505 H   0  0  0  0  0
    1.9652  -28.7600   20.6178 H   0  0  0  0  0
    1.4597  -27.9685   19.1049 H   0  0  0  0  0
    5.0040  -18.0337   19.1466 H   0  0  0  0  0
    5.9796  -18.1776   17.6638 H   0  0  0  0  0
    4.3028  -18.7767   17.6880 H   0  0  0  0  0
   10.4843  -26.7120   21.2604 H   0  0  0  0  0
    9.7365  -26.4904   22.8613 H   0  0  0  0  0
    8.9907  -27.5888   21.6746 H   0  0  0  0  0
    8.7371  -19.7626   20.1330 H   0  0  0  0  0
    7.7546  -18.4009   19.3309 H   0  0  0  0  0
    6.4063  -18.5037   21.4197 H   0  0  0  0  0
    8.1151  -17.7649   21.4782 H   0  0  0  0  0
    9.4540  -19.8308   21.8898 H   0  0  0  0  0
   11.0067  -24.3935   22.0094 H   0  0  0  0  0
   10.6854  -22.8915   20.9670 H   0  0  0  0  0
    9.3918  -23.1497   23.5381 H   0  0  0  0  0
   10.1762  -21.7028   22.6312 H   0  0  0  0  0
   10.3835  -21.6829   25.0810 H   0  0  0  0  0
    3.5646  -20.3354   17.0678 H   0  0  0  0  0
    0.6265  -24.3255   17.1660 H   0  0  0  0  0
    1.4984  -26.4080   18.4083 H   0  0  0  0  0
    4.9936  -28.8169   20.6995 H   0  0  0  0  0
    7.2771  -27.8571   20.8370 H   0  0  0  0  0
    8.7824  -21.4265   20.8658 H   0  0  0  0  0
 20  1  1  0  0  0
 26  2  1  0  0  0
 14  3  1  0  0  0
 32  4  1  0  0  0
  5  6  1  0  0  0
 13  5  1  0  0  0
  6  7  1  0  0  0
  7  8  1  0  0  0
  7 38  2  0  0  0
  9 10  1  0  0  0
 33  9  1  0  0  0
 10 11  1  0  0  0
 11 12  1  0  0  0
 11 37  2  0  0  0
 14 13  2  0  0  0
 17 13  1  0  0  0
 15 14  1  0  0  0
 15 16  2  0  0  0
 18 15  1  0  0  0
 16 17  1  0  0  0
 17 36  2  0  0  0
 19 18  2  0  0  0
 19 20  1  0  0  0
 23 19  1  0  0  0
 21 20  2  0  0  0
 22 21  1  0  0  0
 22 23  2  0  0  0
 24 22  1  0  0  0
 25 24  2  0  0  0
 25 26  1  0  0  0
 29 25  1  0  0  0
 27 26  2  0  0  0
 28 27  1  0  0  0
 28 29  2  0  0  0
 30 28  1  0  0  0
 31 30  2  0  0  0
 32 31  1  0  0  0
 31 35  1  0  0  0
 32 33  2  0  0  0
 33 34  1  0  0  0
 34 35  2  0  0  0
 34 36  1  0  0  0
 16 39  1  0  0  0
 39 23  1  0  0  0
 39 29  1  0  0  0
 39 35  1  0  0  0
  1 40  1  0  0  0
  1 41  1  0  0  0
  1 42  1  0  0  0
  2 43  1  0  0  0
  2 44  1  0  0  0
  2 45  1  0  0  0
  3 46  1  0  0  0
  3 47  1  0  0  0
  3 48  1  0  0  0
  4 49  1  0  0  0
  4 50  1  0  0  0
  4 51  1  0  0  0
  5 52  1  0  0  0
  5 53  1  0  0  0
  6 54  1  0  0  0
  6 55  1  0  0  0
  8 56  1  0  0  0
  9 57  1  0  0  0
  9 58  1  0  0  0
 10 59  1  0  0  0
 10 60  1  0  0  0
 12 61  1  0  0  0
 18 62  1  0  0  0
 21 63  1  0  0  0
 24 64  1  0  0  0
 27 65  1  0  0  0
 30 66  1  0  0  0
 36 67  1  0  0  0
M  END
$$$$
