3isj_ligand
  -I-interpret- 

 29 30  0  0  0  0  0  0  0  0999 V2000
   11.0400    9.5660   -5.2060 C   0  0  0  0  0
   14.2820   10.5410    4.7060 C   0  0  0  0  0
   17.0380   11.3770    1.0800 O   0  0  0  0  0
   16.8010   10.4920    3.8290 O   0  0  0  0  0
   15.7360   12.7050    3.6400 O   0  0  0  0  0
   14.6860   10.1600   -4.7680 C   0  0  0  0  0
   15.6850   10.4580   -3.8230 C   0  0  0  0  0
   13.0970    9.9720   -2.9520 C   0  0  0  0  0
   14.1390   10.4010   -0.7280 C   0  0  0  0  0
   14.9930   10.8070    1.9470 N   0  0  0  0  0
   16.1710   10.7820   -1.4720 N   0  0  0  0  0
   12.4860    9.5880   -5.3440 O   0  0  0  0  0
   15.8730   10.9740    0.9110 C   0  0  0  0  0
   13.3710    9.9150   -4.3520 C   0  0  0  0  0
   15.3970   10.7170   -0.3580 C   0  0  0  0  0
   14.1150   10.2490   -2.0700 C   0  0  0  0  0
   15.3830   10.5020   -2.5250 C   0  0  0  0  0
   15.5060   11.1820    3.5930 S   0  0  0  0  0
   10.7610    8.8514   -4.4317 H   0  0  0  0  0
   10.6876   10.5596   -4.9292 H   0  0  0  0  0
   10.5903    9.2706   -6.1539 H   0  0  0  0  0
   14.1609    9.4715    4.5340 H   0  0  0  0  0
   14.6027   10.7110    5.7338 H   0  0  0  0  0
   13.3330   11.0481    4.5316 H   0  0  0  0  0
   14.9364   10.1196   -5.8281 H   0  0  0  0  0
   16.7057   10.6529   -4.1520 H   0  0  0  0  0
   12.0860    9.7968   -2.5841 H   0  0  0  0  0
   13.2867   10.2876   -0.0580 H   0  0  0  0  0
   14.0477   10.4682    1.7683 H   0  0  0  0  0
 12  1  1  0  0  0
 18  2  1  0  0  0
 13  3  2  0  0  0
 18  4  2  0  0  0
 18  5  2  0  0  0
  7  6  4  0  0  0
  6 14  4  0  0  0
 17  7  4  0  0  0
  8 14  4  0  0  0
 16  8  4  0  0  0
 15  9  4  0  0  0
  9 16  4  0  0  0
 13 10  1  0  0  0
 10 18  1  0  0  0
 15 11  4  0  0  0
 11 17  4  0  0  0
 14 12  1  0  0  0
 13 15  1  0  0  0
 16 17  4  0  0  0
  1 19  1  0  0  0
  1 20  1  0  0  0
  1 21  1  0  0  0
  2 22  1  0  0  0
  2 23  1  0  0  0
  2 24  1  0  0  0
  6 25  1  0  0  0
  7 26  1  0  0  0
  8 27  1  0  0  0
  9 28  1  0  0  0
 10 29  1  0  0  0
M  END
$$$$
