5znc_ligand
  -I-interpret- 

 49 52  0  0  0  0  0  0  0  0999 V2000
   65.5100   65.6290   14.9480 O   0  0  0  0  0
   65.9550   64.6830   13.9730 C   0  0  0  0  0
   64.9990   63.4510   13.9550 C   0  0  0  0  0
   65.3510   62.4420   12.8720 N   0  3  0  0  0
   66.7010   61.8920   13.1350 C   0  0  0  0  0
   66.8620   61.5100   14.6380 C   0  0  0  0  0
   64.3780   61.3450   13.0140 C   0  0  0  0  0
   64.6640   60.4590   14.2640 C   0  0  0  0  0
   63.3990   59.8800   14.8600 C   0  0  0  0  0
   63.1220   58.6100   14.9360 C   0  0  0  0  0
   65.4720   61.3360   15.2330 C   0  0  0  0  0
   64.8390   62.7430   15.3300 C   0  0  0  0  0
   66.0130   65.2850   12.5560 C   0  0  0  0  0
   67.1030   65.0030   11.7820 C   0  0  0  0  0
   67.1130   65.3710   10.4280 C   0  0  0  0  0
   66.1110   65.9990    9.8270 N   0  0  0  0  0
   65.0120   66.3170   10.5670 C   0  0  0  0  0
   64.9170   65.9960   11.9530 C   0  0  0  0  0
   63.7600   66.3850   12.6640 C   0  0  0  0  0
   63.9740   67.0200    9.9410 C   0  0  0  0  0
   62.8580   67.3700   10.6380 C   0  0  0  0  0
   62.8070   67.1510   12.0440 C   0  0  0  0  0
   61.6330   67.5950   12.5670 O   0  0  0  0  0
   61.5070   67.5680   14.0040 C   0  0  0  0  0
   65.4898   65.2109   15.8120 H   0  0  0  0  0
   66.9641   64.3842   14.2567 H   0  0  0  0  0
   64.0272   63.8816   13.7137 H   0  0  0  0  0
   65.3326   62.8677   11.9452 H   0  0  0  0  0
   67.4435   62.6495   12.8841 H   0  0  0  0  0
   66.8394   60.9968   12.5287 H   0  0  0  0  0
   67.4026   62.2935   15.1690 H   0  0  0  0  0
   67.4294   60.5841   14.7317 H   0  0  0  0  0
   64.4487   60.7134   12.1284 H   0  0  0  0  0
   63.3874   61.7845   13.1305 H   0  0  0  0  0
   65.2421   59.5725   14.0034 H   0  0  0  0  0
   62.6633   60.5800   15.2561 H   0  0  0  0  0
   63.8288   57.8741   14.5525 H   0  0  0  0  0
   62.1833   58.2827   15.3831 H   0  0  0  0  0
   65.4946   60.8699   16.2180 H   0  0  0  0  0
   63.7826   62.6592   15.5850 H   0  0  0  0  0
   65.3370   63.3225   16.1074 H   0  0  0  0  0
   67.9633   64.4931   12.2156 H   0  0  0  0  0
   67.9950   65.1268    9.8359 H   0  0  0  0  0
   63.6256   66.0775   13.7010 H   0  0  0  0  0
   64.0607   67.2887    8.8882 H   0  0  0  0  0
   62.0076   67.8158   10.1221 H   0  0  0  0  0
   61.6184   66.5431   14.3580 H   0  0  0  0  0
   62.2822   68.1931   14.4472 H   0  0  0  0  0
   60.5256   67.9474   14.2886 H   0  0  0  0  0
  1  2  1  0  0  0
  2  3  1  0  0  0
  2 13  1  0  0  0
  3  4  1  0  0  0
  3 12  1  0  0  0
  4  5  1  0  0  0
  4  7  1  0  0  0
  5  6  1  0  0  0
  6 11  1  0  0  0
  7  8  1  0  0  0
  8  9  1  0  0  0
  8 11  1  0  0  0
  9 10  2  0  0  0
 11 12  1  0  0  0
 13 14  4  0  0  0
 13 18  4  0  0  0
 14 15  4  0  0  0
 15 16  4  0  0  0
 16 17  4  0  0  0
 17 18  4  0  0  0
 17 20  4  0  0  0
 18 19  4  0  0  0
 19 22  4  0  0  0
 20 21  4  0  0  0
 21 22  4  0  0  0
 22 23  1  0  0  0
 23 24  1  0  0  0
  1 25  1  0  0  0
  2 26  1  0  0  0
  3 27  1  0  0  0
  4 28  1  0  0  0
  5 29  1  0  0  0
  5 30  1  0  0  0
  6 31  1  0  0  0
  6 32  1  0  0  0
  7 33  1  0  0  0
  7 34  1  0  0  0
  8 35  1  0  0  0
  9 36  1  0  0  0
 10 37  1  0  0  0
 10 38  1  0  0  0
 11 39  1  0  0  0
 12 40  1  0  0  0
 12 41  1  0  0  0
 14 42  1  0  0  0
 15 43  1  0  0  0
 19 44  1  0  0  0
 20 45  1  0  0  0
 21 46  1  0  0  0
 24 47  1  0  0  0
 24 48  1  0  0  0
 24 49  1  0  0  0
M  END
$$$$
