1uy8_ligand
  -I-interpret- 

 44 46  0  0  0  0  0  0  0  0999 V2000
    5.0660    7.3220   23.7970 C   0  0  0  0  0
    3.6040    7.4470   24.2530 C   0  0  0  0  0
    3.2740    7.8790   25.4860 C   0  0  0  0  0
    3.2960    9.3810   25.7620 C   0  0  0  0  0
    2.0990    9.9760   25.1460 N   0  0  0  0  0
    0.9010    9.9800   25.6920 C   0  0  0  0  0
    0.4000    9.5170   26.8410 N   0  0  0  0  0
   -0.9160    9.6640   27.0930 C   0  0  0  0  0
    3.2450   10.8070   23.0920 C   0  0  0  0  0
   -1.7690   10.3330   26.2830 N   0  0  0  0  0
    0.0520   10.7140   24.7590 C   0  0  0  0  0
   -1.3430   10.8240   25.0970 C   0  0  0  0  0
   -2.1500   11.4490   24.2400 N   0  0  0  0  0
    0.8130   11.0990   23.7430 N   0  0  0  0  0
    2.0450   10.6060   23.9820 C   0  0  0  0  0
    5.5570   11.6860   23.5570 C   0  0  0  0  0
    4.1670   11.8520   23.6790 C   0  0  0  0  0
    3.6200   12.9700   24.2770 C   0  0  0  0  0
    6.3990   12.6580   24.0770 C   0  0  0  0  0
    5.8540   13.7700   24.6880 C   0  0  0  0  0
    4.4770   13.9330   24.7560 C   0  0  0  0  0
    3.9190   15.0200   25.3740 O   0  0  0  0  0
    4.6480   16.2200   25.6550 C   0  0  0  0  0
    5.5464    8.2990   23.8495 H   0  0  0  0  0
    5.5899    6.6226   24.4485 H   0  0  0  0  0
    5.0951    6.9560   22.7707 H   0  0  0  0  0
    3.2422    6.4189   24.2368 H   0  0  0  0  0
    3.1956    8.2143   23.5953 H   0  0  0  0  0
    4.0301    7.4565   26.1478 H   0  0  0  0  0
    2.2353    7.5790   25.6246 H   0  0  0  0  0
    4.1968    9.8274   25.3410 H   0  0  0  0  0
    3.2973    9.5659   26.8362 H   0  0  0  0  0
   -1.3168    9.2176   28.0030 H   0  0  0  0  0
    2.9076   11.1418   22.1111 H   0  0  0  0  0
    3.7855    9.8643   23.0063 H   0  0  0  0  0
   -3.1365   11.5743   24.4671 H   0  0  0  0  0
   -1.7811   11.8020   23.3570 H   0  0  0  0  0
    5.9675   10.8064   23.0611 H   0  0  0  0  0
    2.5399   13.0859   24.3668 H   0  0  0  0  0
    7.4807   12.5451   24.0040 H   0  0  0  0  0
    6.5100   14.5256   25.1202 H   0  0  0  0  0
    5.4897   15.9879   26.3076 H   0  0  0  0  0
    5.0167   16.6465   24.7221 H   0  0  0  0  0
    3.9906   16.9358   26.1485 H   0  0  0  0  0
  1  2  1  0  0  0
  2  3  1  0  0  0
  3  4  1  0  0  0
  4  5  1  0  0  0
  5  6  4  0  0  0
  5 15  4  0  0  0
  6  7  4  0  0  0
  6 11  4  0  0  0
  7  8  4  0  0  0
  8 10  4  0  0  0
 15  9  1  0  0  0
  9 17  1  0  0  0
 10 12  4  0  0  0
 11 12  4  0  0  0
 11 14  4  0  0  0
 12 13  1  0  0  0
 14 15  4  0  0  0
 17 16  4  0  0  0
 16 19  4  0  0  0
 17 18  4  0  0  0
 18 21  4  0  0  0
 19 20  4  0  0  0
 20 21  4  0  0  0
 21 22  1  0  0  0
 22 23  1  0  0  0
  1 24  1  0  0  0
  1 25  1  0  0  0
  1 26  1  0  0  0
  2 27  1  0  0  0
  2 28  1  0  0  0
  3 29  1  0  0  0
  3 30  1  0  0  0
  4 31  1  0  0  0
  4 32  1  0  0  0
  8 33  1  0  0  0
  9 34  1  0  0  0
  9 35  1  0  0  0
 13 36  1  0  0  0
 13 37  1  0  0  0
 16 38  1  0  0  0
 18 39  1  0  0  0
 19 40  1  0  0  0
 20 41  1  0  0  0
 23 42  1  0  0  0
 23 43  1  0  0  0
 23 44  1  0  0  0
M  END
$$$$
