### 
### Created by X-TOOL on Mon Sep 10 21:13:09 2018
### 

@<TRIPOS>MOLECULE
3ump_ligand
   43    45     1     0     0
SMALL
GAST_HUCK


@<TRIPOS>ATOM
      1 PG         13.3670   60.2200   16.2880 P.3       1 ATP         0.1879
      2 O1G        12.4950   60.0390   17.4880 O.co2     1 ATP        -0.6091
      3 O2G        14.7860   59.8980   16.7680 O.co2     1 ATP        -0.6091
      4 O3G        13.0250   59.3730   15.1190 O.co2     1 ATP        -0.6091
      5 PB         12.1060   62.5210   15.5120 P.3       1 ATP         0.3553
      6 O1B        11.4130   61.8610   14.2830 O.co2     1 ATP        -0.5652
      7 O2B        11.2240   62.6970   16.7810 O.co2     1 ATP        -0.5652
      8 O3B        13.4210   61.7130   15.8940 O.3       1 ATP        -0.1546
      9 PA         13.4030   64.4790   13.8650 P.3       1 ATP         0.3266
     10 O1A        13.5420   63.4080   12.8100 O.co2     1 ATP        -0.5692
     11 O2A        12.7340   65.7450   13.3720 O.co2     1 ATP        -0.5692
     12 O3A        12.6380   63.9660   15.1140 O.3       1 ATP        -0.1171
     13 O5'        14.8880   64.8000   14.4230 O.3       1 ATP        -0.2441
     14 C5'        15.1090   65.8300   15.3330 C.3       1 ATP         0.1131
     15 C4'        16.1180   66.8310   14.9610 C.3       1 ATP         0.1189
     16 O4'        17.3000   66.1000   14.5460 O.3       1 ATP        -0.3364
     17 C3'        15.7720   67.5840   13.7500 C.3       1 ATP         0.1149
     18 O3'        15.0070   68.6860   14.0450 O.3       1 ATP        -0.3864
     19 C2'        17.0920   67.9610   13.2040 C.3       1 ATP         0.1385
     20 O2'        17.6720   68.9340   13.9720 O.3       1 ATP        -0.3836
     21 C1'        17.8680   66.7320   13.4100 C.3       1 ATP         0.2010
     22 N9         17.8010   65.8570   12.2520 N.pl3     1 ATP        -0.1919
     23 C8         16.9900   64.7860   12.1160 C.2       1 ATP         0.1123
     24 N7         17.2490   64.2500   10.9010 N.2       1 ATP        -0.2958
     25 C5         18.2110   64.9900   10.2870 C.ar      1 ATP         0.1045
     26 C6         18.8670   64.9170    9.0550 C.ar      1 ATP         0.1298
     27 N6         18.5260   63.8380    8.0820 N.pl3     1 ATP        -0.3152
     28 N1         19.8070   65.8350    8.7600 N.ar      1 ATP        -0.2698
     29 C2         20.1240   66.8140    9.6200 C.ar      1 ATP         0.0533
     30 N3         19.5190   66.9130   10.8080 N.ar      1 ATP        -0.2714
     31 C4         18.5720   66.0190   11.1530 C.ar      1 ATP         0.1613
     32 H1         15.4255   65.3741   16.2827 H         1 ATP         0.0648
     33 H2         14.1545   66.3567   15.4792 H         1 ATP         0.0648
     34 H3         16.3150   67.5070   15.8061 H         1 ATP         0.0651
     35 H4         15.2249   66.9480   13.0386 H         1 ATP         0.0648
     36 H5         14.8004   69.1507   13.2426 H         1 ATP         0.2100
     37 H6         17.0365   68.2646   12.1482 H         1 ATP         0.0676
     38 H7         18.5181   69.1626   13.6057 H         1 ATP         0.2101
     39 H8         18.9207   66.9839   13.6058 H         1 ATP         0.0996
     40 H9         16.2663   64.4233   12.8445 H         1 ATP         0.1349
     41 H10        19.0128   63.7892    7.1756 H         1 ATP         0.1820
     42 H11        17.8039   63.1421    8.3169 H         1 ATP         0.1820
     43 H12        20.8838   67.5374    9.3472 H         1 ATP         0.0996
@<TRIPOS>BOND
     1    1    2 ar 
     2    1    3 ar 
     3    1    4 ar 
     4    8    1 1  
     5    5    6 ar 
     6    5    7 ar 
     7    5    8 1  
     8   12    5 1  
     9    9   10 ar 
    10    9   11 ar 
    11    9   12 1  
    12    9   13 1  
    13   13   14 1  
    14   14   15 1  
    15   15   16 1  
    16   15   17 1  
    17   16   21 1  
    18   17   18 1  
    19   17   19 1  
    20   19   20 1  
    21   19   21 1  
    22   21   22 1  
    23   22   23 1  
    24   22   31 1  
    25   23   24 2  
    26   24   25 1  
    27   25   26 ar 
    28   25   31 ar 
    29   26   27 1  
    30   26   28 ar 
    31   28   29 ar 
    32   29   30 ar 
    33   30   31 ar 
    34   14   32 1  
    35   14   33 1  
    36   15   34 1  
    37   17   35 1  
    38   18   36 1  
    39   19   37 1  
    40   20   38 1  
    41   21   39 1  
    42   23   40 1  
    43   27   41 1  
    44   27   42 1  
    45   29   43 1  
@<TRIPOS>SUBSTRUCTURE
     1 ATP         1

