3ump_ligand
  -I-interpret- 

 47 49  0  0  0  0  0  0  0  0999 V2000
   13.3670   60.2200   16.2880 P   0  0  0  0  0
   12.4950   60.0390   17.4880 O   0  0  0  0  0
   14.7860   59.8980   16.7680 O   0  0  0  0  0
   13.0250   59.3730   15.1190 O   0  0  0  0  0
   12.1060   62.5210   15.5120 P   0  0  0  0  0
   11.4130   61.8610   14.2830 O   0  0  0  0  0
   11.2240   62.6970   16.7810 O   0  0  0  0  0
   13.4210   61.7130   15.8940 O   0  0  0  0  0
   13.4030   64.4790   13.8650 P   0  0  0  0  0
   13.5420   63.4080   12.8100 O   0  0  0  0  0
   12.7340   65.7450   13.3720 O   0  0  0  0  0
   12.6380   63.9660   15.1140 O   0  0  0  0  0
   14.8880   64.8000   14.4230 O   0  0  0  0  0
   15.1090   65.8300   15.3330 C   0  0  0  0  0
   16.1180   66.8310   14.9610 C   0  0  0  0  0
   17.3000   66.1000   14.5460 O   0  0  0  0  0
   15.7720   67.5840   13.7500 C   0  0  0  0  0
   15.0070   68.6860   14.0450 O   0  0  0  0  0
   17.0920   67.9610   13.2040 C   0  0  0  0  0
   17.6720   68.9340   13.9720 O   0  0  0  0  0
   17.8680   66.7320   13.4100 C   0  0  0  0  0
   17.8010   65.8570   12.2520 N   0  0  0  0  0
   16.9900   64.7860   12.1160 C   0  0  0  0  0
   17.2490   64.2500   10.9010 N   0  0  0  0  0
   18.2110   64.9900   10.2870 C   0  0  0  0  0
   18.8670   64.9170    9.0550 C   0  0  0  0  0
   18.5260   63.8380    8.0820 N   0  0  0  0  0
   19.8070   65.8350    8.7600 N   0  0  0  0  0
   20.1240   66.8140    9.6200 C   0  0  0  0  0
   19.5190   66.9130   10.8080 N   0  0  0  0  0
   18.5720   66.0190   11.1530 C   0  0  0  0  0
   12.7910   60.6248   18.1886 H   0  0  0  0  0
   14.9998   60.4497   17.5240 H   0  0  0  0  0
   12.0398   61.7995   13.5585 H   0  0  0  0  0
   12.6797   66.3780   14.0917 H   0  0  0  0  0
   15.4774   65.3546   16.2421 H   0  0  0  0  0
   14.1650   66.3692   15.4125 H   0  0  0  0  0
   16.2251   67.4999   15.8150 H   0  0  0  0  0
   15.1699   67.0113   13.0446 H   0  0  0  0  0
   14.7982   69.1556   13.2341 H   0  0  0  0  0
   17.0356   68.3262   12.1785 H   0  0  0  0  0
   18.5271   69.1650   13.6018 H   0  0  0  0  0
   18.9236   66.9599   13.5578 H   0  0  0  0  0
   16.2657   64.4229   12.8451 H   0  0  0  0  0
   17.8109   63.1489    8.3146 H   0  0  0  0  0
   19.0080   63.7897    7.1844 H   0  0  0  0  0
   20.8880   67.5414    9.3457 H   0  0  0  0  0
  1  2  1  0  0  0
  1  3  1  0  0  0
  1  4  2  0  0  0
  8  1  1  0  0  0
  5  6  1  0  0  0
  5  7  2  0  0  0
  5  8  1  0  0  0
 12  5  1  0  0  0
  9 10  2  0  0  0
  9 11  1  0  0  0
  9 12  1  0  0  0
  9 13  1  0  0  0
 13 14  1  0  0  0
 14 15  1  0  0  0
 15 16  1  0  0  0
 15 17  1  0  0  0
 16 21  1  0  0  0
 17 18  1  0  0  0
 17 19  1  0  0  0
 19 20  1  0  0  0
 19 21  1  0  0  0
 21 22  1  0  0  0
 22 23  4  0  0  0
 22 31  4  0  0  0
 23 24  4  0  0  0
 24 25  4  0  0  0
 25 26  4  0  0  0
 25 31  4  0  0  0
 26 27  1  0  0  0
 26 28  4  0  0  0
 28 29  4  0  0  0
 29 30  4  0  0  0
 30 31  4  0  0  0
  2 32  1  0  0  0
  3 33  1  0  0  0
  6 34  1  0  0  0
 11 35  1  0  0  0
 14 36  1  0  0  0
 14 37  1  0  0  0
 15 38  1  0  0  0
 17 39  1  0  0  0
 18 40  1  0  0  0
 19 41  1  0  0  0
 20 42  1  0  0  0
 21 43  1  0  0  0
 23 44  1  0  0  0
 27 45  1  0  0  0
 27 46  1  0  0  0
 29 47  1  0  0  0
M  END
$$$$
