3rse_ligand
  -I-interpret- 

 59 60  0  0  0  0  0  0  0  0999 V2000
   34.7550   16.1550   12.2430 N   0  3  0  0  0
   34.7230   14.9130   13.1060 C   0  0  0  0  0
   33.4440   14.7580   13.9670 C   0  0  0  0  0
   33.0020   13.6380   14.2190 O   0  0  0  0  0
   35.9910   14.7510   13.9850 C   0  0  0  0  0
   35.9150   13.5260   14.9850 C   0  0  0  0  0
   37.2870   12.9650   15.5010 C   0  0  0  0  0
   37.2860   11.9940   16.3110 O   0  0  0  0  0
   38.3650   13.4790   15.1030 O   0  0  0  0  0
   32.8560   15.8650   14.4230 N   0  0  0  0  0
   31.5950   15.7470   15.1480 C   0  0  0  0  0
   30.4730   15.6700   14.1430 C   0  0  0  0  0
   30.1810   14.5720   13.6480 O   0  0  0  0  0
   31.4050   16.7750   16.3010 C   0  0  0  0  0
   31.9120   16.1610   17.6380 C   0  0  0  0  0
   33.1970   16.1990   18.1230 C   0  0  0  0  0
   31.1650   15.3600   18.5750 C   0  0  0  0  0
   33.2800   15.5050   19.3010 N   0  0  0  0  0
   32.0540   14.9720   19.5970 C   0  0  0  0  0
   29.8370   14.9510   18.6550 C   0  0  0  0  0
   31.6560   14.1860   20.6810 C   0  0  0  0  0
   29.4430   14.1760   19.7410 C   0  0  0  0  0
   30.3470   13.8070   20.7350 C   0  0  0  0  0
   29.8470   16.7890   13.8110 N   0  0  0  0  0
   28.8800   16.7330   12.7210 C   0  0  0  0  0
   29.4850   17.2760   11.4220 C   0  0  0  0  0
   28.9250   18.2200   10.8210 O   0  0  0  0  0
   27.5300   17.3760   13.0860 C   0  0  0  0  0
   26.3720   17.0990   12.0670 C   0  0  0  0  0
   26.1440   15.5940   11.7320 C   0  0  0  0  0
   27.1250   14.9140   11.3110 O   0  0  0  0  0
   24.9800   15.1060   11.8590 O   0  0  0  0  0
   30.5220   16.7370   11.0320 O   0  0  0  0  0
   33.8989   16.2061   11.6909 H   0  0  0  0  0
   34.8265   16.9798   12.8388 H   0  0  0  0  0
   35.5611   16.1136   11.6194 H   0  0  0  0  0
   34.7057   14.1008   12.3792 H   0  0  0  0  0
   36.0922   15.6563   14.5835 H   0  0  0  0  0
   36.8331   14.5753   13.3156 H   0  0  0  0  0
   35.4420   12.7130   14.4343 H   0  0  0  0  0
   35.3829   13.8852   15.8659 H   0  0  0  0  0
   36.3805   11.7370   16.4996 H   0  0  0  0  0
   33.2808   16.7792   14.2675 H   0  0  0  0  0
   31.5976   14.8172   15.7168 H   0  0  0  0  0
   30.3476   17.0225   16.3945 H   0  0  0  0  0
   31.9742   17.6775   16.0785 H   0  0  0  0  0
   34.0307   16.7083   17.6397 H   0  0  0  0  0
   29.1207   15.2320   17.8829 H   0  0  0  0  0
   32.3642   13.8871   21.4538 H   0  0  0  0  0
   28.4054   13.8506   19.8159 H   0  0  0  0  0
   30.0007   13.2027   21.5734 H   0  0  0  0  0
   30.0355   17.6627   14.3025 H   0  0  0  0  0
   28.6457   15.6833   12.5436 H   0  0  0  0  0
   28.1365   18.4813   11.3022 H   0  0  0  0  0
   27.6872   18.4545   13.1003 H   0  0  0  0  0
   27.2222   16.9455   14.0389 H   0  0  0  0  0
   26.6452   17.5933   11.1347 H   0  0  0  0  0
   25.4528   17.4645   12.5248 H   0  0  0  0  0
   24.3850   15.7826   12.1903 H   0  0  0  0  0
  1  2  1  0  0  0
  2  3  1  0  0  0
  2  5  1  0  0  0
  3  4  2  0  0  0
  3 10  1  0  0  0
  5  6  1  0  0  0
  6  7  1  0  0  0
  7  8  1  0  0  0
  7  9  2  0  0  0
 10 11  1  0  0  0
 11 12  1  0  0  0
 11 14  1  0  0  0
 12 13  2  0  0  0
 12 24  1  0  0  0
 14 15  1  0  0  0
 15 16  4  0  0  0
 15 17  4  0  0  0
 16 18  4  0  0  0
 17 19  4  0  0  0
 17 20  4  0  0  0
 18 19  4  0  0  0
 19 21  4  0  0  0
 20 22  4  0  0  0
 21 23  4  0  0  0
 22 23  4  0  0  0
 24 25  1  0  0  0
 25 26  1  0  0  0
 25 28  1  0  0  0
 26 27  1  0  0  0
 26 33  2  0  0  0
 28 29  1  0  0  0
 29 30  1  0  0  0
 30 31  2  0  0  0
 30 32  1  0  0  0
  1 34  1  0  0  0
  1 35  1  0  0  0
  1 36  1  0  0  0
  2 37  1  0  0  0
  5 38  1  0  0  0
  5 39  1  0  0  0
  6 40  1  0  0  0
  6 41  1  0  0  0
  8 42  1  0  0  0
 10 43  1  0  0  0
 11 44  1  0  0  0
 14 45  1  0  0  0
 14 46  1  0  0  0
 16 47  1  0  0  0
 20 48  1  0  0  0
 21 49  1  0  0  0
 22 50  1  0  0  0
 23 51  1  0  0  0
 24 52  1  0  0  0
 25 53  1  0  0  0
 27 54  1  0  0  0
 28 55  1  0  0  0
 28 56  1  0  0  0
 29 57  1  0  0  0
 29 58  1  0  0  0
 32 59  1  0  0  0
M  END
$$$$
