### 
### Created by X-TOOL on Mon Sep 10 21:12:50 2018
### 

@<TRIPOS>MOLECULE
1p4u_ligand
  109   110     1     0     0
SMALL
GAST_HUCK


@<TRIPOS>ATOM
      1 N          14.5640   70.0830   49.5450 N.4       1 ASP         0.2391
      2 CA         14.8040   69.2450   50.7600 C.3       1 ASP         0.0765
      3 C          14.6850   67.7780   50.3530 C.2       1 ASP         0.2285
      4 O          13.5840   67.2810   50.1120 O.2       1 ASP        -0.3906
      5 CB         13.7800   69.6010   51.8570 C.3       1 ASP         0.0607
      6 CG         14.1340   69.0060   53.2290 C.2       1 ASP         0.0425
      7 OD1        15.2460   68.4580   53.4010 O.co2     1 ASP        -0.5686
      8 OD2        13.2950   69.0950   54.1510 O.co2     1 ASP        -0.5686
      9 N          15.8330   67.1070   50.2580 N.am      1 PHE        -0.2591
     10 CA         15.9020   65.6990   49.8730 C.3       1 PHE         0.1406
     11 C          16.1920   64.7780   51.0480 C.2       1 PHE         0.2058
     12 O          16.6540   65.2140   52.1000 O.2       1 PHE        -0.3942
     13 CB         17.0000   65.4710   48.8330 C.3       1 PHE         0.0214
     14 CG         16.6120   65.8580   47.4420 C.ar      1 PHE        -0.0386
     15 CD1        16.4820   67.1940   47.0860 C.ar      1 PHE        -0.0601
     16 CD2        16.3770   64.8770   46.4780 C.ar      1 PHE        -0.0601
     17 CE1        16.1220   67.5540   45.7870 C.ar      1 PHE        -0.0686
     18 CE2        16.0170   65.2240   45.1800 C.ar      1 PHE        -0.0686
     19 CZ         15.8890   66.5680   44.8330 C.ar      1 PHE        -0.0687
     20 N          15.9160   63.4930   50.8590 N.am      1 GLY        -0.2663
     21 CA         16.1910   62.5260   51.9020 C.3       1 GLY         0.1203
     22 C          17.6240   62.0730   51.7040 C.2       1 GLY         0.2032
     23 O          18.3330   62.6360   50.8680 O.2       1 GLY        -0.3945
     24 N          18.0860   61.0530   52.4360 N.am      1 PRO        -0.2501
     25 CA         19.4680   60.5870   52.2730 C.3       1 PRO         0.1338
     26 C          19.6440   59.7350   51.0190 C.2       1 PRO         0.2041
     27 O          18.6650   59.3210   50.3920 O.2       1 PRO        -0.3944
     28 CB         19.6910   59.7660   53.5300 C.3       1 PRO        -0.0104
     29 CG         18.3460   59.0920   53.6820 C.3       1 PRO        -0.0281
     30 CD         17.3720   60.2400   53.4370 C.3       1 PRO         0.0369
     31 N          20.8970   59.4860   50.6500 N.am      1 LEU        -0.2637
     32 CA         21.1690   58.6330   49.5060 C.3       1 LEU         0.1312
     33 C          20.7070   57.2480   49.9340 C.2       1 LEU         0.2039
     34 O          20.8490   56.8730   51.1020 O.2       1 LEU        -0.3944
     35 CB         22.6660   58.5720   49.2070 C.3       1 LEU        -0.0101
     36 CG         23.2540   59.4650   48.1170 C.3       1 LEU        -0.0425
     37 CD1        24.7550   59.1760   47.9980 C.3       1 LEU        -0.0625
     38 CD2        22.5520   59.1910   46.7970 C.3       1 LEU        -0.0625
     39 N          20.1440   56.4980   48.9980 N.am      1 VAL        -0.2635
     40 CA         19.6800   55.1530   49.2880 C.3       1 VAL         0.1332
     41 C          20.2630   54.1940   48.2720 C.2       1 VAL         0.2039
     42 O          20.3310   54.4990   47.0810 O.2       1 VAL        -0.3944
     43 CB         18.1330   55.0830   49.2630 C.3       1 VAL        -0.0063
     44 CG1        17.6590   53.6570   49.0450 C.3       1 VAL        -0.0584
     45 CG2        17.5900   55.5930   50.5810 C.3       1 VAL        -0.0584
     46 N          20.6970   53.0350   48.7510 N.am      1 GLY        -0.2664
     47 CA         21.2710   52.0440   47.8630 C.3       1 GLY         0.1201
     48 C          20.5710   50.7240   48.0710 C.2       1 GLY         0.2008
     49 O          19.7460   50.5910   48.9700 O.2       1 GLY        -0.3947
     50 N          20.8890   49.7390   47.2480 N.am      1 ALA        -0.2629
     51 CA         20.2520   48.4390   47.3880 C.3       1 ALA         0.1392
     52 C          20.7310   47.7870   48.6870 C.2       1 ALA         0.2568
     53 O          21.7510   48.2610   49.2400 O.2       1 ALA        -0.3680
     54 CB         20.5910   47.5600   46.1880 C.3       1 ALA        -0.0230
     55 O1         20.0852   46.7499   49.2126 O.3       1 ALA        -0.2910
     56 H1         14.6376   71.0581   49.7895 H         1 ASP         0.2016
     57 H2         13.6415   69.8957   49.1845 H         1 ASP         0.2016
     58 H3         15.2512   69.8602   48.8420 H         1 ASP         0.2016
     59 H4         15.8175   69.4349   51.1432 H         1 ASP         0.1117
     60 H5         12.7945   69.2182   51.5533 H         1 ASP         0.0512
     61 H6         13.7349   70.6960   51.9516 H         1 ASP         0.0512
     62 H7         16.6857   67.5891   50.4593 H         1 PHE         0.1886
     63 H8         14.9315   65.4186   49.4377 H         1 PHE         0.0823
     64 H9         17.2608   64.4024   48.8343 H         1 PHE         0.0474
     65 H10        17.8799   66.0636   49.1238 H         1 PHE         0.0474
     66 H11        16.6622   67.9657   47.8256 H         1 PHE         0.0557
     67 H12        16.4763   63.8309   46.7441 H         1 PHE         0.0557
     68 H13        16.0239   68.6003   45.5212 H         1 PHE         0.0599
     69 H14        15.8366   64.4519   44.4408 H         1 PHE         0.0599
     70 H15        15.6088   66.8443   43.8230 H         1 PHE         0.0559
     71 H16        15.5167   63.1915   49.9932 H         1 GLY         0.1881
     72 H17        15.5066   61.6692   51.8156 H         1 GLY         0.0763
     73 H18        16.0731   62.9911   52.8918 H         1 GLY         0.0763
     74 H19        20.1638   61.4379   52.2301 H         1 PRO         0.0802
     75 H20        19.9211   60.4063   54.3943 H         1 PRO         0.0313
     76 H21        20.4974   59.0305   53.3935 H         1 PRO         0.0313
     77 H22        18.2150   58.2936   52.9368 H         1 PRO         0.0287
     78 H23        18.2225   58.6746   54.6922 H         1 PRO         0.0287
     79 H24        16.4143   59.8715   53.0406 H         1 PRO         0.0524
     80 H25        17.1915   60.8122   54.3589 H         1 PRO         0.0524
     81 H26        21.6558   59.8879   51.1625 H         1 LEU         0.1883
     82 H27        20.6203   58.9822   48.6189 H         1 LEU         0.0800
     83 H28        22.8937   57.5331   48.9262 H         1 LEU         0.0315
     84 H29        23.1890   58.8223   50.1417 H         1 LEU         0.0315
     85 H30        23.1080   60.5205   48.3899 H         1 LEU         0.0298
     86 H31        25.1903   59.8141   47.2149 H         1 LEU         0.0232
     87 H32        24.9051   58.1186   47.7347 H         1 LEU         0.0232
     88 H33        25.2466   59.3880   48.9589 H         1 LEU         0.0232
     89 H34        21.4779   59.4037   46.9019 H         1 LEU         0.0232
     90 H35        22.6914   58.1357   46.5197 H         1 LEU         0.0232
     91 H36        22.9786   59.8353   46.0141 H         1 LEU         0.0232
     92 H37        20.0366   56.8653   48.0741 H         1 VAL         0.1883
     93 H38        20.0284   54.8662   50.2912 H         1 VAL         0.0802
     94 H39        17.7581   55.7150   48.4445 H         1 VAL         0.0343
     95 H40        16.5593   53.6342   49.0313 H         1 VAL         0.0234
     96 H41        18.0288   53.0189   49.8611 H         1 VAL         0.0234
     97 H42        18.0454   53.2849   48.0847 H         1 VAL         0.0234
     98 H43        17.9311   56.6262   50.7429 H         1 VAL         0.0234
     99 H44        17.9539   54.9543   51.3993 H         1 VAL         0.0234
    100 H45        16.4905   55.5692   50.5584 H         1 VAL         0.0234
    101 H46        20.6276   52.8444   49.7302 H         1 GLY         0.1881
    102 H47        22.3428   51.9303   48.0828 H         1 GLY         0.0763
    103 H48        21.1430   52.3674   46.8195 H         1 GLY         0.0763
    104 H49        21.5678   49.8880   46.5290 H         1 ALA         0.1884
    105 H50        19.1612   48.5734   47.4341 H         1 ALA         0.0813
    106 H51        20.1053   46.5797   46.3027 H         1 ALA         0.0278
    107 H52        21.6810   47.4244   46.1291 H         1 ALA         0.0278
    108 H53        20.2311   48.0420   45.2671 H         1 ALA         0.0278
    109 H54        20.6736   46.0060   49.2662 H         1 ALA         0.2540
@<TRIPOS>BOND
     1    2    1 1  
     2    2    5 1  
     3    3    2 1  
     4    3    4 2  
     5    5    6 1  
     6    6    7 ar 
     7    6    8 ar 
     8   10    9 1  
     9   10   13 1  
    10   11   10 1  
    11   11   12 2  
    12   13   14 1  
    13   14   15 ar 
    14   14   16 ar 
    15   16   18 ar 
    16   18   19 ar 
    17   17   19 ar 
    18   15   17 ar 
    19    9    3 am 
    20   21   20 1  
    21   22   21 1  
    22   22   23 2  
    23   20   11 am 
    24   26   25 1  
    25   25   28 1  
    26   25   24 1  
    27   24   30 1  
    28   30   29 1  
    29   28   29 1  
    30   26   27 2  
    31   24   22 am 
    32   32   31 1  
    33   32   35 1  
    34   33   32 1  
    35   33   34 2  
    36   35   36 1  
    37   36   37 1  
    38   36   38 1  
    39   31   26 am 
    40   40   39 1  
    41   40   43 1  
    42   41   40 1  
    43   41   42 2  
    44   43   45 1  
    45   43   44 1  
    46   39   33 am 
    47   47   46 1  
    48   48   47 1  
    49   48   49 2  
    50   46   41 am 
    51   50   51 1  
    52   51   54 1  
    53   51   52 1  
    54   52   53 2  
    55   48   50 am 
    56   52   55 1  
    57    1   56 1  
    58    1   57 1  
    59    1   58 1  
    60    2   59 1  
    61    5   60 1  
    62    5   61 1  
    63    9   62 1  
    64   10   63 1  
    65   13   64 1  
    66   13   65 1  
    67   15   66 1  
    68   16   67 1  
    69   17   68 1  
    70   18   69 1  
    71   19   70 1  
    72   20   71 1  
    73   21   72 1  
    74   21   73 1  
    75   25   74 1  
    76   28   75 1  
    77   28   76 1  
    78   29   77 1  
    79   29   78 1  
    80   30   79 1  
    81   30   80 1  
    82   31   81 1  
    83   32   82 1  
    84   35   83 1  
    85   35   84 1  
    86   36   85 1  
    87   37   86 1  
    88   37   87 1  
    89   37   88 1  
    90   38   89 1  
    91   38   90 1  
    92   38   91 1  
    93   39   92 1  
    94   40   93 1  
    95   43   94 1  
    96   44   95 1  
    97   44   96 1  
    98   44   97 1  
    99   45   98 1  
   100   45   99 1  
   101   45  100 1  
   102   46  101 1  
   103   47  102 1  
   104   47  103 1  
   105   50  104 1  
   106   51  105 1  
   107   54  106 1  
   108   54  107 1  
   109   54  108 1  
   110   55  109 1  
@<TRIPOS>SUBSTRUCTURE
     1 ASP         1

