1p4u_ligand
  -I-interpret- 

110111  0  0  0  0  0  0  0  0999 V2000
   14.5640   70.0830   49.5450 N   0  3  0  0  0
   14.8040   69.2450   50.7600 C   0  0  0  0  0
   14.6850   67.7780   50.3530 C   0  0  0  0  0
   13.5840   67.2810   50.1120 O   0  0  0  0  0
   13.7800   69.6010   51.8570 C   0  0  0  0  0
   14.1340   69.0060   53.2290 C   0  0  0  0  0
   15.2460   68.4580   53.4010 O   0  0  0  0  0
   13.2950   69.0950   54.1510 O   0  0  0  0  0
   15.8330   67.1070   50.2580 N   0  0  0  0  0
   15.9020   65.6990   49.8730 C   0  0  0  0  0
   16.1920   64.7780   51.0480 C   0  0  0  0  0
   16.6540   65.2140   52.1000 O   0  0  0  0  0
   17.0000   65.4710   48.8330 C   0  0  0  0  0
   16.6120   65.8580   47.4420 C   0  0  0  0  0
   16.4820   67.1940   47.0860 C   0  0  0  0  0
   16.3770   64.8770   46.4780 C   0  0  0  0  0
   16.1220   67.5540   45.7870 C   0  0  0  0  0
   16.0170   65.2240   45.1800 C   0  0  0  0  0
   15.8890   66.5680   44.8330 C   0  0  0  0  0
   15.9160   63.4930   50.8590 N   0  0  0  0  0
   16.1910   62.5260   51.9020 C   0  0  0  0  0
   17.6240   62.0730   51.7040 C   0  0  0  0  0
   18.3330   62.6360   50.8680 O   0  0  0  0  0
   18.0860   61.0530   52.4360 N   0  0  0  0  0
   19.4680   60.5870   52.2730 C   0  0  0  0  0
   19.6440   59.7350   51.0190 C   0  0  0  0  0
   18.6650   59.3210   50.3920 O   0  0  0  0  0
   19.6910   59.7660   53.5300 C   0  0  0  0  0
   18.3460   59.0920   53.6820 C   0  0  0  0  0
   17.3720   60.2400   53.4370 C   0  0  0  0  0
   20.8970   59.4860   50.6500 N   0  0  0  0  0
   21.1690   58.6330   49.5060 C   0  0  0  0  0
   20.7070   57.2480   49.9340 C   0  0  0  0  0
   20.8490   56.8730   51.1020 O   0  0  0  0  0
   22.6660   58.5720   49.2070 C   0  0  0  0  0
   23.2540   59.4650   48.1170 C   0  0  0  0  0
   24.7550   59.1760   47.9980 C   0  0  0  0  0
   22.5520   59.1910   46.7970 C   0  0  0  0  0
   20.1440   56.4980   48.9980 N   0  0  0  0  0
   19.6800   55.1530   49.2880 C   0  0  0  0  0
   20.2630   54.1940   48.2720 C   0  0  0  0  0
   20.3310   54.4990   47.0810 O   0  0  0  0  0
   18.1330   55.0830   49.2630 C   0  0  0  0  0
   17.6590   53.6570   49.0450 C   0  0  0  0  0
   17.5900   55.5930   50.5810 C   0  0  0  0  0
   20.6970   53.0350   48.7510 N   0  0  0  0  0
   21.2710   52.0440   47.8630 C   0  0  0  0  0
   20.5710   50.7240   48.0710 C   0  0  0  0  0
   19.7460   50.5910   48.9700 O   0  0  0  0  0
   20.8890   49.7390   47.2480 N   0  0  0  0  0
   20.2520   48.4390   47.3880 C   0  0  0  0  0
   20.7310   47.7870   48.6870 C   0  0  0  0  0
   21.7510   48.2610   49.2400 O   0  0  0  0  0
   20.5910   47.5600   46.1880 C   0  0  0  0  0
   20.0852   46.7499   49.2126 O   0  0  0  0  0
   14.6387   71.0694   49.7936 H   0  0  0  0  0
   15.2599   69.8566   48.8344 H   0  0  0  0  0
   13.6303   69.8926   49.1811 H   0  0  0  0  0
   15.7985   69.4317   51.1653 H   0  0  0  0  0
   12.8164   69.1895   51.5564 H   0  0  0  0  0
   13.7688   70.6861   51.9597 H   0  0  0  0  0
   15.7463   68.4879   52.5822 H   0  0  0  0  0
   16.7027   67.5987   50.4634 H   0  0  0  0  0
   14.9190   65.4607   49.4667 H   0  0  0  0  0
   17.2175   64.4030   48.8221 H   0  0  0  0  0
   17.8479   66.0944   49.1168 H   0  0  0  0  0
   16.6632   67.9700   47.8297 H   0  0  0  0  0
   16.4768   63.8251   46.7456 H   0  0  0  0  0
   16.0234   68.6061   45.5198 H   0  0  0  0  0
   15.8356   64.4476   44.4367 H   0  0  0  0  0
   15.6072   66.8458   43.8174 H   0  0  0  0  0
   15.5087   63.1855   49.9758 H   0  0  0  0  0
   15.5037   61.6821   51.8421 H   0  0  0  0  0
   16.0548   62.9680   52.8890 H   0  0  0  0  0
   20.1786   61.4044   52.1500 H   0  0  0  0  0
   19.9857   60.3591   54.3957 H   0  0  0  0  0
   20.5260   59.0692   53.4574 H   0  0  0  0  0
   18.2057   58.2586   52.9936 H   0  0  0  0  0
   18.2128   58.6192   54.6550 H   0  0  0  0  0
   16.3925   59.9047   53.0961 H   0  0  0  0  0
   17.1275   60.7945   54.3430 H   0  0  0  0  0
   21.6710   59.8959   51.1728 H   0  0  0  0  0
   20.6683   59.0047   48.6120 H   0  0  0  0  0
   22.8353   57.5554   48.8520 H   0  0  0  0  0
   23.1450   58.9076   50.1268 H   0  0  0  0  0
   23.1087   60.5146   48.3725 H   0  0  0  0  0
   25.2409   59.3864   48.9508 H   0  0  0  0  0
   24.9024   58.1280   47.7372 H   0  0  0  0  0
   25.1851   59.8089   47.2218 H   0  0  0  0  0
   22.6916   58.1453   46.5229 H   0  0  0  0  0
   21.4877   59.4013   46.9025 H   0  0  0  0  0
   22.9750   59.8306   46.0224 H   0  0  0  0  0
   20.0344   56.8726   48.0556 H   0  0  0  0  0
   20.0117   54.8738   50.2881 H   0  0  0  0  0
   17.7700   55.6995   48.4406 H   0  0  0  0  0
   18.0426   53.2895   48.0932 H   0  0  0  0  0
   18.0261   53.0257   49.8542 H   0  0  0  0  0
   16.5693   53.6357   49.0316 H   0  0  0  0  0
   17.9716   54.9746   51.3934 H   0  0  0  0  0
   17.9077   56.6252   50.7283 H   0  0  0  0  0
   16.5011   55.5451   50.5668 H   0  0  0  0  0
   20.6262   52.8406   49.7498 H   0  0  0  0  0
   22.3335   51.9319   48.0791 H   0  0  0  0  0
   21.1461   52.3645   46.8287 H   0  0  0  0  0
   21.5814   49.8910   46.5146 H   0  0  0  0  0
   19.1693   48.5596   47.4258 H   0  0  0  0  0
   20.2339   48.0387   45.2762 H   0  0  0  0  0
   21.6713   47.4264   46.1307 H   0  0  0  0  0
   20.1092   46.5890   46.3028 H   0  0  0  0  0
   19.3349   46.5266   48.6569 H   0  0  0  0  0
  2  1  1  0  0  0
  2  5  1  0  0  0
  3  2  1  0  0  0
  3  4  2  0  0  0
  5  6  1  0  0  0
  6  7  1  0  0  0
  6  8  2  0  0  0
 10  9  1  0  0  0
 10 13  1  0  0  0
 11 10  1  0  0  0
 11 12  2  0  0  0
 13 14  1  0  0  0
 14 15  4  0  0  0
 14 16  4  0  0  0
 16 18  4  0  0  0
 18 19  4  0  0  0
 17 19  4  0  0  0
 15 17  4  0  0  0
  9  3  1  0  0  0
 21 20  1  0  0  0
 22 21  1  0  0  0
 22 23  2  0  0  0
 20 11  1  0  0  0
 26 25  1  0  0  0
 25 28  1  0  0  0
 25 24  1  0  0  0
 24 30  1  0  0  0
 30 29  1  0  0  0
 28 29  1  0  0  0
 26 27  2  0  0  0
 24 22  1  0  0  0
 32 31  1  0  0  0
 32 35  1  0  0  0
 33 32  1  0  0  0
 33 34  2  0  0  0
 35 36  1  0  0  0
 36 37  1  0  0  0
 36 38  1  0  0  0
 31 26  1  0  0  0
 40 39  1  0  0  0
 40 43  1  0  0  0
 41 40  1  0  0  0
 41 42  2  0  0  0
 43 45  1  0  0  0
 43 44  1  0  0  0
 39 33  1  0  0  0
 47 46  1  0  0  0
 48 47  1  0  0  0
 48 49  2  0  0  0
 46 41  1  0  0  0
 50 51  1  0  0  0
 51 54  1  0  0  0
 51 52  1  0  0  0
 52 53  2  0  0  0
 48 50  1  0  0  0
 52 55  1  0  0  0
  1 56  1  0  0  0
  1 57  1  0  0  0
  1 58  1  0  0  0
  2 59  1  0  0  0
  5 60  1  0  0  0
  5 61  1  0  0  0
  7 62  1  0  0  0
  9 63  1  0  0  0
 10 64  1  0  0  0
 13 65  1  0  0  0
 13 66  1  0  0  0
 15 67  1  0  0  0
 16 68  1  0  0  0
 17 69  1  0  0  0
 18 70  1  0  0  0
 19 71  1  0  0  0
 20 72  1  0  0  0
 21 73  1  0  0  0
 21 74  1  0  0  0
 25 75  1  0  0  0
 28 76  1  0  0  0
 28 77  1  0  0  0
 29 78  1  0  0  0
 29 79  1  0  0  0
 30 80  1  0  0  0
 30 81  1  0  0  0
 31 82  1  0  0  0
 32 83  1  0  0  0
 35 84  1  0  0  0
 35 85  1  0  0  0
 36 86  1  0  0  0
 37 87  1  0  0  0
 37 88  1  0  0  0
 37 89  1  0  0  0
 38 90  1  0  0  0
 38 91  1  0  0  0
 38 92  1  0  0  0
 39 93  1  0  0  0
 40 94  1  0  0  0
 43 95  1  0  0  0
 44 96  1  0  0  0
 44 97  1  0  0  0
 44 98  1  0  0  0
 45 99  1  0  0  0
 45100  1  0  0  0
 45101  1  0  0  0
 46102  1  0  0  0
 47103  1  0  0  0
 47104  1  0  0  0
 50105  1  0  0  0
 51106  1  0  0  0
 54107  1  0  0  0
 54108  1  0  0  0
 54109  1  0  0  0
 55110  1  0  0  0
M  END
$$$$
