6pyd_ligand
  -I-interpret- 

 61 66  0  0  0  0  0  0  0  0999 V2000
   52.1020  -28.5370    3.2610 C   0  0  0  0  0
   51.3950  -29.8610    2.9100 C   0  0  0  0  0
   50.6500  -30.5270    4.0650 C   0  0  0  0  0
   49.6160  -29.5840    4.6760 C   0  0  0  0  0
   50.2590  -28.2630    5.0690 C   0  0  0  0  0
   51.0360  -27.6110    3.9120 C   0  0  0  0  0
   51.6240  -26.2950    4.4100 C   0  0  0  0  0
   59.9770  -26.4030    6.4890 O   0  0  0  0  0
   62.1750  -26.7810    6.0020 O   0  0  0  0  0
   50.0490  -27.2430    2.9380 O   0  0  0  0  0
   48.5790  -29.3070    3.7350 O   0  0  0  0  0
   61.0120  -27.2310    6.1090 C   0  0  0  0  0
   58.7220  -26.8610    6.6180 C   0  0  0  0  0
   60.7610  -28.5770    5.8440 C   0  0  0  0  0
   59.4610  -29.0670    5.9690 C   0  0  0  0  0
   58.4220  -28.2170    6.3680 C   0  0  0  0  0
   57.0410  -28.7870    6.4690 C   0  0  0  0  0
   56.1740  -28.5530    5.2130 C   0  0  0  0  0
   56.9140  -28.0030    3.9660 C   0  0  0  0  0
   55.4850  -29.8650    4.8240 C   0  0  0  0  0
   54.4020  -29.6790    3.7560 C   0  0  0  0  0
   53.2800  -28.7370    4.2560 C   0  0  0  0  0
   52.6130  -27.9820    1.9130 C   0  0  0  0  0
   56.2490  -28.2530    7.6790 C   0  0  0  0  0
   55.1740  -27.3050    7.1530 C   0  0  0  0  0
   55.5560  -26.3570    6.1500 O   0  0  0  0  0
   55.0630  -27.6140    5.6720 C   0  0  0  0  0
   53.8570  -27.3860    4.7460 C   0  0  0  0  0
   52.7970  -26.4750    5.3640 C   0  0  0  0  0
   52.1728  -30.5574    2.5965 H   0  0  0  0  0
   50.6490  -29.6256    2.1510 H   0  0  0  0  0
   51.3730  -30.7950    4.8354 H   0  0  0  0  0
   50.1334  -31.4074    3.6827 H   0  0  0  0  0
   49.2046  -30.0743    5.5583 H   0  0  0  0  0
   50.9651  -28.4621    5.8751 H   0  0  0  0  0
   49.4633  -27.5790    5.3642 H   0  0  0  0  0
   50.8381  -25.7702    4.9531 H   0  0  0  0  0
   51.9905  -25.7503    3.5399 H   0  0  0  0  0
   49.6391  -28.0357    2.5842 H   0  0  0  0  0
   48.1585  -30.1292    3.4727 H   0  0  0  0  0
   57.9268  -26.1789    6.9188 H   0  0  0  0  0
   61.5724  -29.2394    5.5423 H   0  0  0  0  0
   59.2531  -30.1154    5.7553 H   0  0  0  0  0
   57.2270  -29.8547    6.5857 H   0  0  0  0  0
   57.3631  -27.0396    4.2072 H   0  0  0  0  0
   57.6935  -28.7045    3.6689 H   0  0  0  0  0
   56.2036  -27.8797    3.1485 H   0  0  0  0  0
   55.0053  -30.2655    5.7170 H   0  0  0  0  0
   56.2449  -30.5302    4.4139 H   0  0  0  0  0
   53.9651  -30.6517    3.5300 H   0  0  0  0  0
   54.8586  -29.2373    2.8703 H   0  0  0  0  0
   52.8333  -29.2530    5.1059 H   0  0  0  0  0
   53.1015  -27.0218    2.0786 H   0  0  0  0  0
   53.3256  -28.6836    1.4793 H   0  0  0  0  0
   51.7712  -27.8503    1.2332 H   0  0  0  0  0
   56.9142  -27.7274    8.3640 H   0  0  0  0  0
   55.7913  -29.0779    8.2250 H   0  0  0  0  0
   54.5680  -27.1952    8.0523 H   0  0  0  0  0
   54.2150  -26.8466    3.8691 H   0  0  0  0  0
   52.4356  -26.9286    6.2869 H   0  0  0  0  0
   53.2420  -25.5005    5.5648 H   0  0  0  0  0
  1  2  1  0  0  0
  1  6  1  0  0  0
 22  1  1  0  0  0
  1 23  1  0  0  0
  2  3  1  0  0  0
  3  4  1  0  0  0
  5  4  1  0  0  0
  4 11  1  0  0  0
  6  5  1  0  0  0
  6  7  1  0  0  0
  6 10  1  0  0  0
  7 29  1  0  0  0
  8 12  1  0  0  0
 13  8  1  0  0  0
 12  9  2  0  0  0
 14 12  1  0  0  0
 16 13  2  0  0  0
 15 14  2  0  0  0
 16 15  1  0  0  0
 17 16  1  0  0  0
 18 17  1  0  0  0
 17 24  1  0  0  0
 18 19  1  0  0  0
 20 18  1  0  0  0
 18 27  1  0  0  0
 21 20  1  0  0  0
 21 22  1  0  0  0
 22 28  1  0  0  0
 24 25  1  0  0  0
 25 26  1  0  0  0
 25 27  1  0  0  0
 26 27  1  0  0  0
 27 28  1  0  0  0
 28 29  1  0  0  0
  2 30  1  0  0  0
  2 31  1  0  0  0
  3 32  1  0  0  0
  3 33  1  0  0  0
  4 34  1  0  0  0
  5 35  1  0  0  0
  5 36  1  0  0  0
  7 37  1  0  0  0
  7 38  1  0  0  0
 10 39  1  0  0  0
 11 40  1  0  0  0
 13 41  1  0  0  0
 14 42  1  0  0  0
 15 43  1  0  0  0
 17 44  1  0  0  0
 19 45  1  0  0  0
 19 46  1  0  0  0
 19 47  1  0  0  0
 20 48  1  0  0  0
 20 49  1  0  0  0
 21 50  1  0  0  0
 21 51  1  0  0  0
 22 52  1  0  0  0
 23 53  1  0  0  0
 23 54  1  0  0  0
 23 55  1  0  0  0
 24 56  1  0  0  0
 24 57  1  0  0  0
 25 58  1  0  0  0
 28 59  1  0  0  0
 29 60  1  0  0  0
 29 61  1  0  0  0
M  END
$$$$
