1iy7_ligand
  -I-interpret- 

 28 28  0  0  0  0  0  0  0  0999 V2000
    5.5640   -9.5750   12.5890 C   0  0  0  0  0
    6.4700   -8.6550   11.9840 C   0  0  0  0  0
    6.1860   -8.0880   10.7100 C   0  0  0  0  0
    4.9950   -8.4330   10.0260 C   0  0  0  0  0
    4.0960   -9.3430   10.6130 C   0  0  0  0  0
    4.3830   -9.9050   11.8760 C   0  0  0  0  0
    5.8360  -10.1860   13.9590 C   0  0  0  0  0
    5.3710   -9.3430   15.2250 C   0  0  0  0  0
    3.8240   -9.1650   15.2020 C   0  0  0  0  0
    3.4260   -7.9600   14.7460 O   0  0  0  0  0
    3.0340   -9.9880   15.5480 O   0  0  0  0  0
    5.6840   -9.9530   16.5590 N   0  0  0  0  0
    5.5240   -9.0860   18.0720 S   0  0  0  0  0
    6.5090   -7.7220   18.3080 N   0  0  0  0  0
    5.9080   -9.9330   19.1610 O   0  0  0  0  0
    4.2640   -8.4050   18.0460 O   0  0  0  0  0
    7.3894   -8.3833   12.5026 H   0  0  0  0  0
    6.8874   -7.3859   10.2593 H   0  0  0  0  0
    4.7760   -7.9967    9.0514 H   0  0  0  0  0
    3.1776   -9.6140   10.0922 H   0  0  0  0  0
    3.6783  -10.6113   12.3149 H   0  0  0  0  0
    6.9197  -10.2724   14.0385 H   0  0  0  0  0
    5.2655  -11.1142   13.9914 H   0  0  0  0  0
    5.9289   -8.4109   15.1359 H   0  0  0  0  0
    4.1966   -7.4354   14.5168 H   0  0  0  0  0
    6.0059  -10.9205   16.5862 H   0  0  0  0  0
    7.1592   -7.6922   19.0933 H   0  0  0  0  0
    6.4502   -6.9329   17.6644 H   0  0  0  0  0
  1  2  4  0  0  0
  1  6  4  0  0  0
  1  7  1  0  0  0
  2  3  4  0  0  0
  3  4  4  0  0  0
  4  5  4  0  0  0
  5  6  4  0  0  0
  7  8  1  0  0  0
  8  9  1  0  0  0
  8 12  1  0  0  0
  9 10  1  0  0  0
  9 11  2  0  0  0
 12 13  1  0  0  0
 13 14  1  0  0  0
 13 15  2  0  0  0
 13 16  2  0  0  0
  2 17  1  0  0  0
  3 18  1  0  0  0
  4 19  1  0  0  0
  5 20  1  0  0  0
  6 21  1  0  0  0
  7 22  1  0  0  0
  7 23  1  0  0  0
  8 24  1  0  0  0
 10 25  1  0  0  0
 12 26  1  0  0  0
 14 27  1  0  0  0
 14 28  1  0  0  0
M  END
$$$$
