5tho_ligand
  -I-interpret- 

 81 83  0  0  0  0  0  0  0  0999 V2000
   75.1300  -28.2410  198.4690 C   0  0  0  0  0
   75.5240  -29.3880  198.5960 O   0  0  0  0  0
   76.0590  -27.0430  198.6360 C   0  0  0  0  0
   77.1860  -26.8860  197.5940 C   0  0  0  0  0
   78.3170  -26.0000  198.0480 C   0  0  0  0  0
   78.6010  -24.8360  197.3450 C   0  0  0  0  0
   79.6270  -23.9810  197.7190 C   0  0  0  0  0
   80.4110  -24.2680  198.8240 C   0  0  0  0  0
   80.1460  -25.4200  199.5450 C   0  0  0  0  0
   79.1140  -26.2710  199.1610 C   0  0  0  0  0
   73.5970  -29.3030  195.7130 O   0  0  0  0  0
   73.1950  -29.8940  196.7040 C   0  0  0  0  0
   72.8100  -29.0590  197.9920 C   0  0  0  0  0
   71.3470  -28.5440  197.7300 C   0  0  0  0  0
   70.5420  -27.8710  198.8280 C   0  0  0  0  0
   69.6990  -26.7590  198.6090 N   0  0  0  0  0
   68.9060  -26.1210  199.6740 C   0  0  0  0  0
   69.6870  -25.1250  200.5300 C   0  0  0  0  0
   69.5400  -26.1620  197.2570 C   0  0  0  0  0
   68.3770  -26.7990  196.4850 C   0  0  0  0  0
   70.6170  -28.3100  199.9780 O   0  0  0  0  0
   73.7910  -28.0400  198.1780 N   0  0  0  0  0
   75.2630  -33.5720  195.0760 O   0  0  0  0  0
   73.0870  -31.2710  196.6480 N   0  0  0  0  0
   73.3810  -32.1330  195.5000 C   0  0  0  0  0
   72.0090  -32.5530  194.8780 C   0  0  0  0  0
   71.0420  -32.6160  195.6310 O   0  0  0  0  0
   74.1870  -33.3750  195.9670 C   0  0  0  0  0
   75.0420  -34.6360  194.1600 C   0  0  0  0  0
   68.3840  -30.2700  190.4410 C   0  0  0  0  0
   69.0810  -31.2960  189.8810 C   0  0  0  0  0
   68.3350  -30.1360  191.8520 C   0  0  0  0  0
   68.9070  -30.8700  194.0590 C   0  0  0  0  0
   69.0090  -31.0750  192.6610 C   0  0  0  0  0
   68.2060  -29.8300  194.6060 C   0  0  0  0  0
   71.8250  -32.8310  193.5060 N   0  0  0  0  0
   70.5090  -33.2220  192.8910 C   0  0  0  0  0
   69.7530  -32.1600  192.0610 C   0  0  0  0  0
   69.7630  -32.2380  190.6940 C   0  0  0  0  0
   67.5390  -28.9010  193.7860 C   0  0  0  0  0
   67.6100  -29.0560  192.4320 C   0  0  0  0  0
   76.5562  -27.1814  199.5961 H   0  0  0  0  0
   75.4295  -26.1593  198.5314 H   0  0  0  0  0
   76.7477  -26.4248  196.7090 H   0  0  0  0  0
   77.6023  -27.8772  197.4145 H   0  0  0  0  0
   77.9983  -24.5867  196.4717 H   0  0  0  0  0
   79.8175  -23.0776  197.1397 H   0  0  0  0  0
   81.2203  -23.6005  199.1201 H   0  0  0  0  0
   80.7499  -25.6620  200.4195 H   0  0  0  0  0
   78.9234  -27.1719  199.7443 H   0  0  0  0  0
   72.8091  -29.6230  198.9247 H   0  0  0  0  0
   70.7844  -29.4513  197.5100 H   0  0  0  0  0
   71.4736  -27.7629  196.9804 H   0  0  0  0  0
   68.5639  -26.9149  200.3380 H   0  0  0  0  0
   68.1042  -25.5656  199.1874 H   0  0  0  0  0
   70.5181  -25.6376  201.0144 H   0  0  0  0  0
   70.0712  -24.3259  199.8960 H   0  0  0  0  0
   69.0269  -24.7035  201.2881 H   0  0  0  0  0
   70.4586  -26.3350  196.6963 H   0  0  0  0  0
   69.3310  -25.0987  197.3748 H   0  0  0  0  0
   68.5617  -27.8669  196.3683 H   0  0  0  0  0
   67.4497  -26.6476  197.0375 H   0  0  0  0  0
   68.2964  -26.3334  195.5027 H   0  0  0  0  0
   73.4770  -27.0737  198.0883 H   0  0  0  0  0
   72.7683  -31.7373  197.4973 H   0  0  0  0  0
   73.9858  -31.6131  194.7570 H   0  0  0  0  0
   74.5649  -33.2149  196.9768 H   0  0  0  0  0
   73.5437  -34.2549  195.9735 H   0  0  0  0  0
   74.8958  -35.5645  194.7120 H   0  0  0  0  0
   74.1545  -34.4224  193.5643 H   0  0  0  0  0
   75.9067  -34.7342  193.5037 H   0  0  0  0  0
   67.8643  -29.5524  189.8061 H   0  0  0  0  0
   69.1157  -31.3952  188.7961 H   0  0  0  0  0
   69.4081  -31.5704  194.7272 H   0  0  0  0  0
   68.1637  -29.7198  195.6896 H   0  0  0  0  0
   72.6368  -32.7623  192.8922 H   0  0  0  0  0
   69.8541  -33.4528  193.7312 H   0  0  0  0  0
   70.7436  -34.0236  192.1906 H   0  0  0  0  0
   70.3120  -33.0490  190.2154 H   0  0  0  0  0
   66.9776  -28.0752  194.2230 H   0  0  0  0  0
   67.1033  -28.3412  191.7835 H   0  0  0  0  0
  1  2  2  0  0  0
  1  3  1  0  0  0
 22  1  1  0  0  0
  3  4  1  0  0  0
  4  5  1  0  0  0
  5  6  4  0  0  0
  5 10  4  0  0  0
  6  7  4  0  0  0
  7  8  4  0  0  0
  9  8  4  0  0  0
 10  9  4  0  0  0
 12 11  2  0  0  0
 12 13  1  0  0  0
 24 12  1  0  0  0
 13 14  1  0  0  0
 13 22  1  0  0  0
 14 15  1  0  0  0
 15 16  1  0  0  0
 15 21  2  0  0  0
 16 17  1  0  0  0
 16 19  1  0  0  0
 17 18  1  0  0  0
 19 20  1  0  0  0
 28 23  1  0  0  0
 23 29  1  0  0  0
 25 24  1  0  0  0
 26 25  1  0  0  0
 25 28  1  0  0  0
 26 27  2  0  0  0
 36 26  1  0  0  0
 30 31  4  0  0  0
 32 30  4  0  0  0
 31 39  4  0  0  0
 34 32  4  0  0  0
 32 41  4  0  0  0
 34 33  4  0  0  0
 33 35  4  0  0  0
 38 34  4  0  0  0
 35 40  4  0  0  0
 37 36  1  0  0  0
 37 38  1  0  0  0
 38 39  4  0  0  0
 40 41  4  0  0  0
  3 42  1  0  0  0
  3 43  1  0  0  0
  4 44  1  0  0  0
  4 45  1  0  0  0
  6 46  1  0  0  0
  7 47  1  0  0  0
  8 48  1  0  0  0
  9 49  1  0  0  0
 10 50  1  0  0  0
 13 51  1  0  0  0
 14 52  1  0  0  0
 14 53  1  0  0  0
 17 54  1  0  0  0
 17 55  1  0  0  0
 18 56  1  0  0  0
 18 57  1  0  0  0
 18 58  1  0  0  0
 19 59  1  0  0  0
 19 60  1  0  0  0
 20 61  1  0  0  0
 20 62  1  0  0  0
 20 63  1  0  0  0
 22 64  1  0  0  0
 24 65  1  0  0  0
 25 66  1  0  0  0
 28 67  1  0  0  0
 28 68  1  0  0  0
 29 69  1  0  0  0
 29 70  1  0  0  0
 29 71  1  0  0  0
 30 72  1  0  0  0
 31 73  1  0  0  0
 33 74  1  0  0  0
 35 75  1  0  0  0
 36 76  1  0  0  0
 37 77  1  0  0  0
 37 78  1  0  0  0
 39 79  1  0  0  0
 40 80  1  0  0  0
 41 81  1  0  0  0
M  END
$$$$
