6jn6_ligand

Created by X-TOOL on Mon Aug  2 16:17:19 2021
 42 43  0  0  0  0  0  0  0  0999 V2000
  -28.7370   12.8990   66.5690  C 0  0  0  1  0  3
  -27.3610   11.9930   68.1160  C 0  0  0  2  0  3
  -28.5620   11.8030   67.4450  C 0  0  0  1  0  3
  -27.6450   13.7110   66.7190  C 0  0  0  1  0  3
  -29.5430   10.6600   67.6350  C 0  0  0  3  0  4
  -30.1970   10.8070   69.0120  C 0  0  0  3  0  5
  -31.1140   11.9710   69.0900  N 0  0  0  2  0  3
  -30.7270   13.3320   69.5060  C 0  0  0  1  0  3
  -29.6180   13.6340   69.8060  O 0  0  0  1  0  1
  -31.7720   14.4470   69.5700  C 0  0  0  2  0  4
  -31.6790   15.2420   70.8940  C 0  0  0  3  0  4
  -32.1950   14.2020   72.2910  S 0  0  0  2  0  2
  -31.5230   15.4030   68.4030  C 0  0  0  4  0  4
  -30.9330    9.4280   69.2870  B 0  0  0  1  0  3
  -30.2570    8.2790   69.0710  O 0  0  0  3  0  3
  -32.2780    9.3550   69.3050  O 0  0  0  3  0  3
  -26.8130   13.1420   67.6680  O 0  0  0  1  0  2
  -29.7570   13.2320   65.6530  C 0  0  0  2  0  3
  -29.6460   14.4010   64.9100  C 0  0  0  2  0  3
  -28.5390   15.2340   65.0560  C 0  0  0  2  0  3
  -27.5340   14.8990   65.9540  C 0  0  0  2  0  3
  -26.9366   11.3319   68.8701  H 0  0  0  1  0  1
  -29.0098    9.6996   67.5778  H 0  0  0  1  0  1
  -30.3143   10.6985   66.8516  H 0  0  0  1  0  1
  -29.4056   10.9316   69.7658  H 0  0  0  1  0  1
  -30.7695    9.8931   69.2289  H 0  0  0  1  0  1
  -32.0707   11.8206   68.8406  H 0  0  0  1  0  1
  -32.7766   14.0073   69.4837  H 0  0  0  1  0  1
  -32.3354   16.1227   70.8354  H 0  0  0  1  0  1
  -30.6401   15.5686   71.0490  H 0  0  0  1  0  1
  -32.1293   14.7325   73.1456  H 0  0  0  1  0  1
  -31.5866   14.8487   67.4550  H 0  0  0  1  0  1
  -30.5219   15.8483   68.5009  H 0  0  0  1  0  1
  -32.2813   16.1997   68.4134  H 0  0  0  1  0  1
  -30.4693    7.6546   69.7548  H 0  0  0  1  0  1
  -30.4693    7.6546   69.7549  H 0  0  0  1  0  1
  -32.5877    9.0306   68.4675  H 0  0  0  1  0  1
  -32.6388   10.2192   69.4641  H 0  0  0  1  0  1
  -30.6170   12.5837   65.5303  H 0  0  0  1  0  1
  -30.4291   14.6675   64.2094  H 0  0  0  1  0  1
  -28.4622   16.1424   64.4695  H 0  0  0  1  0  1
  -26.6694   15.5426   66.0692  H 0  0  0  1  0  1
  1  3  1  0  0  1
  1  4  4  0  0  1
  1 18  4  0  0  1
  3  2  2  0  0  1
  2 17  1  0  0  1
  3  5  1  0  0  2
  4 17  1  0  0  1
  4 21  4  0  0  1
  5  6  1  0  0  2
  6  7  1  0  0  2
  6 14  1  0  0  2
  7  8  1  0  0  2
  8  9  2  0  0  2
  8 10  1  0  0  2
 10 11  1  0  0  2
 10 13  1  0  0  2
 11 12  1  0  0  2
 14 15  1  0  0  2
 14 16  1  0  0  2
 18 19  4  0  0  1
 19 20  4  0  0  1
 20 21  4  0  0  1
  2 22  1  0  0  2
  5 23  1  0  0  2
  5 24  1  0  0  2
  6 25  1  0  0  2
  6 26  1  0  0  2
  7 27  1  0  0  2
 10 28  1  0  0  2
 11 29  1  0  0  2
 11 30  1  0  0  2
 12 31  1  0  0  2
 13 32  1  0  0  2
 13 33  1  0  0  2
 13 34  1  0  0  2
 15 35  1  0  0  2
 15 36  1  0  0  2
 16 37  1  0  0  2
 16 38  1  0  0  2
 18 39  1  0  0  2
 19 40  1  0  0  2
 20 41  1  0  0  2
 21 42  1  0  0  2
M  END
> <MOLECULAR_FORMULA>
C14H21NO4SB

> <MOLECULAR_WEIGHT>
310.0

> <NUM_HB_ATOMS>
5  

> <NUM_ROTOR>
6  

> <XLOGP2>
1.27 

$$$$
