#	Name:			6jn6_ligand
#	Creating user name:	wangrx
#	Creation time:		Thu Aug  5 17:58:56 2021

#	Modifying user name:	wangrx
#	Modification time:	Thu Aug  5 17:59:29 2021

@<TRIPOS>MOLECULE
6jn6_ligand
   40    41     1     0     0
SMALL
GAST_HUCK


@<TRIPOS>ATOM
      1 C17       -28.7370   12.8990   66.5690 C.ar      1 BY0        -0.0074 
      2 C14       -27.3610   11.9930   68.1160 C.2       1 BY0         0.0755 
      3 C13       -28.5620   11.8030   67.4450 C.2       1 BY0        -0.0574 
      4 C16       -27.6450   13.7110   66.7190 C.ar      1 BY0         0.1199 
      5 C1        -29.5430   10.6600   67.6350 C.3       1 BY0        -0.1406 
      6 C2        -30.1970   10.8070   69.0120 C.3       1 BY0        -0.2199 
      7 N3        -31.1140   11.9710   69.0900 N.am      1 BY0        -0.4366 
      8 C4        -30.7270   13.3320   69.5060 C.2       1 BY0         0.1514 
      9 O5        -29.6180   13.6340   69.8060 O.2       1 BY0        -0.3993 
     10 C6        -31.7720   14.4470   69.5700 C.3       1 BY0         0.0521 
     11 C7        -31.6790   15.2420   70.8940 C.3       1 BY0         0.0100 
     12 S8        -32.1950   14.2020   72.2910 S.3       1 BY0        -0.1756 
     13 C9        -31.5230   15.4030   68.4030 C.3       1 BY0        -0.0447 
     14 B10       -30.9330    9.4280   69.2870 B         1 BY0         3.0000 
     15 O11       -30.2570    8.2790   69.0710 O.3       1 BY0        -0.4105 
     16 O12       -32.2780    9.3550   69.3050 O.3       1 BY0        -0.8710 
     17 O15       -26.8130   13.1420   67.6680 O.3       1 BY0        -0.2686 
     18 C18       -29.7570   13.2320   65.6530 C.ar      1 BY0        -0.0706 
     19 C19       -29.6460   14.4010   64.9100 C.ar      1 BY0        -0.0767 
     20 C20       -28.5390   15.2340   65.0560 C.ar      1 BY0        -0.0736 
     21 C21       -27.5340   14.8990   65.9540 C.ar      1 BY0        -0.0320 
     22 H1        -26.9366   11.3319   68.8701 H         1 BY0         0.0922 
     23 H2        -29.0098    9.6996   67.5778 H         1 BY0         0.0027 
     24 H3        -30.3143   10.6985   66.8516 H         1 BY0         0.0027 
     25 H4        -29.4056   10.9316   69.7658 H         1 BY0        -0.1807 
     26 H6        -32.0707   11.8206   68.8406 H         1 BY0         0.1460 
     27 H7        -32.7766   14.0073   69.4837 H         1 BY0         0.0542 
     28 H8        -32.3354   16.1227   70.8354 H         1 BY0         0.0401 
     29 H9        -30.6401   15.5686   71.0490 H         1 BY0         0.0401 
     30 H10       -32.1293   14.7325   73.1456 H         1 BY0         0.1018 
     31 H11       -31.5866   14.8487   67.4550 H         1 BY0         0.0257 
     32 H12       -30.5219   15.8483   68.5009 H         1 BY0         0.0257 
     33 H13       -32.2813   16.1997   68.4134 H         1 BY0         0.0257 
     34 H14       -30.4693    7.6546   69.7548 H         1 BY0         0.2052 
     35 H15       -30.4693    7.6546   69.7549 H         1 BY0         0.2052 
     36 H16       -32.5877    9.0306   68.4675 H         1 BY0        -0.1290 
     37 H18       -30.6170   12.5837   65.5303 H         1 BY0         0.0552 
     38 H19       -30.4291   14.6675   64.2094 H         1 BY0         0.0524 
     39 H20       -28.4622   16.1424   64.4695 H         1 BY0         0.0543 
     40 H21       -26.6694   15.5426   66.0692 H         1 BY0         0.0560 
@<TRIPOS>BOND
     1    1    3 1    
     2    1    4 ar   
     3    1   18 ar   
     4    3    2 2    
     5    2   17 1    
     6    3    5 1    
     7    4   17 1    
     8    4   21 ar   
     9    5    6 1    
    10    6    7 1    
    11    6   14 1    
    12    7    8 am   
    13    8    9 2    
    14    8   10 1    
    15   10   11 1    
    16   10   13 1    
    17   11   12 1    
    18   14   15 1    
    19   14   16 1    
    20   18   19 ar   
    21   19   20 ar   
    22   20   21 ar   
    23    2   22 1    
    24    5   23 1    
    25    5   24 1    
    26    6   25 1    
    27    7   26 1    
    28   10   27 1    
    29   11   28 1    
    30   11   29 1    
    31   12   30 1    
    32   13   31 1    
    33   13   32 1    
    34   13   33 1    
    35   15   34 1    
    36   15   35 1    
    37   16   36 1    
    38   18   37 1    
    39   19   38 1    
    40   20   39 1    
    41   21   40 1    
@<TRIPOS>SUBSTRUCTURE
     1 BY0         1 PERM              0 ****  ****    0 ROOT 
