1dbj_ligand
  -I-interpret- 

 51 54  0  0  0  0  0  0  0  0999 V2000
  -19.3250   42.4490  -11.1620 C   0  0  0  0  0
  -20.0690   41.1030  -11.1410 C   0  0  0  0  0
  -20.2460   40.5980  -12.5670 C   0  0  0  0  0
  -21.0010   39.3920  -12.5720 O   0  0  0  0  0
  -20.9990   41.6510  -13.4480 C   0  0  0  0  0
  -20.1430   42.9430  -13.4860 C   0  0  0  0  0
  -20.8430   43.9470  -14.4220 C   0  0  0  0  0
  -22.1420   44.5000  -13.8430 C   0  0  0  0  0
  -22.0560   44.9550  -12.4050 C   0  0  0  0  0
  -21.4070   43.8820  -11.5080 C   0  0  0  0  0
  -19.9920   43.5240  -12.0440 C   0  0  0  0  0
  -21.3630   44.3320  -10.0840 C   0  0  0  0  0
  -22.7520   44.7200   -9.5790 C   0  0  0  0  0
  -23.3970   45.7460  -10.4630 C   0  0  0  0  0
  -23.4440   45.2460  -11.8930 C   0  0  0  0  0
  -24.5160   46.0880  -12.5730 C   0  0  0  0  0
  -25.5820   46.1650  -11.4850 C   0  0  0  0  0
  -24.8410   45.9420  -10.1700 C   0  0  0  0  0
  -25.3300   45.9550   -9.0410 O   0  0  0  0  0
  -22.7230   47.1090  -10.2410 C   0  0  0  0  0
  -18.9870   44.6450  -11.9900 C   0  0  0  0  0
  -18.3336   42.2629  -11.5750 H   0  0  0  0  0
  -19.3177   42.8292  -10.1405 H   0  0  0  0  0
  -21.0471   41.2358  -10.6787 H   0  0  0  0  0
  -19.4915   40.3777  -10.5679 H   0  0  0  0  0
  -19.2516   40.4242  -12.9781 H   0  0  0  0  0
  -20.5535   38.7334  -12.0357 H   0  0  0  0  0
  -21.9814   41.8622  -13.0256 H   0  0  0  0  0
  -21.1426   41.2644  -14.4570 H   0  0  0  0  0
  -19.1411   42.7336  -13.8607 H   0  0  0  0  0
  -21.0888   43.4228  -15.3455 H   0  0  0  0  0
  -20.1645   44.7864  -14.5742 H   0  0  0  0  0
  -22.8708   43.6901  -13.8742 H   0  0  0  0  0
  -22.4031   45.3766  -14.4358 H   0  0  0  0  0
  -21.4360   45.8508  -12.3710 H   0  0  0  0  0
  -22.0173   42.9794  -11.5393 H   0  0  0  0  0
  -20.7138   45.2050  -10.0167 H   0  0  0  0  0
  -20.9893   43.5106   -9.4727 H   0  0  0  0  0
  -22.6483   45.1437   -8.5801 H   0  0  0  0  0
  -23.3778   43.8276   -9.5753 H   0  0  0  0  0
  -23.8044   44.2432  -12.1221 H   0  0  0  0  0
  -24.8781   45.6597  -13.5076 H   0  0  0  0  0
  -24.1591   47.0638  -12.9025 H   0  0  0  0  0
  -26.3607   45.4174  -11.6359 H   0  0  0  0  0
  -26.0945   47.1269  -11.4960 H   0  0  0  0  0
  -22.8370   47.4037   -9.1978 H   0  0  0  0  0
  -21.6633   47.0328  -10.4846 H   0  0  0  0  0
  -23.1922   47.8539  -10.8837 H   0  0  0  0  0
  -19.3456   45.4819  -12.5893 H   0  0  0  0  0
  -18.8576   44.9658  -10.9563 H   0  0  0  0  0
  -18.0333   44.2956  -12.3855 H   0  0  0  0  0
  1  2  1  0  0  0
  1 11  1  0  0  0
  2  3  1  0  0  0
  3  4  1  0  0  0
  3  5  1  0  0  0
  5  6  1  0  0  0
  6  7  1  0  0  0
  6 11  1  0  0  0
  7  8  1  0  0  0
  8  9  1  0  0  0
  9 10  1  0  0  0
  9 15  1  0  0  0
 10 11  1  0  0  0
 10 12  1  0  0  0
 11 21  1  0  0  0
 12 13  1  0  0  0
 13 14  1  0  0  0
 14 15  1  0  0  0
 14 18  1  0  0  0
 14 20  1  0  0  0
 15 16  1  0  0  0
 16 17  1  0  0  0
 17 18  1  0  0  0
 18 19  2  0  0  0
  1 22  1  0  0  0
  1 23  1  0  0  0
  2 24  1  0  0  0
  2 25  1  0  0  0
  3 26  1  0  0  0
  4 27  1  0  0  0
  5 28  1  0  0  0
  5 29  1  0  0  0
  6 30  1  0  0  0
  7 31  1  0  0  0
  7 32  1  0  0  0
  8 33  1  0  0  0
  8 34  1  0  0  0
  9 35  1  0  0  0
 10 36  1  0  0  0
 12 37  1  0  0  0
 12 38  1  0  0  0
 13 39  1  0  0  0
 13 40  1  0  0  0
 15 41  1  0  0  0
 16 42  1  0  0  0
 16 43  1  0  0  0
 17 44  1  0  0  0
 17 45  1  0  0  0
 20 46  1  0  0  0
 20 47  1  0  0  0
 20 48  1  0  0  0
 21 49  1  0  0  0
 21 50  1  0  0  0
 21 51  1  0  0  0
M  END
$$$$
