5ovh_ligand
  -I-interpret- 

 56 59  0  0  0  0  0  0  0  0999 V2000
   22.7870  -30.8840   46.3750 C   0  0  0  0  0
   24.6190  -32.0420   45.4840 C   0  0  0  0  0
   26.1050  -32.4060   45.5600 C   0  0  0  0  0
   21.8160  -35.1490   42.7950 C   0  0  0  0  0
   21.7370  -37.2890   43.5140 C   0  0  0  0  0
   17.9660  -39.5810   41.8710 C   0  0  0  0  0
   17.3300  -39.9560   43.0520 C   0  0  0  0  0
   17.7250  -39.3990   44.2690 C   0  0  0  0  0
   19.1730  -37.8980   45.7250 C   0  0  0  0  0
   22.2770  -30.0420   47.3590 C   0  0  0  0  0
   21.3170  -27.7980   48.7410 C   0  0  0  0  0
   20.4240  -28.8330   48.3230 O   0  0  0  0  0
   20.9330  -29.6620   47.3490 C   0  0  0  0  0
   20.0870  -30.1510   46.3500 C   0  0  0  0  0
   18.7750  -29.7500   46.3800 O   0  0  0  0  0
   17.8040  -30.4600   45.5920 C   0  0  0  0  0
   20.6050  -30.9960   45.3580 C   0  0  0  0  0
   21.9570  -31.3790   45.3590 C   0  0  0  0  0
   24.0860  -31.2290   46.4140 N   0  0  0  0  0
   23.8520  -32.5300   44.4940 N   0  0  0  0  0
   22.5350  -32.2340   44.3960 C   0  0  0  0  0
   21.8490  -32.7570   43.3710 N   0  0  0  0  0
   22.4070  -33.7740   42.4640 C   0  0  0  0  0
   22.0410  -33.4340   41.0020 C   0  0  0  0  0
   20.2070  -35.6340   42.5340 S   0  0  0  0  0
   22.4880  -36.1740   43.3310 C   0  0  0  0  0
   20.4490  -37.1810   43.1310 C   0  0  0  0  0
   19.4120  -38.1080   43.1560 C   0  0  0  0  0
   19.0070  -38.6570   41.9320 C   0  0  0  0  0
   18.7770  -38.4740   44.3470 C   0  0  0  0  0
   18.5680  -38.5810   46.8280 O   0  0  0  0  0
   26.7040  -31.4975   45.4972 H   0  0  0  0  0
   26.3062  -32.9108   46.5048 H   0  0  0  0  0
   26.3585  -33.0678   44.7318 H   0  0  0  0  0
   22.1454  -38.2055   43.9398 H   0  0  0  0  0
   17.6547  -40.0031   40.9155 H   0  0  0  0  0
   16.5215  -40.6866   43.0256 H   0  0  0  0  0
   17.2036  -39.6896   45.1810 H   0  0  0  0  0
   18.8332  -36.8628   45.7560 H   0  0  0  0  0
   20.2528  -38.0068   45.8262 H   0  0  0  0  0
   22.9345  -29.6747   48.1470 H   0  0  0  0  0
   22.2255  -28.2449   49.1449 H   0  0  0  0  0
   21.5684  -27.1698   47.8865 H   0  0  0  0  0
   20.8356  -27.1929   49.5093 H   0  0  0  0  0
   18.0808  -30.4035   44.5393 H   0  0  0  0  0
   17.7759  -31.5034   45.9061 H   0  0  0  0  0
   16.8219  -30.0094   45.7355 H   0  0  0  0  0
   19.9462  -31.3628   44.5709 H   0  0  0  0  0
   20.8943  -32.4353   43.2112 H   0  0  0  0  0
   23.4899  -33.7888   42.5877 H   0  0  0  0  0
   20.9564  -33.4134   40.8957 H   0  0  0  0  0
   22.4512  -32.4577   40.7437 H   0  0  0  0  0
   22.4581  -34.1918   40.3388 H   0  0  0  0  0
   23.5436  -36.1184   43.5967 H   0  0  0  0  0
   19.5135  -38.3569   41.0147 H   0  0  0  0  0
   18.8541  -38.1756   47.6498 H   0  0  0  0  0
  1 10  4  0  0  0
 18  1  4  0  0  0
  1 19  4  0  0  0
  2  3  1  0  0  0
  2 19  4  0  0  0
 20  2  4  0  0  0
  4 23  1  0  0  0
 25  4  4  0  0  0
  4 26  4  0  0  0
  5 26  4  0  0  0
 27  5  4  0  0  0
  6  7  4  0  0  0
 29  6  4  0  0  0
  7  8  4  0  0  0
  8 30  4  0  0  0
 30  9  1  0  0  0
  9 31  1  0  0  0
 10 13  4  0  0  0
 12 11  1  0  0  0
 13 12  1  0  0  0
 14 13  4  0  0  0
 14 15  1  0  0  0
 17 14  4  0  0  0
 15 16  1  0  0  0
 18 17  4  0  0  0
 21 18  4  0  0  0
 21 20  4  0  0  0
 22 21  1  0  0  0
 23 22  1  0  0  0
 23 24  1  0  0  0
 27 25  4  0  0  0
 28 27  1  0  0  0
 28 29  4  0  0  0
 28 30  4  0  0  0
  3 32  1  0  0  0
  3 33  1  0  0  0
  3 34  1  0  0  0
  5 35  1  0  0  0
  6 36  1  0  0  0
  7 37  1  0  0  0
  8 38  1  0  0  0
  9 39  1  0  0  0
  9 40  1  0  0  0
 10 41  1  0  0  0
 11 42  1  0  0  0
 11 43  1  0  0  0
 11 44  1  0  0  0
 16 45  1  0  0  0
 16 46  1  0  0  0
 16 47  1  0  0  0
 17 48  1  0  0  0
 22 49  1  0  0  0
 23 50  1  0  0  0
 24 51  1  0  0  0
 24 52  1  0  0  0
 24 53  1  0  0  0
 26 54  1  0  0  0
 29 55  1  0  0  0
 31 56  1  0  0  0
M  END
$$$$
