4hj2_ligand
  -I-interpret- 

 74 74  0  0  0  0  0  0  0  0999 V2000
   20.2430   -9.3460   14.8090 O   0  0  0  0  0
   20.9510   -8.3690   15.1360 C   0  0  0  0  0
   20.5780   -7.1780   15.2000 O   0  0  0  0  0
   22.4090   -8.6620   15.5000 C   0  0  0  0  0
   23.2480   -7.5140   15.1270 N   0  3  0  0  0
   22.5270   -8.9150   17.0040 C   0  0  0  0  0
   21.7180  -10.1420   17.4290 C   0  0  0  0  0
   21.9160  -10.4330   18.9190 C   0  0  0  0  0
   22.6010   -9.6940   19.6240 O   0  0  0  0  0
   21.3050  -11.5220   19.3750 N   0  0  0  0  0
   21.4220  -11.9130   20.7870 C   0  0  0  0  0
   21.8320  -13.3830   20.8930 C   0  0  0  0  0
   21.2070  -14.2550   20.2880 O   0  0  0  0  0
   22.8730  -13.6170   21.6850 N   0  0  0  0  0
   23.4040  -14.9710   21.9030 C   0  0  0  0  0
   24.8550  -15.0430   21.4230 C   0  0  0  0  0
   25.4750  -16.1040   21.6540 O   0  0  0  0  0
   25.3080  -14.0370   20.8350 O   0  0  0  0  0
   20.0780  -11.7240   21.4920 C   0  0  0  0  0
   19.4430  -10.0090   21.4320 S   0  0  0  0  0
   18.3020  -10.1450   22.8530 C   0  0  0  0  0
   19.0720  -10.2350   24.1720 C   0  0  0  0  0
   19.7490   -8.9510   24.3910 N   0  0  0  0  0
   21.1630   -8.7720   24.0240 C   0  0  0  0  0
   22.0660   -9.5010   25.0210 C   0  0  0  0  0
   21.8450  -11.0150   24.9820 Cl  0  0  0  0  0
   19.0390   -7.9450   24.8940 C   0  0  0  0  0
   17.6980   -8.1610   25.1850 C   0  0  0  0  0
   16.9150   -7.1250   25.6790 C   0  0  0  0  0
   17.4790   -5.8710   25.8810 C   0  0  0  0  0
   18.8230   -5.6540   25.5950 C   0  0  0  0  0
   19.6060   -6.6920   25.1000 C   0  0  0  0  0
   16.5880   -4.7400   26.3940 C   0  0  0  0  0
   17.0720   -4.1870   27.7370 C   0  0  0  0  0
   16.0120   -3.2660   28.3460 C   0  0  0  0  0
   15.6090   -2.1410   27.3920 C   0  0  0  0  0
   15.1870   -2.4710   26.2620 O   0  0  0  0  0
   15.7120   -0.9690   27.8170 O   0  0  0  0  0
   20.7709  -10.1472   14.8409 H   0  0  0  0  0
   22.7432   -9.5480   14.9601 H   0  0  0  0  0
   23.1676   -7.3473   14.1239 H   0  0  0  0  0
   22.9365   -6.6870   15.6363 H   0  0  0  0  0
   24.2200   -7.7139   15.3629 H   0  0  0  0  0
   22.1390   -8.0445   17.5329 H   0  0  0  0  0
   23.5755   -9.0916   17.2440 H   0  0  0  0  0
   22.0574  -11.0036   16.8541 H   0  0  0  0  0
   20.6613   -9.9474   17.2459 H   0  0  0  0  0
   20.7489  -12.0925   18.7380 H   0  0  0  0  0
   22.1789  -11.2866   21.2589 H   0  0  0  0  0
   23.3189  -12.8309   22.1578 H   0  0  0  0  0
   22.8034  -15.6878   21.3430 H   0  0  0  0  0
   23.3644  -15.2064   22.9665 H   0  0  0  0  0
   24.8986  -16.7155   22.1181 H   0  0  0  0  0
   20.2242  -11.9787   22.5417 H   0  0  0  0  0
   19.3522  -12.3562   20.9805 H   0  0  0  0  0
   17.7052  -11.0495   22.7354 H   0  0  0  0  0
   17.6697   -9.2575   22.8784 H   0  0  0  0  0
   19.8024  -11.0428   24.1271 H   0  0  0  0  0
   18.3875  -10.4447   24.9939 H   0  0  0  0  0
   21.4027   -7.7088   24.0379 H   0  0  0  0  0
   21.3272   -9.1833   23.0280 H   0  0  0  0  0
   21.8289   -9.1448   26.0235 H   0  0  0  0  0
   23.1038   -9.2983   24.7566 H   0  0  0  0  0
   17.2589   -9.1458   25.0254 H   0  0  0  0  0
   15.8628   -7.2951   25.9072 H   0  0  0  0  0
   19.2628   -4.6702   25.7588 H   0  0  0  0  0
   20.6591   -6.5239   24.8747 H   0  0  0  0  0
   15.5823   -5.1368   26.5330 H   0  0  0  0  0
   16.6137   -3.9304   25.6646 H   0  0  0  0  0
   17.9883   -3.6184   27.5781 H   0  0  0  0  0
   17.2552   -5.0178   28.4184 H   0  0  0  0  0
   16.4306   -2.8147   29.2456 H   0  0  0  0  0
   15.1258   -3.8633   28.5602 H   0  0  0  0  0
   16.0607   -0.9836   28.7113 H   0  0  0  0  0
  1  2  1  0  0  0
  2  3  2  0  0  0
  2  4  1  0  0  0
  4  5  1  0  0  0
  4  6  1  0  0  0
  6  7  1  0  0  0
  7  8  1  0  0  0
  8  9  2  0  0  0
  8 10  1  0  0  0
 10 11  1  0  0  0
 11 12  1  0  0  0
 11 19  1  0  0  0
 12 13  2  0  0  0
 12 14  1  0  0  0
 14 15  1  0  0  0
 15 16  1  0  0  0
 16 17  1  0  0  0
 16 18  2  0  0  0
 19 20  1  0  0  0
 20 21  1  0  0  0
 21 22  1  0  0  0
 22 23  1  0  0  0
 23 24  1  0  0  0
 23 27  1  0  0  0
 24 25  1  0  0  0
 25 26  1  0  0  0
 27 28  4  0  0  0
 27 32  4  0  0  0
 28 29  4  0  0  0
 29 30  4  0  0  0
 30 31  4  0  0  0
 30 33  1  0  0  0
 31 32  4  0  0  0
 33 34  1  0  0  0
 34 35  1  0  0  0
 35 36  1  0  0  0
 36 37  2  0  0  0
 36 38  1  0  0  0
  1 39  1  0  0  0
  4 40  1  0  0  0
  5 41  1  0  0  0
  5 42  1  0  0  0
  5 43  1  0  0  0
  6 44  1  0  0  0
  6 45  1  0  0  0
  7 46  1  0  0  0
  7 47  1  0  0  0
 10 48  1  0  0  0
 11 49  1  0  0  0
 14 50  1  0  0  0
 15 51  1  0  0  0
 15 52  1  0  0  0
 17 53  1  0  0  0
 19 54  1  0  0  0
 19 55  1  0  0  0
 21 56  1  0  0  0
 21 57  1  0  0  0
 22 58  1  0  0  0
 22 59  1  0  0  0
 24 60  1  0  0  0
 24 61  1  0  0  0
 25 62  1  0  0  0
 25 63  1  0  0  0
 28 64  1  0  0  0
 29 65  1  0  0  0
 31 66  1  0  0  0
 32 67  1  0  0  0
 33 68  1  0  0  0
 33 69  1  0  0  0
 34 70  1  0  0  0
 34 71  1  0  0  0
 35 72  1  0  0  0
 35 73  1  0  0  0
 38 74  1  0  0  0
M  END
$$$$
