6qaa_ligand
  -I-interpret- 

 65 67  0  0  0  0  0  0  0  0999 V2000
   23.7270   39.8240   43.1570 C   0  0  0  0  0
   22.3560   39.5750   43.8140 C   0  0  0  0  0
   17.6710   41.1730   39.8260 C   0  0  0  0  0
   16.2440   39.9720   41.1950 C   0  0  0  0  0
   15.5720   41.1150   40.8090 C   0  0  0  0  0
   14.2300   41.3710   41.2680 C   0  0  0  0  0
   13.6270   40.3860   42.1400 C   0  0  0  0  0
   17.0430   45.4180   37.6900 C   0  0  0  0  0
   18.0010   44.2780   40.8820 C   0  0  0  0  0
   19.4690   43.7980   42.8630 C   0  0  0  0  0
   19.9670   42.3860   42.4010 C   0  0  0  0  0
   21.2510   41.8380   43.0830 C   0  0  0  0  0
   22.5090   42.2710   42.2750 C   0  0  0  0  0
   23.8160   42.4340   43.1170 C   0  0  0  0  0
   24.4480   41.1270   43.6620 C   0  0  0  0  0
   21.1540   40.2760   43.1180 C   0  0  0  0  0
   16.6890   44.5670   40.0850 C   0  0  0  0  0
   16.2110   43.2810   39.2710 C   0  0  0  0  0
   16.4420   41.9210   39.9350 C   0  0  0  0  0
   14.3200   39.2050   42.5110 C   0  0  0  0  0
   15.6600   38.9570   42.0550 C   0  0  0  0  0
   18.1520   44.0920   42.2750 N   0  0  0  0  0
   17.4960   40.0290   40.5930 N   0  0  0  0  0
   16.9490   45.7840   39.1580 N   0  3  0  0  0
   19.0730   44.1890   40.1890 O   0  0  0  0  0
   18.3590   45.8250   37.0280 C   0  0  0  0  0
   19.2550   44.5880   36.9430 C   0  0  0  0  0
   20.4990   44.7340   37.7250 C   0  0  0  0  0
   23.5572   39.9415   42.0867 H   0  0  0  0  0
   24.3671   38.9795   43.4124 H   0  0  0  0  0
   22.4137   39.9802   44.8242 H   0  0  0  0  0
   22.1703   38.5025   43.7562 H   0  0  0  0  0
   18.5580   41.4502   39.2564 H   0  0  0  0  0
   13.6909   42.2704   40.9703 H   0  0  0  0  0
   12.6193   40.5550   42.5197 H   0  0  0  0  0
   16.2442   45.9501   37.1734 H   0  0  0  0  0
   16.9708   44.3324   37.6232 H   0  0  0  0  0
   20.1828   44.5529   42.5332 H   0  0  0  0  0
   19.3840   43.8077   43.9496 H   0  0  0  0  0
   20.2095   42.4857   41.3430 H   0  0  0  0  0
   19.1702   41.6885   42.6592 H   0  0  0  0  0
   21.3377   42.2347   44.0945 H   0  0  0  0  0
   22.2865   43.2495   41.8493 H   0  0  0  0  0
   22.7011   41.4821   41.5478 H   0  0  0  0  0
   23.5433   43.0269   43.9900 H   0  0  0  0  0
   24.5558   42.8735   42.4480 H   0  0  0  0  0
   25.4785   41.0892   43.3088 H   0  0  0  0  0
   24.3615   41.1493   44.7483 H   0  0  0  0  0
   20.2607   40.0230   43.6891 H   0  0  0  0  0
   21.1376   39.9325   42.0837 H   0  0  0  0  0
   15.8761   44.8046   40.7711 H   0  0  0  0  0
   16.7996   43.2708   38.3536 H   0  0  0  0  0
   15.1313   43.3808   39.1594 H   0  0  0  0  0
   13.8280   38.4738   43.1524 H   0  0  0  0  0
   16.2074   38.0580   42.3384 H   0  0  0  0  0
   17.3355   44.1626   42.8823 H   0  0  0  0  0
   16.1616   46.4237   39.2643 H   0  0  0  0  0
   17.8440   46.1906   39.4302 H   0  0  0  0  0
   18.8486   46.6023   37.6148 H   0  0  0  0  0
   18.1696   46.2194   36.0297 H   0  0  0  0  0
   19.5302   44.4440   35.8982 H   0  0  0  0  0
   18.6999   43.7428   37.3500 H   0  0  0  0  0
   21.0657   45.5854   37.3481 H   0  0  0  0  0
   20.2504   44.8969   38.7737 H   0  0  0  0  0
   21.0959   43.8271   37.6284 H   0  0  0  0  0
  2  1  1  0  0  0
  1 15  1  0  0  0
 16  2  1  0  0  0
 19  3  4  0  0  0
  3 23  4  0  0  0
  5  4  4  0  0  0
  4 21  4  0  0  0
  4 23  4  0  0  0
  5  6  4  0  0  0
 19  5  4  0  0  0
  6  7  4  0  0  0
  7 20  4  0  0  0
 24  8  1  0  0  0
  8 26  1  0  0  0
 17  9  1  0  0  0
  9 22  1  0  0  0
  9 25  2  0  0  0
 10 11  1  0  0  0
 22 10  1  0  0  0
 11 12  1  0  0  0
 12 13  1  0  0  0
 12 16  1  0  0  0
 13 14  1  0  0  0
 14 15  1  0  0  0
 18 17  1  0  0  0
 17 24  1  0  0  0
 18 19  1  0  0  0
 20 21  4  0  0  0
 26 27  1  0  0  0
 27 28  1  0  0  0
  1 29  1  0  0  0
  1 30  1  0  0  0
  2 31  1  0  0  0
  2 32  1  0  0  0
  3 33  1  0  0  0
  6 34  1  0  0  0
  7 35  1  0  0  0
  8 36  1  0  0  0
  8 37  1  0  0  0
 10 38  1  0  0  0
 10 39  1  0  0  0
 11 40  1  0  0  0
 11 41  1  0  0  0
 12 42  1  0  0  0
 13 43  1  0  0  0
 13 44  1  0  0  0
 14 45  1  0  0  0
 14 46  1  0  0  0
 15 47  1  0  0  0
 15 48  1  0  0  0
 16 49  1  0  0  0
 16 50  1  0  0  0
 17 51  1  0  0  0
 18 52  1  0  0  0
 18 53  1  0  0  0
 20 54  1  0  0  0
 21 55  1  0  0  0
 22 56  1  0  0  0
 24 57  1  0  0  0
 24 58  1  0  0  0
 26 59  1  0  0  0
 26 60  1  0  0  0
 27 61  1  0  0  0
 27 62  1  0  0  0
 28 63  1  0  0  0
 28 64  1  0  0  0
 28 65  1  0  0  0
M  END
$$$$
