5alt_ligand
  -I-interpret- 

 28 30  0  0  0  0  0  0  0  0999 V2000
   12.7020   11.7760   19.4940 C   0  0  0  0  0
   12.1660    9.8000   21.6570 C   0  0  0  0  0
   13.7190   10.9230   23.0110 C   0  0  0  0  0
   13.3020   12.4760   18.4780 C   0  0  0  0  0
   14.8620   11.9140   20.3160 C   0  0  0  0  0
   13.5880   11.4420   20.5620 C   0  0  0  0  0
   13.1860   10.7200   21.7510 C   0  0  0  0  0
   11.7260    9.1130   22.7730 C   0  0  0  0  0
   12.3320    9.3840   23.9990 C   0  0  0  0  0
   10.6820    8.1510   22.5580 C   0  0  0  0  0
    8.8260    5.9880   20.6150 C   0  0  0  0  0
   13.3150   10.2890   24.1170 N   0  0  0  0  0
    9.8920    7.6050   23.5420 N   0  0  0  0  0
   10.4310    7.6590   21.3370 N   0  0  0  0  0
    9.1010    6.7390   22.9450 N   0  0  0  0  0
    9.4520    6.8090   21.6470 N   0  0  0  0  0
   11.9280    8.7170   25.1630 N   0  0  0  0  0
   14.9540   12.7340   18.8120 S   0  0  0  0  0
   11.6474   11.5007   19.4863 H   0  0  0  0  0
   11.6994    9.6109   20.6902 H   0  0  0  0  0
   14.5246   11.6506   23.1094 H   0  0  0  0  0
   12.7915   12.8207   17.5787 H   0  0  0  0  0
   15.7053   11.7819   20.9938 H   0  0  0  0  0
    8.3773    6.6345   19.8607 H   0  0  0  0  0
    9.5806    5.3539   20.1496 H   0  0  0  0  0
    8.0543    5.3648   21.0668 H   0  0  0  0  0
   11.1816    8.0231   25.1202 H   0  0  0  0  0
   12.3803    8.9253   26.0532 H   0  0  0  0  0
  1  4  4  0  0  0
  6  1  4  0  0  0
  2  7  4  0  0  0
  8  2  4  0  0  0
  7  3  4  0  0  0
 12  3  4  0  0  0
 18  4  4  0  0  0
  6  5  4  0  0  0
  5 18  4  0  0  0
  7  6  1  0  0  0
  8  9  4  0  0  0
 10  8  1  0  0  0
  9 12  4  0  0  0
  9 17  1  0  0  0
 10 13  4  0  0  0
 14 10  4  0  0  0
 16 11  1  0  0  0
 13 15  4  0  0  0
 14 16  4  0  0  0
 15 16  4  0  0  0
  1 19  1  0  0  0
  2 20  1  0  0  0
  3 21  1  0  0  0
  4 22  1  0  0  0
  5 23  1  0  0  0
 11 24  1  0  0  0
 11 25  1  0  0  0
 11 26  1  0  0  0
 17 27  1  0  0  0
 17 28  1  0  0  0
M  END
$$$$
