3gz9_ligand
  -I-interpret- 

 61 63  0  0  0  0  0  0  0  0999 V2000
   38.6210   77.7970   -5.1200 O   0  0  0  0  0
   38.0720   76.7800   -5.5820 C   0  0  0  0  0
   38.7470   76.1040   -6.3480 O   0  0  0  0  0
   36.6200   76.4590   -5.3700 C   0  0  0  0  0
   36.3070   75.2270   -6.0720 O   0  0  0  0  0
   36.6560   74.0030   -5.4790 C   0  0  0  0  0
   37.5940   73.7930   -4.4870 C   0  0  0  0  0
   37.8940   72.4700   -3.9420 C   0  0  0  0  0
   36.0120   72.8890   -5.9740 C   0  0  0  0  0
   35.0320   73.0790   -7.1090 C   0  0  0  0  0
   36.3150   71.6140   -5.5190 C   0  0  0  0  0
   35.5610   70.5040   -6.1810 C   0  0  0  0  0
   37.2230   71.3750   -4.4900 C   0  0  0  0  0
   37.5160   69.7580   -3.9510 S   0  0  0  0  0
   36.5170   69.5570   -2.5690 C   0  0  0  0  0
   35.9150   70.6320   -1.9370 C   0  0  0  0  0
   35.0710   70.4920   -0.7940 C   0  0  0  0  0
   36.3070   68.3070   -2.0900 C   0  0  0  0  0
   36.9440   67.2320   -2.7270 O   0  0  0  0  0
   36.6170   65.9970   -2.0840 C   0  0  0  0  0
   37.6110   65.7780   -1.0390 C   0  0  0  0  0
   38.5250   65.5050   -0.1680 C   0  0  0  0  0
   35.4780   68.1540   -0.9410 C   0  0  0  0  0
   34.8770   69.2330   -0.2670 C   0  0  0  0  0
   34.0070   69.0960    0.9760 C   0  0  0  0  0
   32.9240   70.0100    0.8180 O   0  0  0  0  0
   31.6570   69.6870    0.3040 C   0  0  0  0  0
   30.5250   70.2170    0.9260 C   0  0  0  0  0
   29.2800   69.8970    0.4880 C   0  0  0  0  0
   31.4990   68.7860   -0.7460 C   0  0  0  0  0
   30.2340   68.4540   -1.1810 C   0  0  0  0  0
   29.1320   69.0430   -0.5880 C   0  0  0  0  0
   27.7570   68.6210   -1.0470 C   0  0  0  0  0
   27.0160   68.1680   -0.0370 F   0  0  0  0  0
   27.8370   67.5690   -1.8140 F   0  0  0  0  0
   27.1720   69.5830   -1.7000 F   0  0  0  0  0
   38.0100   78.2516   -4.5355 H   0  0  0  0  0
   36.0019   77.2706   -5.7539 H   0  0  0  0  0
   36.4194   76.3392   -4.3053 H   0  0  0  0  0
   38.1352   74.6530   -4.0925 H   0  0  0  0  0
   38.6165   72.3428   -3.1358 H   0  0  0  0  0
   34.2336   73.7489   -6.7897 H   0  0  0  0  0
   35.5495   73.5108   -7.9657 H   0  0  0  0  0
   34.6087   72.1139   -7.3872 H   0  0  0  0  0
   34.4924   70.6455   -6.0194 H   0  0  0  0  0
   35.7721   70.5103   -7.2504 H   0  0  0  0  0
   35.8712   69.5504   -5.7538 H   0  0  0  0  0
   36.0940   71.6325   -2.3308 H   0  0  0  0  0
   34.5901   71.3623   -0.3474 H   0  0  0  0  0
   36.6272   65.1764   -2.8014 H   0  0  0  0  0
   35.6149   66.0400   -1.6574 H   0  0  0  0  0
   37.2486   66.6253   -0.4568 H   0  0  0  0  0
   39.1984   64.6634   -0.3302 H   0  0  0  0  0
   38.6229   66.1163    0.7291 H   0  0  0  0  0
   35.2999   67.1469   -0.5640 H   0  0  0  0  0
   34.5776   69.3205    1.8772 H   0  0  0  0  0
   33.6418   68.0748    1.0850 H   0  0  0  0  0
   30.6417   70.8946    1.7718 H   0  0  0  0  0
   28.4019   70.3118    0.9828 H   0  0  0  0  0
   32.3739   68.3442   -1.2229 H   0  0  0  0  0
   30.1029   67.7320   -1.9870 H   0  0  0  0  0
  1  2  1  0  0  0
  2  3  2  0  0  0
  2  4  1  0  0  0
  4  5  1  0  0  0
  5  6  1  0  0  0
  6  7  4  0  0  0
  6  9  4  0  0  0
  7  8  4  0  0  0
  8 13  4  0  0  0
  9 10  1  0  0  0
  9 11  4  0  0  0
 11 12  1  0  0  0
 11 13  4  0  0  0
 13 14  1  0  0  0
 14 15  1  0  0  0
 15 16  4  0  0  0
 15 18  4  0  0  0
 16 17  4  0  0  0
 17 24  4  0  0  0
 18 19  1  0  0  0
 18 23  4  0  0  0
 19 20  1  0  0  0
 20 21  1  0  0  0
 21 22  2  0  0  0
 23 24  4  0  0  0
 24 25  1  0  0  0
 25 26  1  0  0  0
 26 27  1  0  0  0
 27 28  4  0  0  0
 27 30  4  0  0  0
 28 29  4  0  0  0
 29 32  4  0  0  0
 30 31  4  0  0  0
 31 32  4  0  0  0
 32 33  1  0  0  0
 33 34  1  0  0  0
 33 35  1  0  0  0
 33 36  1  0  0  0
  1 37  1  0  0  0
  4 38  1  0  0  0
  4 39  1  0  0  0
  7 40  1  0  0  0
  8 41  1  0  0  0
 10 42  1  0  0  0
 10 43  1  0  0  0
 10 44  1  0  0  0
 12 45  1  0  0  0
 12 46  1  0  0  0
 12 47  1  0  0  0
 16 48  1  0  0  0
 17 49  1  0  0  0
 20 50  1  0  0  0
 20 51  1  0  0  0
 21 52  1  0  0  0
 22 53  1  0  0  0
 22 54  1  0  0  0
 23 55  1  0  0  0
 25 56  1  0  0  0
 25 57  1  0  0  0
 28 58  1  0  0  0
 29 59  1  0  0  0
 30 60  1  0  0  0
 31 61  1  0  0  0
M  END
$$$$
