4b95_ligand
  -I-interpret- 

 44 46  0  0  0  0  0  0  0  0999 V2000
   -9.5570   31.9900    0.8760 O   0  0  0  0  0
   -8.2830   31.6980    1.3200 C   0  0  0  0  0
   -7.8710   32.6030    2.4470 C   0  0  0  0  0
   -7.2970   33.8240    1.7870 C   0  0  0  0  0
   -6.0310   34.3370    2.5750 C   0  0  0  0  0
   -6.2630   35.1040    3.8470 N   0  0  0  0  0
   -5.2390   35.5550    4.7920 C   0  0  0  0  0
   -4.9440   34.5940    5.9340 C   0  0  0  0  0
   -3.7260   34.6590    6.7020 C   0  0  0  0  0
   -3.4710   33.7230    7.6910 C   0  0  0  0  0
   -4.4040   32.6920    7.9520 C   0  0  0  0  0
   -4.1490   31.4490    9.1800 Cl  0  0  0  0  0
   -5.5990   32.6300    7.1790 C   0  0  0  0  0
   -5.8580   33.5670    6.2090 C   0  0  0  0  0
   -4.9020   34.0960    2.1390 O   0  0  0  0  0
   -7.1060   33.4680    0.3920 N   0  0  0  0  0
   -6.8650   34.4800   -0.7160 C   0  0  0  0  0
   -6.6840   34.0250   -2.1540 C   0  0  0  0  0
   -5.5050   33.2820   -2.5020 C   0  0  0  0  0
   -4.2820   32.9670   -1.3290 Cl  0  0  0  0  0
   -5.3450   32.8590   -3.7780 C   0  0  0  0  0
   -6.3340   33.1470   -4.7510 C   0  0  0  0  0
   -7.4790   33.8670   -4.4060 C   0  0  0  0  0
   -7.6530   34.3030   -3.1010 C   0  0  0  0  0
   -6.7870   35.6850   -0.4510 O   0  0  0  0  0
   -7.2950   32.0380    0.2830 C   0  0  0  0  0
  -10.1924   31.7646    1.5594 H   0  0  0  0  0
   -8.3055   30.6444    1.5986 H   0  0  0  0  0
   -7.1441   32.1223    3.1017 H   0  0  0  0  0
   -8.7157   32.8540    3.0886 H   0  0  0  0  0
   -7.9528   34.6943    1.8124 H   0  0  0  0  0
   -7.2305   35.3333    4.0747 H   0  0  0  0  0
   -5.6130   36.4735    5.2443 H   0  0  0  0  0
   -4.3142   35.6607    4.2248 H   0  0  0  0  0
   -3.0016   35.4489    6.5036 H   0  0  0  0  0
   -2.5491   33.7810    8.2696 H   0  0  0  0  0
   -6.3163   31.8294    7.3596 H   0  0  0  0  0
   -6.7886   33.5114    5.6441 H   0  0  0  0  0
   -4.4543   32.2962   -4.0572 H   0  0  0  0  0
   -6.1997   32.8037   -5.7768 H   0  0  0  0  0
   -8.2346   34.0860   -5.1605 H   0  0  0  0  0
   -8.5473   34.8610   -2.8235 H   0  0  0  0  0
   -7.6412   31.7531   -0.7105 H   0  0  0  0  0
   -6.3596   31.4971    0.4266 H   0  0  0  0  0
  1  2  1  0  0  0
  2  3  1  0  0  0
  2 26  1  0  0  0
  3  4  1  0  0  0
  4  5  1  0  0  0
  4 16  1  0  0  0
  5  6  1  0  0  0
  5 15  2  0  0  0
  6  7  1  0  0  0
  7  8  1  0  0  0
  8  9  4  0  0  0
  8 14  4  0  0  0
  9 10  4  0  0  0
 10 11  4  0  0  0
 11 12  1  0  0  0
 11 13  4  0  0  0
 13 14  4  0  0  0
 16 17  1  0  0  0
 16 26  1  0  0  0
 17 18  1  0  0  0
 17 25  2  0  0  0
 18 19  4  0  0  0
 18 24  4  0  0  0
 19 20  1  0  0  0
 19 21  4  0  0  0
 21 22  4  0  0  0
 22 23  4  0  0  0
 23 24  4  0  0  0
  1 27  1  0  0  0
  2 28  1  0  0  0
  3 29  1  0  0  0
  3 30  1  0  0  0
  4 31  1  0  0  0
  6 32  1  0  0  0
  7 33  1  0  0  0
  7 34  1  0  0  0
  9 35  1  0  0  0
 10 36  1  0  0  0
 13 37  1  0  0  0
 14 38  1  0  0  0
 21 39  1  0  0  0
 22 40  1  0  0  0
 23 41  1  0  0  0
 24 42  1  0  0  0
 26 43  1  0  0  0
 26 44  1  0  0  0
M  END
$$$$
