6g34_ligand
  -I-interpret- 

 33 35  0  0  0  0  0  0  0  0999 V2000
   13.1860    8.0780   10.1140 O   0  0  0  0  0
   14.4230    7.6060   10.6520 C   0  0  0  0  0
   14.6670    7.9910   12.0920 C   0  0  0  0  0
   14.9240    9.4120   12.2220 O   0  0  0  0  0
   14.3080    9.9080   13.3970 C   0  0  0  0  0
   13.2490   10.8350   13.0100 N   0  0  0  0  0
   12.5860   10.8650   11.7980 C   0  0  0  0  0
   11.6790   11.8830   11.8060 C   0  0  0  0  0
   11.7280   12.5110   13.0900 C   0  0  0  0  0
   11.0680   13.5610   13.7780 C   0  0  0  0  0
   11.4420   13.8450   15.0410 N   0  0  0  0  0
   12.4090   13.1170   15.5960 C   0  0  0  0  0
   13.1050   12.1090   15.0630 N   0  0  0  0  0
   12.7390   11.8320   13.8040 C   0  0  0  0  0
   10.0790   14.2700   13.2380 N   0  0  0  0  0
   13.7890    8.6980   14.1830 C   0  0  0  0  0
   14.8160    8.2810   15.1030 O   0  0  0  0  0
   13.5190    7.7020   13.0640 C   0  0  0  0  0
   13.5370    6.3340   13.4840 O   0  0  0  0  0
   10.4790   12.5200   10.1950 I   0  0  0  0  0
   13.1063    7.7935    9.2006 H   0  0  0  0  0
   15.2205    8.0571   10.0616 H   0  0  0  0  0
   14.3929    6.5171   10.6136 H   0  0  0  0  0
   15.5202    7.3672   12.3584 H   0  0  0  0  0
   14.9975   10.4607   14.0351 H   0  0  0  0  0
   12.7606   10.1823   10.9664 H   0  0  0  0  0
   12.6671   13.3785   16.6222 H   0  0  0  0  0
    9.7652   14.0670   12.2889 H   0  0  0  0  0
    9.6351   15.0162   13.7733 H   0  0  0  0  0
   12.9040    8.8546   14.7997 H   0  0  0  0  0
   14.9319    8.9538   15.7779 H   0  0  0  0  0
   12.5199    7.8221   12.6450 H   0  0  0  0  0
   13.3601    5.7666   12.7301 H   0  0  0  0  0
  1  2  1  0  0  0
  2  3  1  0  0  0
  3  4  1  0  0  0
  3 18  1  0  0  0
  4  5  1  0  0  0
  5  6  1  0  0  0
  5 16  1  0  0  0
  6  7  4  0  0  0
  6 14  4  0  0  0
  7  8  4  0  0  0
  8  9  4  0  0  0
  8 20  1  0  0  0
  9 10  4  0  0  0
  9 14  4  0  0  0
 10 11  4  0  0  0
 10 15  1  0  0  0
 11 12  4  0  0  0
 12 13  4  0  0  0
 13 14  4  0  0  0
 16 17  1  0  0  0
 16 18  1  0  0  0
 18 19  1  0  0  0
  1 21  1  0  0  0
  2 22  1  0  0  0
  2 23  1  0  0  0
  3 24  1  0  0  0
  5 25  1  0  0  0
  7 26  1  0  0  0
 12 27  1  0  0  0
 15 28  1  0  0  0
 15 29  1  0  0  0
 16 30  1  0  0  0
 17 31  1  0  0  0
 18 32  1  0  0  0
 19 33  1  0  0  0
M  END
$$$$
