3q8d_ligand
  -I-interpret- 

 57 58  0  0  0  0  0  0  0  0999 V2000
   31.4110   13.4070   68.4060 N   0  3  0  0  0
   31.9180   12.1680   67.7420 C   0  0  0  0  0
   32.1570   12.3200   66.2270 C   0  0  0  0  0
   32.8550   11.5000   65.6270 O   0  0  0  0  0
   31.0200   10.9360   68.0660 C   0  0  0  0  0
   31.8720    9.6810   68.2950 C   0  0  0  0  0
   29.9570   10.7150   66.9910 C   0  0  0  0  0
   31.1790    8.6090   69.1170 C   0  0  0  0  0
   31.6760   13.4260   65.6270 N   0  0  0  0  0
   31.9810   13.6520   64.2200 C   0  0  0  0  0
   32.8240   14.8990   64.0040 C   0  0  0  0  0
   34.0260   14.8120   63.7590 O   0  0  0  0  0
   30.5990   13.9000   63.6230 C   0  0  0  0  0
   29.8800   14.6410   64.7090 C   0  0  0  0  0
   30.4800   14.1870   66.0340 C   0  0  0  0  0
   32.1430   16.0280   63.8820 N   0  0  0  0  0
   32.5700   17.0450   62.9400 C   0  0  0  0  0
   33.3560   18.1480   63.6280 C   0  0  0  0  0
   32.9240   19.2940   63.7030 O   0  0  0  0  0
   31.3800   17.6010   62.1500 C   0  0  0  0  0
   30.4840   18.5070   62.9440 C   0  0  0  0  0
   30.8110   19.8390   63.1220 C   0  0  0  0  0
   29.2420   18.0660   63.3690 C   0  0  0  0  0
   29.9670   20.6910   63.8040 C   0  0  0  0  0
   28.3790   18.9170   64.0340 C   0  0  0  0  0
   28.7520   20.2300   64.2670 C   0  0  0  0  0
   34.4590   17.9050   64.1100 O   0  0  0  0  0
   32.0211   14.1904   68.1725 H   0  0  0  0  0
   30.4644   13.6028   68.0803 H   0  0  0  0  0
   31.4026   13.2705   69.4168 H   0  0  0  0  0
   32.9041   11.9900   68.1709 H   0  0  0  0  0
   30.4891   11.1459   68.9945 H   0  0  0  0  0
   32.7607    9.9885   68.8462 H   0  0  0  0  0
   32.0862    9.2514   67.3164 H   0  0  0  0  0
   30.4421   10.4548   66.0502 H   0  0  0  0  0
   29.2959    9.9041   67.2968 H   0  0  0  0  0
   29.3773   11.6290   66.8617 H   0  0  0  0  0
   30.9263    9.0117   70.0978 H   0  0  0  0  0
   30.2689    8.2934   68.6069 H   0  0  0  0  0
   31.8461    7.7550   69.2344 H   0  0  0  0  0
   32.5422   12.8237   63.7875 H   0  0  0  0  0
   30.0932   12.9769   63.3400 H   0  0  0  0  0
   30.6405   14.4613   62.6895 H   0  0  0  0  0
   28.8114   14.4284   64.6775 H   0  0  0  0  0
   29.9964   15.7174   64.5826 H   0  0  0  0  0
   30.7199   15.0221   66.6921 H   0  0  0  0  0
   29.7854   13.5896   66.6245 H   0  0  0  0  0
   31.3129   16.1835   64.4540 H   0  0  0  0  0
   33.2439   16.5728   62.2252 H   0  0  0  0  0
   30.7777   16.7494   61.8337 H   0  0  0  0  0
   31.7866   18.1903   61.3281 H   0  0  0  0  0
   31.7485   20.2209   62.7179 H   0  0  0  0  0
   28.9414   17.0360   63.1770 H   0  0  0  0  0
   30.2597   21.7267   63.9767 H   0  0  0  0  0
   27.4084   18.5557   64.3737 H   0  0  0  0  0
   28.0872   20.8977   64.8149 H   0  0  0  0  0
   34.6667   16.9769   63.9793 H   0  0  0  0  0
  1  2  1  0  0  0
  2  3  1  0  0  0
  2  5  1  0  0  0
  3  4  2  0  0  0
  3  9  1  0  0  0
  5  6  1  0  0  0
  5  7  1  0  0  0
  6  8  1  0  0  0
  9 10  1  0  0  0
  9 15  1  0  0  0
 10 11  1  0  0  0
 10 13  1  0  0  0
 11 12  2  0  0  0
 11 16  1  0  0  0
 13 14  1  0  0  0
 14 15  1  0  0  0
 16 17  1  0  0  0
 17 18  1  0  0  0
 17 20  1  0  0  0
 18 19  2  0  0  0
 18 27  1  0  0  0
 20 21  1  0  0  0
 21 22  4  0  0  0
 21 23  4  0  0  0
 22 24  4  0  0  0
 23 25  4  0  0  0
 24 26  4  0  0  0
 25 26  4  0  0  0
  1 28  1  0  0  0
  1 29  1  0  0  0
  1 30  1  0  0  0
  2 31  1  0  0  0
  5 32  1  0  0  0
  6 33  1  0  0  0
  6 34  1  0  0  0
  7 35  1  0  0  0
  7 36  1  0  0  0
  7 37  1  0  0  0
  8 38  1  0  0  0
  8 39  1  0  0  0
  8 40  1  0  0  0
 10 41  1  0  0  0
 13 42  1  0  0  0
 13 43  1  0  0  0
 14 44  1  0  0  0
 14 45  1  0  0  0
 15 46  1  0  0  0
 15 47  1  0  0  0
 16 48  1  0  0  0
 17 49  1  0  0  0
 20 50  1  0  0  0
 20 51  1  0  0  0
 22 52  1  0  0  0
 23 53  1  0  0  0
 24 54  1  0  0  0
 25 55  1  0  0  0
 26 56  1  0  0  0
 27 57  1  0  0  0
M  END
$$$$
