6nji_ligand
  -I-interpret- 

 44 46  0  0  0  0  0  0  0  0999 V2000
  -20.0780  -15.0560   99.9320 C   0  0  0  0  0
  -21.2220  -14.4830   97.9610 C   0  0  0  0  0
  -21.3350  -13.3170   97.2340 C   0  0  0  0  0
  -22.5350  -12.9470   96.6080 C   0  0  0  0  0
  -23.6820  -13.7390   96.7400 C   0  0  0  0  0
  -22.3840  -15.2250   98.1460 C   0  0  0  0  0
  -23.5880  -14.8570   97.5320 C   0  0  0  0  0
  -25.6840  -12.1240   96.6400 C   0  0  0  0  0
  -25.0070  -13.3920   96.0610 C   0  0  0  0  0
  -22.8210  -17.2860  102.3860 C   0  0  0  0  0
  -21.0290  -15.6470  102.0120 C   0  0  0  0  0
  -18.8220  -14.9750  101.9490 C   0  0  0  0  0
  -17.4570  -14.7250  102.5540 C   0  0  0  0  0
  -24.6950  -19.2830  102.5530 Cl  0  0  0  0  0
  -23.9130  -17.7660  103.1110 C   0  0  0  0  0
  -24.3700  -17.0970  104.2380 C   0  0  0  0  0
  -23.7590  -15.9280  104.6350 C   0  0  0  0  0
  -22.6590  -15.4500  103.9140 C   0  0  0  0  0
  -22.1990  -16.1370  102.8030 C   0  0  0  0  0
  -19.8760  -15.4290  102.6840 N   0  0  0  0  0
  -21.1600  -15.4470  100.6490 N   0  0  0  0  0
  -18.9490  -14.7770  100.6060 N   0  0  0  0  0
  -17.4380  -13.9350  103.8160 C   0  0  0  0  0
  -20.0740  -14.7080   98.6210 N   0  0  0  0  0
  -24.9890  -10.8850   96.2740 O   0  0  0  0  0
  -20.4672  -12.6638   97.1429 H   0  0  0  0  0
  -22.5746  -12.0344   96.0133 H   0  0  0  0  0
  -22.3571  -16.1103   98.7813 H   0  0  0  0  0
  -24.4732  -15.4739   97.6868 H   0  0  0  0  0
  -25.6671  -12.2055   97.7268 H   0  0  0  0  0
  -26.6935  -12.0712   96.2324 H   0  0  0  0  0
  -25.6867  -14.2289   96.2215 H   0  0  0  0  0
  -24.7958  -13.1996   95.0091 H   0  0  0  0  0
  -22.4679  -17.8164  101.5017 H   0  0  0  0  0
  -16.8985  -14.1438  101.8203 H   0  0  0  0  0
  -17.0466  -15.7045  102.7995 H   0  0  0  0  0
  -25.2099  -17.4955  104.8072 H   0  0  0  0  0
  -24.1287  -15.3807  105.5021 H   0  0  0  0  0
  -22.1618  -14.5324  104.2284 H   0  0  0  0  0
  -17.8744  -12.9527  103.6349 H   0  0  0  0  0
  -18.0171  -14.4563  104.5782 H   0  0  0  0  0
  -16.4087  -13.8197  104.1555 H   0  0  0  0  0
  -19.1854  -14.6157   98.1287 H   0  0  0  0  0
  -25.4499  -10.1355   96.6580 H   0  0  0  0  0
 21  1  4  0  0  0
  1 22  4  0  0  0
  1 24  1  0  0  0
  2  3  4  0  0  0
  2  6  4  0  0  0
 24  2  1  0  0  0
  3  4  4  0  0  0
  4  5  4  0  0  0
  7  5  4  0  0  0
  5  9  1  0  0  0
  6  7  4  0  0  0
  9  8  1  0  0  0
  8 25  1  0  0  0
 10 15  4  0  0  0
 19 10  4  0  0  0
 11 19  1  0  0  0
 20 11  4  0  0  0
 11 21  4  0  0  0
 12 13  1  0  0  0
 12 20  4  0  0  0
 12 22  4  0  0  0
 13 23  1  0  0  0
 15 14  1  0  0  0
 15 16  4  0  0  0
 16 17  4  0  0  0
 17 18  4  0  0  0
 18 19  4  0  0  0
  3 26  1  0  0  0
  4 27  1  0  0  0
  6 28  1  0  0  0
  7 29  1  0  0  0
  8 30  1  0  0  0
  8 31  1  0  0  0
  9 32  1  0  0  0
  9 33  1  0  0  0
 10 34  1  0  0  0
 13 35  1  0  0  0
 13 36  1  0  0  0
 16 37  1  0  0  0
 17 38  1  0  0  0
 18 39  1  0  0  0
 23 40  1  0  0  0
 23 41  1  0  0  0
 23 42  1  0  0  0
 24 43  1  0  0  0
 25 44  1  0  0  0
M  END
$$$$
