3bfu_ligand
  -I-interpret- 

 20 20  0  0  0  0  0  0  0  0999 V2000
  -32.2300   -6.5760   43.1720 N   0  0  0  0  0
  -31.3080   -4.1160   44.7160 N   0  3  0  0  0
  -31.2140   -3.8620   43.2200 C   0  0  0  0  0
  -30.4950   -2.5070   43.0600 C   0  0  0  0  0
  -29.6806   -7.3881   40.8468 O   0  0  0  0  0
  -30.7230   -7.4440   41.6710 C   0  0  0  0  0
  -31.4560   -8.5460   41.8970 N   0  0  0  0  0
  -32.6500   -8.2060   42.9730 S   0  0  0  0  0
  -31.1780   -6.2870   42.4170 C   0  0  0  0  0
  -30.4930   -4.9290   42.3070 C   0  0  0  0  0
  -30.4644   -1.7643   44.1629 O   0  0  0  0  0
  -30.0499   -2.2225   41.9603 O   0  0  0  0  0
  -31.7983   -3.3403   45.1612 H   0  0  0  0  0
  -31.8198   -4.9828   44.8810 H   0  0  0  0  0
  -30.3688   -4.1948   45.1059 H   0  0  0  0  0
  -32.2418   -3.9045   42.8597 H   0  0  0  0  0
  -31.2958   -9.4564   41.4659 H   0  0  0  0  0
  -29.4582   -5.0298   42.6342 H   0  0  0  0  0
  -30.5404   -4.5943   41.2707 H   0  0  0  0  0
  -30.8895   -2.2405   44.8799 H   0  0  0  0  0
  1  8  1  0  0  0
  9  1  2  0  0  0
  3  2  1  0  0  0
  3  4  1  0  0  0
 10  3  1  0  0  0
  4 11  1  0  0  0
  4 12  2  0  0  0
  6  5  2  0  0  0
  6  7  1  0  0  0
  9  6  1  0  0  0
  7  8  1  0  0  0
  9 10  1  0  0  0
  2 13  1  0  0  0
  2 14  1  0  0  0
  2 15  1  0  0  0
  3 16  1  0  0  0
  7 17  1  0  0  0
 10 18  1  0  0  0
 10 19  1  0  0  0
 11 20  1  0  0  0
M  END
$$$$
