1xpz_ligand
  -I-interpret- 

 40 42  0  0  0  0  0  0  0  0999 V2000
   20.4470   26.3730   19.3330 S   0  0  0  0  0
   20.6720   25.1870   20.0850 O   0  0  0  0  0
   19.1220   26.8990   19.2100 O   0  0  0  0  0
   21.2180   27.4860   20.1860 O   0  0  0  0  0
   21.1600   26.2350   17.9630 N   0  0  0  0  0
   23.0950   33.5550   18.7240 N   0  0  0  0  0
   23.5810   34.3050   17.6020 N   0  0  0  0  0
   24.6700   34.8120   15.7650 N   0  0  0  0  0
   23.9200   35.9190   16.1570 N   0  0  0  0  0
   26.2860   34.3310   24.9190 N   0  0  0  0  0
   24.4560   33.8680   16.6310 C   0  0  0  0  0
   23.2830   35.6030   17.2420 C   0  0  0  0  0
   23.7700   33.7090   20.0500 C   0  0  0  0  0
   23.1300   33.2980   21.3180 C   0  0  0  0  0
   23.7820   33.4490   22.5740 C   0  0  0  0  0
   25.1010   34.0130   22.6500 C   0  0  0  0  0
   25.7600   34.4270   21.4350 C   0  0  0  0  0
   25.1150   34.2800   20.1690 C   0  0  0  0  0
   25.7630   34.1700   23.9110 C   0  0  0  0  0
   21.7100   32.9740   18.4710 C   0  0  0  0  0
   21.5670   31.5170   18.9130 C   0  0  0  0  0
   22.5800   30.5470   18.5490 C   0  0  0  0  0
   22.4600   29.2000   18.9720 C   0  0  0  0  0
   21.3370   28.7970   19.7590 C   0  0  0  0  0
   20.3240   29.7480   20.1250 C   0  0  0  0  0
   20.4410   31.1090   19.7000 C   0  0  0  0  0
   21.6793   25.3855   17.7416 H   0  0  0  0  0
   21.1097   26.9938   17.2832 H   0  0  0  0  0
   24.9033   32.8747   16.5951 H   0  0  0  0  0
   22.6115   36.2652   17.7885 H   0  0  0  0  0
   22.1294   32.8667   21.2899 H   0  0  0  0  0
   23.2760   33.1339   23.4865 H   0  0  0  0  0
   26.7606   34.8565   21.4837 H   0  0  0  0  0
   25.6367   34.6009   19.2674 H   0  0  0  0  0
   21.5327   33.0083   17.3961 H   0  0  0  0  0
   20.9981   33.5624   19.0498 H   0  0  0  0  0
   23.4362   30.8542   17.9485 H   0  0  0  0  0
   23.2233   28.4719   18.6975 H   0  0  0  0  0
   19.4695   29.4336   20.7243 H   0  0  0  0  0
   19.6750   31.8344   19.9743 H   0  0  0  0  0
  1  2  2  0  0  0
  1  3  2  0  0  0
  4  1  1  0  0  0
  1  5  1  0  0  0
 24  4  1  0  0  0
  6  7  1  0  0  0
  6 13  1  0  0  0
 20  6  1  0  0  0
  7 11  4  0  0  0
  7 12  4  0  0  0
  9  8  4  0  0  0
 11  8  4  0  0  0
 12  9  4  0  0  0
 19 10  3  0  0  0
 13 14  4  0  0  0
 13 18  4  0  0  0
 14 15  4  0  0  0
 15 16  4  0  0  0
 17 16  4  0  0  0
 16 19  1  0  0  0
 18 17  4  0  0  0
 21 20  1  0  0  0
 22 21  4  0  0  0
 21 26  4  0  0  0
 23 22  4  0  0  0
 23 24  4  0  0  0
 24 25  4  0  0  0
 25 26  4  0  0  0
  5 27  1  0  0  0
  5 28  1  0  0  0
 11 29  1  0  0  0
 12 30  1  0  0  0
 14 31  1  0  0  0
 15 32  1  0  0  0
 17 33  1  0  0  0
 18 34  1  0  0  0
 20 35  1  0  0  0
 20 36  1  0  0  0
 22 37  1  0  0  0
 23 38  1  0  0  0
 25 39  1  0  0  0
 26 40  1  0  0  0
M  END
$$$$
