6dl9_ligand
  -I-interpret- 

 22 22  0  0  0  0  0  0  0  0999 V2000
   32.9120   76.0900   61.5600 C   0  0  0  0  0
   32.6410   73.9040   62.5720 C   0  0  0  0  0
   34.6390   75.1950   62.9430 C   0  0  0  0  0
   37.6000   79.5010   63.6980 C   0  0  0  0  0
   36.5580   79.3020   62.6760 C   0  0  0  0  0
   35.5370   78.2530   62.9880 C   0  0  0  0  0
   35.0040   77.4590   61.8300 C   0  0  0  0  0
   34.1720   76.2470   62.1250 C   0  0  0  0  0
   32.1580   74.9380   61.7740 C   0  0  0  0  0
   33.8970   74.0360   63.1530 C   0  0  0  0  0
   38.8510   79.4520   63.1790 O   0  0  0  0  0
   37.4600   78.9970   64.8340 O   0  0  0  0  0
   36.7230   79.8950   61.6080 O   0  0  0  0  0
   35.2680   77.8110   60.6740 O   0  0  0  0  0
   32.2660   77.3170   60.5980 Cl  0  0  0  0  0
   36.1770   75.2410   63.6370 Cl  0  0  0  0  0
   32.0447   73.0068   62.7382 H   0  0  0  0  0
   34.6813   78.7838   63.4053 H   0  0  0  0  0
   36.0360   77.5346   63.6383 H   0  0  0  0  0
   31.1760   74.8448   61.3102 H   0  0  0  0  0
   34.2999   73.2340   63.7715 H   0  0  0  0  0
   38.8524   79.8620   62.3109 H   0  0  0  0  0
  8  1  4  0  0  0
  1  9  4  0  0  0
  1 15  1  0  0  0
  9  2  4  0  0  0
 10  2  4  0  0  0
  8  3  4  0  0  0
  3 10  4  0  0  0
  3 16  1  0  0  0
  5  4  1  0  0  0
  4 11  1  0  0  0
  4 12  2  0  0  0
  6  5  1  0  0  0
  5 13  2  0  0  0
  7  6  1  0  0  0
  7  8  1  0  0  0
  7 14  2  0  0  0
  2 17  1  0  0  0
  6 18  1  0  0  0
  6 19  1  0  0  0
  9 20  1  0  0  0
 10 21  1  0  0  0
 11 22  1  0  0  0
M  END
$$$$
