5htc_ligand
  -I-interpret- 

 62 64  0  0  0  0  0  0  0  0999 V2000
   31.2740   32.4940    5.3020 N   0  0  0  0  0
   32.6080   30.4380    6.7120 C   0  0  0  0  0
   29.9170   32.6400    7.3200 N   0  0  0  0  0
   29.9750   31.9460    8.5000 C   0  0  0  0  0
   28.9930   33.7390    6.9540 C   0  0  0  0  0
   27.8110   33.3280    6.0910 C   0  0  0  0  0
   27.0240   34.0410    8.2070 C   0  0  0  0  0
   26.6100   34.2070   12.7230 C   0  0  0  0  0
   26.2080   33.5950   14.0500 C   0  0  0  0  0
   26.7280   33.3150   16.5380 C   0  0  0  0  0
   25.2580   33.2020   16.8530 C   0  0  0  0  0
   23.2830   31.7240   16.6680 C   0  0  0  0  0
   23.1220   30.3380   17.2840 C   0  0  0  0  0
   21.7370   30.0140   17.7220 C   0  0  0  0  0
   26.7880   32.9450    7.1550 C   0  0  0  0  0
   33.2440   29.4150    7.3010 N   0  0  0  0  0
   26.6930   33.5340    9.5910 C   0  0  0  0  0
   25.5370   33.9310   11.6970 C   0  0  0  0  0
   27.0030   34.0840   15.2530 C   0  0  0  0  0
   30.9130   31.0260    8.5390 N   0  0  0  0  0
   24.6020   34.1750   17.2380 O   0  0  0  0  0
   25.9000   34.3000   10.3450 N   0  0  0  0  0
   27.2150   32.5100   10.0150 O   0  0  0  0  0
   28.4310   34.3000    8.1330 O   0  0  0  0  0
   25.4410   32.9310    6.6640 O   0  0  0  0  0
   27.3920   34.4500    5.3100 O   0  0  0  0  0
   31.5310   31.1350    7.3030 C   0  0  0  0  0
   30.9300   32.1260    6.5390 C   0  0  0  0  0
   32.3100   31.7760    4.8510 C   0  0  0  0  0
   32.9770   30.7920    5.4610 N   0  0  0  0  0
   24.7070   32.0100   16.6170 N   0  0  0  0  0
   22.6270   31.7770   15.2870 C   0  0  0  0  0
   22.3920   32.9790   14.8280 O   0  0  0  0  0
   22.3700   30.7500   14.6520 O   0  0  0  0  0
   21.1360   30.7350   18.5230 O   0  0  0  0  0
   29.3013   32.1401    9.3346 H   0  0  0  0  0
   29.6100   34.4325    6.3826 H   0  0  0  0  0
   27.9965   32.5275    5.3748 H   0  0  0  0  0
   26.4063   34.9203    8.0244 H   0  0  0  0  0
   27.5517   33.7697   12.3912 H   0  0  0  0  0
   26.7320   35.2837   12.8411 H   0  0  0  0  0
   26.3882   32.5231   13.9690 H   0  0  0  0  0
   25.1695   33.8767   14.2241 H   0  0  0  0  0
   27.1192   32.3056   16.4113 H   0  0  0  0  0
   27.2027   33.8556   17.3568 H   0  0  0  0  0
   22.7828   32.4845   17.2676 H   0  0  0  0  0
   23.7525   30.3088   18.1726 H   0  0  0  0  0
   23.3908   29.6140   16.5148 H   0  0  0  0  0
   21.2451   29.1245   17.3284 H   0  0  0  0  0
   26.9104   31.9302    7.5335 H   0  0  0  0  0
   32.9557   29.1008    8.2276 H   0  0  0  0  0
   34.0161   28.9510    6.8225 H   0  0  0  0  0
   24.6681   34.5292   11.9714 H   0  0  0  0  0
   25.3581   32.8558   11.6999 H   0  0  0  0  0
   26.7134   35.1198   15.4301 H   0  0  0  0  0
   28.0586   33.9488   15.0172 H   0  0  0  0  0
   25.5393   35.1714    9.9564 H   0  0  0  0  0
   25.3462   32.2320    6.0129 H   0  0  0  0  0
   28.0653   34.6529    4.6565 H   0  0  0  0  0
   32.6568   32.0287    3.8490 H   0  0  0  0  0
   25.3336   31.2400   16.3827 H   0  0  0  0  0
   22.6660   33.6284   15.4797 H   0  0  0  0  0
 28  1  4  0  0  0
  1 29  4  0  0  0
  2 16  1  0  0  0
 27  2  4  0  0  0
  2 30  4  0  0  0
  4  3  4  0  0  0
  3  5  1  0  0  0
  3 28  4  0  0  0
 20  4  4  0  0  0
  5  6  1  0  0  0
  5 24  1  0  0  0
  6 15  1  0  0  0
  6 26  1  0  0  0
  7 15  1  0  0  0
  7 17  1  0  0  0
 24  7  1  0  0  0
  8  9  1  0  0  0
 18  8  1  0  0  0
  9 19  1  0  0  0
 10 11  1  0  0  0
 19 10  1  0  0  0
 11 21  2  0  0  0
 11 31  1  0  0  0
 12 13  1  0  0  0
 31 12  1  0  0  0
 12 32  1  0  0  0
 13 14  1  0  0  0
 14 35  2  0  0  0
 15 25  1  0  0  0
 17 22  1  0  0  0
 17 23  2  0  0  0
 22 18  1  0  0  0
 20 27  4  0  0  0
 27 28  4  0  0  0
 29 30  4  0  0  0
 32 33  1  0  0  0
 32 34  2  0  0  0
  4 36  1  0  0  0
  5 37  1  0  0  0
  6 38  1  0  0  0
  7 39  1  0  0  0
  8 40  1  0  0  0
  8 41  1  0  0  0
  9 42  1  0  0  0
  9 43  1  0  0  0
 10 44  1  0  0  0
 10 45  1  0  0  0
 12 46  1  0  0  0
 13 47  1  0  0  0
 13 48  1  0  0  0
 14 49  1  0  0  0
 15 50  1  0  0  0
 16 51  1  0  0  0
 16 52  1  0  0  0
 18 53  1  0  0  0
 18 54  1  0  0  0
 19 55  1  0  0  0
 19 56  1  0  0  0
 22 57  1  0  0  0
 25 58  1  0  0  0
 26 59  1  0  0  0
 29 60  1  0  0  0
 31 61  1  0  0  0
 33 62  1  0  0  0
M  END
$$$$
