4x9r_ligand
  -I-interpret- 

141144  0  0  0  0  0  0  0  0999 V2000
   -3.5010   28.0670   69.7530 N   0  0  0  0  0
   -9.4910   28.2190   68.3470 C   0  0  0  0  0
   -8.2650   28.9950   67.9070 C   0  0  0  0  0
   -7.4820   28.2360   66.8650 C   0  0  0  0  0
   -4.8070   26.9590   71.5690 C   0  0  0  0  0
   -3.9840   26.0630   71.7600 O   0  0  0  0  0
   -4.8350   27.7360   70.2510 C   0  0  0  0  0
   -5.4040   26.8360   69.1420 C   0  0  0  0  0
   -3.3100   27.6390   68.3600 C   0  0  0  0  0
   -2.5940   28.7190   70.5130 C   0  0  0  0  0
   -2.8790   29.0710   71.6490 O   0  0  0  0  0
   -1.2560   29.0120   69.8940 C   0  0  0  0  0
   -4.7420   27.4140   67.9050 C   0  0  0  0  0
   -5.2980   28.7040   67.6480 O   0  0  0  0  0
   -6.1520   28.8220   66.5220 C   0  0  0  0  0
  -10.4320   29.0340   69.1930 C   0  0  0  0  0
  -11.5640   28.2020   69.7730 C   0  0  0  0  0
   -5.7400   27.3070   72.4600 N   0  0  0  0  0
   -5.9160   26.6160   73.7300 C   0  0  0  0  0
   -7.0120   25.5500   73.6970 C   0  0  0  0  0
   -7.3310   24.9470   74.7240 O   0  0  0  0  0
   -6.1590   27.6330   74.8510 C   0  0  0  0  0
   -5.0040   28.5920   75.1100 C   0  0  0  0  0
   -5.3180   29.5260   76.2680 C   0  0  0  0  0
   -3.7150   27.8520   75.3710 C   0  0  0  0  0
   -8.4840   23.8590   70.8210 C   0  0  0  0  0
   -7.5680   25.3150   72.5150 N   0  0  0  0  0
   -8.0360   24.6400   69.9870 O   0  0  0  0  0
   -8.4740   24.2170   72.2990 C   0  0  0  0  0
   -9.9000   24.5220   72.7870 C   0  0  0  0  0
  -10.4190   25.8210   72.2510 C   0  0  0  0  0
  -10.1730   27.1820   74.3780 C   0  0  0  0  0
  -11.2950   26.7470   75.2850 C   0  0  0  0  0
  -10.8440   26.7580   76.7160 C   0  0  0  0  0
  -11.9310   26.3110   77.6560 C   0  0  0  0  0
  -11.4460   26.2130   79.0970 C   0  0  0  0  0
  -12.5070   25.7570   80.0810 C   0  0  0  0  0
  -12.9660   24.3200   79.8980 C   0  0  0  0  0
  -14.0160   23.9040   80.9370 C   0  0  0  0  0
  -13.4740   23.8860   82.3450 C   0  0  0  0  0
  -13.8380   24.8630   83.2470 C   0  0  0  0  0
  -13.3250   24.8610   84.5310 C   0  0  0  0  0
  -12.4320   23.8910   84.9250 C   0  0  0  0  0
  -12.0690   22.9060   84.0480 C   0  0  0  0  0
  -12.5880   22.8980   82.7620 C   0  0  0  0  0
  -10.4840   27.0060   72.9530 N   0  3  0  0  0
  -10.8370   26.0880   70.9990 C   0  0  0  0  0
  -10.9000   27.9580   72.1430 C   0  0  0  0  0
  -11.1170   27.4370   70.9480 N   0  0  0  0  0
   -8.9830   22.6600   70.5240 N   0  0  0  0  0
   -9.0680   22.1780   69.1690 C   0  0  0  0  0
  -10.1740   22.8760   68.3680 C   0  0  0  0  0
  -10.8720   23.7600   68.8900 O   0  0  0  0  0
   -9.2590   20.6680   69.1880 C   0  0  0  0  0
  -10.4820   20.3250   69.8810 O   0  0  0  0  0
  -10.2890   22.5330   67.0820 N   0  0  0  0  0
  -11.1760   23.2620   66.1770 C   0  0  0  0  0
  -11.0020   22.7510   64.7440 C   0  0  0  0  0
  -11.7980   23.5180   63.7160 C   0  0  0  0  0
   -9.5920   22.8550   64.4590 O   0  0  0  0  0
   -8.6610   21.5660   64.2350 P   0  0  0  0  0
   -9.2820   20.7240   63.1400 O   0  0  0  0  0
   -7.3180   22.1350   63.8500 O   0  0  0  0  0
   -8.6140   20.8330   65.5550 O   0  0  0  0  0
  -12.6660   23.1640   66.5640 C   0  0  0  0  0
  -13.1170   22.0550   66.8420 O   0  0  0  0  0
  -13.3920   24.2800   66.6010 N   0  0  0  0  0
   -9.1515   27.3752   68.9476 H   0  0  0  0  0
  -10.0305   27.9148   67.4500 H   0  0  0  0  0
   -7.6249   29.1543   68.7747 H   0  0  0  0  0
   -8.5896   29.9421   67.4760 H   0  0  0  0  0
   -8.0770   28.2515   65.9519 H   0  0  0  0  0
   -7.2919   27.2443   67.2755 H   0  0  0  0  0
   -5.4162   28.6344   70.4590 H   0  0  0  0  0
   -6.4929   26.8417   69.0943 H   0  0  0  0  0
   -5.1940   25.7770   69.2920 H   0  0  0  0  0
   -2.6796   26.7554   68.2605 H   0  0  0  0  0
   -2.7714   28.3666   67.7529 H   0  0  0  0  0
   -1.1019   30.0905   69.8583 H   0  0  0  0  0
   -0.4710   28.5512   70.4936 H   0  0  0  0  0
   -1.2282   28.6061   68.8828 H   0  0  0  0  0
   -4.8522   26.7819   67.0239 H   0  0  0  0  0
   -6.2684   29.8722   66.2545 H   0  0  0  0  0
   -5.7212   28.2902   65.6737 H   0  0  0  0  0
  -10.8718   29.8042   68.5594 H   0  0  0  0  0
   -9.8619   29.4507   70.0233 H   0  0  0  0  0
  -11.9049   27.5007   69.0114 H   0  0  0  0  0
  -12.3660   28.8732   70.0803 H   0  0  0  0  0
   -6.3555   28.0904   72.2413 H   0  0  0  0  0
   -4.9907   26.0753   73.9290 H   0  0  0  0  0
   -6.3063   27.0622   75.7678 H   0  0  0  0  0
   -7.0109   28.2408   74.5459 H   0  0  0  0  0
   -4.8735   29.1889   74.2074 H   0  0  0  0  0
   -6.2092   30.1078   76.0325 H   0  0  0  0  0
   -5.4935   28.9388   77.1694 H   0  0  0  0  0
   -4.4756   30.1986   76.4293 H   0  0  0  0  0
   -3.8351   27.2130   76.2459 H   0  0  0  0  0
   -3.4669   27.2400   74.5038 H   0  0  0  0  0
   -2.9152   28.5703   75.5512 H   0  0  0  0  0
   -7.3462   25.9325   71.7340 H   0  0  0  0  0
   -8.1187   23.3710   72.8873 H   0  0  0  0  0
   -9.8778   24.5898   73.8747 H   0  0  0  0  0
  -10.5553   23.7252   72.4353 H   0  0  0  0  0
   -9.3039   26.5651   74.6064 H   0  0  0  0  0
   -9.9998   28.2442   74.5508 H   0  0  0  0  0
  -11.5976   25.7351   75.0156 H   0  0  0  0  0
  -12.1316   27.4363   75.1709 H   0  0  0  0  0
  -10.5675   27.7794   76.9773 H   0  0  0  0  0
  -10.0056   26.0683   76.8134 H   0  0  0  0  0
  -12.2625   25.3209   77.3429 H   0  0  0  0  0
  -12.7338   27.0474   77.6190 H   0  0  0  0  0
  -11.1348   27.2127   79.4001 H   0  0  0  0  0
  -10.6480   25.4708   79.1178 H   0  0  0  0  0
  -13.3793   26.3914   79.9240 H   0  0  0  0  0
  -12.0677   25.8257   81.0762 H   0  0  0  0  0
  -12.0983   23.6712   80.0172 H   0  0  0  0  0
  -13.4172   24.2335   78.9095 H   0  0  0  0  0
  -14.3432   22.8932   80.6933 H   0  0  0  0  0
  -14.8262   24.6323   80.9015 H   0  0  0  0  0
  -14.5362   25.6438   82.9454 H   0  0  0  0  0
  -13.6303   25.6337   85.2365 H   0  0  0  0  0
  -12.0155   23.9075   85.9321 H   0  0  0  0  0
  -11.3723   22.1279   84.3597 H   0  0  0  0  0
  -12.2981   22.1078   82.0694 H   0  0  0  0  0
  -10.9353   25.3736   70.1816 H   0  0  0  0  0
  -11.0420   29.0042   72.4140 H   0  0  0  0  0
   -9.3160   22.0633   71.2813 H   0  0  0  0  0
   -8.1351   22.4177   68.6588 H   0  0  0  0  0
   -8.4163   20.2093   69.7053 H   0  0  0  0  0
   -9.3171   20.3038   68.1623 H   0  0  0  0  0
  -10.5893   19.3710   69.8852 H   0  0  0  0  0
   -9.7469   21.7465   66.7243 H   0  0  0  0  0
  -10.8886   24.3106   66.2541 H   0  0  0  0  0
  -11.3781   21.7300   64.6801 H   0  0  0  0  0
  -12.8592   23.4498   63.9552 H   0  0  0  0  0
  -11.4887   24.5632   63.7246 H   0  0  0  0  0
  -11.6188   23.0929   62.7284 H   0  0  0  0  0
  -10.1309   20.3891   63.4379 H   0  0  0  0  0
   -9.4865   20.4889   65.7599 H   0  0  0  0  0
  -14.3749   24.2403   66.8705 H   0  0  0  0  0
  -12.9650   25.1744   66.3598 H   0  0  0  0  0
  7  1  1  0  0  0
  1  9  1  0  0  0
  1 10  1  0  0  0
  3  2  1  0  0  0
  2 16  1  0  0  0
  4  3  1  0  0  0
 15  4  1  0  0  0
  5  6  2  0  0  0
  5  7  1  0  0  0
 18  5  1  0  0  0
  7  8  1  0  0  0
  8 13  1  0  0  0
 13  9  1  0  0  0
 10 11  2  0  0  0
 10 12  1  0  0  0
 13 14  1  0  0  0
 14 15  1  0  0  0
 16 17  1  0  0  0
 17 49  1  0  0  0
 19 18  1  0  0  0
 20 19  1  0  0  0
 19 22  1  0  0  0
 20 21  2  0  0  0
 27 20  1  0  0  0
 22 23  1  0  0  0
 23 24  1  0  0  0
 23 25  1  0  0  0
 26 28  2  0  0  0
 29 26  1  0  0  0
 26 50  1  0  0  0
 29 27  1  0  0  0
 30 29  1  0  0  0
 31 30  1  0  0  0
 46 31  4  0  0  0
 31 47  4  0  0  0
 32 33  1  0  0  0
 32 46  1  0  0  0
 33 34  1  0  0  0
 34 35  1  0  0  0
 35 36  1  0  0  0
 36 37  1  0  0  0
 37 38  1  0  0  0
 38 39  1  0  0  0
 39 40  1  0  0  0
 40 41  4  0  0  0
 40 45  4  0  0  0
 41 42  4  0  0  0
 42 43  4  0  0  0
 43 44  4  0  0  0
 44 45  4  0  0  0
 46 48  4  0  0  0
 47 49  4  0  0  0
 48 49  4  0  0  0
 50 51  1  0  0  0
 51 52  1  0  0  0
 51 54  1  0  0  0
 52 53  2  0  0  0
 52 56  1  0  0  0
 54 55  1  0  0  0
 56 57  1  0  0  0
 57 58  1  0  0  0
 57 65  1  0  0  0
 58 59  1  0  0  0
 58 60  1  0  0  0
 60 61  1  0  0  0
 61 62  1  0  0  0
 61 63  2  0  0  0
 61 64  1  0  0  0
 65 66  2  0  0  0
 65 67  1  0  0  0
  2 68  1  0  0  0
  2 69  1  0  0  0
  3 70  1  0  0  0
  3 71  1  0  0  0
  4 72  1  0  0  0
  4 73  1  0  0  0
  7 74  1  0  0  0
  8 75  1  0  0  0
  8 76  1  0  0  0
  9 77  1  0  0  0
  9 78  1  0  0  0
 12 79  1  0  0  0
 12 80  1  0  0  0
 12 81  1  0  0  0
 13 82  1  0  0  0
 15 83  1  0  0  0
 15 84  1  0  0  0
 16 85  1  0  0  0
 16 86  1  0  0  0
 17 87  1  0  0  0
 17 88  1  0  0  0
 18 89  1  0  0  0
 19 90  1  0  0  0
 22 91  1  0  0  0
 22 92  1  0  0  0
 23 93  1  0  0  0
 24 94  1  0  0  0
 24 95  1  0  0  0
 24 96  1  0  0  0
 25 97  1  0  0  0
 25 98  1  0  0  0
 25 99  1  0  0  0
 27100  1  0  0  0
 29101  1  0  0  0
 30102  1  0  0  0
 30103  1  0  0  0
 32104  1  0  0  0
 32105  1  0  0  0
 33106  1  0  0  0
 33107  1  0  0  0
 34108  1  0  0  0
 34109  1  0  0  0
 35110  1  0  0  0
 35111  1  0  0  0
 36112  1  0  0  0
 36113  1  0  0  0
 37114  1  0  0  0
 37115  1  0  0  0
 38116  1  0  0  0
 38117  1  0  0  0
 39118  1  0  0  0
 39119  1  0  0  0
 41120  1  0  0  0
 42121  1  0  0  0
 43122  1  0  0  0
 44123  1  0  0  0
 45124  1  0  0  0
 47125  1  0  0  0
 48126  1  0  0  0
 50127  1  0  0  0
 51128  1  0  0  0
 54129  1  0  0  0
 54130  1  0  0  0
 55131  1  0  0  0
 56132  1  0  0  0
 57133  1  0  0  0
 58134  1  0  0  0
 59135  1  0  0  0
 59136  1  0  0  0
 59137  1  0  0  0
 62138  1  0  0  0
 64139  1  0  0  0
 67140  1  0  0  0
 67141  1  0  0  0
M  END
$$$$
