### 
### Created by X-TOOL on Mon Sep 10 21:13:20 2018
### 

@<TRIPOS>MOLECULE
4x9r_ligand
  139   142     1     0     0
SMALL
GAST_HUCK


@<TRIPOS>ATOM
      1 N          -3.5010   28.0670   69.7530 N.am      1 4L0        -0.2494
      2 C14        -9.4910   28.2190   68.3470 C.3       1 4L0        -0.0502
      3 C15        -8.2650   28.9950   67.9070 C.3       1 4L0        -0.0509
      4 C16        -7.4820   28.2360   66.8650 C.3       1 4L0        -0.0294
      5 C          -4.8070   26.9590   71.5690 C.2       1 4L0         0.2042
      6 O          -3.9840   26.0630   71.7600 O.2       1 4L0        -0.3944
      7 CA         -4.8350   27.7360   70.2510 C.3       1 4L0         0.1361
      8 CB         -5.4040   26.8360   69.1420 C.3       1 4L0         0.0160
      9 CD         -3.3100   27.6390   68.3600 C.3       1 4L0         0.0631
     10 C41        -2.5940   28.7190   70.5130 C.2       1 4L0         0.1777
     11 O6         -2.8790   29.0710   71.6490 O.2       1 4L0        -0.3970
     12 C42        -1.2560   29.0120   69.8940 C.3       1 4L0         0.0260
     13 CG         -4.7420   27.4140   67.9050 C.3       1 4L0         0.0833
     14 O5         -5.2980   28.7040   67.6480 O.3       1 4L0        -0.3743
     15 C17        -6.1520   28.8220   66.5220 C.3       1 4L0         0.0481
     16 C13       -10.4320   29.0340   69.1930 C.3       1 4L0        -0.0216
     17 C12       -11.5640   28.2020   69.7730 C.3       1 4L0         0.0847
     18 N          -5.7400   27.3070   72.4600 N.am      1 LEU        -0.2637
     19 CA         -5.9160   26.6160   73.7300 C.3       1 LEU         0.1312
     20 C          -7.0120   25.5500   73.6970 C.2       1 LEU         0.2042
     21 O          -7.3310   24.9470   74.7240 O.2       1 LEU        -0.3944
     22 CB         -6.1590   27.6330   74.8510 C.3       1 LEU        -0.0101
     23 CG         -5.0040   28.5920   75.1100 C.3       1 LEU        -0.0425
     24 CD1        -5.3180   29.5260   76.2680 C.3       1 LEU        -0.0625
     25 CD2        -3.7150   27.8520   75.3710 C.3       1 LEU        -0.0625
     26 C          -8.4840   23.8590   70.8210 C.2       1 56A         0.2090
     27 N          -7.5680   25.3150   72.5150 N.am      1 56A        -0.2594
     28 O          -8.0360   24.6400   69.9870 O.2       1 56A        -0.3939
     29 CA         -8.4740   24.2170   72.2990 C.3       1 56A         0.1549
     30 CB         -9.9000   24.5220   72.7870 C.3       1 56A         0.0774
     31 CG        -10.4190   25.8210   72.2510 C.2       1 56A         0.1423
     32 C27       -10.1730   27.1820   74.3780 C.3       1 56A         0.0112
     33 C28       -11.2950   26.7470   75.2850 C.3       1 56A        -0.0429
     34 C29       -10.8440   26.7580   76.7160 C.3       1 56A        -0.0523
     35 C30       -11.9310   26.3110   77.6560 C.3       1 56A        -0.0530
     36 C31       -11.4460   26.2130   79.0970 C.3       1 56A        -0.0529
     37 C32       -12.5070   25.7570   80.0810 C.3       1 56A        -0.0513
     38 C33       -12.9660   24.3200   79.8980 C.3       1 56A        -0.0433
     39 C34       -14.0160   23.9040   80.9370 C.3       1 56A        -0.0192
     40 C35       -13.4740   23.8860   82.3450 C.ar      1 56A        -0.0430
     41 C36       -13.8380   24.8630   83.2470 C.ar      1 56A        -0.0603
     42 C37       -13.3250   24.8610   84.5310 C.ar      1 56A        -0.0686
     43 C38       -12.4320   23.8910   84.9250 C.ar      1 56A        -0.0687
     44 C39       -12.0690   22.9060   84.0480 C.ar      1 56A        -0.0686
     45 C40       -12.5880   22.8980   82.7620 C.ar      1 56A        -0.0603
     46 ND1       -10.4840   27.0060   72.9530 N.2       1 56A        -0.2820
     47 CD2       -10.8370   26.0880   70.9990 C.2       1 56A         0.1834
     48 CE1       -10.9000   27.9580   72.1430 C.2       1 56A         0.1683
     49 NE2       -11.1170   27.4370   70.9480 N.pl3     1 56A        -0.1512
     50 N          -8.9830   22.6600   70.5240 N.am      1 SER        -0.2612
     51 CA         -9.0680   22.1780   69.1690 C.3       1 SER         0.1539
     52 C         -10.1740   22.8760   68.3680 C.2       1 SER         0.2063
     53 O         -10.8720   23.7600   68.8900 O.2       1 SER        -0.3943
     54 CB         -9.2590   20.6680   69.1880 C.3       1 SER         0.0843
     55 OG        -10.4820   20.3250   69.8810 O.3       1 SER        -0.3903
     56 N         -10.2890   22.5330   67.0820 N.am      1 TPO        -0.2610
     57 CA        -11.1760   23.2620   66.1770 C.3       1 TPO         0.1608
     58 CB        -11.0020   22.7510   64.7440 C.3       1 TPO         0.1262
     59 CG2       -11.7980   23.5180   63.7160 C.3       1 TPO        -0.0298
     60 OG1        -9.5920   22.8550   64.4590 O.3       1 TPO        -0.2685
     61 P          -8.6610   21.5660   64.2350 P.3       1 TPO         0.2014
     62 O1P        -9.2820   20.7240   63.1400 O.co2     1 TPO        -0.5537
     63 O2P        -7.3180   22.1350   63.8500 O.co2     1 TPO        -0.5537
     64 O3P        -8.6140   20.8330   65.5550 O.co2     1 TPO        -0.5537
     65 C         -12.6660   23.1640   66.5640 C.2       1 TPO         0.2021
     66 O         -13.1170   22.0550   66.8420 O.2       1 TPO        -0.3946
     67 N         -13.3920   24.2800   66.6010 N.am      1 NH2        -0.2989
     68 H1         -9.1625   27.3461   68.9302 H         1 4L0         0.0266
     69 H2        -10.0308   27.8792   67.4508 H         1 4L0         0.0266
     70 H3         -7.6206   29.1728   68.7806 H         1 4L0         0.0266
     71 H4         -8.5837   29.9592   67.4841 H         1 4L0         0.0266
     72 H5         -8.0851   28.1981   65.9459 H         1 4L0         0.0287
     73 H6         -7.3183   27.2144   67.2386 H         1 4L0         0.0287
     74 H7         -5.4382   28.6471   70.3773 H         1 4L0         0.0803
     75 H8         -6.4996   26.9152   69.0842 H         1 4L0         0.0338
     76 H9         -5.1199   25.7843   69.2942 H         1 4L0         0.0338
     77 H10        -2.7213   26.7116   68.3031 H         1 4L0         0.0550
     78 H11        -2.8188   28.4223   67.7641 H         1 4L0         0.0550
     79 H12        -0.6238   29.5424   70.6213 H         1 4L0         0.0467
     80 H13        -1.3944   29.6402   69.0017 H         1 4L0         0.0467
     81 H14        -0.7705   28.0679   69.6060 H         1 4L0         0.0467
     82 H15        -4.8197   26.7503   67.0312 H         1 4L0         0.0618
     83 H16        -6.2721   29.8832   66.2584 H         1 4L0         0.0560
     84 H17        -5.7173   28.2794   65.6696 H         1 4L0         0.0560
     85 H18       -10.8639   29.8320   68.5712 H         1 4L0         0.0295
     86 H19        -9.8634   29.4817   70.0214 H         1 4L0         0.0295
     87 H20       -11.9239   27.5015   69.0050 H         1 4L0         0.0657
     88 H21       -12.3841   28.8714   70.0720 H         1 4L0         0.0657
     89 H22        -6.3435   28.0750   72.2456 H         1 LEU         0.1883
     90 H23        -4.9716   26.0971   73.9510 H         1 LEU         0.0800
     91 H24        -6.3561   27.0772   75.7795 H         1 LEU         0.0315
     92 H25        -7.0446   28.2289   74.5854 H         1 LEU         0.0315
     93 H26        -4.8664   29.2039   74.2063 H         1 LEU         0.0298
     94 H27        -4.4685   30.2054   76.4318 H         1 LEU         0.0232
     95 H28        -5.4953   28.9346   77.1784 H         1 LEU         0.0232
     96 H29        -6.2172   30.1138   76.0316 H         1 LEU         0.0232
     97 H30        -3.5001   27.1807   74.5265 H         1 LEU         0.0232
     98 H31        -3.8118   27.2610   76.2937 H         1 LEU         0.0232
     99 H32        -2.8934   28.5748   75.4830 H         1 LEU         0.0232
    100 H33        -7.3506   25.9204   71.7493 H         1 56A         0.1887
    101 H34        -8.1019   23.3508   72.8658 H         1 56A         0.0858
    102 H35        -9.8952   24.5696   73.8859 H         1 56A         0.0714
    103 H36       -10.5673   23.7118   72.4580 H         1 56A         0.0714
    104 H37        -9.2787   26.5878   74.6173 H         1 56A         0.0388
    105 H38        -9.9661   28.2465   74.5624 H         1 56A         0.0388
    106 H39       -11.6083   25.7287   75.0115 H         1 56A         0.0273
    107 H40       -12.1443   27.4360   75.1673 H         1 56A         0.0273
    108 H41       -10.5414   27.7809   76.9846 H         1 56A         0.0266
    109 H42        -9.9833   26.0813   76.8218 H         1 56A         0.0266
    110 H43       -12.2907   25.3220   77.3360 H         1 56A         0.0265
    111 H44       -12.7582   27.0346   77.6098 H         1 56A         0.0265
    112 H45       -11.0899   27.2058   79.4093 H         1 56A         0.0265
    113 H46       -10.6122   25.4965   79.1323 H         1 56A         0.0265
    114 H47       -13.3827   26.4133   79.9695 H         1 56A         0.0267
    115 H48       -12.0988   25.8596   81.0973 H         1 56A         0.0267
    116 H49       -12.0940   23.6560   79.9918 H         1 56A         0.0287
    117 H50       -13.4016   24.2136   78.8936 H         1 56A         0.0287
    118 H51       -14.3768   22.8954   80.6870 H         1 56A         0.0426
    119 H52       -14.8543   24.6148   80.8928 H         1 56A         0.0426
    120 H53       -14.5324   25.6395   82.9470 H         1 56A         0.0557
    121 H54       -13.6286   25.6295   85.2327 H         1 56A         0.0599
    122 H55       -12.0178   23.9074   85.9266 H         1 56A         0.0559
    123 H56       -11.3761   22.1322   84.3580 H         1 56A         0.0599
    124 H57       -12.2997   22.1121   82.0733 H         1 56A         0.0557
    125 H58       -10.9352   25.3743   70.1824 H         1 56A         0.1941
    126 H59       -11.0419   29.0032   72.4138 H         1 56A         0.1815
    127 H60        -9.3095   22.0750   71.2664 H         1 SER         0.1884
    128 H61        -8.1117   22.3958   68.6709 H         1 SER         0.0823
    129 H62        -8.4068   20.2009   69.7033 H         1 SER         0.0606
    130 H63        -9.3112   20.2958   68.1542 H         1 SER         0.0606
    131 H64       -11.2197   20.7258   69.4364 H         1 SER         0.2097
    132 H65        -9.7575   21.7619   66.7313 H         1 TPO         0.1884
    133 H66       -10.8871   24.3229   66.2088 H         1 TPO         0.0830
    134 H67       -11.3133   21.6969   64.7004 H         1 TPO         0.0695
    135 H68       -11.6180   23.0899   62.7188 H         1 TPO         0.0260
    136 H69       -11.4867   24.5730   63.7237 H         1 TPO         0.0260
    137 H70       -12.8693   23.4500   63.9563 H         1 TPO         0.0260
    138 H71       -14.3598   24.2389   66.8494 H         1 NH2         0.1815
    139 H72       -12.9693   25.1590   66.3804 H         1 NH2         0.1815
@<TRIPOS>BOND
     1    7    1 1  
     2    1    9 1  
     3    1   10 am 
     4    3    2 1  
     5    2   16 1  
     6    4    3 1  
     7   15    4 1  
     8    5    6 2  
     9    5    7 1  
    10   18    5 am 
    11    7    8 1  
    12    8   13 1  
    13   13    9 1  
    14   10   11 2  
    15   10   12 1  
    16   13   14 1  
    17   14   15 1  
    18   16   17 1  
    19   17   49 1  
    20   19   18 1  
    21   20   19 1  
    22   19   22 1  
    23   20   21 2  
    24   27   20 am 
    25   22   23 1  
    26   23   24 1  
    27   23   25 1  
    28   26   28 2  
    29   29   26 1  
    30   26   50 am 
    31   29   27 1  
    32   30   29 1  
    33   31   30 1  
    34   46   31 1  
    35   31   47 2  
    36   32   33 1  
    37   32   46 1  
    38   33   34 1  
    39   34   35 1  
    40   35   36 1  
    41   36   37 1  
    42   37   38 1  
    43   38   39 1  
    44   39   40 1  
    45   40   41 ar 
    46   40   45 ar 
    47   41   42 ar 
    48   42   43 ar 
    49   43   44 ar 
    50   44   45 ar 
    51   46   48 2  
    52   47   49 1  
    53   48   49 1  
    54   50   51 1  
    55   51   52 1  
    56   51   54 1  
    57   52   53 2  
    58   52   56 am 
    59   54   55 1  
    60   56   57 1  
    61   57   58 1  
    62   57   65 1  
    63   58   59 1  
    64   58   60 1  
    65   60   61 1  
    66   61   62 ar 
    67   61   63 ar 
    68   61   64 ar 
    69   65   66 2  
    70   65   67 am 
    71    2   68 1  
    72    2   69 1  
    73    3   70 1  
    74    3   71 1  
    75    4   72 1  
    76    4   73 1  
    77    7   74 1  
    78    8   75 1  
    79    8   76 1  
    80    9   77 1  
    81    9   78 1  
    82   12   79 1  
    83   12   80 1  
    84   12   81 1  
    85   13   82 1  
    86   15   83 1  
    87   15   84 1  
    88   16   85 1  
    89   16   86 1  
    90   17   87 1  
    91   17   88 1  
    92   18   89 1  
    93   19   90 1  
    94   22   91 1  
    95   22   92 1  
    96   23   93 1  
    97   24   94 1  
    98   24   95 1  
    99   24   96 1  
   100   25   97 1  
   101   25   98 1  
   102   25   99 1  
   103   27  100 1  
   104   29  101 1  
   105   30  102 1  
   106   30  103 1  
   107   32  104 1  
   108   32  105 1  
   109   33  106 1  
   110   33  107 1  
   111   34  108 1  
   112   34  109 1  
   113   35  110 1  
   114   35  111 1  
   115   36  112 1  
   116   36  113 1  
   117   37  114 1  
   118   37  115 1  
   119   38  116 1  
   120   38  117 1  
   121   39  118 1  
   122   39  119 1  
   123   41  120 1  
   124   42  121 1  
   125   43  122 1  
   126   44  123 1  
   127   45  124 1  
   128   47  125 1  
   129   48  126 1  
   130   50  127 1  
   131   51  128 1  
   132   54  129 1  
   133   54  130 1  
   134   55  131 1  
   135   56  132 1  
   136   57  133 1  
   137   58  134 1  
   138   59  135 1  
   139   59  136 1  
   140   59  137 1  
   141   67  138 1  
   142   67  139 1  
@<TRIPOS>SUBSTRUCTURE
     1 4L0         1

