4dwk_ligand
  -I-interpret- 

 55 56  0  0  0  0  0  0  0  0999 V2000
  108.1710  -64.8070   -9.1130 C   0  0  0  0  0
  106.0670  -69.2490   -8.4640 N   0  0  0  0  0
  104.8140  -69.7400   -8.5730 C   0  0  0  0  0
  104.3000  -70.4070   -9.8520 C   0  0  0  0  0
  101.8420  -70.2150   -9.4490 C   0  0  0  0  0
   98.1380  -69.8500   -9.7310 C   0  0  0  0  0
   96.9470  -70.1150   -9.0210 C   0  0  0  0  0
   95.8210  -69.2810   -9.1730 C   0  0  0  0  0
   97.0530  -67.8980  -10.7540 C   0  0  0  0  0
  103.0260  -72.3560   -8.8870 C   0  0  0  0  0
  102.6080  -72.0410   -6.4890 O   0  0  0  0  0
  103.4380  -72.3350   -7.3990 C   0  0  0  0  0
  104.6190  -72.6520   -7.1120 O   0  0  0  0  0
  102.9890  -71.1150   -9.7500 N   0  3  0  0  0
  100.6150  -70.4740  -10.3260 C   0  0  0  0  0
   99.3380  -70.7900   -9.5220 C   0  0  0  0  0
   98.1740  -68.7280  -10.5980 C   0  0  0  0  0
   95.8750  -68.1750  -10.0390 C   0  0  0  0  0
  104.0550  -69.6480   -7.6300 O   0  0  0  0  0
  107.1540  -69.5720   -9.3700 C   0  0  0  0  0
  108.1910  -70.5000   -8.7680 C   0  0  0  0  0
  108.9700  -70.0020   -7.9820 O   0  0  0  0  0
  108.2890  -71.9390   -9.1230 O   0  0  0  0  0
  108.5190  -73.0070   -8.1970 C   0  0  0  0  0
  107.7770  -68.3250  -10.0440 C   0  0  0  0  0
  107.7910  -66.9640   -9.3760 C   0  0  0  0  0
  108.2890  -65.8510   -9.9580 N   0  0  0  0  0
  107.5710  -65.2500   -7.9810 N   0  0  0  0  0
  107.3370  -66.5790   -8.1180 C   0  0  0  0  0
  108.5002  -63.7860   -9.3062 H   0  0  0  0  0
  106.2626  -68.6089   -7.6943 H   0  0  0  0  0
  105.0356  -71.1677  -10.1137 H   0  0  0  0  0
  104.1554  -69.6044  -10.5752 H   0  0  0  0  0
  102.1697  -69.1928   -9.6383 H   0  0  0  0  0
  101.5485  -70.3937   -8.4146 H   0  0  0  0  0
   96.8978  -70.9721   -8.3494 H   0  0  0  0  0
   94.9071  -69.4939   -8.6183 H   0  0  0  0  0
   97.0958  -67.0418  -11.4271 H   0  0  0  0  0
  101.9809  -72.6636   -8.8504 H   0  0  0  0  0
  103.8069  -72.9578   -9.3518 H   0  0  0  0  0
  101.7613  -71.8260   -6.8870 H   0  0  0  0  0
  102.8125  -71.4603  -10.6934 H   0  0  0  0  0
  100.8341  -71.3429  -10.9466 H   0  0  0  0  0
  100.4247  -69.5662  -10.8985 H   0  0  0  0  0
   99.0095  -71.7743   -9.8558 H   0  0  0  0  0
   99.6138  -70.6951   -8.4718 H   0  0  0  0  0
   99.0865  -68.5069  -11.1517 H   0  0  0  0  0
   95.0028  -67.5318  -10.1561 H   0  0  0  0  0
  106.6907  -70.1430  -10.1746 H   0  0  0  0  0
  109.4724  -72.8499   -7.6927 H   0  0  0  0  0
  107.7158  -73.0268   -7.4604 H   0  0  0  0  0
  108.5432  -73.9543   -8.7356 H   0  0  0  0  0
  107.1486  -68.1704  -10.9211 H   0  0  0  0  0
  108.8339  -68.5802  -10.1216 H   0  0  0  0  0
  106.8756  -67.2296   -7.3751 H   0  0  0  0  0
 27  1  4  0  0  0
  1 28  4  0  0  0
  2  3  1  0  0  0
 20  2  1  0  0  0
  3  4  1  0  0  0
  3 19  2  0  0  0
  4 14  1  0  0  0
 14  5  1  0  0  0
  5 15  1  0  0  0
  6  7  4  0  0  0
 16  6  1  0  0  0
  6 17  4  0  0  0
  7  8  4  0  0  0
  8 18  4  0  0  0
 17  9  4  0  0  0
  9 18  4  0  0  0
 10 12  1  0  0  0
 14 10  1  0  0  0
 12 11  1  0  0  0
 12 13  2  0  0  0
 15 16  1  0  0  0
 20 21  1  0  0  0
 25 20  1  0  0  0
 21 22  2  0  0  0
 21 23  1  0  0  0
 23 24  1  0  0  0
 26 25  1  0  0  0
 26 27  4  0  0  0
 26 29  4  0  0  0
 28 29  4  0  0  0
  1 30  1  0  0  0
  2 31  1  0  0  0
  4 32  1  0  0  0
  4 33  1  0  0  0
  5 34  1  0  0  0
  5 35  1  0  0  0
  7 36  1  0  0  0
  8 37  1  0  0  0
  9 38  1  0  0  0
 10 39  1  0  0  0
 10 40  1  0  0  0
 11 41  1  0  0  0
 14 42  1  0  0  0
 15 43  1  0  0  0
 15 44  1  0  0  0
 16 45  1  0  0  0
 16 46  1  0  0  0
 17 47  1  0  0  0
 18 48  1  0  0  0
 20 49  1  0  0  0
 24 50  1  0  0  0
 24 51  1  0  0  0
 24 52  1  0  0  0
 25 53  1  0  0  0
 25 54  1  0  0  0
 29 55  1  0  0  0
M  END
$$$$
