2oic_ligand
  -I-interpret- 

 62 69  0  0  0  0  0  0  0  0999 V2000
  -19.2060   12.5950   -3.9270 O   0  0  0  0  0
  -19.4840   11.9690   -5.1960 C   0  0  0  0  0
  -20.1470   12.9620   -6.1700 C   0  0  0  0  0
  -21.2590   13.8520   -5.6080 C   0  0  0  0  0
  -21.4710   13.6810   -4.1070 C   0  0  0  0  0
  -20.2810   13.1910   -3.2150 C   0  0  0  0  0
  -19.6730   14.3440   -2.4030 C   0  0  0  0  0
  -20.8400   12.1340   -2.3120 N   0  0  0  0  0
  -21.1800   10.8270   -2.7250 C   0  0  0  0  0
  -20.7420   10.1370   -3.8510 C   0  0  0  0  0
  -21.0940    8.7990   -4.0080 C   0  0  0  0  0
  -21.7930    8.1650   -2.9600 C   0  0  0  0  0
  -22.1910    8.8270   -1.8130 C   0  0  0  0  0
  -21.8690   10.1870   -1.6930 C   0  0  0  0  0
  -22.0990   11.1460   -0.6940 C   0  0  0  0  0
  -21.5590   12.3550   -1.1110 C   0  0  0  0  0
  -21.5980   13.5060   -0.3060 C   0  0  0  0  0
  -22.2670   13.4120    0.9180 C   0  0  0  0  0
  -22.8220   12.1910    1.3150 C   0  0  0  0  0
  -22.7480   11.0380    0.5250 C   0  0  0  0  0
  -22.9390    7.9540   -0.9250 C   0  0  0  0  0
  -22.9640    6.6640   -1.6590 N   0  0  0  0  0
  -22.2760    6.8460   -2.8310 C   0  0  0  0  0
  -22.1420    5.8780   -3.6870 O   0  0  0  0  0
  -20.5860    8.3920   -5.2430 C   0  0  0  0  0
  -19.9240    9.4750   -5.8230 C   0  0  0  0  0
  -19.3620    9.3660   -7.0940 C   0  0  0  0  0
  -19.4010    8.1140   -7.7280 C   0  0  0  0  0
  -20.0380    7.0210   -7.1060 C   0  0  0  0  0
  -20.6500    7.1500   -5.8570 C   0  0  0  0  0
  -20.1420   10.6360   -5.0380 N   0  0  0  0  0
  -22.5610   12.7400   -4.1920 O   0  0  0  0  0
  -23.7780   13.1960   -3.6340 C   0  0  0  0  0
  -21.2350   15.2490   -6.0430 N   0  3  0  0  0
  -22.0060   16.3020   -5.3550 C   0  0  0  0  0
  -18.5453   11.7101   -5.6858 H   0  0  0  0  0
  -20.6163   12.3522   -6.9421 H   0  0  0  0  0
  -19.3551   13.6406   -6.4870 H   0  0  0  0  0
  -22.1587   13.4625   -6.0844 H   0  0  0  0  0
  -21.6294   14.6241   -3.5839 H   0  0  0  0  0
  -20.4443   14.7914   -1.7760 H   0  0  0  0  0
  -18.8696   13.9599   -1.7745 H   0  0  0  0  0
  -19.2752   15.0962   -3.0842 H   0  0  0  0  0
  -21.1253   14.4355   -0.6233 H   0  0  0  0  0
  -22.3558   14.2876    1.5610 H   0  0  0  0  0
  -23.3318   12.1353    2.2768 H   0  0  0  0  0
  -23.1828   10.0946    0.8552 H   0  0  0  0  0
  -23.9374    8.3326   -0.7062 H   0  0  0  0  0
  -22.4835    7.8676    0.0615 H   0  0  0  0  0
  -23.4107    5.8011   -1.3487 H   0  0  0  0  0
  -18.9056   10.2276   -7.5813 H   0  0  0  0  0
  -18.9365    7.9865   -8.7058 H   0  0  0  0  0
  -20.0533    6.0548   -7.6103 H   0  0  0  0  0
  -21.1571    6.3089   -5.3842 H   0  0  0  0  0
  -23.6315   13.4159   -2.5765 H   0  0  0  0  0
  -24.0984   14.0992   -4.1533 H   0  0  0  0  0
  -24.5387   12.4231   -3.7437 H   0  0  0  0  0
  -21.6548   15.2158   -6.9720 H   0  0  0  0  0
  -20.2654   15.5279   -5.8928 H   0  0  0  0  0
  -23.0673   16.0562   -5.3917 H   0  0  0  0  0
  -21.6826   16.3673   -4.3161 H   0  0  0  0  0
  -21.8358   17.2578   -5.8506 H   0  0  0  0  0
  1  2  1  0  0  0
  1  6  1  0  0  0
  2  3  1  0  0  0
  2 31  1  0  0  0
  3  4  1  0  0  0
  4  5  1  0  0  0
  4 34  1  0  0  0
  5  6  1  0  0  0
  5 32  1  0  0  0
  6  7  1  0  0  0
  6  8  1  0  0  0
  8  9  4  0  0  0
  8 16  4  0  0  0
  9 10  4  0  0  0
  9 14  4  0  0  0
 10 11  4  0  0  0
 10 31  4  0  0  0
 11 12  4  0  0  0
 11 25  4  0  0  0
 12 13  4  0  0  0
 12 23  1  0  0  0
 13 14  4  0  0  0
 13 21  1  0  0  0
 14 15  4  0  0  0
 15 16  4  0  0  0
 15 20  4  0  0  0
 16 17  4  0  0  0
 17 18  4  0  0  0
 18 19  4  0  0  0
 19 20  4  0  0  0
 21 22  1  0  0  0
 22 23  1  0  0  0
 23 24  2  0  0  0
 25 26  4  0  0  0
 25 30  4  0  0  0
 26 27  4  0  0  0
 26 31  4  0  0  0
 27 28  4  0  0  0
 28 29  4  0  0  0
 29 30  4  0  0  0
 32 33  1  0  0  0
 34 35  1  0  0  0
  2 36  1  0  0  0
  3 37  1  0  0  0
  3 38  1  0  0  0
  4 39  1  0  0  0
  5 40  1  0  0  0
  7 41  1  0  0  0
  7 42  1  0  0  0
  7 43  1  0  0  0
 17 44  1  0  0  0
 18 45  1  0  0  0
 19 46  1  0  0  0
 20 47  1  0  0  0
 21 48  1  0  0  0
 21 49  1  0  0  0
 22 50  1  0  0  0
 27 51  1  0  0  0
 28 52  1  0  0  0
 29 53  1  0  0  0
 30 54  1  0  0  0
 33 55  1  0  0  0
 33 56  1  0  0  0
 33 57  1  0  0  0
 34 58  1  0  0  0
 34 59  1  0  0  0
 35 60  1  0  0  0
 35 61  1  0  0  0
 35 62  1  0  0  0
M  END
$$$$
