4wgi_ligand
  -I-interpret- 

 76 79  0  0  0  0  0  0  0  0999 V2000
   15.6540   55.3360   32.5450 C   0  0  0  0  0
   16.6000   53.3130   33.8780 C   0  0  0  0  0
   16.8820   51.9470   33.8020 C   0  0  0  0  0
   17.4120   51.2690   34.9070 C   0  0  0  0  0
   12.1280   56.6980   33.7770 C   0  0  0  0  0
   12.4800   56.2760   35.0900 C   0  0  0  0  0
   10.4010   57.6350   29.0050 C   0  0  0  0  0
    9.9210   58.5980   30.0500 C   0  0  0  0  0
   10.5200   58.2880   31.3240 N   0  0  0  0  0
   11.5040   59.2140   31.8520 C   0  0  0  0  0
   12.9060   58.8690   31.3260 C   0  0  0  0  0
   13.9140   59.7790   31.9810 C   0  0  0  0  0
   13.2770   57.4040   31.6060 C   0  0  0  0  0
   14.6620   57.1320   31.0390 C   0  0  0  0  0
   15.0460   55.7490   31.2670 N   0  0  0  0  0
   14.8390   54.7530   30.2290 C   0  0  0  0  0
   15.8400   56.1540   33.4150 O   0  0  0  0  0
   16.0180   53.9440   32.6870 N   0  0  0  0  0
   17.6500   51.9550   36.0930 C   0  0  0  0  0
   17.3620   53.3250   36.1890 C   0  0  0  0  0
   16.8290   54.0020   35.0770 C   0  0  0  0  0
   18.2330   51.1720   37.2880 C   0  0  0  0  0
   19.4920   50.8050   36.9950 F   0  0  0  0  0
   18.2080   51.9290   38.4070 F   0  0  0  0  0
   17.4790   50.0710   37.4850 F   0  0  0  0  0
   13.2890   57.1160   33.0140 O   0  0  0  0  0
   13.9050   56.2930   35.4690 N   0  0  0  0  0
   14.4150   57.2240   36.7690 S   0  0  0  0  0
   13.9130   56.7370   38.0450 O   0  0  0  0  0
   15.8430   57.1760   36.8940 O   0  0  0  0  0
   13.8040   58.9060   36.4700 C   0  0  0  0  0
   12.6570   59.3340   37.1160 C   0  0  0  0  0
   12.1740   60.6250   36.8780 C   0  0  0  0  0
   12.8410   61.4530   36.0020 C   0  0  0  0  0
   12.3770   62.6780   35.7740 F   0  0  0  0  0
   13.9970   61.0140   35.3410 C   0  0  0  0  0
   14.4780   59.7410   35.5730 C   0  0  0  0  0
   11.5270   55.8390   35.9990 C   0  0  0  0  0
   10.1690   55.8180   35.6220 C   0  0  0  0  0
    9.8110   56.2320   34.3510 C   0  0  0  0  0
   10.7800   56.6900   33.4140 C   0  0  0  0  0
   10.1670   57.0860   32.0470 C   0  0  0  0  0
    9.3560   56.3160   31.6030 O   0  0  0  0  0
    8.4130   58.5570   30.1500 C   0  0  0  0  0
    7.8070   59.3580   30.9270 O   0  0  0  0  0
    7.7560   57.7100   29.4650 O   0  0  0  0  0
   16.6882   51.4050   32.8764 H   0  0  0  0  0
   17.6377   50.2049   34.8374 H   0  0  0  0  0
   11.4851   57.7064   28.9175 H   0  0  0  0  0
   10.1245   56.6207   29.2930 H   0  0  0  0  0
    9.9409   57.8805   28.0478 H   0  0  0  0  0
   10.2195   59.6058   29.7614 H   0  0  0  0  0
   11.5073   59.1444   32.9398 H   0  0  0  0  0
   11.2456   60.2241   31.5341 H   0  0  0  0  0
   12.9087   59.0100   30.2452 H   0  0  0  0  0
   13.6757   60.8153   31.7414 H   0  0  0  0  0
   13.8811   59.6377   33.0613 H   0  0  0  0  0
   14.9114   59.5396   31.6122 H   0  0  0  0  0
   12.5267   56.7684   31.1356 H   0  0  0  0  0
   15.3808   57.7843   31.5349 H   0  0  0  0  0
   14.6477   57.3221   29.9658 H   0  0  0  0  0
   13.7772   54.6946   29.9898 H   0  0  0  0  0
   15.3984   55.0373   29.3377 H   0  0  0  0  0
   15.1867   53.7828   30.5837 H   0  0  0  0  0
   15.8544   53.3412   31.8806 H   0  0  0  0  0
   17.5501   53.8612   37.1192 H   0  0  0  0  0
   16.5937   55.0639   35.1479 H   0  0  0  0  0
   14.5801   55.7394   34.9416 H   0  0  0  0  0
   12.1343   58.6703   37.8047 H   0  0  0  0  0
   11.2737   60.9744   37.3835 H   0  0  0  0  0
   14.5142   61.6757   34.6462 H   0  0  0  0  0
   15.3745   59.3900   35.0620 H   0  0  0  0  0
   11.8259   55.5148   36.9958 H   0  0  0  0  0
    9.4081   55.4789   36.3249 H   0  0  0  0  0
    8.7609   56.2068   34.0600 H   0  0  0  0  0
    8.3634   57.1877   28.9360 H   0  0  0  0  0
 15  1  1  0  0  0
  1 17  2  0  0  0
  1 18  1  0  0  0
  2  3  4  0  0  0
 18  2  1  0  0  0
  2 21  4  0  0  0
  3  4  4  0  0  0
  4 19  4  0  0  0
  5  6  4  0  0  0
 26  5  1  0  0  0
  5 41  4  0  0  0
  6 27  1  0  0  0
  6 38  4  0  0  0
  8  7  1  0  0  0
  9  8  1  0  0  0
  8 44  1  0  0  0
 10  9  1  0  0  0
  9 42  1  0  0  0
 11 10  1  0  0  0
 11 12  1  0  0  0
 13 11  1  0  0  0
 14 13  1  0  0  0
 13 26  1  0  0  0
 14 15  1  0  0  0
 15 16  1  0  0  0
 19 20  4  0  0  0
 19 22  1  0  0  0
 20 21  4  0  0  0
 22 23  1  0  0  0
 22 24  1  0  0  0
 22 25  1  0  0  0
 27 28  1  0  0  0
 28 29  2  0  0  0
 28 30  2  0  0  0
 28 31  1  0  0  0
 31 32  4  0  0  0
 31 37  4  0  0  0
 32 33  4  0  0  0
 33 34  4  0  0  0
 34 35  1  0  0  0
 34 36  4  0  0  0
 36 37  4  0  0  0
 38 39  4  0  0  0
 39 40  4  0  0  0
 40 41  4  0  0  0
 41 42  1  0  0  0
 42 43  2  0  0  0
 44 45  2  0  0  0
 44 46  1  0  0  0
  3 47  1  0  0  0
  4 48  1  0  0  0
  7 49  1  0  0  0
  7 50  1  0  0  0
  7 51  1  0  0  0
  8 52  1  0  0  0
 10 53  1  0  0  0
 10 54  1  0  0  0
 11 55  1  0  0  0
 12 56  1  0  0  0
 12 57  1  0  0  0
 12 58  1  0  0  0
 13 59  1  0  0  0
 14 60  1  0  0  0
 14 61  1  0  0  0
 16 62  1  0  0  0
 16 63  1  0  0  0
 16 64  1  0  0  0
 18 65  1  0  0  0
 20 66  1  0  0  0
 21 67  1  0  0  0
 27 68  1  0  0  0
 32 69  1  0  0  0
 33 70  1  0  0  0
 36 71  1  0  0  0
 37 72  1  0  0  0
 38 73  1  0  0  0
 39 74  1  0  0  0
 40 75  1  0  0  0
 46 76  1  0  0  0
M  END
$$$$
