4a9c_ligand
  -I-interpret- 

 52 53  0  0  0  0  0  0  0  0999 V2000
    1.2290   52.3450  -49.0570 C   0  0  0  0  0
    1.4830   53.7400  -49.0450 C   0  0  0  0  0
    1.1610   54.4960  -50.1550 O   0  0  0  0  0
    1.7250   56.0300  -50.3160 P   0  0  0  0  0
    1.9670   54.3370  -47.8690 C   0  0  0  0  0
    2.2400   53.5790  -46.7310 C   0  0  0  0  0
    2.7930   54.1880  -45.6370 O   0  0  0  0  0
    1.8070   54.2900  -44.3580 P   0  0  0  0  0
    2.0390   52.1970  -46.7680 C   0  0  0  0  0
    1.5680   51.5690  -47.9280 C   0  0  0  0  0
    1.2680   50.2320  -47.9090 O   0  0  0  0  0
    2.4300   49.1700  -47.5090 P   0  0  0  0  0
    0.7690   51.7110  -50.2290 C   0  0  0  0  0
    1.5900   50.7770  -50.8890 C   0  0  0  0  0
    1.3560   56.4070  -51.8250 O   0  0  0  0  0
    0.8040   56.9880  -49.4010 O   0  0  0  0  0
    3.1790   56.1990  -50.0740 O   0  0  0  0  0
    1.1560   50.1250  -52.0490 C   0  0  0  0  0
    1.9760   49.2400  -52.6990 O   0  0  0  0  0
    1.9310   47.7090  -52.1400 P   0  0  0  0  0
    2.6800   46.8140  -53.2460 O   0  0  0  0  0
    2.9050   47.6700  -50.8610 O   0  0  0  0  0
    0.5710   47.2000  -51.8640 O   0  0  0  0  0
   -0.0730   50.4890  -52.6140 C   0  0  0  0  0
    1.7930   52.8220  -43.6870 O   0  0  0  0  0
    2.5660   55.2380  -43.3050 O   0  0  0  0  0
    0.4560   54.7870  -44.6940 O   0  0  0  0  0
   -0.9190   51.4100  -51.9690 C   0  0  0  0  0
   -2.1280   51.8360  -52.4690 O   0  0  0  0  0
   -3.0380   50.8340  -53.3770 P   0  0  0  0  0
   -2.2550   50.5950  -54.7650 O   0  0  0  0  0
   -3.1020   49.4110  -52.6170 O   0  0  0  0  0
   -4.3770   51.4090  -53.6400 O   0  0  0  0  0
   -0.4770   52.0260  -50.7910 C   0  0  0  0  0
    3.8610   49.7890  -47.9180 O   0  0  0  0  0
    2.3680   49.0650  -45.9080 O   0  0  0  0  0
    2.2040   47.8460  -48.1220 O   0  0  0  0  0
    2.1324   55.4141  -47.8457 H   0  0  0  0  0
    2.2517   51.5991  -45.8818 H   0  0  0  0  0
    2.5804   50.5579  -50.4899 H   0  0  0  0  0
    0.4128   56.2913  -51.9611 H   0  0  0  0  0
   -0.1208   56.8307  -49.6049 H   0  0  0  0  0
    3.5580   47.1693  -53.4025 H   0  0  0  0  0
    3.7677   48.0121  -51.1066 H   0  0  0  0  0
   -0.3779   50.0532  -53.5654 H   0  0  0  0  0
    2.6933   52.5523  -43.4912 H   0  0  0  0  0
    3.4353   54.8757  -43.1187 H   0  0  0  0  0
   -1.3892   50.2224  -54.5827 H   0  0  0  0  0
   -2.2102   49.0861  -52.4728 H   0  0  0  0  0
   -1.1132   52.7638  -50.3020 H   0  0  0  0  0
    3.9685   50.6467  -47.5005 H   0  0  0  0  0
    2.5167   49.9329  -45.5255 H   0  0  0  0  0
  1  2  4  0  0  0
  1 10  4  0  0  0
  1 13  1  0  0  0
  2  3  1  0  0  0
  2  5  4  0  0  0
  3  4  1  0  0  0
  4 15  1  0  0  0
  4 16  1  0  0  0
  4 17  2  0  0  0
  5  6  4  0  0  0
  6  7  1  0  0  0
  6  9  4  0  0  0
  7  8  1  0  0  0
  8 25  1  0  0  0
  8 26  1  0  0  0
  8 27  2  0  0  0
  9 10  4  0  0  0
 10 11  1  0  0  0
 11 12  1  0  0  0
 12 35  1  0  0  0
 12 36  1  0  0  0
 12 37  2  0  0  0
 13 14  4  0  0  0
 13 34  4  0  0  0
 14 18  4  0  0  0
 18 19  1  0  0  0
 18 24  4  0  0  0
 19 20  1  0  0  0
 20 21  1  0  0  0
 20 22  1  0  0  0
 20 23  2  0  0  0
 24 28  4  0  0  0
 28 29  1  0  0  0
 28 34  4  0  0  0
 29 30  1  0  0  0
 30 31  1  0  0  0
 30 32  1  0  0  0
 30 33  2  0  0  0
  5 38  1  0  0  0
  9 39  1  0  0  0
 14 40  1  0  0  0
 15 41  1  0  0  0
 16 42  1  0  0  0
 21 43  1  0  0  0
 22 44  1  0  0  0
 24 45  1  0  0  0
 25 46  1  0  0  0
 26 47  1  0  0  0
 31 48  1  0  0  0
 32 49  1  0  0  0
 34 50  1  0  0  0
 35 51  1  0  0  0
 36 52  1  0  0  0
M  END
$$$$
