### 
### Created by X-TOOL on Mon Sep 10 21:13:10 2018
### 

@<TRIPOS>MOLECULE
4a9c_ligand
   42    43     1     0     0
SMALL
GAST_HUCK


@<TRIPOS>ATOM
      1 C1          1.2290   52.3450  -49.0570 C.ar      1 B5F         0.2140
      2 C2          1.4830   53.7400  -49.0450 C.ar      1 B5F         0.2522
      3 O2          1.1610   54.4960  -50.1550 O.3       1 B5F        -0.1837
      4 P2          1.7250   56.0300  -50.3160 P.3       1 B5F         0.1592
      5 C3          1.9670   54.3370  -47.8690 C.ar      1 B5F         0.0999
      6 C4          2.2400   53.5790  -46.7310 C.ar      1 B5F         0.2180
      7 O4          2.7930   54.1880  -45.6370 O.3       1 B5F        -0.1678
      8 P4          1.8070   54.2900  -44.3580 P.3       1 B5F         0.1775
      9 C5          2.0390   52.1970  -46.7680 C.ar      1 B5F         0.0999
     10 C6          1.5680   51.5690  -47.9280 C.ar      1 B5F         0.2522
     11 O6          1.2680   50.2320  -47.9090 O.3       1 B5F        -0.1837
     12 P6          2.4300   49.1700  -47.5090 P.3       1 B5F         0.1592
     13 C1'         0.7690   51.7110  -50.2290 C.ar      1 B5F         0.1134
     14 C2'         1.5900   50.7770  -50.8890 C.ar      1 B5F         0.0568
     15 O21         1.3560   56.4070  -51.8250 O.co2     1 B5F        -0.6418
     16 O22         0.8040   56.9880  -49.4010 O.co2     1 B5F        -0.6418
     17 O23         3.1790   56.1990  -50.0740 O.co2     1 B5F        -0.6418
     18 C3'         1.1560   50.1250  -52.0490 C.ar      1 B5F         0.1973
     19 O3'         1.9760   49.2400  -52.6990 O.3       1 B5F        -0.2125
     20 P3'         1.9310   47.7090  -52.1400 P.3       1 B5F         0.1422
     21 O31         2.6800   46.8140  -53.2460 O.co2     1 B5F        -0.6449
     22 O32         2.9050   47.6700  -50.8610 O.co2     1 B5F        -0.6449
     23 O33         0.5710   47.2000  -51.8640 O.co2     1 B5F        -0.6449
     24 C4'        -0.0730   50.4890  -52.6140 C.ar      1 B5F         0.0925
     25 O41         1.7930   52.8220  -43.6870 O.co2     1 B5F        -0.6380
     26 O42         2.5660   55.2380  -43.3050 O.co2     1 B5F        -0.6380
     27 O43         0.4560   54.7870  -44.6940 O.co2     1 B5F        -0.6380
     28 C5'        -0.9190   51.4100  -51.9690 C.ar      1 B5F         0.1973
     29 O5'        -2.1280   51.8360  -52.4690 O.3       1 B5F        -0.2125
     30 P5'        -3.0380   50.8340  -53.3770 P.3       1 B5F         0.1422
     31 O51        -2.2550   50.5950  -54.7650 O.co2     1 B5F        -0.6449
     32 O52        -3.1020   49.4110  -52.6170 O.co2     1 B5F        -0.6449
     33 O53        -4.3770   51.4090  -53.6400 O.co2     1 B5F        -0.6449
     34 C6'        -0.4770   52.0260  -50.7910 C.ar      1 B5F         0.0568
     35 O61         3.8610   49.7890  -47.9180 O.co2     1 B5F        -0.6418
     36 O62         2.3680   49.0650  -45.9080 O.co2     1 B5F        -0.6418
     37 O63         2.2040   47.8460  -48.1220 O.co2     1 B5F        -0.6418
     38 H           2.1324   55.4141  -47.8457 H         1 B5F         0.0773
     39 H           2.2517   51.5991  -45.8818 H         1 B5F         0.0773
     40 H           2.5804   50.5579  -50.4899 H         1 B5F         0.0909
     41 H          -0.3779   50.0532  -53.5654 H         1 B5F         0.1273
     42 H          -1.1132   52.7638  -50.3020 H         1 B5F         0.0909
@<TRIPOS>BOND
     1    1    2 ar 
     2    1   10 ar 
     3    1   13 1  
     4    2    3 1  
     5    2    5 ar 
     6    3    4 1  
     7    4   15 ar 
     8    4   16 ar 
     9    4   17 ar 
    10    5    6 ar 
    11    6    7 1  
    12    6    9 ar 
    13    7    8 1  
    14    8   25 ar 
    15    8   26 ar 
    16    8   27 ar 
    17    9   10 ar 
    18   10   11 1  
    19   11   12 1  
    20   12   35 ar 
    21   12   36 ar 
    22   12   37 ar 
    23   13   14 ar 
    24   13   34 ar 
    25   14   18 ar 
    26   18   19 1  
    27   18   24 ar 
    28   19   20 1  
    29   20   21 ar 
    30   20   22 ar 
    31   20   23 ar 
    32   24   28 ar 
    33   28   29 1  
    34   28   34 ar 
    35   29   30 1  
    36   30   31 ar 
    37   30   32 ar 
    38   30   33 ar 
    39    5   38 1  
    40    9   39 1  
    41   14   40 1  
    42   24   41 1  
    43   34   42 1  
@<TRIPOS>SUBSTRUCTURE
     1 B5F         1

