2jiw_ligand
  -I-interpret- 

 32 32  0  0  0  0  0  0  0  0999 V2000
    3.8560  -11.6010    1.6320 C   0  0  0  0  0
    3.6780  -12.4890    0.5360 O   0  0  0  0  0
    5.2040  -11.8560    2.2780 C   0  0  0  0  0
    5.2360  -12.5560    3.4270 C   0  0  0  0  0
    6.5420  -12.9220    4.0860 C   0  0  0  0  0
    6.9880  -14.2130    3.5420 N   0  3  0  0  0
    7.6230  -11.8170    3.9440 C   0  0  0  0  0
    7.9530  -11.1880    5.2270 N   0  0  0  0  0
    7.0510  -10.5950    6.0190 C   0  0  0  0  0
    5.8820  -10.5340    5.7280 O   0  0  0  0  0
    7.5410  -10.0140    7.3020 C   0  0  0  0  0
    7.3210  -10.7480    2.8830 C   0  0  0  0  0
    8.5530  -10.1950    2.4070 O   0  0  0  0  0
    6.5060  -11.3340    1.7140 C   0  0  0  0  0
    6.2800  -10.3080    0.7430 O   0  0  0  0  0
    3.0658  -11.7661    2.3645 H   0  0  0  0  0
    3.8137  -10.5718    1.2754 H   0  0  0  0  0
    2.8241  -12.3257    0.1287 H   0  0  0  0  0
    4.2990  -12.8646    3.8906 H   0  0  0  0  0
    6.3822  -13.0134    5.1603 H   0  0  0  0  0
    6.2466  -14.9038    3.6580 H   0  0  0  0  0
    7.2033  -14.1067    2.5507 H   0  0  0  0  0
    7.8225  -14.5209    4.0413 H   0  0  0  0  0
    8.4978  -12.3579    3.5830 H   0  0  0  0  0
    8.9257  -11.2032    5.5336 H   0  0  0  0  0
    7.3234   -8.9461    7.3223 H   0  0  0  0  0
    7.0395  -10.5043    8.1364 H   0  0  0  0  0
    8.6171  -10.1684    7.3818 H   0  0  0  0  0
    6.7193   -9.9619    3.3392 H   0  0  0  0  0
    8.3672   -9.5264    1.7436 H   0  0  0  0  0
    7.0373  -12.1493    1.2230 H   0  0  0  0  0
    5.7723  -10.6673    0.0117 H   0  0  0  0  0
  1  2  1  0  0  0
  1  3  1  0  0  0
  3  4  2  0  0  0
  3 14  1  0  0  0
  4  5  1  0  0  0
  5  6  1  0  0  0
  5  7  1  0  0  0
  7  8  1  0  0  0
  7 12  1  0  0  0
  8  9  1  0  0  0
  9 10  2  0  0  0
  9 11  1  0  0  0
 12 13  1  0  0  0
 12 14  1  0  0  0
 14 15  1  0  0  0
  1 16  1  0  0  0
  1 17  1  0  0  0
  2 18  1  0  0  0
  4 19  1  0  0  0
  5 20  1  0  0  0
  6 21  1  0  0  0
  6 22  1  0  0  0
  6 23  1  0  0  0
  7 24  1  0  0  0
  8 25  1  0  0  0
 11 26  1  0  0  0
 11 27  1  0  0  0
 11 28  1  0  0  0
 12 29  1  0  0  0
 13 30  1  0  0  0
 14 31  1  0  0  0
 15 32  1  0  0  0
M  END
$$$$
