6au9_ligand
  -I-interpret- 

 28 29  0  0  0  0  0  0  0  0999 V2000
   33.6270   75.8080   62.6980 C   0  0  0  0  0
   29.5770   75.0350   59.7790 C   0  0  0  0  0
   31.5490   75.9660   60.7760 C   0  0  0  0  0
   37.3340   79.5840   63.6490 C   0  0  0  0  0
   36.2750   79.3600   62.6350 C   0  0  0  0  0
   35.3760   78.3550   62.7660 C   0  0  0  0  0
   34.6480   77.8720   61.6010 C   0  0  0  0  0
   33.5940   76.8270   61.7460 C   0  0  0  0  0
   32.5980   74.8480   62.6960 C   0  0  0  0  0
   31.5580   74.9290   61.7470 C   0  0  0  0  0
   29.3150   74.5350   61.1830 C   0  0  0  0  0
   32.5740   76.9000   60.7930 C   0  0  0  0  0
   38.5550   79.7210   63.0780 O   0  0  0  0  0
   37.2840   79.2400   64.8210 O   0  0  0  0  0
   36.4980   80.1070   61.5310 O   0  0  0  0  0
   34.9570   78.2550   60.4770 O   0  0  0  0  0
   30.5180   74.0120   61.7570 O   0  0  0  0  0
   30.5690   76.0720   59.7880 O   0  0  0  0  0
   34.4339   75.7563   63.4290 H   0  0  0  0  0
   28.6504   75.4367   59.3689 H   0  0  0  0  0
   29.9389   74.2059   59.1710 H   0  0  0  0  0
   35.1975   77.9078   63.7439 H   0  0  0  0  0
   32.6048   74.0410   63.4287 H   0  0  0  0  0
   28.5658   73.7442   61.1450 H   0  0  0  0  0
   28.9597   75.3638   61.7953 H   0  0  0  0  0
   32.5844   77.7011   60.0539 H   0  0  0  0  0
   38.4506   79.9931   62.1633 H   0  0  0  0  0
   37.1890   80.7478   61.7138 H   0  0  0  0  0
  8  1  4  0  0  0
  1  9  4  0  0  0
  2 11  1  0  0  0
 18  2  1  0  0  0
  3 10  4  0  0  0
 12  3  4  0  0  0
  3 18  1  0  0  0
  5  4  1  0  0  0
  4 13  1  0  0  0
  4 14  2  0  0  0
  6  5  2  0  0  0
  5 15  1  0  0  0
  7  6  1  0  0  0
  8  7  1  0  0  0
  7 16  2  0  0  0
  8 12  4  0  0  0
  9 10  4  0  0  0
 10 17  1  0  0  0
 11 17  1  0  0  0
  1 19  1  0  0  0
  2 20  1  0  0  0
  2 21  1  0  0  0
  6 22  1  0  0  0
  9 23  1  0  0  0
 11 24  1  0  0  0
 11 25  1  0  0  0
 12 26  1  0  0  0
 13 27  1  0  0  0
 15 28  1  0  0  0
M  END
$$$$
