4pnt_ligand
  -I-interpret- 

 19 20  0  0  0  0  0  0  0  0999 V2000
   26.9000   48.4820    1.0920 O   0  0  0  0  0
   25.8560   49.1120    0.4490 C   0  0  0  0  0
   25.6380   50.4880    0.5340 C   0  0  0  0  0
   24.4170   51.0440   -0.1160 C   0  0  0  0  0
   23.5520   50.2410   -0.8790 C   0  0  0  0  0
   23.7890   48.8230   -0.9370 C   0  0  0  0  0
   22.8920   47.8660   -1.6240 C   0  0  0  0  0
   21.9140   48.3940   -2.3670 O   0  0  0  0  0
   23.0840   46.5450   -1.6900 N   0  0  0  0  0
   24.1580   46.0080   -0.9380 C   0  0  0  0  0
   25.0900   46.7850   -0.2650 C   0  0  0  0  0
   24.9280   48.2270   -0.2590 C   0  0  0  0  0
   26.8691   47.5411    0.9039 H   0  0  0  0  0
   26.3391   51.1363    1.0596 H   0  0  0  0  0
   24.1887   52.1031    0.0039 H   0  0  0  0  0
   22.7152   50.6852   -1.4180 H   0  0  0  0  0
   22.4825   45.9484   -2.2580 H   0  0  0  0  0
   24.2577   44.9239   -0.8852 H   0  0  0  0  0
   25.9301   46.3198    0.2507 H   0  0  0  0  0
  1  2  1  0  0  0
  2  3  4  0  0  0
  2 12  4  0  0  0
  3  4  4  0  0  0
  4  5  4  0  0  0
  5  6  4  0  0  0
  6  7  1  0  0  0
  6 12  4  0  0  0
  7  8  2  0  0  0
  7  9  1  0  0  0
  9 10  1  0  0  0
 10 11  2  0  0  0
 11 12  1  0  0  0
  1 13  1  0  0  0
  3 14  1  0  0  0
  4 15  1  0  0  0
  5 16  1  0  0  0
  9 17  1  0  0  0
 10 18  1  0  0  0
 11 19  1  0  0  0
M  END
$$$$
