1yt9_ligand
  -I-interpret- 

 94 97  0  0  0  0  0  0  0  0999 V2000
    6.3730   29.4830    8.2730 N   0  0  0  0  0
   15.2770   22.0870    5.0540 N   0  0  0  0  0
   14.3030   23.0320    5.6630 C   0  0  0  0  0
   11.4640   24.3210    5.3300 N   0  0  0  0  0
   19.6790   17.7690    9.3510 N   0  0  0  0  0
   14.9740   23.6050    6.9410 C   0  0  0  0  0
   16.8520   19.3490    5.2390 N   0  0  0  0  0
   12.7340   25.0610    5.2490 C   0  0  0  0  0
   16.3560   18.3530    6.2030 C   0  0  0  0  0
   14.9120   24.9260    4.2720 O   0  0  0  0  0
    9.7350   23.1750    6.7810 O   0  0  0  0  0
   11.7500   24.0110    7.8670 O   0  0  0  0  0
   13.7500   20.3470    4.9130 O   0  0  0  0  0
   14.8870   20.8020    4.7380 C   0  0  0  0  0
   13.8230   24.1230    4.6640 C   0  0  0  0  0
   10.6970   23.6990    3.0050 C   0  0  0  0  0
   10.5340   24.6010    4.2430 C   0  0  0  0  0
   10.6920   24.2350    6.9280 S   0  0  0  0  0
   15.4670   22.5430    7.8850 C   0  0  0  0  0
   16.8390   22.4820    8.2150 C   0  0  0  0  0
   17.3180   21.4890    9.0850 C   0  0  0  0  0
   16.4460   20.5350    9.6420 C   0  0  0  0  0
   15.0690   20.5820    9.3210 C   0  0  0  0  0
   14.5850   21.5820    8.4460 C   0  0  0  0  0
    9.6880   24.0850    1.9260 C   0  0  0  0  0
   10.5030   22.2250    3.3860 C   0  0  0  0  0
   16.0070   19.8880    4.1370 C   0  0  0  0  0
   18.1460   19.6980    5.4850 C   0  0  0  0  0
   15.4000   18.7080    3.3060 C   0  0  0  0  0
   14.5110   19.1900    2.1480 C   0  0  0  0  0
   16.5090   17.8060    2.7270 C   0  0  0  0  0
   18.5880   19.0060    6.5610 N   0  0  0  0  0
   18.8230   20.5030    4.8510 O   0  0  0  0  0
   17.5590   18.1150    7.1140 C   0  0  0  0  0
    8.4480   25.8550    6.9890 C   0  0  0  0  0
    7.7120   26.9860    7.4070 C   0  0  0  0  0
    8.3140   27.9420    8.2650 C   0  0  0  0  0
    9.6530   27.7550    8.6980 C   0  0  0  0  0
   10.3850   26.6230    8.2800 C   0  0  0  0  0
    9.7840   25.6760    7.4280 C   0  0  0  0  0
    7.5860   29.1260    8.7280 C   0  0  0  0  0
   19.9500   19.1240    7.1220 C   0  0  0  0  0
   20.0250   18.9940    8.6170 C   0  0  0  0  0
   20.4210   19.9790    9.4390 C   0  0  0  0  0
   19.8350   17.9130   10.6740 C   0  0  0  0  0
   20.4090   19.5340   11.1270 S   0  0  0  0  0
    5.7700   30.6300    8.7830 O   0  0  0  0  0
   19.5590   16.8170   11.7020 C   0  0  0  0  0
   16.2337   22.3892    4.8700 H   0  0  0  0  0
   13.3815   22.5167    5.9340 H   0  0  0  0  0
   14.2238   24.1923    7.4705 H   0  0  0  0  0
   15.8378   24.1895    6.6243 H   0  0  0  0  0
   13.0303   25.3960    6.2430 H   0  0  0  0  0
   12.6131   25.9328    4.6059 H   0  0  0  0  0
   16.0081   17.4396    5.7206 H   0  0  0  0  0
   15.4783   18.6988    6.7491 H   0  0  0  0  0
   15.6028   24.3694    3.9052 H   0  0  0  0  0
   13.3906   23.5847    3.8206 H   0  0  0  0  0
   11.7055   23.8368    2.6151 H   0  0  0  0  0
   10.7264   25.6232    3.9173 H   0  0  0  0  0
    9.5308   24.4264    4.6319 H   0  0  0  0  0
   17.5306   23.2104    7.7916 H   0  0  0  0  0
   18.3791   21.4567    9.3321 H   0  0  0  0  0
   16.8281   19.7670   10.3145 H   0  0  0  0  0
   14.3831   19.8496    9.7468 H   0  0  0  0  0
   13.5237   21.6154    8.1996 H   0  0  0  0  0
    8.6773   23.9705    2.3178 H   0  0  0  0  0
    9.8502   25.1223    1.6331 H   0  0  0  0  0
    9.8187   23.4367    1.0595 H   0  0  0  0  0
   11.2466   21.9428    4.1313 H   0  0  0  0  0
    9.5033   22.0860    3.7975 H   0  0  0  0  0
   10.6218   21.6031    2.4988 H   0  0  0  0  0
   16.6155   20.4918    3.4637 H   0  0  0  0  0
   14.7822   18.1441    4.0049 H   0  0  0  0  0
   13.6838   19.7772    2.5468 H   0  0  0  0  0
   15.1019   19.8060    1.4701 H   0  0  0  0  0
   14.1193   18.3274    1.6090 H   0  0  0  0  0
   17.1525   18.3966    2.0750 H   0  0  0  0  0
   17.1000   17.3899    3.5429 H   0  0  0  0  0
   16.0555   16.9962    2.1554 H   0  0  0  0  0
   17.8731   17.0713    7.1280 H   0  0  0  0  0
   17.3399   18.3278    8.1603 H   0  0  0  0  0
    7.9884   25.1196    6.3286 H   0  0  0  0  0
    6.6842   27.1238    7.0712 H   0  0  0  0  0
   10.1179   28.4890    9.3562 H   0  0  0  0  0
   11.4124   26.4820    8.6155 H   0  0  0  0  0
    8.0554   29.7537    9.4854 H   0  0  0  0  0
   20.3118   20.1211    6.8711 H   0  0  0  0  0
   20.5385   18.3082    6.7021 H   0  0  0  0  0
   20.7221   20.9650    9.0852 H   0  0  0  0  0
    4.9147   30.7535    8.3648 H   0  0  0  0  0
   18.5139   16.5142   11.6367 H   0  0  0  0  0
   20.2004   15.9596   11.4982 H   0  0  0  0  0
   19.7664   17.1980   12.7020 H   0  0  0  0  0
 41  1  2  0  0  0
  1 47  1  0  0  0
  2  3  1  0  0  0
 14  2  1  0  0  0
  3  6  1  0  0  0
  3 15  1  0  0  0
  8  4  1  0  0  0
  4 17  1  0  0  0
  4 18  1  0  0  0
 43  5  4  0  0  0
  5 45  4  0  0  0
  6 19  1  0  0  0
  9  7  1  0  0  0
  7 27  1  0  0  0
 28  7  1  0  0  0
 15  8  1  0  0  0
 34  9  1  0  0  0
 15 10  1  0  0  0
 18 11  2  0  0  0
 18 12  2  0  0  0
 14 13  2  0  0  0
 27 14  1  0  0  0
 17 16  1  0  0  0
 16 25  1  0  0  0
 16 26  1  0  0  0
 18 40  1  0  0  0
 19 20  4  0  0  0
 19 24  4  0  0  0
 20 21  4  0  0  0
 21 22  4  0  0  0
 23 22  4  0  0  0
 24 23  4  0  0  0
 27 29  1  0  0  0
 32 28  1  0  0  0
 28 33  2  0  0  0
 29 30  1  0  0  0
 29 31  1  0  0  0
 32 34  1  0  0  0
 42 32  1  0  0  0
 35 36  4  0  0  0
 40 35  4  0  0  0
 36 37  4  0  0  0
 38 37  4  0  0  0
 37 41  1  0  0  0
 39 38  4  0  0  0
 40 39  4  0  0  0
 42 43  1  0  0  0
 43 44  4  0  0  0
 44 46  4  0  0  0
 45 46  4  0  0  0
 45 48  1  0  0  0
  2 49  1  0  0  0
  3 50  1  0  0  0
  6 51  1  0  0  0
  6 52  1  0  0  0
  8 53  1  0  0  0
  8 54  1  0  0  0
  9 55  1  0  0  0
  9 56  1  0  0  0
 10 57  1  0  0  0
 15 58  1  0  0  0
 16 59  1  0  0  0
 17 60  1  0  0  0
 17 61  1  0  0  0
 20 62  1  0  0  0
 21 63  1  0  0  0
 22 64  1  0  0  0
 23 65  1  0  0  0
 24 66  1  0  0  0
 25 67  1  0  0  0
 25 68  1  0  0  0
 25 69  1  0  0  0
 26 70  1  0  0  0
 26 71  1  0  0  0
 26 72  1  0  0  0
 27 73  1  0  0  0
 29 74  1  0  0  0
 30 75  1  0  0  0
 30 76  1  0  0  0
 30 77  1  0  0  0
 31 78  1  0  0  0
 31 79  1  0  0  0
 31 80  1  0  0  0
 34 81  1  0  0  0
 34 82  1  0  0  0
 35 83  1  0  0  0
 36 84  1  0  0  0
 38 85  1  0  0  0
 39 86  1  0  0  0
 41 87  1  0  0  0
 42 88  1  0  0  0
 42 89  1  0  0  0
 44 90  1  0  0  0
 47 91  1  0  0  0
 48 92  1  0  0  0
 48 93  1  0  0  0
 48 94  1  0  0  0
M  END
$$$$
