### 
### Created by X-TOOL on Mon Sep 10 21:12:48 2018
### 

@<TRIPOS>MOLECULE
1g1e_ligand
  275   275     1     0     0
SMALL
GAST_HUCK


@<TRIPOS>ATOM
      1 N          -0.9340   12.2250   -2.6890 N.4       1 ARG         0.2379
      2 CA          0.3490   11.4720   -2.8080 C.3       1 ARG         0.0651
      3 C           0.1830   10.2230   -3.6770 C.2       1 ARG         0.2267
      4 O          -0.8980    9.6340   -3.7290 O.2       1 ARG        -0.3907
      5 CB          0.8410   11.0760   -1.4070 C.3       1 ARG         0.0110
      6 CG          1.2710   12.2470   -0.5300 C.3       1 ARG        -0.0125
      7 CD          0.0790   13.0170    0.0260 C.3       1 ARG         0.0629
      8 NE          0.4880   14.0750    0.9520 N.pl3     1 ARG        -0.2723
      9 CZ          0.9960   13.8570    2.1700 C.cat     1 ARG         0.2882
     10 NH1         1.1210   12.6190    2.6430 N.pl3     1 ARG        -0.2849
     11 NH2         1.3670   14.8860    2.9250 N.pl3     1 ARG        -0.2849
     12 N           1.2610    9.8280   -4.3580 N.am      1 MET        -0.2610
     13 CA          1.2320    8.6510   -5.2290 C.3       1 MET         0.1318
     14 C           1.5250    7.3680   -4.4450 C.2       1 MET         0.2040
     15 O           0.7240    6.4440   -4.4670 O.2       1 MET        -0.3944
     16 CB          2.2120    8.8200   -6.4030 C.3       1 MET        -0.0034
     17 CG          3.6630    9.0410   -5.9910 C.3       1 MET        -0.0024
     18 SD          4.7100    9.5470   -7.3710 S.3       1 MET        -0.1639
     19 CE          4.4700    8.1870   -8.5110 C.3       1 MET        -0.0181
     20 N           2.6630    7.3440   -3.7340 N.am      1 ASN        -0.2616
     21 CA          3.1010    6.2040   -2.9010 C.3       1 ASN         0.1476
     22 C           2.0620    5.0650   -2.7550 C.2       1 ASN         0.2063
     23 O           1.9840    4.1870   -3.6140 O.2       1 ASN        -0.3942
     24 CB          3.5560    6.7210   -1.5220 C.3       1 ASN         0.0773
     25 CG          2.6160    7.7500   -0.8810 C.2       1 ASN         0.1780
     26 OD1         2.9790    8.3830    0.1090 O.2       1 ASN        -0.3970
     27 ND2         1.3970    7.9090   -1.4100 N.am      1 ASN        -0.3007
     28 N           1.2990    5.0600   -1.6520 N.am      1 ILE        -0.2633
     29 CA          0.3040    4.0130   -1.3860 C.3       1 ILE         0.1335
     30 C          -0.6110    3.7180   -2.5620 C.2       1 ILE         0.2042
     31 O          -0.7100    2.5710   -2.9940 O.2       1 ILE        -0.3944
     32 CB         -0.6020    4.3330   -0.1800 C.3       1 ILE        -0.0037
     33 CG1        -0.9990    5.8100   -0.1270 C.3       1 ILE        -0.0491
     34 CG2         0.0680    3.9200    1.1040 C.3       1 ILE        -0.0582
     35 CD1        -2.1900    6.0600    0.7630 C.3       1 ILE        -0.0648
     36 N          -1.3060    4.7390   -3.0540 N.am      1 GLN        -0.2636
     37 CA         -2.2370    4.5490   -4.1520 C.3       1 GLN         0.1330
     38 C          -1.5150    3.9850   -5.3750 C.2       1 GLN         0.2040
     39 O          -2.0590    3.1630   -6.1120 O.2       1 GLN        -0.3944
     40 CB         -2.9390    5.8660   -4.5000 C.3       1 GLN         0.0045
     41 CG         -3.7200    6.4670   -3.3380 C.3       1 GLN         0.0412
     42 CD         -4.3610    7.7990   -3.6860 C.2       1 GLN         0.1737
     43 OE1        -3.6740    8.7540   -4.0470 O.2       1 GLN        -0.3973
     44 NE2        -5.6830    7.8720   -3.5730 N.am      1 GLN        -0.3009
     45 N          -0.2740    4.4290   -5.5540 N.am      1 MET        -0.2637
     46 CA          0.5790    3.9870   -6.6470 C.3       1 MET         0.1317
     47 C           0.8350    2.4800   -6.5480 C.2       1 MET         0.2039
     48 O           0.8560    1.7720   -7.5560 O.2       1 MET        -0.3944
     49 CB          1.9060    4.7580   -6.5860 C.3       1 MET        -0.0034
     50 CG          2.8870    4.3880   -7.6890 C.3       1 MET        -0.0024
     51 SD          4.4920    5.1900   -7.5040 S.3       1 MET        -0.1639
     52 CE          5.1040    4.4040   -6.0150 C.3       1 MET        -0.0181
     53 N           1.0220    2.0070   -5.3150 N.am      1 LEU        -0.2637
     54 CA          1.2720    0.6010   -5.0370 C.3       1 LEU         0.1312
     55 C          -0.0340   -0.2060   -5.0220 C.2       1 LEU         0.2039
     56 O          -0.0850   -1.3110   -5.5600 O.2       1 LEU        -0.3944
     57 CB          2.0330    0.5030   -3.7130 C.3       1 LEU        -0.0101
     58 CG          1.8820   -0.7960   -2.9290 C.3       1 LEU        -0.0425
     59 CD1         2.7070   -1.8990   -3.5610 C.3       1 LEU        -0.0625
     60 CD2         2.2880   -0.5920   -1.4770 C.3       1 LEU        -0.0625
     61 N          -1.0920    0.3570   -4.4270 N.am      1 LEU        -0.2637
     62 CA         -2.4030   -0.3120   -4.3810 C.3       1 LEU         0.1312
     63 C          -2.8860   -0.6570   -5.7860 C.2       1 LEU         0.2039
     64 O          -3.2100   -1.8120   -6.0680 O.2       1 LEU        -0.3944
     65 CB         -3.4400    0.5930   -3.7100 C.3       1 LEU        -0.0101
     66 CG         -3.3040    0.7460   -2.2000 C.3       1 LEU        -0.0425
     67 CD1        -4.0430    1.9880   -1.7200 C.3       1 LEU        -0.0625
     68 CD2        -3.8420   -0.4940   -1.5060 C.3       1 LEU        -0.0625
     69 N          -2.9240    0.3520   -6.6640 N.am      1 GLU        -0.2636
     70 CA         -3.3550    0.1550   -8.0490 C.3       1 GLU         0.1325
     71 C          -2.6380   -1.0430   -8.6660 C.2       1 GLU         0.2040
     72 O          -3.2040   -1.7520   -9.5010 O.2       1 GLU        -0.3944
     73 CB         -3.0900    1.4130   -8.8800 C.3       1 GLU        -0.0008
     74 CG         -3.9810    2.5890   -8.5060 C.3       1 GLU         0.0044
     75 CD         -3.6110    3.8620   -9.2440 C.2       1 GLU         0.0350
     76 OE1        -2.4830    4.3610   -9.0410 O.co2     1 GLU        -0.5690
     77 OE2        -4.4480    4.3600  -10.0260 O.co2     1 GLU        -0.5690
     78 N          -1.3950   -1.2740   -8.2280 N.am      1 ALA        -0.2640
     79 CA         -0.6020   -2.3980   -8.7090 C.3       1 ALA         0.1282
     80 C          -1.3690   -3.6970   -8.5620 C.2       1 ALA         0.2036
     81 O          -1.5860   -4.4040   -9.5410 O.2       1 ALA        -0.3944
     82 CB          0.7040   -2.5010   -7.9440 C.3       1 ALA        -0.0244
     83 N          -1.7720   -4.0050   -7.3250 N.am      1 ALA        -0.2640
     84 CA         -2.5100   -5.2270   -7.0400 C.3       1 ALA         0.1282
     85 C          -3.6070   -5.4680   -8.0680 C.2       1 ALA         0.2037
     86 O          -3.6350   -6.5110   -8.7120 O.2       1 ALA        -0.3944
     87 CB         -3.1170   -5.1920   -5.6500 C.3       1 ALA        -0.0244
     88 N          -4.5030   -4.4890   -8.2210 N.am      1 ASP        -0.2622
     89 CA         -5.6040   -4.5890   -9.1820 C.3       1 ASP         0.1423
     90 C          -5.0940   -5.0300  -10.5540 C.2       1 ASP         0.2057
     91 O          -5.7820   -5.7500  -11.2780 O.2       1 ASP        -0.3943
     92 CB         -6.3350   -3.2460   -9.3070 C.3       1 ASP         0.0406
     93 CG         -6.9600   -2.7910   -7.9990 C.2       1 ASP         0.0393
     94 OD1        -6.2060   -2.5240   -7.0380 O.co2     1 ASP        -0.5688
     95 OD2        -8.2040   -2.7030   -7.9370 O.co2     1 ASP        -0.5688
     96 N          -3.8810   -4.5960  -10.8970 N.am      1 TYR        -0.2620
     97 CA         -3.2650   -4.9430  -12.1720 C.3       1 TYR         0.1390
     98 C          -2.6530   -6.3400  -12.1270 C.2       1 TYR         0.2057
     99 O          -2.9130   -7.1590  -13.0110 O.2       1 TYR        -0.3942
    100 CB         -2.2090   -3.8900  -12.5440 C.3       1 TYR         0.0163
    101 CG         -1.4950   -4.1360  -13.8590 C.ar      1 TYR        -0.0493
    102 CD1        -0.6310   -5.2130  -14.0200 C.ar      1 TYR        -0.0685
    103 CD2        -1.6820   -3.2800  -14.9380 C.ar      1 TYR        -0.0685
    104 CE1         0.0260   -5.4290  -15.2170 C.ar      1 TYR        -0.0398
    105 CE2        -1.0310   -3.4910  -16.1380 C.ar      1 TYR        -0.0398
    106 CZ         -0.1780   -4.5660  -16.2720 C.ar      1 TYR         0.0805
    107 OH          0.4760   -4.7780  -17.4650 O.3       1 TYR        -0.3376
    108 N          -1.8520   -6.6170  -11.0980 N.am      1 LEU        -0.2636
    109 CA         -1.2280   -7.9350  -10.9660 C.3       1 LEU         0.1312
    110 C          -2.2940   -9.0120  -10.7560 C.2       1 LEU         0.2039
    111 O          -2.0890  -10.1700  -11.1240 O.2       1 LEU        -0.3944
    112 CB         -0.2260   -8.0010   -9.8010 C.3       1 LEU        -0.0101
    113 CG          0.2430   -6.6730   -9.2020 C.3       1 LEU        -0.0425
    114 CD1         1.1320   -6.9440   -8.0060 C.3       1 LEU        -0.0625
    115 CD2         0.9820   -5.8170  -10.2280 C.3       1 LEU        -0.0625
    116 N          -3.4310   -8.6260  -10.1550 N.am      1 GLU        -0.2636
    117 CA         -4.5220   -9.5710   -9.8940 C.3       1 GLU         0.1324
    118 C          -4.9310  -10.3270  -11.1590 C.2       1 GLU         0.2034
    119 O          -5.0790  -11.5500  -11.1330 O.2       1 GLU        -0.3944
    120 CB         -5.7330   -8.8510   -9.2920 C.3       1 GLU        -0.0008
    121 CG         -5.5770   -8.5370   -7.8100 C.3       1 GLU         0.0044
    122 CD         -6.7110   -7.6890   -7.2640 C.2       1 GLU         0.0350
    123 OE1        -7.8750   -8.1380   -7.3250 O.co2     1 GLU        -0.5690
    124 OE2        -6.4320   -6.5760   -6.7690 O.co2     1 GLU        -0.5690
    125 N          -5.1030   -9.6000  -12.2630 N.am      1 ARG        -0.2695
    126 CA         -5.4840  -10.2170  -13.5340 C.3       1 ARG         0.0945
    127 C          -4.3170  -11.0050  -14.1300 C.2       1 ARG         0.0601
    128 O          -4.5560  -12.1240  -14.6310 O.co2     1 ARG        -0.5666
    129 CB         -5.9680   -9.1610  -14.5370 C.3       1 ARG        -0.0148
    130 CG         -7.3190   -8.5440  -14.1930 C.3       1 ARG        -0.0162
    131 CD         -7.2690   -7.7490  -12.8970 C.3       1 ARG         0.0627
    132 NE         -8.5460   -7.1020  -12.5920 N.pl3     1 ARG        -0.2723
    133 CZ         -9.6580   -7.7560  -12.2380 C.cat     1 ARG         0.2882
    134 NH1        -9.6510   -9.0790  -12.0970 N.pl3     1 ARG        -0.2849
    135 NH2       -10.7770   -7.0790  -12.0110 N.pl3     1 ARG        -0.2849
    136 OXT        -3.1740  -10.4970  -14.0920 O.co2     1 ARG        -0.5666
    137 H1         -0.7931   13.0398   -2.1125 H         1 ARG         0.2015
    138 H2         -1.6333   11.6330   -2.2688 H         1 ARG         0.2015
    139 H3         -1.2421   12.5108   -3.6052 H         1 ARG         0.2015
    140 H4          1.0984   12.1266   -3.2768 H         1 ARG         0.1098
    141 H5          1.7016   10.4009   -1.5238 H         1 ARG         0.0347
    142 H6          0.0253   10.5451   -0.8944 H         1 ARG         0.0347
    143 H7          1.8866   12.9325   -1.1309 H         1 ARG         0.0302
    144 H8          1.8664   11.8605    0.3103 H         1 ARG         0.0302
    145 H9         -0.5792   12.3149    0.5587 H         1 ARG         0.0689
    146 H10        -0.4708   13.4719   -0.8111 H         1 ARG         0.0689
    147 H11         0.3772   15.0519    0.6451 H         1 ARG         0.2642
    148 H12         1.5137   12.4638    3.5825 H         1 ARG         0.2615
    149 H13         0.8251   11.8162    2.0695 H         1 ARG         0.2615
    150 H14         1.2738   15.8473    2.5672 H         1 ARG         0.2615
    151 H15         1.7477   14.7221    3.8679 H         1 ARG         0.2615
    152 H16         2.1101   10.3491   -4.2712 H         1 MET         0.1884
    153 H17         0.2176    8.5650   -5.6455 H         1 MET         0.0800
    154 H18         1.8885    9.6867   -6.9981 H         1 MET         0.0320
    155 H19         2.1656    7.9121   -7.0222 H         1 MET         0.0320
    156 H20         4.0578    8.1020   -5.5758 H         1 MET         0.0378
    157 H21         3.6943    9.8248   -5.2198 H         1 MET         0.0378
    158 H22         5.0623    8.3626   -9.4211 H         1 MET         0.0340
    159 H23         3.4047    8.1137   -8.7753 H         1 MET         0.0340
    160 H24         4.7956    7.2493   -8.0369 H         1 MET         0.0340
    161 H25         3.2535    8.1503   -3.7701 H         1 ASN         0.1885
    162 H26         3.9787    5.7649   -3.3978 H         1 ASN         0.0826
    163 H27         4.5451    7.1875   -1.6403 H         1 ASN         0.0551
    164 H28         3.6357    5.8597   -0.8424 H         1 ASN         0.0551
    165 H29         0.7625    8.5724   -1.0134 H         1 ASN         0.1814
    166 H30         1.1207    7.3644   -2.2019 H         1 ASN         0.1814
    167 H31         1.4118    5.7970   -0.9856 H         1 ILE         0.1883
    168 H32         0.8651    3.0951   -1.1566 H         1 ILE         0.0803
    169 H33        -1.5240    3.7430   -0.2885 H         1 ILE         0.0345
    170 H34        -1.2441    6.1455   -1.1455 H         1 ILE         0.0267
    171 H35        -0.1462    6.3903    0.2550 H         1 ILE         0.0267
    172 H36         0.3457    2.8571    1.0473 H         1 ILE         0.0235
    173 H37        -0.6244    4.0737    1.9448 H         1 ILE         0.0235
    174 H38         0.9721    4.5274    1.2577 H         1 ILE         0.0235
    175 H39        -2.4290    7.1337    0.7626 H         1 ILE         0.0230
    176 H40        -1.9560    5.7368    1.7881 H         1 ILE         0.0230
    177 H41        -3.0539    5.4920    0.3876 H         1 ILE         0.0230
    178 H42        -1.1858    5.6512   -2.6622 H         1 GLN         0.1883
    179 H43        -3.0009    3.8234   -3.8360 H         1 GLN         0.0801
    180 H44        -3.6377    5.6791   -5.3288 H         1 GLN         0.0337
    181 H45        -2.1771    6.5923   -4.8194 H         1 GLN         0.0337
    182 H46        -3.0321    6.6182   -2.4930 H         1 GLN         0.0504
    183 H47        -4.5118    5.7620   -3.0447 H         1 GLN         0.0504
    184 H48        -6.1570    8.7255   -3.7895 H         1 GLN         0.1814
    185 H49        -6.2039    7.0734   -3.2715 H         1 GLN         0.1814
    186 H50         0.0902    5.0985   -4.9066 H         1 MET         0.1883
    187 H51         0.0802    4.2014   -7.6037 H         1 MET         0.0800
    188 H52         2.3819    4.5516   -5.6160 H         1 MET         0.0320
    189 H53         1.6857    5.8328   -6.6650 H         1 MET         0.0320
    190 H54         2.4558    4.6861   -8.6560 H         1 MET         0.0378
    191 H55         3.0361    3.2983   -7.6743 H         1 MET         0.0378
    192 H56         6.0999    4.8033   -5.7724 H         1 MET         0.0340
    193 H57         5.1736    3.3180   -6.1756 H         1 MET         0.0340
    194 H58         4.4145    4.6081   -5.1826 H         1 MET         0.0340
    195 H59         0.9889    2.6472   -4.5475 H         1 LEU         0.1883
    196 H60         1.9099    0.1933   -5.8350 H         1 LEU         0.0800
    197 H61         1.6859    1.3235   -3.0679 H         1 LEU         0.0315
    198 H62         3.1025    0.6368   -3.9329 H         1 LEU         0.0315
    199 H63         0.8240   -1.0959   -2.9548 H         1 LEU         0.0298
    200 H64         2.5847   -2.8261   -2.9817 H         1 LEU         0.0232
    201 H65         3.7675   -1.6069   -3.5658 H         1 LEU         0.0232
    202 H66         2.3676   -2.0647   -4.5941 H         1 LEU         0.0232
    203 H67         1.6795    0.2110   -1.0355 H         1 LEU         0.0232
    204 H68         3.3514   -0.3148   -1.4291 H         1 LEU         0.0232
    205 H69         2.1265   -1.5246   -0.9166 H         1 LEU         0.0232
    206 H70        -0.9896    1.2564   -4.0021 H         1 LEU         0.1883
    207 H71        -2.3049   -1.2399   -3.7984 H         1 LEU         0.0800
    208 H72        -4.4369    0.1779   -3.9193 H         1 LEU         0.0315
    209 H73        -3.3574    1.5934   -4.1599 H         1 LEU         0.0315
    210 H74        -2.2380    0.8548   -1.9513 H         1 LEU         0.0298
    211 H75        -3.9335    2.0812   -0.6294 H         1 LEU         0.0232
    212 H76        -5.1095    1.9017   -1.9753 H         1 LEU         0.0232
    213 H77        -3.6198    2.8782   -2.2084 H         1 LEU         0.0232
    214 H78        -3.2975   -1.3801   -1.8643 H         1 LEU         0.0232
    215 H79        -4.9127   -0.6054   -1.7322 H         1 LEU         0.0232
    216 H80        -3.7052   -0.3944   -0.4191 H         1 LEU         0.0232
    217 H81        -2.6503    1.2664   -6.3656 H         1 GLU         0.1883
    218 H82        -4.4367   -0.0446   -8.0522 H         1 GLU         0.0801
    219 H83        -3.2592    1.1718   -9.9398 H         1 GLU         0.0330
    220 H84        -2.0413    1.7113   -8.7347 H         1 GLU         0.0330
    221 H85        -3.8896    2.7699   -7.4248 H         1 GLU         0.0433
    222 H86        -5.0228    2.3321   -8.7481 H         1 GLU         0.0433
    223 H87        -0.9978   -0.6561   -7.5494 H         1 ALA         0.1883
    224 H88        -0.3776   -2.2369   -9.7737 H         1 ALA         0.0797
    225 H89         1.2848   -3.3547   -8.3234 H         1 ALA         0.0277
    226 H90         0.4920   -2.6481   -6.8747 H         1 ALA         0.0277
    227 H91         1.2822   -1.5751   -8.0793 H         1 ALA         0.0277
    228 H92        -1.5606   -3.3786   -6.5747 H         1 ALA         0.1883
    229 H93        -1.8028   -6.0682   -7.0869 H         1 ALA         0.0797
    230 H94        -3.6663   -6.1271   -5.4662 H         1 ALA         0.0277
    231 H95        -3.8080   -4.3396   -5.5730 H         1 ALA         0.0277
    232 H96        -2.3168   -5.0840   -4.9030 H         1 ALA         0.0277
    233 H97        -4.4196   -3.6634   -7.6629 H         1 ASP         0.1884
    234 H98        -6.3162   -5.3429   -8.8154 H         1 ASP         0.0819
    235 H99        -7.1306   -3.3478  -10.0598 H         1 ASP         0.0478
    236 H100       -5.6142   -2.4830   -9.6360 H         1 ASP         0.0478
    237 H101       -3.3773   -4.0135  -10.2590 H         1 TYR         0.1885
    238 H102       -4.0465   -4.9378  -12.9461 H         1 TYR         0.0821
    239 H103       -1.4537   -3.8668  -11.7447 H         1 TYR         0.0453
    240 H104       -2.7088   -2.9120  -12.6048 H         1 TYR         0.0453
    241 H105       -0.4697   -5.8950  -13.1930 H         1 TYR         0.0530
    242 H106       -2.3500   -2.4324  -14.8361 H         1 TYR         0.0530
    243 H107        0.6980   -6.2726  -15.3252 H         1 TYR         0.0525
    244 H108       -1.1900   -2.8148  -16.9702 H         1 TYR         0.0525
    245 H109        1.0207   -5.5529  -17.3929 H         1 TYR         0.2458
    246 H110       -1.6751   -5.9157  -10.4074 H         1 LEU         0.1883
    247 H111       -0.6873   -8.1496  -11.8996 H         1 LEU         0.0800
    248 H112        0.6660   -8.5337  -10.1622 H         1 LEU         0.0315
    249 H113       -0.6967   -8.5800   -8.9928 H         1 LEU         0.0315
    250 H114       -0.6420   -6.1146   -8.8629 H         1 LEU         0.0298
    251 H115        1.4689   -5.9893   -7.5758 H         1 LEU         0.0232
    252 H116        2.0059   -7.5314   -8.3243 H         1 LEU         0.0232
    253 H117        0.5669   -7.5080   -7.2494 H         1 LEU         0.0232
    254 H118        0.3249   -5.6286  -11.0898 H         1 LEU         0.0232
    255 H119        1.8855   -6.3465  -10.5647 H         1 LEU         0.0232
    256 H120        1.2680   -4.8593   -9.7687 H         1 LEU         0.0232
    257 H121       -3.5366   -7.6708   -9.8786 H         1 GLU         0.1883
    258 H122       -4.1619  -10.3073   -9.1604 H         1 GLU         0.0801
    259 H123       -6.6184   -9.4909   -9.4211 H         1 GLU         0.0330
    260 H124       -5.8814   -7.9057   -9.8346 H         1 GLU         0.0330
    261 H125       -4.6312   -7.9947   -7.6636 H         1 GLU         0.0433
    262 H126       -5.5468   -9.4843   -7.2517 H         1 GLU         0.0433
    263 H127       -4.9685   -8.6099  -12.2217 H         1 ARG         0.1875
    264 H128       -6.3114  -10.9157  -13.3410 H         1 ARG         0.0726
    265 H129       -6.0476   -9.6358  -15.5261 H         1 ARG         0.0307
    266 H130       -5.2208   -8.3547  -14.5763 H         1 ARG         0.0307
    267 H131       -8.0607   -9.3494  -14.0871 H         1 ARG         0.0301
    268 H132       -7.6211   -7.8724  -15.0101 H         1 ARG         0.0301
    269 H133       -6.4929   -6.9747  -12.9868 H         1 ARG         0.0689
    270 H134       -7.0127   -8.4314  -12.0732 H         1 ARG         0.0689
    271 H135       -8.5915   -6.0749  -12.6541 H         1 ARG         0.2642
    272 H136      -10.5130   -9.5724  -11.8241 H         1 ARG         0.2615
    273 H137       -8.7836   -9.6098  -12.2608 H         1 ARG         0.2615
    274 H138      -10.7899   -6.0547  -12.1182 H         1 ARG         0.2615
    275 H139      -11.6324   -7.5780  -11.7277 H         1 ARG         0.2615
@<TRIPOS>BOND
     1    1    2 1  
     2    2    3 1  
     3    2    5 1  
     4    3    4 2  
     5    3   12 am 
     6    5    6 1  
     7    6    7 1  
     8    7    8 1  
     9    8    9 ar 
    10    9   10 ar 
    11    9   11 ar 
    12   12   13 1  
    13   13   14 1  
    14   13   16 1  
    15   14   15 2  
    16   14   20 am 
    17   16   17 1  
    18   17   18 1  
    19   18   19 1  
    20   20   21 1  
    21   21   22 1  
    22   21   24 1  
    23   22   23 2  
    24   22   28 am 
    25   24   25 1  
    26   25   26 2  
    27   25   27 am 
    28   28   29 1  
    29   29   30 1  
    30   29   32 1  
    31   30   31 2  
    32   30   36 am 
    33   32   33 1  
    34   32   34 1  
    35   33   35 1  
    36   36   37 1  
    37   37   38 1  
    38   37   40 1  
    39   38   39 2  
    40   38   45 am 
    41   40   41 1  
    42   41   42 1  
    43   42   43 2  
    44   42   44 am 
    45   45   46 1  
    46   46   47 1  
    47   46   49 1  
    48   47   48 2  
    49   47   53 am 
    50   49   50 1  
    51   50   51 1  
    52   51   52 1  
    53   53   54 1  
    54   54   55 1  
    55   54   57 1  
    56   55   56 2  
    57   55   61 am 
    58   57   58 1  
    59   58   59 1  
    60   58   60 1  
    61   61   62 1  
    62   62   63 1  
    63   62   65 1  
    64   63   64 2  
    65   63   69 am 
    66   65   66 1  
    67   66   67 1  
    68   66   68 1  
    69   69   70 1  
    70   70   71 1  
    71   70   73 1  
    72   71   72 2  
    73   71   78 am 
    74   73   74 1  
    75   74   75 1  
    76   75   76 ar 
    77   75   77 ar 
    78   78   79 1  
    79   79   80 1  
    80   79   82 1  
    81   80   81 2  
    82   80   83 am 
    83   83   84 1  
    84   84   85 1  
    85   84   87 1  
    86   85   86 2  
    87   85   88 am 
    88   88   89 1  
    89   89   90 1  
    90   89   92 1  
    91   90   91 2  
    92   90   96 am 
    93   92   93 1  
    94   93   94 ar 
    95   93   95 ar 
    96   96   97 1  
    97   97   98 1  
    98   97  100 1  
    99   98   99 2  
   100   98  108 am 
   101  100  101 1  
   102  101  102 ar 
   103  101  103 ar 
   104  102  104 ar 
   105  103  105 ar 
   106  104  106 ar 
   107  105  106 ar 
   108  106  107 1  
   109  108  109 1  
   110  109  110 1  
   111  109  112 1  
   112  110  111 2  
   113  110  116 am 
   114  112  113 1  
   115  113  114 1  
   116  113  115 1  
   117  116  117 1  
   118  117  118 1  
   119  117  120 1  
   120  118  119 2  
   121  118  125 am 
   122  120  121 1  
   123  121  122 1  
   124  122  123 ar 
   125  122  124 ar 
   126  125  126 1  
   127  126  127 1  
   128  126  129 1  
   129  127  128 ar 
   130  127  136 ar 
   131  129  130 1  
   132  130  131 1  
   133  131  132 1  
   134  132  133 ar 
   135  133  134 ar 
   136  133  135 ar 
   137    1  137 1  
   138    1  138 1  
   139    1  139 1  
   140    2  140 1  
   141    5  141 1  
   142    5  142 1  
   143    6  143 1  
   144    6  144 1  
   145    7  145 1  
   146    7  146 1  
   147    8  147 1  
   148   10  148 1  
   149   10  149 1  
   150   11  150 1  
   151   11  151 1  
   152   12  152 1  
   153   13  153 1  
   154   16  154 1  
   155   16  155 1  
   156   17  156 1  
   157   17  157 1  
   158   19  158 1  
   159   19  159 1  
   160   19  160 1  
   161   20  161 1  
   162   21  162 1  
   163   24  163 1  
   164   24  164 1  
   165   27  165 1  
   166   27  166 1  
   167   28  167 1  
   168   29  168 1  
   169   32  169 1  
   170   33  170 1  
   171   33  171 1  
   172   34  172 1  
   173   34  173 1  
   174   34  174 1  
   175   35  175 1  
   176   35  176 1  
   177   35  177 1  
   178   36  178 1  
   179   37  179 1  
   180   40  180 1  
   181   40  181 1  
   182   41  182 1  
   183   41  183 1  
   184   44  184 1  
   185   44  185 1  
   186   45  186 1  
   187   46  187 1  
   188   49  188 1  
   189   49  189 1  
   190   50  190 1  
   191   50  191 1  
   192   52  192 1  
   193   52  193 1  
   194   52  194 1  
   195   53  195 1  
   196   54  196 1  
   197   57  197 1  
   198   57  198 1  
   199   58  199 1  
   200   59  200 1  
   201   59  201 1  
   202   59  202 1  
   203   60  203 1  
   204   60  204 1  
   205   60  205 1  
   206   61  206 1  
   207   62  207 1  
   208   65  208 1  
   209   65  209 1  
   210   66  210 1  
   211   67  211 1  
   212   67  212 1  
   213   67  213 1  
   214   68  214 1  
   215   68  215 1  
   216   68  216 1  
   217   69  217 1  
   218   70  218 1  
   219   73  219 1  
   220   73  220 1  
   221   74  221 1  
   222   74  222 1  
   223   78  223 1  
   224   79  224 1  
   225   82  225 1  
   226   82  226 1  
   227   82  227 1  
   228   83  228 1  
   229   84  229 1  
   230   87  230 1  
   231   87  231 1  
   232   87  232 1  
   233   88  233 1  
   234   89  234 1  
   235   92  235 1  
   236   92  236 1  
   237   96  237 1  
   238   97  238 1  
   239  100  239 1  
   240  100  240 1  
   241  102  241 1  
   242  103  242 1  
   243  104  243 1  
   244  105  244 1  
   245  107  245 1  
   246  108  246 1  
   247  109  247 1  
   248  112  248 1  
   249  112  249 1  
   250  113  250 1  
   251  114  251 1  
   252  114  252 1  
   253  114  253 1  
   254  115  254 1  
   255  115  255 1  
   256  115  256 1  
   257  116  257 1  
   258  117  258 1  
   259  120  259 1  
   260  120  260 1  
   261  121  261 1  
   262  121  262 1  
   263  125  263 1  
   264  126  264 1  
   265  129  265 1  
   266  129  266 1  
   267  130  267 1  
   268  130  268 1  
   269  131  269 1  
   270  131  270 1  
   271  132  271 1  
   272  134  272 1  
   273  134  273 1  
   274  135  274 1  
   275  135  275 1  
@<TRIPOS>SUBSTRUCTURE
     1 ARG         1

