1g1e_ligand
  -I-interpret- 

277277  0  0  0  0  0  0  0  0999 V2000
   -0.9340   12.2250   -2.6890 N   0  3  0  0  0
    0.3490   11.4720   -2.8080 C   0  0  0  0  0
    0.1830   10.2230   -3.6770 C   0  0  0  0  0
   -0.8980    9.6340   -3.7290 O   0  0  0  0  0
    0.8410   11.0760   -1.4070 C   0  0  0  0  0
    1.2710   12.2470   -0.5300 C   0  0  0  0  0
    0.0790   13.0170    0.0260 C   0  0  0  0  0
    0.4880   14.0750    0.9520 N   0  0  0  0  0
    0.9960   13.8570    2.1700 C   0  0  0  0  0
    1.1210   12.6190    2.6430 N   0  0  0  0  0
    1.3670   14.8860    2.9250 N   0  0  0  0  0
    1.2610    9.8280   -4.3580 N   0  0  0  0  0
    1.2320    8.6510   -5.2290 C   0  0  0  0  0
    1.5250    7.3680   -4.4450 C   0  0  0  0  0
    0.7240    6.4440   -4.4670 O   0  0  0  0  0
    2.2120    8.8200   -6.4030 C   0  0  0  0  0
    3.6630    9.0410   -5.9910 C   0  0  0  0  0
    4.7100    9.5470   -7.3710 S   0  0  0  0  0
    4.4700    8.1870   -8.5110 C   0  0  0  0  0
    2.6630    7.3440   -3.7340 N   0  0  0  0  0
    3.1010    6.2040   -2.9010 C   0  0  0  0  0
    2.0620    5.0650   -2.7550 C   0  0  0  0  0
    1.9840    4.1870   -3.6140 O   0  0  0  0  0
    3.5560    6.7210   -1.5220 C   0  0  0  0  0
    2.6160    7.7500   -0.8810 C   0  0  0  0  0
    2.9790    8.3830    0.1090 O   0  0  0  0  0
    1.3970    7.9090   -1.4100 N   0  0  0  0  0
    1.2990    5.0600   -1.6520 N   0  0  0  0  0
    0.3040    4.0130   -1.3860 C   0  0  0  0  0
   -0.6110    3.7180   -2.5620 C   0  0  0  0  0
   -0.7100    2.5710   -2.9940 O   0  0  0  0  0
   -0.6020    4.3330   -0.1800 C   0  0  0  0  0
   -0.9990    5.8100   -0.1270 C   0  0  0  0  0
    0.0680    3.9200    1.1040 C   0  0  0  0  0
   -2.1900    6.0600    0.7630 C   0  0  0  0  0
   -1.3060    4.7390   -3.0540 N   0  0  0  0  0
   -2.2370    4.5490   -4.1520 C   0  0  0  0  0
   -1.5150    3.9850   -5.3750 C   0  0  0  0  0
   -2.0590    3.1630   -6.1120 O   0  0  0  0  0
   -2.9390    5.8660   -4.5000 C   0  0  0  0  0
   -3.7200    6.4670   -3.3380 C   0  0  0  0  0
   -4.3610    7.7990   -3.6860 C   0  0  0  0  0
   -3.6740    8.7540   -4.0470 O   0  0  0  0  0
   -5.6830    7.8720   -3.5730 N   0  0  0  0  0
   -0.2740    4.4290   -5.5540 N   0  0  0  0  0
    0.5790    3.9870   -6.6470 C   0  0  0  0  0
    0.8350    2.4800   -6.5480 C   0  0  0  0  0
    0.8560    1.7720   -7.5560 O   0  0  0  0  0
    1.9060    4.7580   -6.5860 C   0  0  0  0  0
    2.8870    4.3880   -7.6890 C   0  0  0  0  0
    4.4920    5.1900   -7.5040 S   0  0  0  0  0
    5.1040    4.4040   -6.0150 C   0  0  0  0  0
    1.0220    2.0070   -5.3150 N   0  0  0  0  0
    1.2720    0.6010   -5.0370 C   0  0  0  0  0
   -0.0340   -0.2060   -5.0220 C   0  0  0  0  0
   -0.0850   -1.3110   -5.5600 O   0  0  0  0  0
    2.0330    0.5030   -3.7130 C   0  0  0  0  0
    1.8820   -0.7960   -2.9290 C   0  0  0  0  0
    2.7070   -1.8990   -3.5610 C   0  0  0  0  0
    2.2880   -0.5920   -1.4770 C   0  0  0  0  0
   -1.0920    0.3570   -4.4270 N   0  0  0  0  0
   -2.4030   -0.3120   -4.3810 C   0  0  0  0  0
   -2.8860   -0.6570   -5.7860 C   0  0  0  0  0
   -3.2100   -1.8120   -6.0680 O   0  0  0  0  0
   -3.4400    0.5930   -3.7100 C   0  0  0  0  0
   -3.3040    0.7460   -2.2000 C   0  0  0  0  0
   -4.0430    1.9880   -1.7200 C   0  0  0  0  0
   -3.8420   -0.4940   -1.5060 C   0  0  0  0  0
   -2.9240    0.3520   -6.6640 N   0  0  0  0  0
   -3.3550    0.1550   -8.0490 C   0  0  0  0  0
   -2.6380   -1.0430   -8.6660 C   0  0  0  0  0
   -3.2040   -1.7520   -9.5010 O   0  0  0  0  0
   -3.0900    1.4130   -8.8800 C   0  0  0  0  0
   -3.9810    2.5890   -8.5060 C   0  0  0  0  0
   -3.6110    3.8620   -9.2440 C   0  0  0  0  0
   -2.4830    4.3610   -9.0410 O   0  0  0  0  0
   -4.4480    4.3600  -10.0260 O   0  0  0  0  0
   -1.3950   -1.2740   -8.2280 N   0  0  0  0  0
   -0.6020   -2.3980   -8.7090 C   0  0  0  0  0
   -1.3690   -3.6970   -8.5620 C   0  0  0  0  0
   -1.5860   -4.4040   -9.5410 O   0  0  0  0  0
    0.7040   -2.5010   -7.9440 C   0  0  0  0  0
   -1.7720   -4.0050   -7.3250 N   0  0  0  0  0
   -2.5100   -5.2270   -7.0400 C   0  0  0  0  0
   -3.6070   -5.4680   -8.0680 C   0  0  0  0  0
   -3.6350   -6.5110   -8.7120 O   0  0  0  0  0
   -3.1170   -5.1920   -5.6500 C   0  0  0  0  0
   -4.5030   -4.4890   -8.2210 N   0  0  0  0  0
   -5.6040   -4.5890   -9.1820 C   0  0  0  0  0
   -5.0940   -5.0300  -10.5540 C   0  0  0  0  0
   -5.7820   -5.7500  -11.2780 O   0  0  0  0  0
   -6.3350   -3.2460   -9.3070 C   0  0  0  0  0
   -6.9600   -2.7910   -7.9990 C   0  0  0  0  0
   -6.2060   -2.5240   -7.0380 O   0  0  0  0  0
   -8.2040   -2.7030   -7.9370 O   0  0  0  0  0
   -3.8810   -4.5960  -10.8970 N   0  0  0  0  0
   -3.2650   -4.9430  -12.1720 C   0  0  0  0  0
   -2.6530   -6.3400  -12.1270 C   0  0  0  0  0
   -2.9130   -7.1590  -13.0110 O   0  0  0  0  0
   -2.2090   -3.8900  -12.5440 C   0  0  0  0  0
   -1.4950   -4.1360  -13.8590 C   0  0  0  0  0
   -0.6310   -5.2130  -14.0200 C   0  0  0  0  0
   -1.6820   -3.2800  -14.9380 C   0  0  0  0  0
    0.0260   -5.4290  -15.2170 C   0  0  0  0  0
   -1.0310   -3.4910  -16.1380 C   0  0  0  0  0
   -0.1780   -4.5660  -16.2720 C   0  0  0  0  0
    0.4760   -4.7780  -17.4650 O   0  0  0  0  0
   -1.8520   -6.6170  -11.0980 N   0  0  0  0  0
   -1.2280   -7.9350  -10.9660 C   0  0  0  0  0
   -2.2940   -9.0120  -10.7560 C   0  0  0  0  0
   -2.0890  -10.1700  -11.1240 O   0  0  0  0  0
   -0.2260   -8.0010   -9.8010 C   0  0  0  0  0
    0.2430   -6.6730   -9.2020 C   0  0  0  0  0
    1.1320   -6.9440   -8.0060 C   0  0  0  0  0
    0.9820   -5.8170  -10.2280 C   0  0  0  0  0
   -3.4310   -8.6260  -10.1550 N   0  0  0  0  0
   -4.5220   -9.5710   -9.8940 C   0  0  0  0  0
   -4.9310  -10.3270  -11.1590 C   0  0  0  0  0
   -5.0790  -11.5500  -11.1330 O   0  0  0  0  0
   -5.7330   -8.8510   -9.2920 C   0  0  0  0  0
   -5.5770   -8.5370   -7.8100 C   0  0  0  0  0
   -6.7110   -7.6890   -7.2640 C   0  0  0  0  0
   -7.8750   -8.1380   -7.3250 O   0  0  0  0  0
   -6.4320   -6.5760   -6.7690 O   0  0  0  0  0
   -5.1030   -9.6000  -12.2630 N   0  0  0  0  0
   -5.4840  -10.2170  -13.5340 C   0  0  0  0  0
   -4.3170  -11.0050  -14.1300 C   0  0  0  0  0
   -4.5560  -12.1240  -14.6310 O   0  0  0  0  0
   -5.9680   -9.1610  -14.5370 C   0  0  0  0  0
   -7.3190   -8.5440  -14.1930 C   0  0  0  0  0
   -7.2690   -7.7490  -12.8970 C   0  0  0  0  0
   -8.5460   -7.1020  -12.5920 N   0  0  0  0  0
   -9.6580   -7.7560  -12.2380 C   0  0  0  0  0
   -9.6510   -9.0790  -12.0970 N   0  0  0  0  0
  -10.7770   -7.0790  -12.0110 N   0  0  0  0  0
   -3.1740  -10.4970  -14.0920 O   0  0  0  0  0
   -1.2602   12.4876   -3.6191 H   0  0  0  0  0
   -1.6323   11.6351   -2.2365 H   0  0  0  0  0
   -0.7833   13.0651   -2.1304 H   0  0  0  0  0
    1.0841   12.1176   -3.2886 H   0  0  0  0  0
    1.7179   10.4434   -1.5450 H   0  0  0  0  0
    0.0057   10.5907   -0.9022 H   0  0  0  0  0
    1.8611   12.9300   -1.1411 H   0  0  0  0  0
    1.8408   11.8504    0.3104 H   0  0  0  0  0
   -0.5541   12.3160    0.5699 H   0  0  0  0  0
   -0.4449   13.4812   -0.8096 H   0  0  0  0  0
    0.3782   15.0425    0.6480 H   0  0  0  0  0
    1.4990   12.4660    3.5779 H   0  0  0  0  0
    0.8388   11.8234    2.0705 H   0  0  0  0  0
    1.2640   15.8386    2.5752 H   0  0  0  0  0
    2.1271   10.3595   -4.2695 H   0  0  0  0  0
    0.2252    8.5608   -5.6368 H   0  0  0  0  0
    1.8989    9.7069   -6.9538 H   0  0  0  0  0
    2.1819    7.8948   -6.9785 H   0  0  0  0  0
    4.0491    8.0969   -5.6068 H   0  0  0  0  0
    3.6819    9.8375   -5.2471 H   0  0  0  0  0
    4.7930    7.2585   -8.0401 H   0  0  0  0  0
    3.4141    8.1154   -8.7720 H   0  0  0  0  0
    5.0573    8.3622   -9.4124 H   0  0  0  0  0
    3.2653    8.1664   -3.7708 H   0  0  0  0  0
    3.9356    5.7432   -3.4293 H   0  0  0  0  0
    4.5155    7.2166   -1.6698 H   0  0  0  0  0
    3.5862    5.8598   -0.8545 H   0  0  0  0  0
    0.7415    8.5690   -0.9915 H   0  0  0  0  0
    1.1234    7.3702   -2.2317 H   0  0  0  0  0
    1.4141    5.8117   -0.9722 H   0  0  0  0  0
    0.9209    3.1389   -1.1775 H   0  0  0  0  0
   -1.5201    3.7589   -0.3048 H   0  0  0  0  0
   -1.2643    6.1220   -1.1371 H   0  0  0  0  0
   -0.1554    6.3693    0.2774 H   0  0  0  0  0
    0.2645    2.8481    1.0813 H   0  0  0  0  0
    1.0082    4.4609    1.2120 H   0  0  0  0  0
   -0.5855    4.1532    1.9447 H   0  0  0  0  0
   -3.0453    5.4966    0.3900 H   0  0  0  0  0
   -1.9569    5.7393    1.7783 H   0  0  0  0  0
   -2.4258    7.1242    0.7618 H   0  0  0  0  0
   -1.1834    5.6694   -2.6543 H   0  0  0  0  0
   -2.9948    3.8310   -3.8384 H   0  0  0  0  0
   -3.6510    5.6557   -5.2981 H   0  0  0  0  0
   -2.1676    6.5831   -4.7807 H   0  0  0  0  0
   -3.0215    6.6367   -2.5186 H   0  0  0  0  0
   -4.5172    5.7712   -3.0763 H   0  0  0  0  0
   -6.1659    8.7440   -3.7891 H   0  0  0  0  0
   -6.2148    7.0560   -3.2702 H   0  0  0  0  0
    0.0975    5.1119   -4.8936 H   0  0  0  0  0
    0.0844    4.1850   -7.5979 H   0  0  0  0  0
    2.3798    4.5122   -5.6356 H   0  0  0  0  0
    1.6713    5.8160   -6.7031 H   0  0  0  0  0
    2.4597    4.7155   -8.6367 H   0  0  0  0  0
    3.0471    3.3108   -7.6431 H   0  0  0  0  0
    4.4199    4.6070   -5.1911 H   0  0  0  0  0
    5.1724    3.3281   -6.1755 H   0  0  0  0  0
    6.0908    4.8004   -5.7757 H   0  0  0  0  0
    0.9882    2.6600   -4.5322 H   0  0  0  0  0
    1.8804    0.1646   -5.8292 H   0  0  0  0  0
    1.6260    1.2873   -3.0747 H   0  0  0  0  0
    3.0900    0.5776   -3.9687 H   0  0  0  0  0
    0.8337   -1.0934   -2.9557 H   0  0  0  0  0
    2.3697   -2.0622   -4.5846 H   0  0  0  0  0
    3.7575   -1.6083   -3.5652 H   0  0  0  0  0
    2.5850   -2.8170   -2.9862 H   0  0  0  0  0
    3.3286   -0.2704   -1.4338 H   0  0  0  0  0
    1.6519    0.1701   -1.0268 H   0  0  0  0  0
    2.1734   -1.5300   -0.9338 H   0  0  0  0  0
   -0.9876    1.2744   -3.9936 H   0  0  0  0  0
   -2.2869   -1.2299   -3.8048 H   0  0  0  0  0
   -4.4123    0.1333   -3.8876 H   0  0  0  0  0
   -3.3032    1.5874   -4.1348 H   0  0  0  0  0
   -2.2490    0.8607   -1.9512 H   0  0  0  0  0
   -3.6228    2.8693   -2.2047 H   0  0  0  0  0
   -5.0995    1.9013   -1.9736 H   0  0  0  0  0
   -3.9337    2.0793   -0.6393 H   0  0  0  0  0
   -4.8933   -0.6249   -1.7622 H   0  0  0  0  0
   -3.2758   -1.3662   -1.8328 H   0  0  0  0  0
   -3.7415   -0.3773   -0.4269 H   0  0  0  0  0
   -2.6448    1.2846   -6.3597 H   0  0  0  0  0
   -4.4272   -0.0412   -8.0480 H   0  0  0  0  0
   -3.2950    1.1659   -9.9216 H   0  0  0  0  0
   -2.0582    1.7137   -8.6979 H   0  0  0  0  0
   -3.8605    2.7739   -7.4386 H   0  0  0  0  0
   -5.0054    2.3317   -8.7754 H   0  0  0  0  0
   -2.0045    3.8206   -8.4080 H   0  0  0  0  0
   -0.9899   -0.6437   -7.5359 H   0  0  0  0  0
   -0.3876   -2.2241   -9.7635 H   0  0  0  0  0
    1.2759   -1.5829   -8.0788 H   0  0  0  0  0
    0.4926   -2.6466   -6.8847 H   0  0  0  0  0
    1.2786   -3.3472   -8.3208 H   0  0  0  0  0
   -1.5564   -3.3660   -6.5597 H   0  0  0  0  0
   -1.7948   -6.0478   -7.0927 H   0  0  0  0  0
   -2.3231   -5.0849   -4.9108 H   0  0  0  0  0
   -3.8014   -4.3470   -5.5750 H   0  0  0  0  0
   -3.6610   -6.1190   -5.4691 H   0  0  0  0  0
   -4.4179   -3.6469   -7.6518 H   0  0  0  0  0
   -6.3018   -5.3401   -8.8118 H   0  0  0  0  0
   -7.1370   -3.3693  -10.0348 H   0  0  0  0  0
   -5.6040   -2.4950   -9.6064 H   0  0  0  0  0
   -5.2929   -2.6587   -7.3021 H   0  0  0  0  0
   -3.3672   -4.0019  -10.2463 H   0  0  0  0  0
   -4.0378   -4.9518  -12.9406 H   0  0  0  0  0
   -1.4489   -3.9168  -11.7632 H   0  0  0  0  0
   -2.7334   -2.9396  -12.6434 H   0  0  0  0  0
   -0.4688   -5.8988  -13.1884 H   0  0  0  0  0
   -2.3537   -2.4277  -14.8356 H   0  0  0  0  0
    0.7017   -6.2773  -15.3258 H   0  0  0  0  0
   -1.1909   -2.8110  -16.9748 H   0  0  0  0  0
    0.2270   -4.0941  -18.0910 H   0  0  0  0  0
   -1.6715   -5.9017  -10.3936 H   0  0  0  0  0
   -0.6842   -8.1117  -11.8940 H   0  0  0  0  0
    0.6683   -8.4733  -10.2075 H   0  0  0  0  0
   -0.7442   -8.5212   -8.9954 H   0  0  0  0  0
   -0.6375   -6.1132   -8.8868 H   0  0  0  0  0
    0.5709   -7.5029   -7.2571 H   0  0  0  0  0
    1.9975   -7.5261   -8.3227 H   0  0  0  0  0
    1.4651   -5.9973   -7.5806 H   0  0  0  0  0
    1.8568   -6.3583  -10.5883 H   0  0  0  0  0
    0.3175   -5.5999  -11.0643 H   0  0  0  0  0
    1.2973   -4.8839   -9.7612 H   0  0  0  0  0
   -3.5387   -7.6517   -9.8730 H   0  0  0  0  0
   -4.1524  -10.3006   -9.1735 H   0  0  0  0  0
   -6.5935   -9.5115   -9.3985 H   0  0  0  0  0
   -5.8457   -7.9030   -9.8180 H   0  0  0  0  0
   -4.6510   -7.9760   -7.6840 H   0  0  0  0  0
   -5.5769   -9.4824   -7.2674 H   0  0  0  0  0
   -5.4847   -6.4307   -6.8245 H   0  0  0  0  0
   -4.9658   -8.5901  -12.2208 H   0  0  0  0  0
   -6.3044  -10.9055  -13.3316 H   0  0  0  0  0
   -6.0783   -9.6594  -15.5001 H   0  0  0  0  0
   -5.2356   -8.3538  -14.5322 H   0  0  0  0  0
   -8.0410   -9.3513  -14.0700 H   0  0  0  0  0
   -7.5988   -7.8652  -14.9987 H   0  0  0  0  0
   -6.5136   -6.9709  -13.0067 H   0  0  0  0  0
   -7.0376   -8.4393  -12.0858 H   0  0  0  0  0
   -8.5910   -6.0848  -12.6535 H   0  0  0  0  0
  -10.5018   -9.5665  -11.8162 H   0  0  0  0  0
   -8.7948   -9.6058  -12.2697 H   0  0  0  0  0
  -10.7870   -6.0635  -12.1067 H   0  0  0  0  0
   -3.2207   -9.6383  -13.6654 H   0  0  0  0  0
  1  2  1  0  0  0
  2  3  1  0  0  0
  2  5  1  0  0  0
  3  4  2  0  0  0
  3 12  1  0  0  0
  5  6  1  0  0  0
  6  7  1  0  0  0
  7  8  1  0  0  0
  8  9  1  0  0  0
  9 10  1  0  0  0
  9 11  2  0  0  0
 12 13  1  0  0  0
 13 14  1  0  0  0
 13 16  1  0  0  0
 14 15  2  0  0  0
 14 20  1  0  0  0
 16 17  1  0  0  0
 17 18  1  0  0  0
 18 19  1  0  0  0
 20 21  1  0  0  0
 21 22  1  0  0  0
 21 24  1  0  0  0
 22 23  2  0  0  0
 22 28  1  0  0  0
 24 25  1  0  0  0
 25 26  2  0  0  0
 25 27  1  0  0  0
 28 29  1  0  0  0
 29 30  1  0  0  0
 29 32  1  0  0  0
 30 31  2  0  0  0
 30 36  1  0  0  0
 32 33  1  0  0  0
 32 34  1  0  0  0
 33 35  1  0  0  0
 36 37  1  0  0  0
 37 38  1  0  0  0
 37 40  1  0  0  0
 38 39  2  0  0  0
 38 45  1  0  0  0
 40 41  1  0  0  0
 41 42  1  0  0  0
 42 43  2  0  0  0
 42 44  1  0  0  0
 45 46  1  0  0  0
 46 47  1  0  0  0
 46 49  1  0  0  0
 47 48  2  0  0  0
 47 53  1  0  0  0
 49 50  1  0  0  0
 50 51  1  0  0  0
 51 52  1  0  0  0
 53 54  1  0  0  0
 54 55  1  0  0  0
 54 57  1  0  0  0
 55 56  2  0  0  0
 55 61  1  0  0  0
 57 58  1  0  0  0
 58 59  1  0  0  0
 58 60  1  0  0  0
 61 62  1  0  0  0
 62 63  1  0  0  0
 62 65  1  0  0  0
 63 64  2  0  0  0
 63 69  1  0  0  0
 65 66  1  0  0  0
 66 67  1  0  0  0
 66 68  1  0  0  0
 69 70  1  0  0  0
 70 71  1  0  0  0
 70 73  1  0  0  0
 71 72  2  0  0  0
 71 78  1  0  0  0
 73 74  1  0  0  0
 74 75  1  0  0  0
 75 76  1  0  0  0
 75 77  2  0  0  0
 78 79  1  0  0  0
 79 80  1  0  0  0
 79 82  1  0  0  0
 80 81  2  0  0  0
 80 83  1  0  0  0
 83 84  1  0  0  0
 84 85  1  0  0  0
 84 87  1  0  0  0
 85 86  2  0  0  0
 85 88  1  0  0  0
 88 89  1  0  0  0
 89 90  1  0  0  0
 89 92  1  0  0  0
 90 91  2  0  0  0
 90 96  1  0  0  0
 92 93  1  0  0  0
 93 94  1  0  0  0
 93 95  2  0  0  0
 96 97  1  0  0  0
 97 98  1  0  0  0
 97100  1  0  0  0
 98 99  2  0  0  0
 98108  1  0  0  0
100101  1  0  0  0
101102  4  0  0  0
101103  4  0  0  0
102104  4  0  0  0
103105  4  0  0  0
104106  4  0  0  0
105106  4  0  0  0
106107  1  0  0  0
108109  1  0  0  0
109110  1  0  0  0
109112  1  0  0  0
110111  2  0  0  0
110116  1  0  0  0
112113  1  0  0  0
113114  1  0  0  0
113115  1  0  0  0
116117  1  0  0  0
117118  1  0  0  0
117120  1  0  0  0
118119  2  0  0  0
118125  1  0  0  0
120121  1  0  0  0
121122  1  0  0  0
122123  2  0  0  0
122124  1  0  0  0
125126  1  0  0  0
126127  1  0  0  0
126129  1  0  0  0
127128  2  0  0  0
127136  1  0  0  0
129130  1  0  0  0
130131  1  0  0  0
131132  1  0  0  0
132133  1  0  0  0
133134  1  0  0  0
133135  2  0  0  0
  1137  1  0  0  0
  1138  1  0  0  0
  1139  1  0  0  0
  2140  1  0  0  0
  5141  1  0  0  0
  5142  1  0  0  0
  6143  1  0  0  0
  6144  1  0  0  0
  7145  1  0  0  0
  7146  1  0  0  0
  8147  1  0  0  0
 10148  1  0  0  0
 10149  1  0  0  0
 11150  1  0  0  0
 12151  1  0  0  0
 13152  1  0  0  0
 16153  1  0  0  0
 16154  1  0  0  0
 17155  1  0  0  0
 17156  1  0  0  0
 19157  1  0  0  0
 19158  1  0  0  0
 19159  1  0  0  0
 20160  1  0  0  0
 21161  1  0  0  0
 24162  1  0  0  0
 24163  1  0  0  0
 27164  1  0  0  0
 27165  1  0  0  0
 28166  1  0  0  0
 29167  1  0  0  0
 32168  1  0  0  0
 33169  1  0  0  0
 33170  1  0  0  0
 34171  1  0  0  0
 34172  1  0  0  0
 34173  1  0  0  0
 35174  1  0  0  0
 35175  1  0  0  0
 35176  1  0  0  0
 36177  1  0  0  0
 37178  1  0  0  0
 40179  1  0  0  0
 40180  1  0  0  0
 41181  1  0  0  0
 41182  1  0  0  0
 44183  1  0  0  0
 44184  1  0  0  0
 45185  1  0  0  0
 46186  1  0  0  0
 49187  1  0  0  0
 49188  1  0  0  0
 50189  1  0  0  0
 50190  1  0  0  0
 52191  1  0  0  0
 52192  1  0  0  0
 52193  1  0  0  0
 53194  1  0  0  0
 54195  1  0  0  0
 57196  1  0  0  0
 57197  1  0  0  0
 58198  1  0  0  0
 59199  1  0  0  0
 59200  1  0  0  0
 59201  1  0  0  0
 60202  1  0  0  0
 60203  1  0  0  0
 60204  1  0  0  0
 61205  1  0  0  0
 62206  1  0  0  0
 65207  1  0  0  0
 65208  1  0  0  0
 66209  1  0  0  0
 67210  1  0  0  0
 67211  1  0  0  0
 67212  1  0  0  0
 68213  1  0  0  0
 68214  1  0  0  0
 68215  1  0  0  0
 69216  1  0  0  0
 70217  1  0  0  0
 73218  1  0  0  0
 73219  1  0  0  0
 74220  1  0  0  0
 74221  1  0  0  0
 76222  1  0  0  0
 78223  1  0  0  0
 79224  1  0  0  0
 82225  1  0  0  0
 82226  1  0  0  0
 82227  1  0  0  0
 83228  1  0  0  0
 84229  1  0  0  0
 87230  1  0  0  0
 87231  1  0  0  0
 87232  1  0  0  0
 88233  1  0  0  0
 89234  1  0  0  0
 92235  1  0  0  0
 92236  1  0  0  0
 94237  1  0  0  0
 96238  1  0  0  0
 97239  1  0  0  0
100240  1  0  0  0
100241  1  0  0  0
102242  1  0  0  0
103243  1  0  0  0
104244  1  0  0  0
105245  1  0  0  0
107246  1  0  0  0
108247  1  0  0  0
109248  1  0  0  0
112249  1  0  0  0
112250  1  0  0  0
113251  1  0  0  0
114252  1  0  0  0
114253  1  0  0  0
114254  1  0  0  0
115255  1  0  0  0
115256  1  0  0  0
115257  1  0  0  0
116258  1  0  0  0
117259  1  0  0  0
120260  1  0  0  0
120261  1  0  0  0
121262  1  0  0  0
121263  1  0  0  0
124264  1  0  0  0
125265  1  0  0  0
126266  1  0  0  0
129267  1  0  0  0
129268  1  0  0  0
130269  1  0  0  0
130270  1  0  0  0
131271  1  0  0  0
131272  1  0  0  0
132273  1  0  0  0
134274  1  0  0  0
134275  1  0  0  0
135276  1  0  0  0
136277  1  0  0  0
M  END
$$$$
