2w1e_ligand
  -I-interpret- 

 53 57  0  0  0  0  0  0  0  0999 V2000
    6.1920   27.9070    7.4150 O   0  0  0  0  0
    6.0800   28.6130    6.4410 C   0  0  0  0  0
    5.4680   29.8270    6.4700 N   0  0  0  0  0
    4.9320   30.4670    7.5660 C   0  0  0  0  0
    5.0930   30.2110    8.8800 C   0  0  0  0  0
    4.3590   31.1170    9.5470 N   0  0  0  0  0
    3.7240   31.9580    8.7110 N   0  0  0  0  0
    4.0820   31.5580    7.5160 C   0  0  0  0  0
    3.5510   32.2530    6.3790 C   0  0  0  0  0
    3.5270   31.8030    5.1660 N   0  0  0  0  0
    2.9390   32.7270    4.3840 C   0  0  0  0  0
    2.6750   32.7420    3.0270 C   0  0  0  0  0
    2.0410   33.8300    2.4360 C   0  0  0  0  0
    1.7620   33.8390    0.9550 C   0  0  0  0  0
    2.8000   34.6160    0.1980 N   0  3  0  0  0
    4.1090   33.9100    0.2080 C   0  0  0  0  0
    5.1170   34.7170   -0.5850 C   0  0  0  0  0
    5.2630   36.0500   -0.0540 O   0  0  0  0  0
    4.0010   36.7310   -0.0600 C   0  0  0  0  0
    2.9800   35.9780    0.7690 C   0  0  0  0  0
    1.6800   34.9170    3.2430 C   0  0  0  0  0
    1.9430   34.9000    4.5960 C   0  0  0  0  0
    2.5730   33.8090    5.1700 C   0  0  0  0  0
    2.9740   33.4660    6.4190 N   0  0  0  0  0
    6.5840   28.1950    5.2390 N   0  0  0  0  0
    6.5360   28.8740    3.9860 C   0  0  0  0  0
    6.0380   28.2370    2.8620 C   0  0  0  0  0
    5.9920   28.8960    1.6570 C   0  0  0  0  0
    6.4400   30.1860    1.5600 C   0  0  0  0  0
    6.9370   30.8260    2.6620 C   0  0  0  0  0
    6.9890   30.1800    3.8720 C   0  0  0  0  0
    5.3978   30.3195    5.5795 H   0  0  0  0  0
    5.7023   29.4201    9.3174 H   0  0  0  0  0
    2.9673   31.8905    2.4125 H   0  0  0  0  0
    0.7932   34.3109    0.7913 H   0  0  0  0  0
    1.7755   32.8095    0.5971 H   0  0  0  0  0
    2.4674   34.6984   -0.7627 H   0  0  0  0  0
    3.9957   32.9234   -0.2413 H   0  0  0  0  0
    4.4565   33.7987    1.2351 H   0  0  0  0  0
    4.7659   34.7921   -1.6142 H   0  0  0  0  0
    6.0828   34.2150   -0.5275 H   0  0  0  0  0
    3.6413   36.7960   -1.0869 H   0  0  0  0  0
    4.1358   37.7252    0.3661 H   0  0  0  0  0
    3.3281   35.9012    1.7990 H   0  0  0  0  0
    2.0294   36.5111    0.7535 H   0  0  0  0  0
    1.1879   35.7818    2.7980 H   0  0  0  0  0
    1.6539   35.7485    5.2161 H   0  0  0  0  0
    7.0504   27.2879    5.2396 H   0  0  0  0  0
    5.6813   27.2095    2.9332 H   0  0  0  0  0
    5.5976   28.3901    0.7757 H   0  0  0  0  0
    6.4005   30.7045    0.6020 H   0  0  0  0  0
    7.2931   31.8528    2.5790 H   0  0  0  0  0
    7.3876   30.6950    4.7461 H   0  0  0  0  0
  1  2  2  0  0  0
  2  3  1  0  0  0
  2 25  1  0  0  0
  3  4  1  0  0  0
  4  5  4  0  0  0
  4  8  4  0  0  0
  5  6  4  0  0  0
  6  7  4  0  0  0
  7  8  4  0  0  0
  8  9  1  0  0  0
  9 10  4  0  0  0
  9 24  4  0  0  0
 10 11  4  0  0  0
 11 12  4  0  0  0
 11 23  4  0  0  0
 12 13  4  0  0  0
 13 14  1  0  0  0
 13 21  4  0  0  0
 14 15  1  0  0  0
 15 16  1  0  0  0
 15 20  1  0  0  0
 16 17  1  0  0  0
 17 18  1  0  0  0
 18 19  1  0  0  0
 19 20  1  0  0  0
 21 22  4  0  0  0
 22 23  4  0  0  0
 23 24  4  0  0  0
 25 26  1  0  0  0
 26 27  4  0  0  0
 26 31  4  0  0  0
 27 28  4  0  0  0
 28 29  4  0  0  0
 29 30  4  0  0  0
 30 31  4  0  0  0
  3 32  1  0  0  0
  5 33  1  0  0  0
 12 34  1  0  0  0
 14 35  1  0  0  0
 14 36  1  0  0  0
 15 37  1  0  0  0
 16 38  1  0  0  0
 16 39  1  0  0  0
 17 40  1  0  0  0
 17 41  1  0  0  0
 19 42  1  0  0  0
 19 43  1  0  0  0
 20 44  1  0  0  0
 20 45  1  0  0  0
 21 46  1  0  0  0
 22 47  1  0  0  0
 25 48  1  0  0  0
 27 49  1  0  0  0
 28 50  1  0  0  0
 29 51  1  0  0  0
 30 52  1  0  0  0
 31 53  1  0  0  0
M  END
$$$$
