3qak_ligand
  -I-interpret- 

104110  0  0  0  0  0  0  0  0999 V2000
   -5.4030  -11.1280   49.4650 C   0  0  0  0  0
   -4.3290   -9.9270   51.3680 N   0  0  0  0  0
   -3.1030  -10.7160   49.4040 O   0  0  0  0  0
   -5.1080  -10.2300   48.2720 C   0  0  0  0  0
   -2.1660   -8.9620   46.6600 N   0  0  0  0  0
   -5.7350  -10.6420   47.0650 O   0  0  0  0  0
   -3.6080  -10.3080   48.1180 C   0  0  0  0  0
   -4.2780   -8.0130   52.4550 N   0  0  0  0  0
   -5.5760  -12.5030   49.1070 O   0  0  0  0  0
   -4.1610  -11.0010   50.3290 C   0  0  0  0  0
   -5.9900  -10.0200   55.0120 N   0  0  0  0  0
   -3.4730   -7.9700   48.1990 O   0  0  0  0  0
   -3.0710   -8.9830   47.6590 C   0  0  0  0  0
   -5.4670  -11.2130   53.0940 N   0  0  0  0  0
   -6.5250  -13.4780   54.4540 O   0  0  0  0  0
   -1.5900   -7.7190   46.1470 C   0  0  0  0  0
   -5.4280   -7.7970   55.3050 N   0  0  0  0  0
   -9.8250  -12.7320   59.6040 O   0  0  0  0  0
   -1.0650   -7.8060   44.7330 C   0  0  0  0  0
   -7.4820  -12.0490   55.9490 N   0  0  0  0  0
   -3.9440   -8.6430   51.3090 C   0  0  0  0  0
   -7.7270  -12.5110   58.9730 N   0  0  0  0  0
   -4.8820   -8.9260   53.2460 C   0  0  0  0  0
   -8.5550  -11.3370   60.7430 N   0  0  0  0  0
   -4.9080  -10.1160   52.5480 C   0  0  0  0  0
  -10.5180   -8.7490   63.2270 N   0  0  0  0  0
   -5.4550   -8.8940   54.5190 C   0  0  0  0  0
   -9.2950   -7.0630   64.4370 N   0  0  0  0  0
   -5.9960  -11.1700   54.3160 C   0  0  0  0  0
   -5.6890   -7.9240   56.7310 C   0  0  0  0  0
   -6.9630   -7.1980   57.1430 C   0  0  0  0  0
   -6.9990   -6.9300   58.6010 C   0  0  0  0  0
   -8.1310   -7.9590   56.6810 C   0  0  0  0  0
   -7.6760   -5.8060   59.0290 C   0  0  0  0  0
   -7.7260   -5.4920   60.3700 C   0  0  0  0  0
   -7.0920   -6.2890   61.3100 C   0  0  0  0  0
   -6.4090   -7.4170   60.9010 C   0  0  0  0  0
   -6.3630   -7.7380   59.5410 C   0  0  0  0  0
   -8.6730   -8.9830   57.4360 C   0  0  0  0  0
   -9.7680   -9.6850   56.9470 C   0  0  0  0  0
  -10.3180   -9.3560   55.7170 C   0  0  0  0  0
   -9.7680   -8.3180   54.9580 C   0  0  0  0  0
   -8.6710   -7.6240   55.4440 C   0  0  0  0  0
   -6.6650  -12.3610   54.9290 C   0  0  0  0  0
   -8.3970  -12.9590   56.6040 C   0  0  0  0  0
   -7.8020  -13.4780   57.8910 C   0  0  0  0  0
   -8.7470  -12.2190   59.7700 C   0  0  0  0  0
   -9.5870  -10.9340   61.6990 C   0  0  0  0  0
  -10.5270   -9.8930   61.0950 C   0  0  0  0  0
  -11.3960   -9.1910   62.1350 C   0  0  0  0  0
   -9.8660   -9.8300   63.9600 C   0  0  0  0  0
   -8.8830  -10.4010   62.9530 C   0  0  0  0  0
  -10.9900   -6.3310   62.9490 C   0  0  0  0  0
  -10.6930   -5.0030   63.2750 C   0  0  0  0  0
   -9.6810   -4.7340   64.1940 C   0  0  0  0  0
   -8.9880   -5.8010   64.7720 C   0  0  0  0  0
  -10.2740   -7.3810   63.5420 C   0  0  0  0  0
   -6.3322  -10.8287   49.9498 H   0  0  0  0  0
   -5.4940   -9.2267   48.4524 H   0  0  0  0  0
   -1.8717   -9.8465   46.2461 H   0  0  0  0  0
   -6.6882  -10.5909   47.1672 H   0  0  0  0  0
   -3.2939  -11.0247   47.3593 H   0  0  0  0  0
   -6.3596  -12.5939   48.5600 H   0  0  0  0  0
   -3.9516  -11.9057   50.8997 H   0  0  0  0  0
   -0.7423   -7.4733   46.7866 H   0  0  0  0  0
   -2.3873   -6.9757   46.1453 H   0  0  0  0  0
   -5.2254   -6.8826   54.9010 H   0  0  0  0  0
   -0.2816   -8.5623   44.6836 H   0  0  0  0  0
   -1.8785   -8.0792   44.0609 H   0  0  0  0  0
   -0.6575   -6.8391   44.4380 H   0  0  0  0  0
   -7.4550  -11.0884   56.2910 H   0  0  0  0  0
   -3.4377   -8.1785   50.4628 H   0  0  0  0  0
   -6.8411  -12.0299   59.1285 H   0  0  0  0  0
   -7.6310  -10.9139   60.8298 H   0  0  0  0  0
   -4.8531   -7.4805   57.2720 H   0  0  0  0  0
   -5.8087   -8.9822   56.9633 H   0  0  0  0  0
   -6.9833   -6.2190   56.6642 H   0  0  0  0  0
   -8.1737   -5.1634   58.3027 H   0  0  0  0  0
   -8.2709   -4.6058   60.6953 H   0  0  0  0  0
   -7.1324   -6.0265   62.3672 H   0  0  0  0  0
   -5.9096   -8.0522   61.6326 H   0  0  0  0  0
   -5.8251   -8.6277   59.2135 H   0  0  0  0  0
   -8.2452   -9.2371   58.4058 H   0  0  0  0  0
  -10.1967  -10.4981   57.5329 H   0  0  0  0  0
  -11.1801   -9.9072   55.3414 H   0  0  0  0  0
  -10.1988   -8.0567   53.9914 H   0  0  0  0  0
   -8.2322   -6.8168   54.8575 H   0  0  0  0  0
   -8.5919  -13.8016   55.9405 H   0  0  0  0  0
   -9.3208  -12.4272   56.8317 H   0  0  0  0  0
   -8.4530  -14.2818   58.2346 H   0  0  0  0  0
   -6.7777  -13.7742   57.6648 H   0  0  0  0  0
  -10.2096  -11.7893   61.9613 H   0  0  0  0  0
  -11.1924  -10.4106   60.4041 H   0  0  0  0  0
   -9.9119   -9.1337   60.6121 H   0  0  0  0  0
  -11.9055   -8.3369   61.6890 H   0  0  0  0  0
  -12.1585   -9.8717   62.5136 H   0  0  0  0  0
  -10.5742  -10.5759   64.3207 H   0  0  0  0  0
   -9.3764   -9.4814   64.8694 H   0  0  0  0  0
   -8.2050   -9.6034   62.6495 H   0  0  0  0  0
   -8.3552  -11.2297   63.4250 H   0  0  0  0  0
  -11.7808   -6.5502   62.2315 H   0  0  0  0  0
  -11.2485   -4.1863   62.8140 H   0  0  0  0  0
   -9.4333   -3.7060   64.4584 H   0  0  0  0  0
   -8.1967   -5.6074   65.4962 H   0  0  0  0  0
  1  4  1  0  0  0
  1  9  1  0  0  0
 10  1  1  0  0  0
  2 10  1  0  0  0
  2 21  4  0  0  0
 25  2  4  0  0  0
  3  7  1  0  0  0
 10  3  1  0  0  0
  4  6  1  0  0  0
  7  4  1  0  0  0
 13  5  1  0  0  0
  5 16  1  0  0  0
  7 13  1  0  0  0
  8 21  4  0  0  0
 23  8  4  0  0  0
 11 27  4  0  0  0
 29 11  4  0  0  0
 13 12  2  0  0  0
 14 25  4  0  0  0
 29 14  4  0  0  0
 44 15  2  0  0  0
 16 19  1  0  0  0
 27 17  1  0  0  0
 17 30  1  0  0  0
 47 18  2  0  0  0
 20 44  1  0  0  0
 45 20  1  0  0  0
 22 46  1  0  0  0
 47 22  1  0  0  0
 25 23  4  0  0  0
 27 23  4  0  0  0
 24 47  1  0  0  0
 48 24  1  0  0  0
 26 50  1  0  0  0
 26 51  1  0  0  0
 57 26  1  0  0  0
 28 56  4  0  0  0
 57 28  4  0  0  0
 44 29  1  0  0  0
 30 31  1  0  0  0
 31 32  1  0  0  0
 31 33  1  0  0  0
 32 34  4  0  0  0
 32 38  4  0  0  0
 33 39  4  0  0  0
 33 43  4  0  0  0
 34 35  4  0  0  0
 35 36  4  0  0  0
 37 36  4  0  0  0
 38 37  4  0  0  0
 39 40  4  0  0  0
 40 41  4  0  0  0
 42 41  4  0  0  0
 43 42  4  0  0  0
 46 45  1  0  0  0
 49 48  1  0  0  0
 52 48  1  0  0  0
 50 49  1  0  0  0
 51 52  1  0  0  0
 53 54  4  0  0  0
 53 57  4  0  0  0
 54 55  4  0  0  0
 55 56  4  0  0  0
  1 58  1  0  0  0
  4 59  1  0  0  0
  5 60  1  0  0  0
  6 61  1  0  0  0
  7 62  1  0  0  0
  9 63  1  0  0  0
 10 64  1  0  0  0
 16 65  1  0  0  0
 16 66  1  0  0  0
 17 67  1  0  0  0
 19 68  1  0  0  0
 19 69  1  0  0  0
 19 70  1  0  0  0
 20 71  1  0  0  0
 21 72  1  0  0  0
 22 73  1  0  0  0
 24 74  1  0  0  0
 30 75  1  0  0  0
 30 76  1  0  0  0
 31 77  1  0  0  0
 34 78  1  0  0  0
 35 79  1  0  0  0
 36 80  1  0  0  0
 37 81  1  0  0  0
 38 82  1  0  0  0
 39 83  1  0  0  0
 40 84  1  0  0  0
 41 85  1  0  0  0
 42 86  1  0  0  0
 43 87  1  0  0  0
 45 88  1  0  0  0
 45 89  1  0  0  0
 46 90  1  0  0  0
 46 91  1  0  0  0
 48 92  1  0  0  0
 49 93  1  0  0  0
 49 94  1  0  0  0
 50 95  1  0  0  0
 50 96  1  0  0  0
 51 97  1  0  0  0
 51 98  1  0  0  0
 52 99  1  0  0  0
 52100  1  0  0  0
 53101  1  0  0  0
 54102  1  0  0  0
 55103  1  0  0  0
 56104  1  0  0  0
M  END
$$$$
