5n18_ligand
  -I-interpret- 

 44 47  0  0  0  0  0  0  0  0999 V2000
   59.3060    7.2580   33.4790 C   0  0  0  0  0
   58.9900    5.8120   33.6140 C   0  0  0  0  0
   60.8350    5.3570   32.1690 C   0  0  0  0  0
   59.7800    4.8940   32.9410 C   0  0  0  0  0
   59.3080    9.4610   33.6580 C   0  0  0  0  0
   58.9170   10.8430   34.0380 C   0  0  0  0  0
   57.5630   11.1120   34.1700 C   0  0  0  0  0
   57.1310   12.3830   34.5180 C   0  0  0  0  0
   59.8590   11.8410   34.2490 C   0  0  0  0  0
   59.4240   13.1170   34.5990 C   0  0  0  0  0
   62.6320    9.6480   32.2790 C   0  0  0  0  0
   63.4600   10.3380   31.4020 C   0  0  0  0  0
   63.2000    8.8380   33.2610 C   0  0  0  0  0
   64.5810    8.7100   33.3540 C   0  0  0  0  0
   65.4020    9.4050   32.4740 C   0  0  0  0  0
   66.9000    9.2780   32.5690 C   0  0  0  0  0
   57.6280   14.6320   35.0730 O   0  0  0  0  0
   58.0650   13.3870   34.7330 C   0  0  0  0  0
   60.3900    8.9670   32.7900 C   0  0  0  0  0
   61.2820    9.7790   32.1610 N   0  0  0  0  0
   64.8430   10.2180   31.4970 C   0  0  0  0  0
   58.6810    8.3320   34.0370 N   0  0  0  0  0
   60.3510    7.6330   32.7070 N   0  0  0  0  0
   61.0980    6.7210   32.0660 C   0  0  0  0  0
   57.8330    5.3600   34.4640 C   0  0  0  0  0
   61.4658    4.6452   31.6366 H   0  0  0  0  0
   59.5758    3.8260   33.0170 H   0  0  0  0  0
   56.8340   10.3198   33.9992 H   0  0  0  0  0
   56.0663   12.5919   34.6219 H   0  0  0  0  0
   60.9229   11.6291   34.1423 H   0  0  0  0  0
   60.1527   13.9096   34.7691 H   0  0  0  0  0
   63.0233   10.9773   30.6347 H   0  0  0  0  0
   62.5577    8.3020   33.9598 H   0  0  0  0  0
   65.0193    8.0655   34.1160 H   0  0  0  0  0
   67.2300    9.6123   33.5526 H   0  0  0  0  0
   67.1850    8.2360   32.4235 H   0  0  0  0  0
   67.3651    9.8941   31.7994 H   0  0  0  0  0
   58.3824   15.2144   35.1879 H   0  0  0  0  0
   60.9198   10.5264   31.5689 H   0  0  0  0  0
   65.4867   10.7615   30.8054 H   0  0  0  0  0
   61.9318    7.0561   31.4490 H   0  0  0  0  0
   57.9884    5.6888   35.4915 H   0  0  0  0  0
   56.9098    5.7926   34.0785 H   0  0  0  0  0
   57.7658    4.2724   34.4354 H   0  0  0  0  0
  1  2  4  0  0  0
 22  1  4  0  0  0
  1 23  4  0  0  0
  2  4  4  0  0  0
  2 25  1  0  0  0
  4  3  4  0  0  0
  3 24  4  0  0  0
  5  6  1  0  0  0
 19  5  4  0  0  0
  5 22  4  0  0  0
  6  7  4  0  0  0
  6  9  4  0  0  0
  7  8  4  0  0  0
  8 18  4  0  0  0
  9 10  4  0  0  0
 10 18  4  0  0  0
 11 12  4  0  0  0
 11 13  4  0  0  0
 20 11  1  0  0  0
 12 21  4  0  0  0
 13 14  4  0  0  0
 14 15  4  0  0  0
 15 16  1  0  0  0
 21 15  4  0  0  0
 18 17  1  0  0  0
 19 20  1  0  0  0
 19 23  4  0  0  0
 23 24  4  0  0  0
  3 26  1  0  0  0
  4 27  1  0  0  0
  7 28  1  0  0  0
  8 29  1  0  0  0
  9 30  1  0  0  0
 10 31  1  0  0  0
 12 32  1  0  0  0
 13 33  1  0  0  0
 14 34  1  0  0  0
 16 35  1  0  0  0
 16 36  1  0  0  0
 16 37  1  0  0  0
 17 38  1  0  0  0
 20 39  1  0  0  0
 21 40  1  0  0  0
 24 41  1  0  0  0
 25 42  1  0  0  0
 25 43  1  0  0  0
 25 44  1  0  0  0
M  END
$$$$
