4keq_ligand
  -I-interpret- 

 19 20  0  0  0  0  0  0  0  0999 V2000
    1.6850    6.9910  -12.7550 C   0  0  0  0  0
    0.6890    6.1920  -12.2000 C   0  0  0  0  0
   -0.5240    6.6840  -11.9340 N   0  0  0  0  0
   -1.5050    5.8520  -11.3820 C   0  0  0  0  0
   -1.2190    4.5750  -11.1220 C   0  0  0  0  0
   -1.9450    3.5970  -10.6030 C   0  0  0  0  0
   -3.0940    3.7900  -10.2170 O   0  0  0  0  0
   -1.2830    2.4170  -10.4970 O   0  0  0  0  0
    0.0190    2.7140  -11.0200 C   0  0  0  0  0
   -0.0100    4.0670  -11.3840 C   0  0  0  0  0
    0.9220    4.8580  -11.9070 C   0  0  0  0  0
    2.1480    4.3380  -12.1710 O   0  0  0  0  0
    1.3492    7.3701  -13.7202 H   0  0  0  0  0
    1.8926    7.8270  -12.0871 H   0  0  0  0  0
    2.5902    6.3992  -12.8907 H   0  0  0  0  0
   -2.4981    6.2456  -11.1655 H   0  0  0  0  0
    0.2549    2.0803  -11.8749 H   0  0  0  0  0
    0.7952    2.5211  -10.2795 H   0  0  0  0  0
    2.1627    3.4119  -11.9186 H   0  0  0  0  0
  1  2  1  0  0  0
  2  3  4  0  0  0
  2 11  4  0  0  0
  3  4  4  0  0  0
  4  5  4  0  0  0
  5  6  1  0  0  0
  5 10  4  0  0  0
  6  7  2  0  0  0
  6  8  1  0  0  0
  8  9  1  0  0  0
  9 10  1  0  0  0
 10 11  4  0  0  0
 11 12  1  0  0  0
  1 13  1  0  0  0
  1 14  1  0  0  0
  1 15  1  0  0  0
  4 16  1  0  0  0
  9 17  1  0  0  0
  9 18  1  0  0  0
 12 19  1  0  0  0
M  END
$$$$
