5n4s_ligand
  -I-interpret- 

 38 39  0  0  0  0  0  0  0  0999 V2000
  -31.7410   11.1740   71.2790 N   0  0  0  0  0
  -31.2670    9.8120   71.5570 C   0  0  0  0  0
  -31.4720    9.4890   73.0450 C   0  0  0  0  0
  -32.4520    9.9620   73.6820 O   0  0  0  0  0
  -30.6720    8.7420   73.6660 O   0  0  0  0  0
  -32.1280    8.8850   70.6980 C   0  0  0  0  0
  -31.5810    7.4810   70.4320 C   0  0  0  0  0
  -32.3640    6.3820   70.0360 C   0  0  0  0  0
  -31.5000    5.3180   69.8900 C   0  0  0  0  0
  -30.2520    5.7320   70.1790 N   0  0  0  0  0
  -30.2700    7.0200   70.5020 C   0  0  0  0  0
  -32.0020    4.0620   69.5010 C   0  0  0  0  0
  -33.3640    3.9020   69.2620 C   0  0  0  0  0
  -34.2360    4.9810   69.4060 C   0  0  0  0  0
  -33.7430    6.2210   69.7950 C   0  0  0  0  0
  -30.9220   12.3420   71.0010 C   0  0  0  0  0
  -29.7370   12.3330   70.9810 O   0  0  0  0  0
  -31.6750   13.6530   70.8010 C   0  0  0  0  0
  -31.6180   14.4150   72.1350 C   0  0  0  0  0
  -32.2080   13.4320   73.5650 S   0  0  0  0  0
  -31.0440   14.5130   69.7010 C   0  0  0  0  0
  -32.7512   11.3150   71.2813 H   0  0  0  0  0
  -30.2070    9.6966   71.3308 H   0  0  0  0  0
  -32.9788   10.5100   73.0957 H   0  0  0  0  0
  -32.2025    9.3659   69.7227 H   0  0  0  0  0
  -33.0569    8.7436   71.2506 H   0  0  0  0  0
  -29.4009    7.6177   70.7767 H   0  0  0  0  0
  -31.3250    3.2154   69.3870 H   0  0  0  0  0
  -33.7510    2.9285   68.9608 H   0  0  0  0  0
  -35.3012    4.8522   69.2140 H   0  0  0  0  0
  -34.4210    7.0663   69.9133 H   0  0  0  0  0
  -32.6992   13.4387   70.4957 H   0  0  0  0  0
  -32.2697   15.2840   72.0438 H   0  0  0  0  0
  -30.5750   14.6709   72.3216 H   0  0  0  0  0
  -32.1236   14.1662   74.6708 H   0  0  0  0  0
  -30.0144   14.7480   69.9710 H   0  0  0  0  0
  -31.0578   13.9639   68.7595 H   0  0  0  0  0
  -31.6125   15.4367   69.5927 H   0  0  0  0  0
  1  2  1  0  0  0
  1 16  1  0  0  0
  2  3  1  0  0  0
  2  6  1  0  0  0
  3  4  1  0  0  0
  3  5  2  0  0  0
  6  7  1  0  0  0
  7  8  4  0  0  0
  7 11  4  0  0  0
  8  9  4  0  0  0
  8 15  4  0  0  0
  9 10  4  0  0  0
  9 12  4  0  0  0
 10 11  4  0  0  0
 12 13  4  0  0  0
 13 14  4  0  0  0
 14 15  4  0  0  0
 16 17  2  0  0  0
 16 18  1  0  0  0
 18 19  1  0  0  0
 18 21  1  0  0  0
 19 20  1  0  0  0
  1 22  1  0  0  0
  2 23  1  0  0  0
  4 24  1  0  0  0
  6 25  1  0  0  0
  6 26  1  0  0  0
 11 27  1  0  0  0
 12 28  1  0  0  0
 13 29  1  0  0  0
 14 30  1  0  0  0
 15 31  1  0  0  0
 18 32  1  0  0  0
 19 33  1  0  0  0
 19 34  1  0  0  0
 20 35  1  0  0  0
 21 36  1  0  0  0
 21 37  1  0  0  0
 21 38  1  0  0  0
M  END
$$$$
