2zkj_ligand
  -I-interpret- 

 42 44  0  0  0  0  0  0  0  0999 V2000
  -21.6730    5.2810   26.5140 P   0  0  0  0  0
  -21.0930    5.2840   27.9140 O   0  0  0  0  0
  -23.1380    4.7920   26.4160 O   0  0  0  0  0
  -21.5700    6.5460   25.8290 O   0  0  0  0  0
  -19.5600    4.5260   24.6230 P   0  0  0  0  0
  -19.7820    5.6630   23.7150 O   0  0  0  0  0
  -18.9730    3.1650   24.1710 O   0  0  0  0  0
  -20.7960    4.1770   25.6370 O   0  0  0  0  0
  -18.4730    5.1310   25.5790 O   0  0  0  0  0
  -18.0640    4.2960   26.6710 C   0  0  0  0  0
  -17.3060    5.0840   27.7650 C   0  0  0  0  0
  -16.0770    5.6490   27.2800 O   0  0  0  0  0
  -18.0910    6.2850   28.3200 C   0  0  0  0  0
  -19.0840    5.8490   29.3000 O   0  0  0  0  0
  -16.9520    7.1270   28.9200 C   0  0  0  0  0
  -16.6770    6.5460   30.1850 O   0  0  0  0  0
  -15.7060    6.7920   28.0780 C   0  0  0  0  0
  -15.5070    7.8820   27.1380 N   0  0  0  0  0
  -15.8960    7.8510   25.8440 C   0  0  0  0  0
  -15.5480    8.9990   25.2730 N   0  0  0  0  0
  -15.0020    9.7810   26.2320 C   0  0  0  0  0
  -14.4560   11.1190   26.2870 C   0  0  0  0  0
  -14.4640   11.9250   25.1590 N   0  0  0  0  0
  -13.9550   11.5320   27.4670 N   0  0  0  0  0
  -13.9620   10.7930   28.5770 C   0  0  0  0  0
  -14.4340    9.5580   28.6160 N   0  0  0  0  0
  -14.9620    9.0320   27.4620 C   0  0  0  0  0
  -21.1975    4.4132   28.3043 H   0  0  0  0  0
  -23.2238    3.9494   26.8679 H   0  0  0  0  0
  -18.9172    2.5752   24.9264 H   0  0  0  0  0
  -17.3918    3.5330   26.2784 H   0  0  0  0  0
  -18.9595    3.8691   27.1225 H   0  0  0  0  0
  -17.1421    4.3332   28.5380 H   0  0  0  0  0
  -18.6852    6.8378   27.5923 H   0  0  0  0  0
  -19.5609    6.6130   29.6323 H   0  0  0  0  0
  -17.1893    8.1901   28.9608 H   0  0  0  0  0
  -15.9681    7.0325   30.6120 H   0  0  0  0  0
  -14.8250    6.6258   28.6979 H   0  0  0  0  0
  -16.4084    7.0242   25.3522 H   0  0  0  0  0
  -14.8563   11.5750   24.2849 H   0  0  0  0  0
  -14.0776   12.8680   25.2032 H   0  0  0  0  0
  -13.5608   11.2261   29.4933 H   0  0  0  0  0
  1  2  1  0  0  0
  1  3  1  0  0  0
  1  4  2  0  0  0
  8  1  1  0  0  0
  5  6  2  0  0  0
  5  7  1  0  0  0
  5  8  1  0  0  0
  5  9  1  0  0  0
  9 10  1  0  0  0
 10 11  1  0  0  0
 11 12  1  0  0  0
 11 13  1  0  0  0
 12 17  1  0  0  0
 13 14  1  0  0  0
 13 15  1  0  0  0
 15 16  1  0  0  0
 15 17  1  0  0  0
 17 18  1  0  0  0
 18 19  4  0  0  0
 18 27  4  0  0  0
 19 20  4  0  0  0
 20 21  4  0  0  0
 21 22  4  0  0  0
 21 27  4  0  0  0
 22 23  1  0  0  0
 22 24  4  0  0  0
 24 25  4  0  0  0
 25 26  4  0  0  0
 26 27  4  0  0  0
  2 28  1  0  0  0
  3 29  1  0  0  0
  7 30  1  0  0  0
 10 31  1  0  0  0
 10 32  1  0  0  0
 11 33  1  0  0  0
 13 34  1  0  0  0
 14 35  1  0  0  0
 15 36  1  0  0  0
 16 37  1  0  0  0
 17 38  1  0  0  0
 19 39  1  0  0  0
 23 40  1  0  0  0
 23 41  1  0  0  0
 25 42  1  0  0  0
M  END
$$$$
