4b72_ligand
  -I-interpret- 

 49 53  0  0  0  0  0  0  0  0999 V2000
    8.3090    3.8620  -16.2020 C   0  0  0  0  0
    7.4260    3.5170  -17.3770 C   0  0  0  0  0
    6.1380    3.6020  -17.3760 N   0  0  0  0  0
    5.5420    3.2460  -18.5300 C   0  0  0  0  0
    6.4080    2.8550  -19.5020 C   0  0  0  0  0
    7.9840    2.9370  -18.8880 S   0  0  0  0  0
    5.6180    2.5000  -20.7410 C   0  0  0  0  0
    4.2250    2.7250  -20.3170 N   0  0  0  0  0
    4.1850    3.1500  -19.0900 C   0  0  0  0  0
    3.0500    3.4390  -18.3700 N   0  0  0  0  0
    5.9470    3.4390  -21.8910 C   0  0  0  0  0
    7.2010    4.0510  -22.0210 C   0  0  0  0  0
    7.4610    4.8970  -23.1010 C   0  0  0  0  0
    6.4430    5.2320  -24.0010 C   0  0  0  0  0
    5.1760    4.6140  -23.8870 C   0  0  0  0  0
    4.9470    3.7410  -22.8200 C   0  0  0  0  0
    6.7240    6.0700  -25.0280 O   0  0  0  0  0
    5.6880    6.8500  -25.6560 C   0  0  0  0  0
    5.8800    1.0340  -21.1000 C   0  0  0  0  0
    6.6880    0.6630  -22.1840 C   0  0  0  0  0
    6.9220   -0.6810  -22.4790 C   0  0  0  0  0
    6.3890   -1.6760  -21.6710 C   0  0  0  0  0
    5.5690   -1.3160  -20.5870 C   0  0  0  0  0
    5.3710    0.0400  -20.2870 C   0  0  0  0  0
    5.0490   -2.3590  -19.6540 C   0  0  0  0  0
    5.8900   -3.4100  -19.2180 C   0  0  0  0  0
    5.4430   -4.2910  -18.3220 N   0  0  0  0  0
    4.2030   -4.2060  -17.8360 C   0  0  0  0  0
    3.3940   -3.2220  -18.2010 N   0  0  0  0  0
    3.7620   -2.3020  -19.1010 C   0  0  0  0  0
    8.1603    4.9075  -15.9320 H   0  0  0  0  0
    8.0498    3.2263  -15.3553 H   0  0  0  0  0
    9.3522    3.7004  -16.4733 H   0  0  0  0  0
    3.4062    2.5689  -20.9049 H   0  0  0  0  0
    2.1314    3.3239  -18.7981 H   0  0  0  0  0
    7.9757    3.8661  -21.2768 H   0  0  0  0  0
    8.4639    5.2993  -23.2441 H   0  0  0  0  0
    4.3926    4.8149  -24.6178 H   0  0  0  0  0
    3.9637    3.2839  -22.7093 H   0  0  0  0  0
    4.9342    6.1820  -26.0728 H   0  0  0  0  0
    5.2268    7.5029  -24.9150 H   0  0  0  0  0
    6.1220    7.4530  -26.4536 H   0  0  0  0  0
    7.1402    1.4357  -22.8057 H   0  0  0  0  0
    7.5250   -0.9501  -23.3463 H   0  0  0  0  0
    6.6038   -2.7250  -21.8747 H   0  0  0  0  0
    4.8054    0.3141  -19.3965 H   0  0  0  0  0
    6.9017   -3.4995  -19.6138 H   0  0  0  0  0
    3.8506   -4.9567  -17.1287 H   0  0  0  0  0
    3.0682   -1.5166  -19.4008 H   0  0  0  0  0
  1  2  1  0  0  0
  2  3  4  0  0  0
  2  6  4  0  0  0
  3  4  4  0  0  0
  4  5  4  0  0  0
  4  9  1  0  0  0
  5  6  4  0  0  0
  5  7  1  0  0  0
  7  8  1  0  0  0
  7 11  1  0  0  0
  7 19  1  0  0  0
  8  9  1  0  0  0
  9 10  2  0  0  0
 11 12  4  0  0  0
 11 16  4  0  0  0
 12 13  4  0  0  0
 13 14  4  0  0  0
 14 15  4  0  0  0
 14 17  1  0  0  0
 15 16  4  0  0  0
 17 18  1  0  0  0
 19 20  4  0  0  0
 19 24  4  0  0  0
 20 21  4  0  0  0
 21 22  4  0  0  0
 22 23  4  0  0  0
 23 24  4  0  0  0
 23 25  1  0  0  0
 25 26  4  0  0  0
 25 30  4  0  0  0
 26 27  4  0  0  0
 27 28  4  0  0  0
 28 29  4  0  0  0
 29 30  4  0  0  0
  1 31  1  0  0  0
  1 32  1  0  0  0
  1 33  1  0  0  0
  8 34  1  0  0  0
 10 35  1  0  0  0
 12 36  1  0  0  0
 13 37  1  0  0  0
 15 38  1  0  0  0
 16 39  1  0  0  0
 18 40  1  0  0  0
 18 41  1  0  0  0
 18 42  1  0  0  0
 20 43  1  0  0  0
 21 44  1  0  0  0
 22 45  1  0  0  0
 24 46  1  0  0  0
 26 47  1  0  0  0
 28 48  1  0  0  0
 30 49  1  0  0  0
M  END
$$$$
