2oax_ligand
  -I-interpret- 

 61 65  0  0  0  0  0  0  0  0999 V2000
  -22.9650   57.7830    2.8810 C   0  0  0  0  0
  -21.4410   61.4310    3.2340 C   0  0  0  0  0
  -21.6420   59.8600    2.6070 C   0  0  0  0  0
  -17.6790   61.0790    4.5750 C   0  0  0  0  0
  -20.9950   58.8580    3.7220 C   0  0  0  0  0
  -17.4540   62.6040    5.2360 C   0  0  0  0  0
  -19.9980   61.7840    3.4890 C   0  0  0  0  0
  -21.6150   57.4500    3.4530 C   0  0  0  0  0
  -23.0980   59.2720    2.6430 C   0  0  0  0  0
  -20.9800   59.7650    1.1200 C   0  0  0  0  0
  -16.9460   61.0680    3.1490 C   0  0  0  0  0
  -16.0080   62.8740    5.8000 C   0  0  0  0  0
  -24.1290   59.8570    3.6860 C   0  0  0  0  0
  -25.1470   60.7050    2.8760 C   0  0  0  0  0
  -24.7400   60.4840    1.4500 C   0  0  0  0  0
  -19.2940   56.7540    7.6120 C   0  0  0  0  0
  -20.0030   56.3580    8.8990 C   0  0  0  0  0
  -15.4820   61.6250    6.6540 C   0  0  0  0  0
  -15.9490   60.2380    6.4010 C   0  0  0  0  0
  -16.8790   59.9450    5.4040 C   0  0  0  0  0
  -17.2780   58.4070    5.1350 C   0  0  0  0  0
  -18.8120   58.1540    4.9830 C   0  0  0  0  0
  -19.4910   59.0960    3.9690 C   0  0  0  0  0
  -19.2250   60.7120    4.4060 C   0  0  0  0  0
  -25.1350   61.1620    0.4900 O   0  0  0  0  0
  -23.8210   59.4220    1.3580 O   0  0  0  0  0
  -18.3930   56.0320    7.2050 O   0  0  0  0  0
  -14.7040   61.8230    7.5500 O   0  0  0  0  0
  -19.7160   58.3000    6.7080 S   0  0  0  0  0
  -23.7326   57.4711    3.5893 H   0  0  0  0  0
  -23.0804   57.2641    1.9294 H   0  0  0  0  0
  -21.9674   61.4776    4.1873 H   0  0  0  0  0
  -21.8295   62.1344    2.4975 H   0  0  0  0  0
  -21.2661   59.0572    4.7588 H   0  0  0  0  0
  -18.1422   62.6886    6.0770 H   0  0  0  0  0
  -17.6200   63.3236    4.4343 H   0  0  0  0  0
  -19.9832   62.7371    4.0176 H   0  0  0  0  0
  -19.4930   61.8125    2.5235 H   0  0  0  0  0
  -21.0089   56.8411    2.7822 H   0  0  0  0  0
  -21.6751   56.8348    4.3508 H   0  0  0  0  0
  -20.9333   58.7209    0.8105 H   0  0  0  0  0
  -21.5919   60.3274    0.4147 H   0  0  0  0  0
  -19.9738   60.1834    1.1442 H   0  0  0  0  0
  -15.8918   61.3110    3.2819 H   0  0  0  0  0
  -17.0384   60.0782    2.7020 H   0  0  0  0  0
  -17.4112   61.8074    2.4971 H   0  0  0  0  0
  -16.0433   63.7501    6.4475 H   0  0  0  0  0
  -15.3302   63.0345    4.9616 H   0  0  0  0  0
  -23.6224   60.4669    4.4340 H   0  0  0  0  0
  -24.6328   59.0557    4.2266 H   0  0  0  0  0
  -25.1259   61.7583    3.1556 H   0  0  0  0  0
  -26.1786   60.4076    3.0645 H   0  0  0  0  0
  -20.4612   55.3771    8.7729 H   0  0  0  0  0
  -19.2800   56.3206    9.7139 H   0  0  0  0  0
  -20.7738   57.0937    9.1288 H   0  0  0  0  0
  -15.5537   59.4263    7.0117 H   0  0  0  0  0
  -16.9440   57.8344    6.0002 H   0  0  0  0  0
  -16.8115   58.1159    4.1939 H   0  0  0  0  0
  -18.9062   57.1392    4.5966 H   0  0  0  0  0
  -19.0153   58.8591    3.0173 H   0  0  0  0  0
  -19.6769   60.7904    5.3948 H   0  0  0  0  0
  8  1  1  0  0  0
  1  9  1  0  0  0
  3  2  1  0  0  0
  2  7  1  0  0  0
  5  3  1  0  0  0
  3  9  1  0  0  0
  3 10  1  0  0  0
  4  6  1  0  0  0
  4 11  1  0  0  0
 20  4  1  0  0  0
  4 24  1  0  0  0
  5  8  1  0  0  0
 23  5  1  0  0  0
  6 12  1  0  0  0
 24  7  1  0  0  0
  9 13  1  0  0  0
  9 26  1  0  0  0
 18 12  1  0  0  0
 13 14  1  0  0  0
 15 14  1  0  0  0
 15 25  2  0  0  0
 26 15  1  0  0  0
 16 17  1  0  0  0
 16 27  2  0  0  0
 29 16  1  0  0  0
 19 18  1  0  0  0
 18 28  2  0  0  0
 20 19  2  0  0  0
 21 20  1  0  0  0
 22 21  1  0  0  0
 22 23  1  0  0  0
 22 29  1  0  0  0
 23 24  1  0  0  0
  1 30  1  0  0  0
  1 31  1  0  0  0
  2 32  1  0  0  0
  2 33  1  0  0  0
  5 34  1  0  0  0
  6 35  1  0  0  0
  6 36  1  0  0  0
  7 37  1  0  0  0
  7 38  1  0  0  0
  8 39  1  0  0  0
  8 40  1  0  0  0
 10 41  1  0  0  0
 10 42  1  0  0  0
 10 43  1  0  0  0
 11 44  1  0  0  0
 11 45  1  0  0  0
 11 46  1  0  0  0
 12 47  1  0  0  0
 12 48  1  0  0  0
 13 49  1  0  0  0
 13 50  1  0  0  0
 14 51  1  0  0  0
 14 52  1  0  0  0
 17 53  1  0  0  0
 17 54  1  0  0  0
 17 55  1  0  0  0
 19 56  1  0  0  0
 21 57  1  0  0  0
 21 58  1  0  0  0
 22 59  1  0  0  0
 23 60  1  0  0  0
 24 61  1  0  0  0
M  END
$$$$
