4kbi_ligand

Created by X-TOOL on Fri Nov 18 17:36:27 2016
 66 71  0  0  0  0  0  0  0  0999 V2000
    3.6090   38.9750   47.1330  C 0  0  0  4  0  4
    2.7480   40.1070   47.1110  N 0  0  0  2  0  3
    2.5630   40.8450   48.2820  C 0  0  0  1  0  3
    2.0400   41.9780   48.1440  O 0  0  0  1  0  1
    3.1900   40.4680   49.6220  C 0  0  0  1  0  3
    2.9840   39.3310   50.4900  C 0  0  0  1  0  3
    3.7060   39.5130   51.6370  O 0  0  0  1  0  2
    4.3610   40.7110   51.5420  C 0  0  0  1  0  3
    5.2060   41.3400   52.4670  C 0  0  0  2  0  3
    5.7720   42.5950   52.1610  C 0  0  0  1  0  3
    6.6420   43.1520   53.2260  N 0  0  0  1  0  3
    8.0240   42.8510   53.2220  C 0  0  0  3  0  4
    8.9310   43.6300   52.2500  C 0  0  0  1  0  3
    9.2760   44.9040   52.5920  C 0  0  0  2  0  3
   10.1160   45.6720   51.7260  C 0  0  0  1  0  3
   10.6420   47.1110   51.8910  C 0  0  0  3  0  4
   11.2970   47.4580   50.6740  O 0  0  0  2  0  3
   11.3890   46.2900   49.8720  B 0  0  0  1  0  3
   11.3490   46.5530   48.4400  O 0  0  0  3  0  3
   10.5290   45.1770   50.6250  C 0  0  0  2  0  4
   10.1500   43.8430   50.2530  C 0  0  0  1  0  3
   10.5920   43.3230   49.0950  F 0  0  0  1  0  1
    9.3580   43.0940   51.0940  C 0  0  0  2  0  3
    5.9360   43.9840   54.4150  S 0  0  0  1  0  4
    5.8550   42.9160   55.8330  C 0  0  0  4  0  4
    4.5680   44.3690   54.0510  O 0  0  0  1  0  1
    6.7040   45.2010   54.7110  O 0  0  0  1  0  1
    5.4360   43.2630   50.9450  C 0  0  0  1  0  3
    4.5890   42.5970   50.0060  C 0  0  0  2  0  3
    4.0630   41.3150   50.3060  C 0  0  0  1  0  3
    6.0460   44.5820   50.5940  C 0  0  0  2  0  4
    6.9170   45.1650   49.5330  C 0  0  0  2  0  3
    5.4580   45.4620   49.5340  C 0  0  0  2  0  3
    2.1800   38.2060   50.3710  C 0  0  0  1  0  3
    0.9950   38.2240   49.6290  C 0  0  0  2  0  3
    0.1590   37.0890   49.6310  C 0  0  0  2  0  3
    0.4350   36.0260   50.4510  C 0  0  0  1  0  3
   -0.3530   35.0030   50.4640  F 0  0  0  1  0  1
    1.5890   36.0420   51.2800  C 0  0  0  2  0  3
    2.4360   37.1400   51.2520  C 0  0  0  2  0  3
    3.6375   38.5166   46.1335  H 0  0  0  1  0  1
    3.2326   38.2421   47.8619  H 0  0  0  1  0  1
    4.6227   39.2908   47.4206  H 0  0  0  1  0  1
    2.2808   40.3712   46.2672  H 0  0  0  1  0  1
    5.4239   40.8627   53.4156  H 0  0  0  1  0  1
    8.1255   41.7829   52.9792  H 0  0  0  1  0  1
    8.4015   43.0334   54.2390  H 0  0  0  1  0  1
    8.9141   45.3341   53.5189  H 0  0  0  1  0  1
   11.3525   47.1596   52.7293  H 0  0  0  1  0  1
    9.8052   47.7997   52.0791  H 0  0  0  1  0  1
   12.0136   46.8542   50.5180  H 0  0  0  1  0  1
   10.5301   46.9817   48.2206  H 0  0  0  1  0  1
   10.5301   46.9817   48.2206  H 0  0  0  1  0  1
   11.1651   45.7627   49.9713  H 0  0  0  1  0  1
    9.0813   42.0808   50.8260  H 0  0  0  1  0  1
    5.3777   43.4504   56.6677  H 0  0  0  1  0  1
    6.8722   42.6152   56.1241  H 0  0  0  1  0  1
    5.2648   42.0215   55.5851  H 0  0  0  1  0  1
    4.3482   43.0731   49.0624  H 0  0  0  1  0  1
    6.2310   45.0360   51.5787  H 0  0  0  1  0  1
    7.9020   45.2856   49.0845  H 0  0  0  1  0  1
    4.5955   45.9566   49.0897  H 0  0  0  1  0  1
    0.7215   39.1033   49.0571  H 0  0  0  1  0  1
   -0.7073   37.0567   48.9802  H 0  0  0  1  0  1
    1.8059   35.2019   51.9298  H 0  0  0  1  0  1
    3.2966   37.1766   51.9101  H 0  0  0  1  0  1
  1  2  1  0  0  2
  2  3  1  0  0  2
  3  4  2  0  0  2
  3  5  1  0  0  2
  5  6  2  0  0  1
  5 30  1  0  0  1
  6  7  1  0  0  1
  6 34  1  0  0  2
  7  8  1  0  0  1
  8  9  4  0  0  1
  8 30  4  0  0  1
  9 10  4  0  0  1
 10 11  1  0  0  2
 10 28  4  0  0  1
 11 12  1  0  0  2
 11 24  1  0  0  2
 12 13  1  0  0  2
 13 14  4  0  0  1
 13 23  4  0  0  1
 14 15  4  0  0  1
 15 16  1  0  0  1
 15 20  4  0  0  1
 16 17  1  0  0  1
 17 18  1  0  0  1
 18 19  1  0  0  2
 18 20  1  0  0  1
 20 21  4  0  0  1
 21 22  1  0  0  2
 21 23  4  0  0  1
 24 25  1  0  0  2
 24 26  2  0  0  2
 24 27  2  0  0  2
 28 29  4  0  0  1
 28 31  1  0  0  2
 29 30  4  0  0  1
 31 32  1  0  0  1
 31 33  1  0  0  1
 32 33  2  0  0  1
 34 35  4  0  0  1
 34 40  4  0  0  1
 35 36  4  0  0  1
 36 37  4  0  0  1
 37 38  1  0  0  2
 37 39  4  0  0  1
 39 40  4  0  0  1
  1 41  1  0  0  2
  1 42  1  0  0  2
  1 43  1  0  0  2
  2 44  1  0  0  2
  9 45  1  0  0  2
 12 46  1  0  0  2
 12 47  1  0  0  2
 14 48  1  0  0  2
 16 49  1  0  0  2
 16 50  1  0  0  2
 17 51  1  0  0  2
 19 52  1  0  0  2
 19 53  1  0  0  2
 20 54  1  0  0  2
 23 55  1  0  0  2
 25 56  1  0  0  2
 25 57  1  0  0  2
 25 58  1  0  0  2
 29 59  1  0  0  2
 31 60  1  0  0  2
 32 61  1  0  0  2
 33 62  1  0  0  2
 35 63  1  0  0  2
 36 64  1  0  0  2
 39 65  1  0  0  2
 40 66  1  0  0  2
M  END
> <MOLECULAR_FORMULA>
C28H26N2O6SF2B

> <MOLECULAR_WEIGHT>
567.2

> <NUM_HB_ATOMS>
6  

> <NUM_ROTOR>
3  

> <XLOGP2>
4.67 

$$$$
