#	Name:			4kbi_ligand
#	Creating user name:	wangrx
#	Creation time:		Wed Aug  4 17:51:36 2021

#	Modifying user name:	wangrx
#	Modification time:	Wed Aug  4 17:51:58 2021

@<TRIPOS>MOLECULE
4kbi_ligand
   64    69     1     0     0
SMALL
GAST_HUCK


@<TRIPOS>ATOM
      1 C01         3.6090   38.9750   47.1330 C.3       1 1C0         0.0182 
      2 N02         2.7480   40.1070   47.1110 N.am      1 1C0        -0.2944 
      3 C03         2.5630   40.8450   48.2820 C.2       1 1C0         0.1815 
      4 O04         2.0400   41.9780   48.1440 O.2       1 1C0        -0.4007 
      5 C05         3.1900   40.4680   49.6220 C.2       1 1C0         0.0606 
      6 C06         2.9840   39.3310   50.4900 C.2       1 1C0         0.1378 
      7 O07         3.7060   39.5130   51.6370 O.3       1 1C0        -0.2569 
      8 C08         4.3610   40.7110   51.5420 C.ar      1 1C0         0.1058 
      9 C09         5.2060   41.3400   52.4670 C.ar      1 1C0        -0.0198 
     10 C10         5.7720   42.5950   52.1610 C.ar      1 1C0         0.0628 
     11 N11         6.6420   43.1520   53.2260 N.am      1 1C0        -0.1777 
     12 C12         8.0240   42.8510   53.2220 C.3       1 1C0         0.0606 
     13 C13         8.9310   43.6300   52.2500 C.ar      1 1C0        -0.1248 
     14 C14         9.2760   44.9040   52.5920 C.ar      1 1C0        -0.1741 
     15 C15        10.1160   45.6720   51.7260 C.ar      1 1C0        -0.1643 
     16 C16        10.6420   47.1110   51.8910 C.3       1 1C0        -0.1322 
     17 O17        11.2970   47.4580   50.6740 O.3       1 1C0        -0.8484 
     18 B18        11.3890   46.2900   49.8720 B         1 1C0         3.0000 
     19 O19        11.3490   46.5530   48.4400 O.3       1 1C0        -0.4105 
     20 C20        10.5290   45.1770   50.6250 C.ar      1 1C0        -0.1373 
     21 C21        10.1500   43.8430   50.2530 C.ar      1 1C0        -0.0142 
     22 F22        10.5920   43.3230   49.0950 F         1 1C0        -0.2818 
     23 C23         9.3580   43.0940   51.0940 C.ar      1 1C0        -0.1399 
     24 S24         5.9360   43.9840   54.4150 S.o2      1 1C0         0.0596 
     25 C25         5.8550   42.9160   55.8330 C.3       1 1C0         0.0789 
     26 O26         4.5680   44.3690   54.0510 O.2       1 1C0        -0.1500 
     27 O27         6.7040   45.2010   54.7110 O.2       1 1C0        -0.1500 
     28 C28         5.4360   43.2630   50.9450 C.ar      1 1C0        -0.0235 
     29 C29         4.5890   42.5970   50.0060 C.ar      1 1C0        -0.0791 
     30 C30         4.0630   41.3150   50.3060 C.ar      1 1C0        -0.0133 
     31 C31         6.0460   44.5820   50.5940 C.3       1 1C0         0.0243 
     32 C32         6.9170   45.1650   49.5330 C.2       1 1C0        -0.0663 
     33 C33         5.4580   45.4620   49.5340 C.2       1 1C0        -0.0663 
     34 C34         2.1800   38.2060   50.3710 C.ar      1 1C0         0.0153 
     35 C35         0.9950   38.2240   49.6290 C.ar      1 1C0        -0.0519 
     36 C36         0.1590   37.0890   49.6310 C.ar      1 1C0        -0.0268 
     37 C37         0.4350   36.0260   50.4510 C.ar      1 1C0         0.1335 
     38 F38        -0.3530   35.0030   50.4640 F         1 1C0        -0.1824 
     39 C39         1.5890   36.0420   51.2800 C.ar      1 1C0        -0.0268 
     40 C40         2.4360   37.1400   51.2520 C.ar      1 1C0        -0.0519 
     41 H1          3.6375   38.5166   46.1335 H         1 1C0         0.0482 
     42 H2          3.2326   38.2421   47.8619 H         1 1C0         0.0482 
     43 H3          4.6227   39.2908   47.4206 H         1 1C0         0.0482 
     44 H4          2.2808   40.3712   46.2672 H         1 1C0         0.1829 
     45 H5          5.4239   40.8627   53.4156 H         1 1C0         0.0381 
     46 H6          8.1255   41.7829   52.9792 H         1 1C0         0.0657 
     47 H7          8.4015   43.0334   54.2390 H         1 1C0         0.0657 
     48 H8          8.9141   45.3341   53.5189 H         1 1C0        -0.0360 
     49 H9         11.3525   47.1596   52.7293 H         1 1C0         0.0183 
     50 H10         9.8052   47.7997   52.0791 H         1 1C0         0.0183 
     51 H12        10.5301   46.9817   48.2206 H         1 1C0         0.2052 
     52 H13        10.5301   46.9817   48.2206 H         1 1C0         0.2052 
     53 H15         9.0813   42.0808   50.8260 H         1 1C0         0.0080 
     54 H16         5.3777   43.4504   56.6677 H         1 1C0         0.0487 
     55 H17         6.8722   42.6152   56.1241 H         1 1C0         0.0487 
     56 H18         5.2648   42.0215   55.5851 H         1 1C0         0.0487 
     57 H19         4.3482   43.0731   49.0624 H         1 1C0         0.0419 
     58 H20         6.2310   45.0360   51.5787 H         1 1C0         0.0537 
     59 H21         7.9020   45.2856   49.0845 H         1 1C0         0.0617 
     60 H22         4.5955   45.9566   49.0897 H         1 1C0         0.0617 
     61 H23         0.7215   39.1033   49.0571 H         1 1C0         0.0619 
     62 H24        -0.7073   37.0567   48.9802 H         1 1C0         0.0607 
     63 H25         1.8059   35.2019   51.9298 H         1 1C0         0.0607 
     64 H26         3.2966   37.1766   51.9101 H         1 1C0         0.0619 
@<TRIPOS>BOND
     1    1    2 1    
     2    2    3 am   
     3    3    4 2    
     4    3    5 1    
     5    5    6 2    
     6    5   30 1    
     7    6    7 1    
     8    6   34 1    
     9    7    8 1    
    10    8    9 ar   
    11    8   30 ar   
    12    9   10 ar   
    13   10   11 1    
    14   10   28 ar   
    15   11   12 1    
    16   11   24 am   
    17   12   13 1    
    18   13   14 ar   
    19   13   23 ar   
    20   14   15 ar   
    21   15   16 1    
    22   15   20 ar   
    23   16   17 1    
    24   17   18 1    
    25   18   19 1    
    26   18   20 1    
    27   20   21 ar   
    28   21   22 1    
    29   21   23 ar   
    30   24   25 1    
    31   24   26 2    
    32   24   27 2    
    33   28   29 ar   
    34   28   31 1    
    35   29   30 ar   
    36   31   32 1    
    37   31   33 1    
    38   32   33 2    
    39   34   35 ar   
    40   34   40 ar   
    41   35   36 ar   
    42   36   37 ar   
    43   37   38 1    
    44   37   39 ar   
    45   39   40 ar   
    46    1   41 1    
    47    1   42 1    
    48    1   43 1    
    49    2   44 1    
    50    9   45 1    
    51   12   46 1    
    52   12   47 1    
    53   14   48 1    
    54   16   49 1    
    55   16   50 1    
    56   19   51 1    
    57   19   52 1    
    58   23   53 1    
    59   25   54 1    
    60   25   55 1    
    61   25   56 1    
    62   29   57 1    
    63   31   58 1    
    64   32   59 1    
    65   33   60 1    
    66   35   61 1    
    67   36   62 1    
    68   39   63 1    
    69   40   64 1    
@<TRIPOS>SUBSTRUCTURE
     1 1C0         1 PERM              0 ****  ****    0 ROOT 
