4l6t_ligand
  -I-interpret- 

130134  0  0  0  0  0  0  0  0999 V2000
   -6.7080   53.8300  -27.1480 C   0  0  0  0  0
   -6.2550   52.7460  -28.1030 C   0  0  0  0  0
   -5.7310   51.5390  -27.3260 C   0  0  0  0  0
   -4.6990   51.9700  -26.2730 C   0  0  0  0  0
   -5.1870   53.1440  -25.4440 C   0  0  0  0  0
   -4.1100   53.6670  -24.4750 C   0  0  0  0  0
   -7.3530   52.3710  -28.9670 O   0  0  0  0  0
   -5.1090   50.5970  -28.2130 O   0  0  0  0  0
   -3.4680   52.3170  -26.9230 O   0  0  0  0  0
   -5.6230   54.2130  -26.2810 O   0  0  0  0  0
   -4.6950   54.7090  -23.6910 O   0  0  0  0  0
   -9.7140   57.4750  -26.9790 C   0  0  0  0  0
   -9.0900   56.3160  -27.7400 C   0  0  0  0  0
   -7.7430   55.9450  -27.1220 C   0  0  0  0  0
   -6.8530   57.1810  -27.0290 C   0  0  0  0  0
   -7.5830   58.2660  -26.2540 C   0  0  0  0  0
   -6.7760   59.5470  -26.0910 C   0  0  0  0  0
  -10.7940   54.8160  -28.6500 C   0  0  0  0  0
  -11.9100   53.8800  -28.2740 C   0  0  0  0  0
   -9.9700   55.1620  -27.6550 N   0  0  0  0  0
   -7.1010   54.9610  -27.9170 O   0  0  0  0  0
   -6.5340   57.6190  -28.3580 O   0  0  0  0  0
   -8.8050   58.5840  -26.9340 O   0  0  0  0  0
   -7.6010   60.4680  -25.3700 O   0  0  0  0  0
  -10.6440   55.2290  -29.7910 O   0  0  0  0  0
  -13.9650   58.8750  -28.6900 C   0  0  0  0  0
  -13.7430   57.5410  -27.9910 C   0  0  0  0  0
  -13.0750   57.6840  -26.6290 C   0  0  0  0  0
  -11.8220   58.5350  -26.7820 C   0  0  0  0  0
  -12.1850   59.8630  -27.4190 C   0  0  0  0  0
  -10.9490   60.7580  -27.5150 C   0  0  0  0  0
  -15.0010   56.8550  -27.8180 O   0  0  0  0  0
  -12.7420   56.3580  -26.2660 O   0  0  0  0  0
  -10.8980   57.9020  -27.6580 O   0  0  0  0  0
  -12.7370   59.6210  -28.7240 O   0  0  0  0  0
  -11.3710   62.0460  -27.9610 O   0  0  0  0  0
  -12.2430   54.6670  -24.8540 C   0  0  0  0  0
  -12.8760   56.0340  -24.8880 C   0  0  0  0  0
  -14.3400   56.0120  -24.4100 C   0  0  0  0  0
  -14.4180   55.6690  -22.9130 C   0  0  0  0  0
  -13.4590   56.5250  -22.0700 C   0  0  0  0  0
  -12.0620   56.5160  -22.7060 C   0  0  0  0  0
  -11.0700   57.4550  -22.0300 C   0  0  0  0  0
   -9.8150   57.6200  -22.8770 C   0  0  0  0  0
   -8.7460   58.3510  -22.0670 C   0  0  0  0  0
  -13.3000   56.7630  -19.6160 C   0  0  0  0  0
  -13.3170   56.0470  -18.2860 C   0  0  0  0  0
  -13.4620   56.0000  -20.7040 N   0  0  0  0  0
  -12.9960   53.5740  -24.8940 O   0  0  0  0  0
  -11.0170   54.5380  -24.8280 O   0  0  0  0  0
  -15.7540   55.8170  -22.3930 O   0  0  0  0  0
  -12.1390   56.9420  -24.0720 O   0  0  0  0  0
  -11.6330   58.7610  -21.8460 O   0  0  0  0  0
   -9.3380   56.3380  -23.2930 O   0  0  0  0  0
   -7.8110   59.0110  -22.9360 O   0  0  0  0  0
  -13.1420   57.9740  -19.6810 O   0  0  0  0  0
  -14.7040   60.9200  -32.8840 C   0  0  0  0  0
  -14.0490   59.8830  -31.9730 C   0  0  0  0  0
  -14.8900   59.6560  -30.7250 C   0  0  0  0  0
  -16.3270   59.3350  -31.1450 C   0  0  0  0  0
  -17.2670   59.1000  -29.9710 C   0  0  0  0  0
  -16.1300   60.4760  -33.1960 C   0  0  0  0  0
  -16.7510   61.4290  -34.0640 O   0  0  0  0  0
  -13.9390   61.0650  -34.0870 O   0  0  0  0  0
  -12.7280   60.3090  -31.6110 O   0  0  0  0  0
  -14.3190   58.5460  -30.0360 O   0  0  0  0  0
  -16.8310   60.4020  -31.9510 O   0  0  0  0  0
  -17.3250   60.2880  -29.1750 O   0  0  0  0  0
   -7.5354   53.4626  -26.5410 H   0  0  0  0  0
   -5.4405   53.1253  -28.7201 H   0  0  0  0  0
   -6.5848   51.0749  -26.8322 H   0  0  0  0  0
   -4.5443   51.1300  -25.5958 H   0  0  0  0  0
   -6.0250   52.7740  -24.8533 H   0  0  0  0  0
   -3.2537   54.0480  -25.0315 H   0  0  0  0  0
   -3.7580   52.8614  -23.8307 H   0  0  0  0  0
   -7.6632   53.1450  -29.4426 H   0  0  0  0  0
   -5.7431   50.3182  -28.8777 H   0  0  0  0  0
   -3.1627   51.5722  -27.4461 H   0  0  0  0  0
   -4.0410   55.0519  -23.0775 H   0  0  0  0  0
   -9.9457   57.1433  -25.9669 H   0  0  0  0  0
   -8.9454   56.6119  -28.7791 H   0  0  0  0  0
   -7.9136   55.5474  -26.1215 H   0  0  0  0  0
   -5.9263   56.9508  -26.5034 H   0  0  0  0  0
   -7.7631   57.8683  -25.2553 H   0  0  0  0  0
   -6.4976   59.9554  -27.0625 H   0  0  0  0  0
   -5.8485   59.3542  -25.5519 H   0  0  0  0  0
  -12.8679   54.3549  -28.4863 H   0  0  0  0  0
  -11.8224   52.9609  -28.8534 H   0  0  0  0  0
  -11.8455   53.6483  -27.2109 H   0  0  0  0  0
   -9.9586   54.5961  -26.8064 H   0  0  0  0  0
   -5.9737   58.3971  -28.3114 H   0  0  0  0  0
   -7.1254   61.2927  -25.2462 H   0  0  0  0  0
  -14.7244   59.4675  -28.1798 H   0  0  0  0  0
  -13.0731   56.9685  -28.6326 H   0  0  0  0  0
  -13.7048   58.1636  -25.8797 H   0  0  0  0  0
  -11.3856   58.6712  -25.7925 H   0  0  0  0  0
  -12.9256   60.3747  -26.8044 H   0  0  0  0  0
  -10.2302   60.3336  -28.2159 H   0  0  0  0  0
  -10.4643   60.8365  -26.5418 H   0  0  0  0  0
  -14.8487   56.0161  -27.3767 H   0  0  0  0  0
  -10.6087   62.6256  -28.0285 H   0  0  0  0  0
  -14.8834   55.2539  -24.9740 H   0  0  0  0  0
  -14.7774   56.9977  -24.5689 H   0  0  0  0  0
  -14.1190   54.6236  -22.8368 H   0  0  0  0  0
  -13.7801   57.5661  -22.0369 H   0  0  0  0  0
  -11.7124   55.4891  -22.5994 H   0  0  0  0  0
  -10.8271   57.0090  -21.0655 H   0  0  0  0  0
  -10.0488   58.2076  -23.7648 H   0  0  0  0  0
   -8.2079   57.6245  -21.4581 H   0  0  0  0  0
   -9.2305   59.0985  -21.4388 H   0  0  0  0  0
  -12.3659   56.2052  -17.7775 H   0  0  0  0  0
  -14.1280   56.4406  -17.6732 H   0  0  0  0  0
  -13.4693   54.9804  -18.4509 H   0  0  0  0  0
  -13.5949   54.9971  -20.5736 H   0  0  0  0  0
  -13.9224   53.8254  -24.9105 H   0  0  0  0  0
  -15.7592   55.5942  -21.4592 H   0  0  0  0  0
  -10.9875   59.3293  -21.4193 H   0  0  0  0  0
   -8.5474   56.4495  -23.8260 H   0  0  0  0  0
   -7.1492   59.4632  -22.4077 H   0  0  0  0  0
  -14.7352   61.8885  -32.3848 H   0  0  0  0  0
  -13.9802   58.9404  -32.5160 H   0  0  0  0  0
  -14.9053   60.5370  -30.0834 H   0  0  0  0  0
  -16.2901   58.4011  -31.7058 H   0  0  0  0  0
  -16.8999   58.2704  -29.3667 H   0  0  0  0  0
  -18.2630   58.8565  -30.3408 H   0  0  0  0  0
  -16.1414   59.5078  -33.6966 H   0  0  0  0  0
  -17.6477   61.1466  -34.2582 H   0  0  0  0  0
  -14.3566   61.7177  -34.6537 H   0  0  0  0  0
  -12.3262   59.6508  -31.0392 H   0  0  0  0  0
  -17.9167   60.1458  -28.4325 H   0  0  0  0  0
  1  2  1  0  0  0
  1 10  1  0  0  0
 21  1  1  0  0  0
  2  3  1  0  0  0
  2  7  1  0  0  0
  3  4  1  0  0  0
  3  8  1  0  0  0
  5  4  1  0  0  0
  4  9  1  0  0  0
  5  6  1  0  0  0
 10  5  1  0  0  0
  6 11  1  0  0  0
 12 13  1  0  0  0
 12 23  1  0  0  0
 34 12  1  0  0  0
 13 14  1  0  0  0
 13 20  1  0  0  0
 14 15  1  0  0  0
 14 21  1  0  0  0
 16 15  1  0  0  0
 15 22  1  0  0  0
 16 17  1  0  0  0
 23 16  1  0  0  0
 17 24  1  0  0  0
 18 19  1  0  0  0
 20 18  1  0  0  0
 18 25  2  0  0  0
 26 27  1  0  0  0
 26 35  1  0  0  0
 66 26  1  0  0  0
 27 28  1  0  0  0
 27 32  1  0  0  0
 28 29  1  0  0  0
 28 33  1  0  0  0
 30 29  1  0  0  0
 29 34  1  0  0  0
 30 31  1  0  0  0
 35 30  1  0  0  0
 31 36  1  0  0  0
 33 38  1  0  0  0
 38 37  1  0  0  0
 37 49  1  0  0  0
 37 50  2  0  0  0
 38 39  1  0  0  0
 38 52  1  0  0  0
 39 40  1  0  0  0
 40 41  1  0  0  0
 40 51  1  0  0  0
 42 41  1  0  0  0
 41 48  1  0  0  0
 42 43  1  0  0  0
 52 42  1  0  0  0
 43 44  1  0  0  0
 43 53  1  0  0  0
 44 45  1  0  0  0
 44 54  1  0  0  0
 45 55  1  0  0  0
 46 47  1  0  0  0
 48 46  1  0  0  0
 46 56  2  0  0  0
 58 57  1  0  0  0
 57 62  1  0  0  0
 57 64  1  0  0  0
 59 58  1  0  0  0
 58 65  1  0  0  0
 59 60  1  0  0  0
 59 66  1  0  0  0
 60 61  1  0  0  0
 60 67  1  0  0  0
 61 68  1  0  0  0
 62 63  1  0  0  0
 62 67  1  0  0  0
  1 69  1  0  0  0
  2 70  1  0  0  0
  3 71  1  0  0  0
  4 72  1  0  0  0
  5 73  1  0  0  0
  6 74  1  0  0  0
  6 75  1  0  0  0
  7 76  1  0  0  0
  8 77  1  0  0  0
  9 78  1  0  0  0
 11 79  1  0  0  0
 12 80  1  0  0  0
 13 81  1  0  0  0
 14 82  1  0  0  0
 15 83  1  0  0  0
 16 84  1  0  0  0
 17 85  1  0  0  0
 17 86  1  0  0  0
 19 87  1  0  0  0
 19 88  1  0  0  0
 19 89  1  0  0  0
 20 90  1  0  0  0
 22 91  1  0  0  0
 24 92  1  0  0  0
 26 93  1  0  0  0
 27 94  1  0  0  0
 28 95  1  0  0  0
 29 96  1  0  0  0
 30 97  1  0  0  0
 31 98  1  0  0  0
 31 99  1  0  0  0
 32100  1  0  0  0
 36101  1  0  0  0
 39102  1  0  0  0
 39103  1  0  0  0
 40104  1  0  0  0
 41105  1  0  0  0
 42106  1  0  0  0
 43107  1  0  0  0
 44108  1  0  0  0
 45109  1  0  0  0
 45110  1  0  0  0
 47111  1  0  0  0
 47112  1  0  0  0
 47113  1  0  0  0
 48114  1  0  0  0
 49115  1  0  0  0
 51116  1  0  0  0
 53117  1  0  0  0
 54118  1  0  0  0
 55119  1  0  0  0
 57120  1  0  0  0
 58121  1  0  0  0
 59122  1  0  0  0
 60123  1  0  0  0
 61124  1  0  0  0
 61125  1  0  0  0
 62126  1  0  0  0
 63127  1  0  0  0
 64128  1  0  0  0
 65129  1  0  0  0
 68130  1  0  0  0
M  END
$$$$
