6o8i_ligand
  -I-interpret- 

 51 53  0  0  0  0  0  0  0  0999 V2000
   22.4720   -8.7410   -1.2980 C   0  0  0  0  0
   22.5870  -12.5860   -0.6470 C   0  0  0  0  0
   21.0670   -6.8390    1.7370 C   0  0  0  0  0
   18.9170   -5.9360    3.8390 C   0  0  0  0  0
   22.2030  -11.1250   -0.4320 C   0  0  0  0  0
   22.0230  -13.6140   -0.0390 C   0  0  0  0  0
   22.5580  -15.0100   -0.3420 C   0  0  0  0  0
   23.2330   -6.4870   -2.1420 C   0  0  0  0  0
   23.4210   -8.0070   -2.2560 C   0  0  0  0  0
   19.5730   -6.3920   -1.1820 C   0  0  0  0  0
   20.8930   -6.9000   -1.5050 N   0  0  0  0  0
   18.6650   -6.1300   -2.2160 C   0  0  0  0  0
   17.3810   -5.6530   -2.0090 C   0  0  0  0  0
   16.9640   -5.4630   -0.7040 C   0  0  0  0  0
   17.8410   -5.7360    0.3390 C   0  0  0  0  0
   19.1700   -6.2370    0.1560 C   0  0  0  0  0
   15.5540   -4.9560   -0.3910 C   0  0  0  0  0
   15.3170   -4.5100    0.6920 O   0  0  0  0  0
   14.5270   -5.0430   -1.4060 N   0  0  0  0  0
   19.0140   -6.3360   -3.5140 F   0  0  0  0  0
   17.6420   -5.6600    1.7130 N   0  0  0  0  0
   18.7790   -5.9860    2.3170 C   0  0  0  0  0
   19.6380   -6.3570    1.3950 C   0  0  0  0  0
   21.7670   -6.0880   -2.3550 C   0  0  0  0  0
   21.0210   -8.3460   -1.5730 C   0  0  0  0  0
   22.6940  -10.1770   -1.4050 N   0  0  0  0  0
   21.5340  -10.7650    0.4870 O   0  0  0  0  0
   22.6815   -8.4488   -0.2690 H   0  0  0  0  0
   23.3874  -12.7973   -1.3561 H   0  0  0  0  0
   21.2134   -7.8452    1.3443 H   0  0  0  0  0
   21.7944   -6.1628    1.2878 H   0  0  0  0  0
   21.1969   -6.8475    2.8192 H   0  0  0  0  0
   18.7327   -4.9193    4.1860 H   0  0  0  0  0
   18.1916   -6.6126    4.2907 H   0  0  0  0  0
   19.9248   -6.2406    4.1214 H   0  0  0  0  0
   21.1988  -13.4690    0.6594 H   0  0  0  0  0
   22.4488  -15.2164   -1.4067 H   0  0  0  0  0
   23.6114  -15.0617   -0.0667 H   0  0  0  0  0
   21.9947  -15.7460    0.2317 H   0  0  0  0  0
   23.8385   -6.0044   -2.9091 H   0  0  0  0  0
   23.5356   -6.1743   -1.1426 H   0  0  0  0  0
   23.1997   -8.3150   -3.2779 H   0  0  0  0  0
   24.4495   -8.2566   -1.9952 H   0  0  0  0  0
   16.7203   -5.4344   -2.8479 H   0  0  0  0  0
   13.5808   -4.7205   -1.2031 H   0  0  0  0  0
   14.7490   -5.4268   -2.3246 H   0  0  0  0  0
   21.5010   -6.2513   -3.3993 H   0  0  0  0  0
   21.6418   -5.0370   -2.0945 H   0  0  0  0  0
   20.3715   -8.8043   -0.8272 H   0  0  0  0  0
   20.7319   -8.6906   -2.5659 H   0  0  0  0  0
   23.2207  -10.5293   -2.2043 H   0  0  0  0  0
  1  9  1  0  0  0
 25  1  1  0  0  0
  1 26  1  0  0  0
  5  2  1  0  0  0
  2  6  2  0  0  0
 23  3  1  0  0  0
 22  4  1  0  0  0
 26  5  1  0  0  0
  5 27  2  0  0  0
  6  7  1  0  0  0
  8  9  1  0  0  0
 24  8  1  0  0  0
 10 11  1  0  0  0
 10 12  4  0  0  0
 16 10  4  0  0  0
 11 24  1  0  0  0
 11 25  1  0  0  0
 13 12  4  0  0  0
 12 20  1  0  0  0
 14 13  4  0  0  0
 15 14  4  0  0  0
 14 17  1  0  0  0
 15 16  4  0  0  0
 21 15  4  0  0  0
 16 23  4  0  0  0
 17 18  2  0  0  0
 17 19  1  0  0  0
 21 22  4  0  0  0
 22 23  4  0  0  0
  1 28  1  0  0  0
  2 29  1  0  0  0
  3 30  1  0  0  0
  3 31  1  0  0  0
  3 32  1  0  0  0
  4 33  1  0  0  0
  4 34  1  0  0  0
  4 35  1  0  0  0
  6 36  1  0  0  0
  7 37  1  0  0  0
  7 38  1  0  0  0
  7 39  1  0  0  0
  8 40  1  0  0  0
  8 41  1  0  0  0
  9 42  1  0  0  0
  9 43  1  0  0  0
 13 44  1  0  0  0
 19 45  1  0  0  0
 19 46  1  0  0  0
 24 47  1  0  0  0
 24 48  1  0  0  0
 25 49  1  0  0  0
 25 50  1  0  0  0
 26 51  1  0  0  0
M  END
$$$$
