5ihc_ligand
  -I-interpret- 

 48 51  0  0  0  0  0  0  0  0999 V2000
   -4.8560   -8.2640    2.0590 C   0  0  0  0  0
   -5.6480   -8.4220    3.3010 C   0  0  0  0  0
   -6.3840   -7.3020    3.7700 C   0  0  0  0  0
   -4.9480  -10.7160    3.6470 O   0  0  0  0  0
   -2.4670  -14.9960    4.0590 C   0  0  0  0  0
   -3.5130  -14.0450    4.6880 C   0  0  0  0  0
   -4.7380   -7.1070    1.2490 C   0  0  0  0  0
   -4.0270   -9.1760    1.4720 C   0  0  0  0  0
   -2.5550   -9.1320   -0.5940 C   0  0  0  0  0
   -1.5490  -10.0680   -0.2220 C   0  0  0  0  0
   -0.6960  -10.6410   -1.1940 C   0  0  0  0  0
   -0.7950  -10.2420   -2.5470 C   0  0  0  0  0
   -1.7740   -9.2960   -2.9260 C   0  0  0  0  0
   -2.6400   -8.7360   -1.9580 C   0  0  0  0  0
   -7.1200   -7.4130    4.9590 C   0  0  0  0  0
   -7.1620   -8.5360    5.6990 N   0  0  0  0  0
   -6.4630   -9.6070    5.2740 C   0  0  0  0  0
   -5.6620   -9.6130    4.0900 C   0  0  0  0  0
   -4.6330  -11.7890    4.5410 C   0  0  0  0  0
   -3.6940  -12.7680    3.8320 C   0  0  0  0  0
   -2.3180  -12.1170    3.5260 C   0  0  0  0  0
   -1.2940  -13.1330    2.9650 C   0  0  0  0  0
   -1.1950  -14.2910    3.8660 N   0  3  0  0  0
   -3.9370   -7.3210    0.2180 N   0  0  0  0  0
   -3.4650   -8.5850    0.3590 N   0  0  0  0  0
   -1.4080  -10.4790    1.0580 F   0  0  0  0  0
   -6.3772   -6.3657    3.2120 H   0  0  0  0  0
   -2.8340  -15.3420    3.0927 H   0  0  0  0  0
   -2.3082  -15.8437    4.7256 H   0  0  0  0  0
   -3.1665  -13.7533    5.6794 H   0  0  0  0  0
   -4.4689  -14.5660    4.7424 H   0  0  0  0  0
   -5.2426   -6.1619    1.4498 H   0  0  0  0  0
   -3.8417  -10.1919    1.8210 H   0  0  0  0  0
    0.0384  -11.3909   -0.8998 H   0  0  0  0  0
   -0.1202  -10.6616   -3.2931 H   0  0  0  0  0
   -1.8623   -8.9962   -3.9702 H   0  0  0  0  0
   -3.3794   -7.9942   -2.2598 H   0  0  0  0  0
   -7.6861   -6.5464    5.3004 H   0  0  0  0  0
   -6.5112  -10.5205    5.8667 H   0  0  0  0  0
   -5.5478  -12.3039    4.8344 H   0  0  0  0  0
   -4.1470  -11.3939    5.4331 H   0  0  0  0  0
   -4.1474  -13.0402    2.8789 H   0  0  0  0  0
   -1.9196  -11.7179    4.4588 H   0  0  0  0  0
   -2.4715  -11.3436    2.7735 H   0  0  0  0  0
   -0.3181  -12.6541    2.8857 H   0  0  0  0  0
   -1.6222  -13.4691    1.9814 H   0  0  0  0  0
   -0.5407  -14.9507    3.4452 H   0  0  0  0  0
   -0.8963  -13.9444    4.7776 H   0  0  0  0  0
  2  1  1  0  0  0
  1  7  4  0  0  0
  1  8  4  0  0  0
  2  3  4  0  0  0
 18  2  4  0  0  0
  3 15  4  0  0  0
  4 18  1  0  0  0
 19  4  1  0  0  0
  6  5  1  0  0  0
  5 23  1  0  0  0
 20  6  1  0  0  0
  7 24  4  0  0  0
  8 25  4  0  0  0
  9 10  4  0  0  0
  9 14  4  0  0  0
 25  9  1  0  0  0
 10 11  4  0  0  0
 10 26  1  0  0  0
 11 12  4  0  0  0
 13 12  4  0  0  0
 14 13  4  0  0  0
 16 15  4  0  0  0
 17 16  4  0  0  0
 18 17  4  0  0  0
 19 20  1  0  0  0
 20 21  1  0  0  0
 21 22  1  0  0  0
 22 23  1  0  0  0
 24 25  4  0  0  0
  3 27  1  0  0  0
  5 28  1  0  0  0
  5 29  1  0  0  0
  6 30  1  0  0  0
  6 31  1  0  0  0
  7 32  1  0  0  0
  8 33  1  0  0  0
 11 34  1  0  0  0
 12 35  1  0  0  0
 13 36  1  0  0  0
 14 37  1  0  0  0
 15 38  1  0  0  0
 17 39  1  0  0  0
 19 40  1  0  0  0
 19 41  1  0  0  0
 20 42  1  0  0  0
 21 43  1  0  0  0
 21 44  1  0  0  0
 22 45  1  0  0  0
 22 46  1  0  0  0
 23 47  1  0  0  0
 23 48  1  0  0  0
M  END
$$$$
