2e9o_ligand
  -I-interpret- 

 57 61  0  0  0  0  0  0  0  0999 V2000
    3.0080    2.9230  -22.7750 C   0  0  0  0  0
    3.1670    5.9420  -20.4040 C   0  0  0  0  0
    3.0850    4.4450  -19.9610 C   0  0  0  0  0
    4.1400    3.5350  -20.6800 C   0  0  0  0  0
    4.1630    3.6650  -22.2410 C   0  0  0  0  0
    4.1830    5.2180  -22.6670 C   0  0  0  0  0
    3.0790    6.0660  -21.9610 C   0  0  0  0  0
    2.0320    6.7120  -19.7640 N   0  3  0  0  0
    2.2110    8.1770  -19.6710 C   0  0  0  0  0
    0.9070    8.9250  -19.8020 C   0  0  0  0  0
   -0.2510    8.4520  -19.0310 C   0  0  0  0  0
   -1.5190    9.1080  -19.1170 C   0  0  0  0  0
   -1.6660   10.2810  -19.9980 C   0  0  0  0  0
   -0.5430   10.7690  -20.7650 C   0  0  0  0  0
    0.7520   10.0950  -20.6750 C   0  0  0  0  0
   -2.7960    8.8560  -18.4800 C   0  0  0  0  0
   -3.7050    9.8410  -18.9530 C   0  0  0  0  0
   -2.9930   10.6720  -19.8550 C   0  0  0  0  0
   -5.0410   10.3910  -18.9290 C   0  0  0  0  0
   -5.0860   11.4740  -19.7740 N   0  0  0  0  0
   -3.8370   11.6120  -20.3130 N   0  0  0  0  0
   -6.2170    9.8790  -18.1000 C   0  0  0  0  0
   -7.4020   10.7280  -17.9740 C   0  0  0  0  0
   -8.5540   10.3070  -17.1840 C   0  0  0  0  0
   -8.5440    9.0030  -16.4920 C   0  0  0  0  0
   -7.3590    8.1460  -16.6170 C   0  0  0  0  0
   -6.2230    8.5820  -17.4050 C   0  0  0  0  0
   -9.6960    8.5740  -15.6940 C   0  0  0  0  0
  -10.7960    9.3360  -15.7400 O   0  0  0  0  0
   -9.6480    7.5760  -15.0240 O   0  0  0  0  0
    2.0864    3.3743  -22.4075 H   0  0  0  0  0
    3.0243    2.9627  -23.8642 H   0  0  0  0  0
    3.0616    1.8849  -22.4471 H   0  0  0  0  0
    4.1235    6.3537  -20.0820 H   0  0  0  0  0
    2.0937    4.0749  -20.2228 H   0  0  0  0  0
    3.2856    4.4040  -18.8904 H   0  0  0  0  0
    3.8756    2.5024  -20.4519 H   0  0  0  0  0
    5.1219    3.8445  -20.3218 H   0  0  0  0  0
    5.0678    3.2305  -22.6660 H   0  0  0  0  0
    4.0004    5.2676  -23.7405 H   0  0  0  0  0
    5.1501    5.6273  -22.3749 H   0  0  0  0  0
    3.2216    7.1121  -22.2322 H   0  0  0  0  0
    2.1042    5.6985  -22.2816 H   0  0  0  0  0
    1.9607    6.3715  -18.8052 H   0  0  0  0  0
    1.2150    6.5610  -20.3557 H   0  0  0  0  0
    2.8627    8.4897  -20.4868 H   0  0  0  0  0
    2.6331    8.4038  -18.6920 H   0  0  0  0  0
   -0.1415    7.5841  -18.3807 H   0  0  0  0  0
   -0.6608   11.6393  -21.4106 H   0  0  0  0  0
    1.5997   10.4605  -21.2546 H   0  0  0  0  0
   -2.7009    8.9114  -17.3956 H   0  0  0  0  0
   -3.1545    7.8556  -18.7226 H   0  0  0  0  0
   -7.4245   11.6932  -18.4799 H   0  0  0  0  0
   -9.4250   10.9575  -17.1044 H   0  0  0  0  0
   -7.3330    7.1785  -16.1157 H   0  0  0  0  0
   -5.3512    7.9326  -17.4847 H   0  0  0  0  0
  -10.6427   10.0824  -16.3239 H   0  0  0  0  0
  5  1  1  0  0  0
  3  2  1  0  0  0
  2  7  1  0  0  0
  2  8  1  0  0  0
  4  3  1  0  0  0
  4  5  1  0  0  0
  5  6  1  0  0  0
  6  7  1  0  0  0
  8  9  1  0  0  0
  9 10  1  0  0  0
 10 11  4  0  0  0
 10 15  4  0  0  0
 11 12  4  0  0  0
 12 13  4  0  0  0
 12 16  1  0  0  0
 13 14  4  0  0  0
 13 18  1  0  0  0
 14 15  4  0  0  0
 16 17  1  0  0  0
 17 18  4  0  0  0
 17 19  4  0  0  0
 18 21  4  0  0  0
 19 20  4  0  0  0
 19 22  1  0  0  0
 20 21  4  0  0  0
 22 23  4  0  0  0
 22 27  4  0  0  0
 23 24  4  0  0  0
 24 25  4  0  0  0
 25 26  4  0  0  0
 25 28  1  0  0  0
 26 27  4  0  0  0
 28 29  1  0  0  0
 28 30  2  0  0  0
  1 31  1  0  0  0
  1 32  1  0  0  0
  1 33  1  0  0  0
  2 34  1  0  0  0
  3 35  1  0  0  0
  3 36  1  0  0  0
  4 37  1  0  0  0
  4 38  1  0  0  0
  5 39  1  0  0  0
  6 40  1  0  0  0
  6 41  1  0  0  0
  7 42  1  0  0  0
  7 43  1  0  0  0
  8 44  1  0  0  0
  8 45  1  0  0  0
  9 46  1  0  0  0
  9 47  1  0  0  0
 11 48  1  0  0  0
 14 49  1  0  0  0
 15 50  1  0  0  0
 16 51  1  0  0  0
 16 52  1  0  0  0
 23 53  1  0  0  0
 24 54  1  0  0  0
 26 55  1  0  0  0
 27 56  1  0  0  0
 29 57  1  0  0  0
M  END
$$$$
