### 
### Created by X-TOOL on Mon Sep 10 21:12:50 2018
### 

@<TRIPOS>MOLECULE
1jwu_ligand
  227   228     1     0     0
SMALL
GAST_HUCK


@<TRIPOS>ATOM
      1 N         -17.3870   36.9230   20.5290 N.4       1 PRO         0.2461
      2 CA        -17.9130   38.2840   20.2530 C.3       1 PRO         0.0670
      3 C         -18.5060   38.3410   18.8490 C.2       1 PRO         0.2268
      4 O         -17.9520   37.7670   17.9080 O.2       1 PRO        -0.3907
      5 CB        -16.7470   39.2570   20.3810 C.3       1 PRO         0.0127
      6 CG        -15.7660   38.4510   21.2420 C.3       1 PRO        -0.0053
      7 CD        -15.9390   36.9980   20.7830 C.3       1 PRO        -0.0313
      8 N         -19.6220   39.0500   18.7110 N.am      1 LYS        -0.2610
      9 CA        -20.2900   39.1490   17.4280 C.3       1 LYS         0.1311
     10 C         -20.2410   40.5370   16.7920 C.2       1 LYS         0.2040
     11 O         -20.5230   41.5430   17.4350 O.2       1 LYS        -0.3944
     12 CB        -21.7460   38.6830   17.5630 C.3       1 LYS        -0.0122
     13 CG        -22.4000   38.3570   16.2240 C.3       1 LYS        -0.0440
     14 CD        -23.5590   37.3730   16.3540 C.3       1 LYS        -0.0124
     15 CE        -23.8250   36.6860   15.0100 C.3       1 LYS        -0.0354
     16 NZ        -24.8560   35.6060   15.0740 N.4       1 LYS         0.2185
     17 N         -19.8550   40.5700   15.5200 N.am      1 TYR        -0.2621
     18 CA        -19.7850   41.8060   14.7510 C.3       1 TYR         0.1390
     19 C         -21.2170   42.2510   14.4910 C.2       1 TYR         0.2057
     20 O         -22.0790   41.4240   14.2080 O.2       1 TYR        -0.3942
     21 CB        -19.0970   41.5620   13.4020 C.3       1 TYR         0.0163
     22 CG        -17.5890   41.6780   13.4170 C.ar      1 TYR        -0.0493
     23 CD1       -16.9620   42.9250   13.4830 C.ar      1 TYR        -0.0685
     24 CD2       -16.7850   40.5410   13.3470 C.ar      1 TYR        -0.0685
     25 CE1       -15.5710   43.0340   13.4740 C.ar      1 TYR        -0.0398
     26 CE2       -15.3940   40.6380   13.3430 C.ar      1 TYR        -0.0398
     27 CZ        -14.7950   41.8830   13.4030 C.ar      1 TYR         0.0805
     28 OH        -13.4230   41.9700   13.3670 O.3       1 TYR        -0.3376
     29 N         -21.4790   43.5450   14.5980 N.am      1 VAL        -0.2633
     30 CA        -22.8200   44.0450   14.3280 C.3       1 VAL         0.1333
     31 C         -22.7840   44.9350   13.0970 C.2       1 VAL         0.2041
     32 O         -21.7980   45.6320   12.8610 O.2       1 VAL        -0.3944
     33 CB        -23.3740   44.8470   15.5160 C.3       1 VAL        -0.0063
     34 CG1       -24.7170   45.4430   15.1530 C.3       1 VAL        -0.0584
     35 CG2       -23.5290   43.9340   16.7290 C.3       1 VAL        -0.0584
     36 N         -23.8610   44.9100   12.3180 N.am      1 LYS        -0.2637
     37 CA        -23.9490   45.7130   11.1010 C.3       1 LYS         0.1310
     38 C         -24.8700   46.9180   11.2280 C.2       1 LYS         0.2039
     39 O         -25.7830   46.9390   12.0540 O.2       1 LYS        -0.3944
     40 CB        -24.4850   44.8680    9.9390 C.3       1 LYS        -0.0122
     41 CG        -26.0250   44.7200    9.9330 C.3       1 LYS        -0.0440
     42 CD        -26.5120   44.0240    8.6710 C.3       1 LYS        -0.0124
     43 CE        -28.0300   44.0570    8.5400 C.3       1 LYS        -0.0354
     44 NZ        -28.7470   43.2800    9.5790 N.4       1 LYS         0.2185
     45 N         -24.6250   47.9170   10.3890 N.am      1 GLN        -0.2636
     46 CA        -25.4810   49.0940   10.3310 C.3       1 GLN         0.1330
     47 C         -26.4960   48.7470    9.2380 C.2       1 GLN         0.2042
     48 O         -26.1180   48.2270    8.1830 O.2       1 GLN        -0.3944
     49 CB        -24.6800   50.3310    9.9260 C.3       1 GLN         0.0045
     50 CG        -24.1270   51.1250   11.1010 C.3       1 GLN         0.0412
     51 CD        -25.2250   51.5340   12.0720 C.2       1 GLN         0.1737
     52 OE1       -25.6930   50.7250   12.8720 O.2       1 GLN        -0.3973
     53 NE2       -25.6520   52.7870   11.9900 N.am      1 GLN        -0.3009
     54 N         -27.7760   49.0050    9.4950 N.am      1 ASN        -0.2616
     55 CA        -28.8190   48.6940    8.5250 C.3       1 ASN         0.1476
     56 C         -28.9060   49.7510    7.4330 C.2       1 ASN         0.2063
     57 O         -28.7360   50.9480    7.6890 O.2       1 ASN        -0.3942
     58 CB        -30.1920   48.5730    9.2080 C.3       1 ASN         0.0773
     59 CG        -30.2170   47.5120   10.3000 C.2       1 ASN         0.1780
     60 OD1       -29.5930   46.4570   10.1780 O.2       1 ASN        -0.3970
     61 ND2       -30.9600   47.7830   11.3690 N.am      1 ASN        -0.3007
     62 N         -29.1780   49.2960    6.2150 N.am      1 THR        -0.2612
     63 CA        -29.3080   50.1840    5.0720 C.3       1 THR         0.1565
     64 C         -30.7000   50.8270    5.0760 C.2       1 THR         0.2065
     65 O         -31.7240   50.1500    5.2030 O.2       1 THR        -0.3943
     66 CB        -29.0730   49.4030    3.7440 C.3       1 THR         0.0924
     67 OG1       -29.8030   48.1760    3.7700 O.3       1 THR        -0.3874
     68 CG2       -27.6160   49.0430    3.5810 C.3       1 THR        -0.0346
     69 N         -30.7280   52.1450    4.9530 N.am      1 LEU        -0.2636
     70 CA        -31.9830   52.8850    4.9400 C.3       1 LEU         0.1312
     71 C         -32.5560   52.9510    3.5290 C.2       1 LEU         0.2039
     72 O         -31.8090   52.9890    2.5520 O.2       1 LEU        -0.3944
     73 CB        -31.7330   54.3040    5.4400 C.3       1 LEU        -0.0101
     74 CG        -31.1220   54.3620    6.8360 C.3       1 LEU        -0.0425
     75 CD1       -30.5330   55.7320    7.0940 C.3       1 LEU        -0.0625
     76 CD2       -32.1920   54.0100    7.8530 C.3       1 LEU        -0.0625
     77 N         -33.8780   52.9710    3.4270 N.am      1 LYS        -0.2637
     78 CA        -34.5380   53.0610    2.1260 C.3       1 LYS         0.1310
     79 C         -34.4690   54.5290    1.6950 C.2       1 LYS         0.2039
     80 O         -34.6340   55.4260    2.5230 O.2       1 LYS        -0.3944
     81 CB        -36.0020   52.6240    2.2460 C.3       1 LYS        -0.0122
     82 CG        -36.2210   51.4740    3.2250 C.3       1 LYS        -0.0440
     83 CD        -37.6990   51.1630    3.4420 C.3       1 LYS        -0.0124
     84 CE        -38.3550   50.6390    2.1720 C.3       1 LYS        -0.0354
     85 NZ        -39.7620   50.2070    2.4110 N.4       1 LYS         0.2185
     86 N         -34.2140   54.7750    0.4120 N.am      1 LEU        -0.2637
     87 CA        -34.1270   56.1410   -0.0970 C.3       1 LEU         0.1312
     88 C         -35.4850   56.8210   -0.1280 C.2       1 LEU         0.2039
     89 O         -36.5160   56.1630   -0.0200 O.2       1 LEU        -0.3944
     90 CB        -33.5420   56.1510   -1.5090 C.3       1 LEU        -0.0101
     91 CG        -32.0860   55.7160   -1.6510 C.3       1 LEU        -0.0425
     92 CD1       -31.6920   55.7780   -3.1140 C.3       1 LEU        -0.0625
     93 CD2       -31.1840   56.6280   -0.8250 C.3       1 LEU        -0.0625
     94 N         -35.4800   58.1440   -0.2720 N.am      1 ALA        -0.2640
     95 CA        -36.7250   58.9010   -0.3370 C.3       1 ALA         0.1282
     96 C         -37.4470   58.5580   -1.6330 C.2       1 ALA         0.2031
     97 O         -36.8410   58.5370   -2.7050 O.2       1 ALA        -0.3944
     98 CB        -36.4420   60.3940   -0.2840 C.3       1 ALA        -0.0244
     99 N         -38.7410   58.2850   -1.5280 N.am      1 THR        -0.2670
    100 CA        -39.5450   57.9550   -2.7000 C.3       1 THR         0.1198
    101 C         -40.4380   59.1320   -3.0720 C.2       1 THR         0.0626
    102 O         -40.4350   59.5130   -4.2620 O.co2     1 THR        -0.5665
    103 CB        -40.4310   56.7240   -2.4470 C.3       1 THR         0.0869
    104 OG1       -39.6000   55.5730   -2.2550 O.3       1 THR        -0.3880
    105 CG2       -41.3610   56.4880   -3.6280 C.3       1 THR        -0.0352
    106 OXT       -41.1310   59.6510   -2.1680 O.co2     1 THR        -0.5665
    107 H1        -17.5580   36.3290   19.7328 H         1 PRO         0.2035
    108 H2        -17.8507   36.5415   21.3386 H         1 PRO         0.2035
    109 H3        -18.6924   38.5392   20.9861 H         1 PRO         0.1099
    110 H4        -17.0529   40.1861   20.8841 H         1 PRO         0.0347
    111 H5        -16.3149   39.4972   19.3984 H         1 PRO         0.0347
    112 H6        -16.0144   38.5519   22.3088 H         1 PRO         0.0320
    113 H7        -14.7334   38.7900   21.0722 H         1 PRO         0.0320
    114 H8        -15.3625   36.7975   19.8679 H         1 PRO         0.0814
    115 H9        -15.6349   36.2922   21.5700 H         1 PRO         0.0814
    116 H10       -20.0066   39.5222   19.5041 H         1 LYS         0.1884
    117 H11       -19.7752   38.4611   16.7412 H         1 LYS         0.0800
    118 H12       -22.3250   39.4819   18.0493 H         1 LYS         0.0312
    119 H13       -21.7672   37.7803   18.1912 H         1 LYS         0.0312
    120 H14       -21.6405   37.9191   15.5596 H         1 LYS         0.0269
    121 H15       -22.7796   39.2901   15.7822 H         1 LYS         0.0269
    122 H16       -24.4624   37.9156   16.6695 H         1 LYS         0.0317
    123 H17       -23.3065   36.6120   17.1071 H         1 LYS         0.0317
    124 H18       -22.8825   36.2440   14.6547 H         1 LYS         0.0813
    125 H19       -24.1659   37.4478   14.2934 H         1 LYS         0.0813
    126 H20       -24.9769   35.2023   14.1583 H         1 LYS         0.1994
    127 H21       -25.7313   35.9952   15.3878 H         1 LYS         0.1994
    128 H22       -24.5552   34.8921   15.7189 H         1 LYS         0.1994
    129 H23       -19.6025   39.7119   15.0729 H         1 TYR         0.1885
    130 H24       -19.2377   42.5745   15.3165 H         1 TYR         0.0821
    131 H25       -19.4875   42.2972   12.6831 H         1 TYR         0.0453
    132 H26       -19.3567   40.5472   13.0663 H         1 TYR         0.0453
    133 H27       -17.5665   43.8229   13.5422 H         1 TYR         0.0530
    134 H28       -17.2501   39.5632   13.2947 H         1 TYR         0.0530
    135 H29       -15.0992   44.0088   13.5220 H         1 TYR         0.0525
    136 H30       -14.7854   39.7423   13.2931 H         1 TYR         0.0525
    137 H31       -13.1633   42.8825   13.4164 H         1 TYR         0.2458
    138 H32       -20.7542   44.1802   14.8648 H         1 VAL         0.1883
    139 H33       -23.4849   43.1897   14.1376 H         1 VAL         0.0802
    140 H34       -22.6731   45.6585   15.7616 H         1 VAL         0.0343
    141 H35       -25.1072   46.0153   16.0076 H         1 VAL         0.0234
    142 H36       -25.4203   44.6357   14.9006 H         1 VAL         0.0234
    143 H37       -24.5997   46.1112   14.2872 H         1 VAL         0.0234
    144 H38       -22.5515   43.5024   16.9903 H         1 VAL         0.0234
    145 H39       -24.2352   43.1249   16.4911 H         1 VAL         0.0234
    146 H40       -23.9119   44.5165   17.5799 H         1 VAL         0.0234
    147 H41       -24.6317   44.3257   12.5721 H         1 LYS         0.1883
    148 H42       -22.9372   46.0681   10.8559 H         1 LYS         0.0800
    149 H43       -24.0404   43.8641   10.0062 H         1 LYS         0.0312
    150 H44       -24.1785   45.3423    8.9950 H         1 LYS         0.0312
    151 H45       -26.4806   45.7196    9.9886 H         1 LYS         0.0269
    152 H46       -26.3309   44.1284   10.8084 H         1 LYS         0.0269
    153 H47       -26.1821   42.9749    8.6961 H         1 LYS         0.0317
    154 H48       -26.0708   44.5264    7.7975 H         1 LYS         0.0317
    155 H49       -28.3002   43.6476    7.5554 H         1 LYS         0.0813
    156 H50       -28.3591   45.1046    8.6044 H         1 LYS         0.0813
    157 H51       -29.7407   43.3505    9.4253 H         1 LYS         0.1994
    158 H52       -28.5209   43.6481   10.4897 H         1 LYS         0.1994
    159 H53       -28.4670   42.3130    9.5285 H         1 LYS         0.1994
    160 H54       -23.8328   47.8601    9.7814 H         1 GLN         0.1883
    161 H55       -25.9779   49.2705   11.2964 H         1 GLN         0.0801
    162 H56       -25.3368   50.9917    9.3411 H         1 GLN         0.0337
    163 H57       -23.8355   50.0062    9.3005 H         1 GLN         0.0337
    164 H58       -23.6342   52.0309   10.7184 H         1 GLN         0.0504
    165 H59       -23.3917   50.5054   11.6352 H         1 GLN         0.0504
    166 H60       -26.3722   53.1110   12.6035 H         1 GLN         0.1814
    167 H61       -25.2538   53.4078   11.3147 H         1 GLN         0.1814
    168 H62       -28.0270   49.4198   10.3696 H         1 ASN         0.1885
    169 H63       -28.5730   47.7290    8.0578 H         1 ASN         0.0826
    170 H64       -30.9414   48.3111    8.4465 H         1 ASN         0.0551
    171 H65       -30.4484   49.5443    9.6560 H         1 ASN         0.0551
    172 H66       -31.0157   47.1242   12.1193 H         1 ASN         0.1814
    173 H67       -31.4631   48.6456   11.4226 H         1 ASN         0.1814
    174 H68       -29.2970   48.3123    6.0805 H         1 THR         0.1884
    175 H69       -28.5504   50.9776    5.1517 H         1 THR         0.0826
    176 H70       -29.4024   50.0210    2.8957 H         1 THR         0.0639
    177 H71       -29.6562   47.7042    2.9585 H         1 THR         0.2101
    178 H72       -27.4773   48.4937    2.6381 H         1 THR         0.0257
    179 H73       -27.2979   48.4113    4.4235 H         1 THR         0.0257
    180 H74       -27.0112   49.9616    3.5625 H         1 THR         0.0257
    181 H75       -29.8663   52.6450    4.8669 H         1 LEU         0.1883
    182 H76       -32.7051   52.3838    5.6013 H         1 LEU         0.0800
    183 H77       -32.6933   54.8402    5.4585 H         1 LEU         0.0315
    184 H78       -31.0475   54.8035    4.7396 H         1 LEU         0.0315
    185 H79       -30.3139   53.6187    6.9036 H         1 LEU         0.0298
    186 H80       -30.0964   55.7592    8.1033 H         1 LEU         0.0232
    187 H81       -31.3244   56.4920    7.0163 H         1 LEU         0.0232
    188 H82       -29.7500   55.9405    6.3501 H         1 LEU         0.0232
    189 H83       -32.5936   53.0102    7.6315 H         1 LEU         0.0232
    190 H84       -33.0037   54.7506    7.8025 H         1 LEU         0.0232
    191 H85       -31.7542   54.0139    8.8621 H         1 LEU         0.0232
    192 H86       -34.4344   52.9236    4.2566 H         1 LYS         0.1883
    193 H87       -34.0215   52.4239    1.3931 H         1 LYS         0.0800
    194 H88       -36.3519   52.3059    1.2529 H         1 LYS         0.0312
    195 H89       -36.5951   53.4862    2.5850 H         1 LYS         0.0312
    196 H90       -35.7719   51.7440    4.1922 H         1 LYS         0.0269
    197 H91       -35.7261   50.5749    2.8291 H         1 LYS         0.0269
    198 H92       -38.2146   52.0823    3.7566 H         1 LYS         0.0317
    199 H93       -37.7914   50.4023    4.2312 H         1 LYS         0.0317
    200 H94       -37.7771   49.7794    1.8017 H         1 LYS         0.0813
    201 H95       -38.3517   51.4368    1.4147 H         1 LYS         0.0813
    202 H96       -40.1602   49.8677    1.5494 H         1 LYS         0.1994
    203 H97       -40.3017   50.9900    2.7452 H         1 LYS         0.1994
    204 H98       -39.7752   49.4712    3.0999 H         1 LYS         0.1994
    205 H99       -34.0792   54.0087   -0.2162 H         1 LEU         0.1883
    206 H100      -33.4630   56.7139    0.5670 H         1 LEU         0.0800
    207 H101      -33.6223   57.1776   -1.8958 H         1 LEU         0.0315
    208 H102      -34.1529   55.4772   -2.1277 H         1 LEU         0.0315
    209 H103      -31.9789   54.6825   -1.2899 H         1 LEU         0.0298
    210 H104      -30.6431   55.4657   -3.2248 H         1 LEU         0.0232
    211 H105      -31.8086   56.8081   -3.4818 H         1 LEU         0.0232
    212 H106      -32.3384   55.1052   -3.6967 H         1 LEU         0.0232
    213 H107      -31.4791   56.5747    0.2333 H         1 LEU         0.0232
    214 H108      -31.2842   57.6637   -1.1818 H         1 LEU         0.0232
    215 H109      -30.1384   56.3032   -0.9309 H         1 LEU         0.0232
    216 H110      -34.6072   58.6277   -0.3368 H         1 ALA         0.1883
    217 H111      -37.3607   58.6259    0.5175 H         1 ALA         0.0797
    218 H112      -37.3904   60.9489   -0.3340 H         1 ALA         0.0277
    219 H113      -35.8062   60.6772   -1.1358 H         1 ALA         0.0277
    220 H114      -35.9248   60.6360    0.6561 H         1 ALA         0.0277
    221 H115      -39.1743   58.3058   -0.6270 H         1 THR         0.1876
    222 H116      -38.8676   57.7381   -3.5391 H         1 THR         0.0752
    223 H117      -41.0335   56.8929   -1.5424 H         1 THR         0.0632
    224 H118      -40.1464   54.8118   -2.0986 H         1 THR         0.2100
    225 H119      -41.9869   55.6051   -3.4311 H         1 THR         0.0256
    226 H120      -40.7644   56.3192   -4.5366 H         1 THR         0.0256
    227 H121      -42.0041   57.3690   -3.7701 H         1 THR         0.0256
@<TRIPOS>BOND
     1    1    2 1  
     2    1    7 1  
     3    2    3 1  
     4    2    5 1  
     5    3    4 2  
     6    3    8 am 
     7    5    6 1  
     8    6    7 1  
     9    8    9 1  
    10    9   10 1  
    11    9   12 1  
    12   10   11 2  
    13   10   17 am 
    14   12   13 1  
    15   13   14 1  
    16   14   15 1  
    17   15   16 1  
    18   17   18 1  
    19   18   19 1  
    20   18   21 1  
    21   19   20 2  
    22   19   29 am 
    23   21   22 1  
    24   22   23 ar 
    25   22   24 ar 
    26   23   25 ar 
    27   24   26 ar 
    28   25   27 ar 
    29   26   27 ar 
    30   27   28 1  
    31   29   30 1  
    32   30   31 1  
    33   30   33 1  
    34   31   32 2  
    35   31   36 am 
    36   33   34 1  
    37   33   35 1  
    38   36   37 1  
    39   37   38 1  
    40   37   40 1  
    41   38   39 2  
    42   38   45 am 
    43   40   41 1  
    44   41   42 1  
    45   42   43 1  
    46   43   44 1  
    47   45   46 1  
    48   46   47 1  
    49   46   49 1  
    50   47   48 2  
    51   47   54 am 
    52   49   50 1  
    53   50   51 1  
    54   51   52 2  
    55   51   53 am 
    56   54   55 1  
    57   55   56 1  
    58   55   58 1  
    59   56   57 2  
    60   56   62 am 
    61   58   59 1  
    62   59   60 2  
    63   59   61 am 
    64   62   63 1  
    65   63   64 1  
    66   63   66 1  
    67   64   65 2  
    68   64   69 am 
    69   66   67 1  
    70   66   68 1  
    71   69   70 1  
    72   70   71 1  
    73   70   73 1  
    74   71   72 2  
    75   71   77 am 
    76   73   74 1  
    77   74   75 1  
    78   74   76 1  
    79   77   78 1  
    80   78   79 1  
    81   78   81 1  
    82   79   80 2  
    83   79   86 am 
    84   81   82 1  
    85   82   83 1  
    86   83   84 1  
    87   84   85 1  
    88   86   87 1  
    89   87   88 1  
    90   87   90 1  
    91   88   89 2  
    92   88   94 am 
    93   90   91 1  
    94   91   92 1  
    95   91   93 1  
    96   94   95 1  
    97   95   96 1  
    98   95   98 1  
    99   96   97 2  
   100   96   99 am 
   101   99  100 1  
   102  100  101 1  
   103  100  103 1  
   104  101  102 ar 
   105  101  106 ar 
   106  103  104 1  
   107  103  105 1  
   108    1  107 1  
   109    1  108 1  
   110    2  109 1  
   111    5  110 1  
   112    5  111 1  
   113    6  112 1  
   114    6  113 1  
   115    7  114 1  
   116    7  115 1  
   117    8  116 1  
   118    9  117 1  
   119   12  118 1  
   120   12  119 1  
   121   13  120 1  
   122   13  121 1  
   123   14  122 1  
   124   14  123 1  
   125   15  124 1  
   126   15  125 1  
   127   16  126 1  
   128   16  127 1  
   129   16  128 1  
   130   17  129 1  
   131   18  130 1  
   132   21  131 1  
   133   21  132 1  
   134   23  133 1  
   135   24  134 1  
   136   25  135 1  
   137   26  136 1  
   138   28  137 1  
   139   29  138 1  
   140   30  139 1  
   141   33  140 1  
   142   34  141 1  
   143   34  142 1  
   144   34  143 1  
   145   35  144 1  
   146   35  145 1  
   147   35  146 1  
   148   36  147 1  
   149   37  148 1  
   150   40  149 1  
   151   40  150 1  
   152   41  151 1  
   153   41  152 1  
   154   42  153 1  
   155   42  154 1  
   156   43  155 1  
   157   43  156 1  
   158   44  157 1  
   159   44  158 1  
   160   44  159 1  
   161   45  160 1  
   162   46  161 1  
   163   49  162 1  
   164   49  163 1  
   165   50  164 1  
   166   50  165 1  
   167   53  166 1  
   168   53  167 1  
   169   54  168 1  
   170   55  169 1  
   171   58  170 1  
   172   58  171 1  
   173   61  172 1  
   174   61  173 1  
   175   62  174 1  
   176   63  175 1  
   177   66  176 1  
   178   67  177 1  
   179   68  178 1  
   180   68  179 1  
   181   68  180 1  
   182   69  181 1  
   183   70  182 1  
   184   73  183 1  
   185   73  184 1  
   186   74  185 1  
   187   75  186 1  
   188   75  187 1  
   189   75  188 1  
   190   76  189 1  
   191   76  190 1  
   192   76  191 1  
   193   77  192 1  
   194   78  193 1  
   195   81  194 1  
   196   81  195 1  
   197   82  196 1  
   198   82  197 1  
   199   83  198 1  
   200   83  199 1  
   201   84  200 1  
   202   84  201 1  
   203   85  202 1  
   204   85  203 1  
   205   85  204 1  
   206   86  205 1  
   207   87  206 1  
   208   90  207 1  
   209   90  208 1  
   210   91  209 1  
   211   92  210 1  
   212   92  211 1  
   213   92  212 1  
   214   93  213 1  
   215   93  214 1  
   216   93  215 1  
   217   94  216 1  
   218   95  217 1  
   219   98  218 1  
   220   98  219 1  
   221   98  220 1  
   222   99  221 1  
   223  100  222 1  
   224  103  223 1  
   225  104  224 1  
   226  105  225 1  
   227  105  226 1  
   228  105  227 1  
@<TRIPOS>SUBSTRUCTURE
     1 PRO         1

