1jwu_ligand
  -I-interpret- 

228229  0  0  0  0  0  0  0  0999 V2000
  -17.3870   36.9230   20.5290 N   0  3  0  0  0
  -17.9130   38.2840   20.2530 C   0  0  0  0  0
  -18.5060   38.3410   18.8490 C   0  0  0  0  0
  -17.9520   37.7670   17.9080 O   0  0  0  0  0
  -16.7470   39.2570   20.3810 C   0  0  0  0  0
  -15.7660   38.4510   21.2420 C   0  0  0  0  0
  -15.9390   36.9980   20.7830 C   0  0  0  0  0
  -19.6220   39.0500   18.7110 N   0  0  0  0  0
  -20.2900   39.1490   17.4280 C   0  0  0  0  0
  -20.2410   40.5370   16.7920 C   0  0  0  0  0
  -20.5230   41.5430   17.4350 O   0  0  0  0  0
  -21.7460   38.6830   17.5630 C   0  0  0  0  0
  -22.4000   38.3570   16.2240 C   0  0  0  0  0
  -23.5590   37.3730   16.3540 C   0  0  0  0  0
  -23.8250   36.6860   15.0100 C   0  0  0  0  0
  -24.8560   35.6060   15.0740 N   0  3  0  0  0
  -19.8550   40.5700   15.5200 N   0  0  0  0  0
  -19.7850   41.8060   14.7510 C   0  0  0  0  0
  -21.2170   42.2510   14.4910 C   0  0  0  0  0
  -22.0790   41.4240   14.2080 O   0  0  0  0  0
  -19.0970   41.5620   13.4020 C   0  0  0  0  0
  -17.5890   41.6780   13.4170 C   0  0  0  0  0
  -16.9620   42.9250   13.4830 C   0  0  0  0  0
  -16.7850   40.5410   13.3470 C   0  0  0  0  0
  -15.5710   43.0340   13.4740 C   0  0  0  0  0
  -15.3940   40.6380   13.3430 C   0  0  0  0  0
  -14.7950   41.8830   13.4030 C   0  0  0  0  0
  -13.4230   41.9700   13.3670 O   0  0  0  0  0
  -21.4790   43.5450   14.5980 N   0  0  0  0  0
  -22.8200   44.0450   14.3280 C   0  0  0  0  0
  -22.7840   44.9350   13.0970 C   0  0  0  0  0
  -21.7980   45.6320   12.8610 O   0  0  0  0  0
  -23.3740   44.8470   15.5160 C   0  0  0  0  0
  -24.7170   45.4430   15.1530 C   0  0  0  0  0
  -23.5290   43.9340   16.7290 C   0  0  0  0  0
  -23.8610   44.9100   12.3180 N   0  0  0  0  0
  -23.9490   45.7130   11.1010 C   0  0  0  0  0
  -24.8700   46.9180   11.2280 C   0  0  0  0  0
  -25.7830   46.9390   12.0540 O   0  0  0  0  0
  -24.4850   44.8680    9.9390 C   0  0  0  0  0
  -26.0250   44.7200    9.9330 C   0  0  0  0  0
  -26.5120   44.0240    8.6710 C   0  0  0  0  0
  -28.0300   44.0570    8.5400 C   0  0  0  0  0
  -28.7470   43.2800    9.5790 N   0  3  0  0  0
  -24.6250   47.9170   10.3890 N   0  0  0  0  0
  -25.4810   49.0940   10.3310 C   0  0  0  0  0
  -26.4960   48.7470    9.2380 C   0  0  0  0  0
  -26.1180   48.2270    8.1830 O   0  0  0  0  0
  -24.6800   50.3310    9.9260 C   0  0  0  0  0
  -24.1270   51.1250   11.1010 C   0  0  0  0  0
  -25.2250   51.5340   12.0720 C   0  0  0  0  0
  -25.6930   50.7250   12.8720 O   0  0  0  0  0
  -25.6520   52.7870   11.9900 N   0  0  0  0  0
  -27.7760   49.0050    9.4950 N   0  0  0  0  0
  -28.8190   48.6940    8.5250 C   0  0  0  0  0
  -28.9060   49.7510    7.4330 C   0  0  0  0  0
  -28.7360   50.9480    7.6890 O   0  0  0  0  0
  -30.1920   48.5730    9.2080 C   0  0  0  0  0
  -30.2170   47.5120   10.3000 C   0  0  0  0  0
  -29.5930   46.4570   10.1780 O   0  0  0  0  0
  -30.9600   47.7830   11.3690 N   0  0  0  0  0
  -29.1780   49.2960    6.2150 N   0  0  0  0  0
  -29.3080   50.1840    5.0720 C   0  0  0  0  0
  -30.7000   50.8270    5.0760 C   0  0  0  0  0
  -31.7240   50.1500    5.2030 O   0  0  0  0  0
  -29.0730   49.4030    3.7440 C   0  0  0  0  0
  -29.8030   48.1760    3.7700 O   0  0  0  0  0
  -27.6160   49.0430    3.5810 C   0  0  0  0  0
  -30.7280   52.1450    4.9530 N   0  0  0  0  0
  -31.9830   52.8850    4.9400 C   0  0  0  0  0
  -32.5560   52.9510    3.5290 C   0  0  0  0  0
  -31.8090   52.9890    2.5520 O   0  0  0  0  0
  -31.7330   54.3040    5.4400 C   0  0  0  0  0
  -31.1220   54.3620    6.8360 C   0  0  0  0  0
  -30.5330   55.7320    7.0940 C   0  0  0  0  0
  -32.1920   54.0100    7.8530 C   0  0  0  0  0
  -33.8780   52.9710    3.4270 N   0  0  0  0  0
  -34.5380   53.0610    2.1260 C   0  0  0  0  0
  -34.4690   54.5290    1.6950 C   0  0  0  0  0
  -34.6340   55.4260    2.5230 O   0  0  0  0  0
  -36.0020   52.6240    2.2460 C   0  0  0  0  0
  -36.2210   51.4740    3.2250 C   0  0  0  0  0
  -37.6990   51.1630    3.4420 C   0  0  0  0  0
  -38.3550   50.6390    2.1720 C   0  0  0  0  0
  -39.7620   50.2070    2.4110 N   0  3  0  0  0
  -34.2140   54.7750    0.4120 N   0  0  0  0  0
  -34.1270   56.1410   -0.0970 C   0  0  0  0  0
  -35.4850   56.8210   -0.1280 C   0  0  0  0  0
  -36.5160   56.1630   -0.0200 O   0  0  0  0  0
  -33.5420   56.1510   -1.5090 C   0  0  0  0  0
  -32.0860   55.7160   -1.6510 C   0  0  0  0  0
  -31.6920   55.7780   -3.1140 C   0  0  0  0  0
  -31.1840   56.6280   -0.8250 C   0  0  0  0  0
  -35.4800   58.1440   -0.2720 N   0  0  0  0  0
  -36.7250   58.9010   -0.3370 C   0  0  0  0  0
  -37.4470   58.5580   -1.6330 C   0  0  0  0  0
  -36.8410   58.5370   -2.7050 O   0  0  0  0  0
  -36.4420   60.3940   -0.2840 C   0  0  0  0  0
  -38.7410   58.2850   -1.5280 N   0  0  0  0  0
  -39.5450   57.9550   -2.7000 C   0  0  0  0  0
  -40.4380   59.1320   -3.0720 C   0  0  0  0  0
  -40.4350   59.5130   -4.2620 O   0  0  0  0  0
  -40.4310   56.7240   -2.4470 C   0  0  0  0  0
  -39.6000   55.5730   -2.2550 O   0  0  0  0  0
  -41.3610   56.4880   -3.6280 C   0  0  0  0  0
  -41.1310   59.6510   -2.1680 O   0  0  0  0  0
  -17.5599   36.3220   19.7232 H   0  0  0  0  0
  -17.8561   36.5371   21.3484 H   0  0  0  0  0
  -18.7033   38.5444   20.9570 H   0  0  0  0  0
  -17.0256   40.2152   20.8195 H   0  0  0  0  0
  -16.3315   39.5674   19.4223 H   0  0  0  0  0
  -15.9724   38.5664   22.3060 H   0  0  0  0  0
  -14.7396   38.7956   21.1160 H   0  0  0  0  0
  -15.3358   36.7480   19.9103 H   0  0  0  0  0
  -15.5930   36.2708   21.5176 H   0  0  0  0  0
  -20.0143   39.5317   19.5200 H   0  0  0  0  0
  -19.7364   38.4972   16.7522 H   0  0  0  0  0
  -22.3120   39.4962   18.0175 H   0  0  0  0  0
  -21.7468   37.7718   18.1612 H   0  0  0  0  0
  -21.6438   37.8987   15.5866 H   0  0  0  0  0
  -22.7956   39.2852   15.8117 H   0  0  0  0  0
  -24.4538   37.9148   16.6605 H   0  0  0  0  0
  -23.3030   36.6169   17.0962 H   0  0  0  0  0
  -22.8906   36.2231   14.6926 H   0  0  0  0  0
  -24.1966   37.4480   14.3249 H   0  0  0  0  0
  -24.9775   35.1982   14.1470 H   0  0  0  0  0
  -24.5506   34.8843   15.7269 H   0  0  0  0  0
  -25.7411   36.0010   15.3917 H   0  0  0  0  0
  -19.5974   39.6947   15.0640 H   0  0  0  0  0
  -19.2172   42.5570   15.3002 H   0  0  0  0  0
  -19.4629   42.3303   12.7209 H   0  0  0  0  0
  -19.3289   40.5367   13.1137 H   0  0  0  0  0
  -17.5698   43.8278   13.5425 H   0  0  0  0  0
  -17.2526   39.5578   13.2944 H   0  0  0  0  0
  -15.0966   44.0141   13.5223 H   0  0  0  0  0
  -14.7821   39.7374   13.2929 H   0  0  0  0  0
  -13.0487   41.0873   13.3189 H   0  0  0  0  0
  -20.7397   44.1929   14.8702 H   0  0  0  0  0
  -23.4740   43.1890   14.1619 H   0  0  0  0  0
  -22.6785   45.6509   15.7574 H   0  0  0  0  0
  -24.5994   46.1048   14.2950 H   0  0  0  0  0
  -25.4129   44.6421   14.9031 H   0  0  0  0  0
  -25.1026   46.0098   16.0005 H   0  0  0  0  0
  -24.2179   43.1246   16.4873 H   0  0  0  0  0
  -22.5573   43.5183   16.9958 H   0  0  0  0  0
  -23.9221   44.5092   17.5672 H   0  0  0  0  0
  -24.6471   44.3140   12.5771 H   0  0  0  0  0
  -22.9330   46.0640   10.9205 H   0  0  0  0  0
  -24.0628   43.8684   10.0422 H   0  0  0  0  0
  -24.2032   45.3712    9.0141 H   0  0  0  0  0
  -26.4681   45.7151    9.9719 H   0  0  0  0  0
  -26.3179   44.1193   10.7941 H   0  0  0  0  0
  -26.1997   42.9808    8.7187 H   0  0  0  0  0
  -26.0875   44.5449    7.8128 H   0  0  0  0  0
  -28.2793   43.6121    7.5767 H   0  0  0  0  0
  -28.3392   45.0969    8.6456 H   0  0  0  0  0
  -29.7523   43.3521    9.4225 H   0  0  0  0  0
  -28.4628   42.3018    9.5269 H   0  0  0  0  0
  -28.5174   43.6534   10.5000 H   0  0  0  0  0
  -23.8169   47.8589    9.7693 H   0  0  0  0  0
  -25.9406   49.3246   11.2921 H   0  0  0  0  0
  -25.3567   50.9896    9.3816 H   0  0  0  0  0
  -23.8280   49.9861    9.3402 H   0  0  0  0  0
  -23.6576   52.0292   10.7134 H   0  0  0  0  0
  -23.4140   50.4965   11.6345 H   0  0  0  0  0
  -26.3971   53.1132   12.6055 H   0  0  0  0  0
  -25.2353   53.4244   11.3115 H   0  0  0  0  0
  -28.0321   49.4281   10.3871 H   0  0  0  0  0
  -28.5492   47.7393    8.0736 H   0  0  0  0  0
  -30.9187   48.2865    8.4478 H   0  0  0  0  0
  -30.4203   49.5332    9.6705 H   0  0  0  0  0
  -31.0288   47.1046   12.1276 H   0  0  0  0  0
  -31.4611   48.6693   11.4304 H   0  0  0  0  0
  -29.2993   48.2926    6.0778 H   0  0  0  0  0
  -28.5533   50.9672    5.1432 H   0  0  0  0  0
  -29.3987   50.0441    2.9248 H   0  0  0  0  0
  -29.6547   47.6993    2.9500 H   0  0  0  0  0
  -27.0178   49.9540    3.5629 H   0  0  0  0  0
  -27.3020   48.4172    4.4164 H   0  0  0  0  0
  -27.4799   48.4988    2.6464 H   0  0  0  0  0
  -29.8490   52.6550    4.8652 H   0  0  0  0  0
  -32.6960   52.3735    5.5866 H   0  0  0  0  0
  -32.6979   54.8090    5.4848 H   0  0  0  0  0
  -31.0261   54.7717    4.7547 H   0  0  0  0  0
  -30.3089   53.6411    6.9209 H   0  0  0  0  0
  -29.7574   55.9374    6.3562 H   0  0  0  0  0
  -31.3182   56.4841    7.0166 H   0  0  0  0  0
  -30.1007   55.7577    8.0943 H   0  0  0  0  0
  -33.0118   54.7244    7.7780 H   0  0  0  0  0
  -32.5645   53.0052    7.6536 H   0  0  0  0  0
  -31.7655   54.0485    8.8553 H   0  0  0  0  0
  -34.4455   52.9226    4.2732 H   0  0  0  0  0
  -34.0516   52.4123    1.3975 H   0  0  0  0  0
  -36.3209   52.2796    1.2622 H   0  0  0  0  0
  -36.5679   53.4790    2.6159 H   0  0  0  0  0
  -35.7945   51.7645    4.1851 H   0  0  0  0  0
  -35.7482   50.5843    2.8091 H   0  0  0  0  0
  -38.2045   52.0829    3.7359 H   0  0  0  0  0
  -37.7796   50.3961    4.2124 H   0  0  0  0  0
  -37.7867   49.7762    1.8246 H   0  0  0  0  0
  -38.3644   51.4424    1.4355 H   0  0  0  0  0
  -40.1639   49.8639    1.5386 H   0  0  0  0  0
  -39.7741   49.4626    3.1082 H   0  0  0  0  0
  -40.3071   51.0000    2.7492 H   0  0  0  0  0
  -34.0765   53.9934   -0.2288 H   0  0  0  0  0
  -33.4756   56.6902    0.5828 H   0  0  0  0  0
  -33.5792   57.1882   -1.8420 H   0  0  0  0  0
  -34.1274   55.4316   -2.0816 H   0  0  0  0  0
  -31.9722   54.6953   -1.2859 H   0  0  0  0  0
  -32.3332   55.1109   -3.6902 H   0  0  0  0  0
  -31.8080   56.7991   -3.4772 H   0  0  0  0  0
  -30.6526   55.4683   -3.2225 H   0  0  0  0  0
  -31.2874   57.6545   -1.1767 H   0  0  0  0  0
  -31.4746   56.5710    0.2240 H   0  0  0  0  0
  -30.1478   56.3078   -0.9343 H   0  0  0  0  0
  -34.5897   58.6374   -0.3381 H   0  0  0  0  0
  -37.3503   58.6383    0.5163 H   0  0  0  0  0
  -35.9295   60.6325    0.6479 H   0  0  0  0  0
  -35.8119   60.6733   -1.1285 H   0  0  0  0  0
  -37.3825   60.9428   -0.3336 H   0  0  0  0  0
  -39.1830   58.3062   -0.6090 H   0  0  0  0  0
  -38.8565   57.7318   -3.5150 H   0  0  0  0  0
  -41.0334   56.8986   -1.5555 H   0  0  0  0  0
  -40.1522   54.8038   -2.0969 H   0  0  0  0  0
  -41.9976   57.3617   -3.7677 H   0  0  0  0  0
  -40.7686   56.3209   -4.5276 H   0  0  0  0  0
  -41.9806   55.6130   -3.4317 H   0  0  0  0  0
  -40.9689   59.1936   -1.3397 H   0  0  0  0  0
  1  2  1  0  0  0
  1  7  1  0  0  0
  2  3  1  0  0  0
  2  5  1  0  0  0
  3  4  2  0  0  0
  3  8  1  0  0  0
  5  6  1  0  0  0
  6  7  1  0  0  0
  8  9  1  0  0  0
  9 10  1  0  0  0
  9 12  1  0  0  0
 10 11  2  0  0  0
 10 17  1  0  0  0
 12 13  1  0  0  0
 13 14  1  0  0  0
 14 15  1  0  0  0
 15 16  1  0  0  0
 17 18  1  0  0  0
 18 19  1  0  0  0
 18 21  1  0  0  0
 19 20  2  0  0  0
 19 29  1  0  0  0
 21 22  1  0  0  0
 22 23  4  0  0  0
 22 24  4  0  0  0
 23 25  4  0  0  0
 24 26  4  0  0  0
 25 27  4  0  0  0
 26 27  4  0  0  0
 27 28  1  0  0  0
 29 30  1  0  0  0
 30 31  1  0  0  0
 30 33  1  0  0  0
 31 32  2  0  0  0
 31 36  1  0  0  0
 33 34  1  0  0  0
 33 35  1  0  0  0
 36 37  1  0  0  0
 37 38  1  0  0  0
 37 40  1  0  0  0
 38 39  2  0  0  0
 38 45  1  0  0  0
 40 41  1  0  0  0
 41 42  1  0  0  0
 42 43  1  0  0  0
 43 44  1  0  0  0
 45 46  1  0  0  0
 46 47  1  0  0  0
 46 49  1  0  0  0
 47 48  2  0  0  0
 47 54  1  0  0  0
 49 50  1  0  0  0
 50 51  1  0  0  0
 51 52  2  0  0  0
 51 53  1  0  0  0
 54 55  1  0  0  0
 55 56  1  0  0  0
 55 58  1  0  0  0
 56 57  2  0  0  0
 56 62  1  0  0  0
 58 59  1  0  0  0
 59 60  2  0  0  0
 59 61  1  0  0  0
 62 63  1  0  0  0
 63 64  1  0  0  0
 63 66  1  0  0  0
 64 65  2  0  0  0
 64 69  1  0  0  0
 66 67  1  0  0  0
 66 68  1  0  0  0
 69 70  1  0  0  0
 70 71  1  0  0  0
 70 73  1  0  0  0
 71 72  2  0  0  0
 71 77  1  0  0  0
 73 74  1  0  0  0
 74 75  1  0  0  0
 74 76  1  0  0  0
 77 78  1  0  0  0
 78 79  1  0  0  0
 78 81  1  0  0  0
 79 80  2  0  0  0
 79 86  1  0  0  0
 81 82  1  0  0  0
 82 83  1  0  0  0
 83 84  1  0  0  0
 84 85  1  0  0  0
 86 87  1  0  0  0
 87 88  1  0  0  0
 87 90  1  0  0  0
 88 89  2  0  0  0
 88 94  1  0  0  0
 90 91  1  0  0  0
 91 92  1  0  0  0
 91 93  1  0  0  0
 94 95  1  0  0  0
 95 96  1  0  0  0
 95 98  1  0  0  0
 96 97  2  0  0  0
 96 99  1  0  0  0
 99100  1  0  0  0
100101  1  0  0  0
100103  1  0  0  0
101102  2  0  0  0
101106  1  0  0  0
103104  1  0  0  0
103105  1  0  0  0
  1107  1  0  0  0
  1108  1  0  0  0
  2109  1  0  0  0
  5110  1  0  0  0
  5111  1  0  0  0
  6112  1  0  0  0
  6113  1  0  0  0
  7114  1  0  0  0
  7115  1  0  0  0
  8116  1  0  0  0
  9117  1  0  0  0
 12118  1  0  0  0
 12119  1  0  0  0
 13120  1  0  0  0
 13121  1  0  0  0
 14122  1  0  0  0
 14123  1  0  0  0
 15124  1  0  0  0
 15125  1  0  0  0
 16126  1  0  0  0
 16127  1  0  0  0
 16128  1  0  0  0
 17129  1  0  0  0
 18130  1  0  0  0
 21131  1  0  0  0
 21132  1  0  0  0
 23133  1  0  0  0
 24134  1  0  0  0
 25135  1  0  0  0
 26136  1  0  0  0
 28137  1  0  0  0
 29138  1  0  0  0
 30139  1  0  0  0
 33140  1  0  0  0
 34141  1  0  0  0
 34142  1  0  0  0
 34143  1  0  0  0
 35144  1  0  0  0
 35145  1  0  0  0
 35146  1  0  0  0
 36147  1  0  0  0
 37148  1  0  0  0
 40149  1  0  0  0
 40150  1  0  0  0
 41151  1  0  0  0
 41152  1  0  0  0
 42153  1  0  0  0
 42154  1  0  0  0
 43155  1  0  0  0
 43156  1  0  0  0
 44157  1  0  0  0
 44158  1  0  0  0
 44159  1  0  0  0
 45160  1  0  0  0
 46161  1  0  0  0
 49162  1  0  0  0
 49163  1  0  0  0
 50164  1  0  0  0
 50165  1  0  0  0
 53166  1  0  0  0
 53167  1  0  0  0
 54168  1  0  0  0
 55169  1  0  0  0
 58170  1  0  0  0
 58171  1  0  0  0
 61172  1  0  0  0
 61173  1  0  0  0
 62174  1  0  0  0
 63175  1  0  0  0
 66176  1  0  0  0
 67177  1  0  0  0
 68178  1  0  0  0
 68179  1  0  0  0
 68180  1  0  0  0
 69181  1  0  0  0
 70182  1  0  0  0
 73183  1  0  0  0
 73184  1  0  0  0
 74185  1  0  0  0
 75186  1  0  0  0
 75187  1  0  0  0
 75188  1  0  0  0
 76189  1  0  0  0
 76190  1  0  0  0
 76191  1  0  0  0
 77192  1  0  0  0
 78193  1  0  0  0
 81194  1  0  0  0
 81195  1  0  0  0
 82196  1  0  0  0
 82197  1  0  0  0
 83198  1  0  0  0
 83199  1  0  0  0
 84200  1  0  0  0
 84201  1  0  0  0
 85202  1  0  0  0
 85203  1  0  0  0
 85204  1  0  0  0
 86205  1  0  0  0
 87206  1  0  0  0
 90207  1  0  0  0
 90208  1  0  0  0
 91209  1  0  0  0
 92210  1  0  0  0
 92211  1  0  0  0
 92212  1  0  0  0
 93213  1  0  0  0
 93214  1  0  0  0
 93215  1  0  0  0
 94216  1  0  0  0
 95217  1  0  0  0
 98218  1  0  0  0
 98219  1  0  0  0
 98220  1  0  0  0
 99221  1  0  0  0
100222  1  0  0  0
103223  1  0  0  0
104224  1  0  0  0
105225  1  0  0  0
105226  1  0  0  0
105227  1  0  0  0
106228  1  0  0  0
M  END
$$$$
