1lq2_ligand
  -I-interpret- 

 36 38  0  0  0  0  0  0  0  0999 V2000
   27.0460   29.5630   35.8810 C   0  0  0  0  0
   27.5870   29.9620   37.1400 C   0  0  0  0  0
   28.3160   31.1800   37.2430 C   0  0  0  0  0
   28.4970   31.9890   36.0980 C   0  0  0  0  0
   27.9580   31.5960   34.8520 C   0  0  0  0  0
   27.2380   30.3860   34.7450 C   0  0  0  0  0
   25.3490   26.3270   36.3640 C   0  0  0  0  0
   24.8550   25.1600   37.1860 C   0  0  0  0  0
   24.0990   24.1090   36.3310 C   0  0  0  0  0
   23.3960   24.7700   35.0930 C   0  0  0  0  0
   24.4300   25.4400   34.1790 C   0  0  0  0  0
   23.8720   26.1050   32.8640 C   0  0  0  0  0
   25.9450   24.5620   37.8940 O   0  0  0  0  0
   23.1870   23.4890   37.1860 O   0  0  0  0  0
   22.6930   23.7450   34.3350 O   0  0  0  0  0
   25.1580   26.4640   35.0260 N   0  0  0  0  0
   23.0100   27.2450   33.1410 O   0  0  0  0  0
   26.0280   27.3800   36.8150 N   0  0  0  0  0
   26.2930   28.2460   35.7640 C   0  0  0  0  0
   25.7480   27.6690   34.6640 C   0  0  0  0  0
   27.4423   29.3356   38.0202 H   0  0  0  0  0
   28.7334   31.4880   38.2017 H   0  0  0  0  0
   29.0557   32.9216   36.1765 H   0  0  0  0  0
   28.0980   32.2266   33.9740 H   0  0  0  0  0
   26.8274   30.0836   33.7816 H   0  0  0  0  0
   24.1337   25.5470   37.9058 H   0  0  0  0  0
   24.7873   23.3758   35.9106 H   0  0  0  0  0
   22.6959   25.5243   35.4521 H   0  0  0  0  0
   25.0815   24.6536   33.7981 H   0  0  0  0  0
   23.2826   25.3580   32.3323 H   0  0  0  0  0
   24.7208   26.4585   32.2786 H   0  0  0  0  0
   25.6207   23.8222   38.4127 H   0  0  0  0  0
   22.6925   22.8262   36.6984 H   0  0  0  0  0
   22.2624   24.1477   33.5774 H   0  0  0  0  0
   22.6955   27.6156   32.3131 H   0  0  0  0  0
   25.7694   28.0844   33.6565 H   0  0  0  0  0
  1  2  4  0  0  0
  1  6  4  0  0  0
 19  1  1  0  0  0
  2  3  4  0  0  0
  3  4  4  0  0  0
  5  4  4  0  0  0
  6  5  4  0  0  0
  7  8  1  0  0  0
  7 16  4  0  0  0
 18  7  4  0  0  0
  8  9  1  0  0  0
  8 13  1  0  0  0
  9 10  1  0  0  0
  9 14  1  0  0  0
 11 10  1  0  0  0
 10 15  1  0  0  0
 11 12  1  0  0  0
 16 11  1  0  0  0
 12 17  1  0  0  0
 16 20  4  0  0  0
 18 19  4  0  0  0
 19 20  4  0  0  0
  2 21  1  0  0  0
  3 22  1  0  0  0
  4 23  1  0  0  0
  5 24  1  0  0  0
  6 25  1  0  0  0
  8 26  1  0  0  0
  9 27  1  0  0  0
 10 28  1  0  0  0
 11 29  1  0  0  0
 12 30  1  0  0  0
 12 31  1  0  0  0
 13 32  1  0  0  0
 14 33  1  0  0  0
 15 34  1  0  0  0
 17 35  1  0  0  0
 20 36  1  0  0  0
M  END
$$$$
