5j9f_ligand
  -I-interpret- 

 52 54  0  0  0  0  0  0  0  0999 V2000
   25.4910  -13.2500  -23.2390 C   0  0  0  0  0
   23.9990  -12.2770  -24.7830 N   0  0  0  0  0
   23.7610  -14.4480  -24.2530 O   0  0  0  0  0
   24.3960  -13.3720  -24.1020 C   0  0  0  0  0
   25.6660  -10.9470  -23.8550 N   0  0  0  0  0
   24.3750   -9.7740  -15.0250 O   0  0  0  0  0
   24.6030  -11.0900  -24.6530 C   0  0  0  0  0
   24.1410   -9.9820  -25.4030 N   0  0  0  0  0
   26.2820   -5.4810  -15.9540 O   0  0  0  0  0
   26.1150  -11.9780  -23.1480 C   0  0  0  0  0
   27.1360  -12.0620  -22.2890 N   0  0  0  0  0
   27.3350   -6.8570  -17.3350 O   0  0  0  0  0
   27.2870  -13.2920  -21.7550 C   0  0  0  0  0
   26.5100  -14.2540  -19.2180 N   0  0  0  0  0
   28.0650   -6.8780  -11.2810 O   0  0  0  0  0
   26.2520  -14.0210  -22.3570 C   0  0  0  0  0
   26.4370   -8.9590  -15.8520 N   0  0  0  0  0
   29.7330   -8.2070  -11.7830 O   0  0  0  0  0
   28.3660  -13.6630  -20.7650 C   0  0  0  0  0
   27.8610  -14.6140  -19.6830 C   0  0  0  0  0
   26.1690  -13.1830  -18.3460 C   0  0  0  0  0
   24.8340  -12.9270  -18.0090 C   0  0  0  0  0
   24.5370  -11.8640  -17.1620 C   0  0  0  0  0
   25.5890  -11.1040  -16.6570 C   0  0  0  0  0
   26.9110  -11.3760  -16.9960 C   0  0  0  0  0
   27.2100  -12.4290  -17.8410 C   0  0  0  0  0
   25.3660   -9.9010  -15.7340 C   0  0  0  0  0
   26.6290   -7.7210  -15.1860 C   0  0  0  0  0
   26.7540   -6.6260  -16.2220 C   0  0  0  0  0
   27.9260   -7.7820  -14.3950 C   0  0  0  0  0
   27.7050   -8.4800  -13.0650 C   0  0  0  0  0
   28.5460   -7.8180  -11.9830 C   0  0  0  0  0
   26.1339  -10.0431  -23.7888 H   0  0  0  0  0
   23.3510  -10.0904  -26.0391 H   0  0  0  0  0
   27.6251   -7.7718  -17.3594 H   0  0  0  0  0
   25.7404  -14.8319  -19.5559 H   0  0  0  0  0
   27.1617   -6.7047  -11.5560 H   0  0  0  0  0
   26.0615  -15.0757  -22.1583 H   0  0  0  0  0
   27.1707   -9.2156  -16.5125 H   0  0  0  0  0
   28.7061  -12.7488  -20.2785 H   0  0  0  0  0
   29.1651  -14.1658  -21.3098 H   0  0  0  0  0
   27.8199  -15.6184  -20.1043 H   0  0  0  0  0
   28.5409  -14.5549  -18.8331 H   0  0  0  0  0
   24.0359  -13.5541  -18.4062 H   0  0  0  0  0
   23.5049  -11.6314  -16.8998 H   0  0  0  0  0
   27.7133  -10.7571  -16.5942 H   0  0  0  0  0
   28.2430  -12.6585  -18.1023 H   0  0  0  0  0
   25.7888   -7.5229  -14.5204 H   0  0  0  0  0
   28.2752   -6.7665  -14.2084 H   0  0  0  0  0
   28.6653   -8.3401  -14.9694 H   0  0  0  0  0
   27.9973   -9.5261  -13.1563 H   0  0  0  0  0
   26.6517   -8.4092  -12.7937 H   0  0  0  0  0
  1  4  1  0  0  0
  1 10  4  0  0  0
 16  1  4  0  0  0
  4  2  1  0  0  0
  2  7  4  0  0  0
  4  3  2  0  0  0
  5  7  1  0  0  0
 10  5  1  0  0  0
 27  6  2  0  0  0
  7  8  2  0  0  0
 29  9  2  0  0  0
 11 10  4  0  0  0
 13 11  4  0  0  0
 29 12  1  0  0  0
 13 16  4  0  0  0
 19 13  1  0  0  0
 14 20  1  0  0  0
 21 14  1  0  0  0
 32 15  1  0  0  0
 17 27  1  0  0  0
 28 17  1  0  0  0
 32 18  2  0  0  0
 20 19  1  0  0  0
 22 21  4  0  0  0
 26 21  4  0  0  0
 23 22  4  0  0  0
 24 23  4  0  0  0
 24 25  4  0  0  0
 27 24  1  0  0  0
 25 26  4  0  0  0
 28 29  1  0  0  0
 30 28  1  0  0  0
 31 30  1  0  0  0
 31 32  1  0  0  0
  5 33  1  0  0  0
  8 34  1  0  0  0
 12 35  1  0  0  0
 14 36  1  0  0  0
 15 37  1  0  0  0
 16 38  1  0  0  0
 17 39  1  0  0  0
 19 40  1  0  0  0
 19 41  1  0  0  0
 20 42  1  0  0  0
 20 43  1  0  0  0
 22 44  1  0  0  0
 23 45  1  0  0  0
 25 46  1  0  0  0
 26 47  1  0  0  0
 28 48  1  0  0  0
 30 49  1  0  0  0
 30 50  1  0  0  0
 31 51  1  0  0  0
 31 52  1  0  0  0
M  END
$$$$
