5dhr_ligand
  -I-interpret- 

 59 63  0  0  0  0  0  0  0  0999 V2000
  -13.2800   12.6820    5.4610 C   0  0  0  0  0
  -12.6410   12.2400    3.3520 C   0  0  0  0  0
  -13.8520   11.6940    3.1020 C   0  0  0  0  0
  -14.7780   11.6610    4.1040 C   0  0  0  0  0
  -11.9200   12.1500    2.2840 N   0  0  0  0  0
   -8.7370   17.1020   -2.6230 N   0  0  0  0  0
   -8.9940   16.3100   -1.6100 N   0  0  0  0  0
   -9.2410   15.5210   -0.6000 N   0  0  0  0  0
   -9.0900   14.0640   -0.6950 C   0  0  0  0  0
   -9.2370   13.4650    0.6910 C   0  0  0  0  0
  -10.5820   13.4110    1.0550 O   0  0  0  0  0
   -8.9020   11.9940    0.6550 C   0  0  0  0  0
   -7.5140   11.8270    0.7900 O   0  0  0  0  0
   -9.6120   11.5200    1.9110 C   0  0  0  0  0
   -8.6820   11.4650    2.9430 O   0  0  0  0  0
  -10.5930   12.6370    2.1950 C   0  0  0  0  0
  -12.3780   12.7210    4.5370 N   0  0  0  0  0
  -14.4520   12.1640    5.2510 N   0  0  0  0  0
  -15.9610   11.1490    3.9580 N   0  0  0  0  0
  -13.8270   11.2750    1.8690 N   0  0  0  0  0
  -12.6550   11.5750    1.3790 C   0  0  0  0  0
  -12.1830   11.2320   -0.1980 S   0  0  0  0  0
  -13.3530    9.8940   -0.5720 C   0  0  0  0  0
  -14.5870   10.2970   -1.3600 C   0  0  0  0  0
  -14.5890   10.3510   -2.5770 O   0  0  0  0  0
  -15.6480   10.5030   -0.6320 N   0  0  0  0  0
  -16.9000   10.9250   -1.2120 C   0  0  0  0  0
  -16.7810   12.3840   -1.6010 C   0  0  0  0  0
  -15.9960   13.1850   -0.5860 C   0  0  0  0  0
  -16.4310   13.4960    0.6070 N   0  0  0  0  0
  -15.5130   14.1920    1.2170 C   0  0  0  0  0
  -15.4640   14.7570    2.4650 C   0  0  0  0  0
  -14.3480   15.4480    2.8450 C   0  0  0  0  0
  -13.2970   15.5790    1.9680 C   0  0  0  0  0
  -13.3570   15.0070    0.7230 C   0  0  0  0  0
  -14.4750   14.3150    0.3490 C   0  0  0  0  0
  -14.8010   13.7000   -0.7520 N   0  0  0  0  0
  -13.0510   13.0951    6.4434 H   0  0  0  0  0
   -8.1078   13.8204   -1.1001 H   0  0  0  0  0
   -9.8544   13.6561   -1.3563 H   0  0  0  0  0
   -8.6093   14.0664    1.3486 H   0  0  0  0  0
   -9.1896   11.4705   -0.2568 H   0  0  0  0  0
   -7.3017   10.8910    0.7670 H   0  0  0  0  0
  -10.0842   10.5427    1.8115 H   0  0  0  0  0
   -9.1145   11.1666    3.7464 H   0  0  0  0  0
  -10.3199   13.1429    3.1210 H   0  0  0  0  0
  -16.2354   10.7462    3.0620 H   0  0  0  0  0
  -16.6168   11.1492    4.7392 H   0  0  0  0  0
  -13.7091    9.5190    0.3875 H   0  0  0  0  0
  -12.8133    9.1768   -1.1904 H   0  0  0  0  0
  -15.5918   10.3619    0.3766 H   0  0  0  0  0
  -17.7067   10.7967   -0.4903 H   0  0  0  0  0
  -17.1247   10.3222   -2.0919 H   0  0  0  0  0
  -17.7859   12.8022   -1.6586 H   0  0  0  0  0
  -16.2561   12.4385   -2.5547 H   0  0  0  0  0
  -16.3075   14.6560    3.1480 H   0  0  0  0  0
  -14.2912   15.8931    3.8383 H   0  0  0  0  0
  -12.4111   16.1407    2.2641 H   0  0  0  0  0
  -12.5172   15.1037    0.0349 H   0  0  0  0  0
 17  1  4  0  0  0
  1 18  4  0  0  0
  2  3  4  0  0  0
  5  2  4  0  0  0
  2 17  4  0  0  0
  3  4  4  0  0  0
  3 20  4  0  0  0
  4 18  4  0  0  0
  4 19  1  0  0  0
 16  5  1  0  0  0
  5 21  4  0  0  0
  7  6  3  0  0  0
  8  7  2  0  0  0
  9  8  1  0  0  0
 10  9  1  0  0  0
 11 10  1  0  0  0
 10 12  1  0  0  0
 11 16  1  0  0  0
 12 13  1  0  0  0
 12 14  1  0  0  0
 14 15  1  0  0  0
 14 16  1  0  0  0
 20 21  4  0  0  0
 21 22  1  0  0  0
 22 23  1  0  0  0
 23 24  1  0  0  0
 24 25  2  0  0  0
 24 26  1  0  0  0
 26 27  1  0  0  0
 27 28  1  0  0  0
 28 29  1  0  0  0
 29 30  4  0  0  0
 29 37  4  0  0  0
 30 31  4  0  0  0
 31 32  4  0  0  0
 31 36  4  0  0  0
 32 33  4  0  0  0
 33 34  4  0  0  0
 34 35  4  0  0  0
 35 36  4  0  0  0
 36 37  4  0  0  0
  1 38  1  0  0  0
  9 39  1  0  0  0
  9 40  1  0  0  0
 10 41  1  0  0  0
 12 42  1  0  0  0
 13 43  1  0  0  0
 14 44  1  0  0  0
 15 45  1  0  0  0
 16 46  1  0  0  0
 19 47  1  0  0  0
 19 48  1  0  0  0
 23 49  1  0  0  0
 23 50  1  0  0  0
 26 51  1  0  0  0
 27 52  1  0  0  0
 27 53  1  0  0  0
 28 54  1  0  0  0
 28 55  1  0  0  0
 32 56  1  0  0  0
 33 57  1  0  0  0
 34 58  1  0  0  0
 35 59  1  0  0  0
M  END
$$$$
