5u8f_ligand
  -I-interpret- 

 58 62  0  0  0  0  0  0  0  0999 V2000
  -15.9620  -25.3990   25.7870 C   0  0  0  0  0
  -11.6220  -26.9880   22.0310 C   0  0  0  0  0
  -16.9380  -24.4050   28.2470 C   0  0  0  0  0
  -12.9280  -27.7220   20.1450 C   0  0  0  0  0
  -18.4540  -22.8010   25.4040 C   0  0  0  0  0
  -12.4250  -25.8700   22.1280 C   0  0  0  0  0
  -17.3880  -23.9330   27.0270 C   0  0  0  0  0
  -12.3020  -24.7560   23.1120 C   0  0  0  0  0
  -16.0710  -23.3740   22.8500 C   0  0  0  0  0
  -14.1730  -24.3880   21.5690 C   0  0  0  0  0
  -17.6300  -25.2300   22.7280 C   0  0  0  0  0
  -19.0490  -22.1890   27.7270 C   0  0  0  0  0
  -20.0630  -25.4620   23.0370 C   0  0  0  0  0
  -15.5070  -25.8890   26.9940 C   0  0  0  0  0
  -15.9840  -25.4020   28.1920 C   0  0  0  0  0
  -11.8870  -27.9160   21.0340 C   0  0  0  0  0
  -16.9300  -24.4010   25.8010 C   0  0  0  0  0
  -17.6080  -23.6860   24.7670 C   0  0  0  0  0
  -13.4610  -25.6640   21.2550 C   0  0  0  0  0
  -13.7200  -26.5930   20.2560 C   0  0  0  0  0
  -13.1420  -23.6780   22.4390 C   0  0  0  0  0
  -16.4820  -25.3800   21.7480 C   0  0  0  0  0
  -17.4560  -23.8180   23.2900 C   0  0  0  0  0
  -19.0490  -26.6040   21.1640 C   0  0  0  0  0
  -18.3110  -22.9650   26.7490 N   0  0  0  0  0
  -15.4010  -24.6060   22.3950 N   0  3  0  0  0
  -18.9550  -25.4080   22.0490 N   0  3  0  0  0
  -14.7260  -26.4150   19.3780 F   0  0  0  0  0
  -15.5719  -25.7850   24.8452 H   0  0  0  0  0
  -10.7949  -27.1393   22.7246 H   0  0  0  0  0
  -17.3131  -24.0143   29.1929 H   0  0  0  0  0
  -13.1235  -28.4541   19.3615 H   0  0  0  0  0
  -19.1222  -22.0922   24.9148 H   0  0  0  0  0
  -11.2734  -24.4540   23.3092 H   0  0  0  0  0
  -12.6396  -25.0152   24.1154 H   0  0  0  0  0
  -15.5244  -22.8934   23.6614 H   0  0  0  0  0
  -16.1194  -22.6253   22.0593 H   0  0  0  0  0
  -14.4994  -23.8630   20.6712 H   0  0  0  0  0
  -17.6160  -25.9866   23.5125 H   0  0  0  0  0
  -18.8205  -21.1312   27.5970 H   0  0  0  0  0
  -20.1176  -22.3512   27.5862 H   0  0  0  0  0
  -18.7616  -22.5035   28.7303 H   0  0  0  0  0
  -19.9036  -26.3010   23.7143 H   0  0  0  0  0
  -20.0859  -24.5329   23.6065 H   0  0  0  0  0
  -21.0097  -25.5916   22.5126 H   0  0  0  0  0
  -14.7546  -26.6777   27.0002 H   0  0  0  0  0
  -15.5969  -25.8159   29.1231 H   0  0  0  0  0
  -11.2670  -28.8086   20.9507 H   0  0  0  0  0
  -12.5142  -23.0239   21.8340 H   0  0  0  0  0
  -13.6337  -23.0531   23.1845 H   0  0  0  0  0
  -16.7252  -25.0185   20.7489 H   0  0  0  0  0
  -16.2108  -26.4199   21.5659 H   0  0  0  0  0
  -18.2600  -23.1913   22.9042 H   0  0  0  0  0
  -18.2991  -26.5314   20.3763 H   0  0  0  0  0
  -18.8736  -27.5046   21.7525 H   0  0  0  0  0
  -20.0428  -26.6475   20.7184 H   0  0  0  0  0
  -14.9869  -25.1260   23.1686 H   0  0  0  0  0
  -19.0403  -24.5864   21.4506 H   0  0  0  0  0
  1 14  4  0  0  0
 17  1  4  0  0  0
  6  2  4  0  0  0
  2 16  4  0  0  0
  7  3  4  0  0  0
  3 15  4  0  0  0
 16  4  4  0  0  0
  4 20  4  0  0  0
 18  5  4  0  0  0
  5 25  4  0  0  0
  8  6  1  0  0  0
 19  6  4  0  0  0
 17  7  4  0  0  0
  7 25  4  0  0  0
 21  8  1  0  0  0
 23  9  1  0  0  0
  9 26  1  0  0  0
 10 19  1  0  0  0
 10 21  1  0  0  0
 26 10  1  0  0  0
 11 22  1  0  0  0
 23 11  1  0  0  0
 11 27  1  0  0  0
 25 12  1  0  0  0
 27 13  1  0  0  0
 14 15  4  0  0  0
 18 17  4  0  0  0
 18 23  1  0  0  0
 19 20  4  0  0  0
 20 28  1  0  0  0
 22 26  1  0  0  0
 27 24  1  0  0  0
  1 29  1  0  0  0
  2 30  1  0  0  0
  3 31  1  0  0  0
  4 32  1  0  0  0
  5 33  1  0  0  0
  8 34  1  0  0  0
  8 35  1  0  0  0
  9 36  1  0  0  0
  9 37  1  0  0  0
 10 38  1  0  0  0
 11 39  1  0  0  0
 12 40  1  0  0  0
 12 41  1  0  0  0
 12 42  1  0  0  0
 13 43  1  0  0  0
 13 44  1  0  0  0
 13 45  1  0  0  0
 14 46  1  0  0  0
 15 47  1  0  0  0
 16 48  1  0  0  0
 21 49  1  0  0  0
 21 50  1  0  0  0
 22 51  1  0  0  0
 22 52  1  0  0  0
 23 53  1  0  0  0
 24 54  1  0  0  0
 24 55  1  0  0  0
 24 56  1  0  0  0
 26 57  1  0  0  0
 27 58  1  0  0  0
M  END
$$$$
