3mho_ligand
  -I-interpret- 

 33 34  0  0  0  0  0  0  0  0999 V2000
   -0.0490    5.6030   11.8170 N   0  0  0  0  0
   -0.8590    4.5540   11.7850 C   0  0  0  0  0
   -1.9580    4.5440   12.5220 N   0  0  0  0  0
   -2.2890    5.5420   13.3420 C   0  0  0  0  0
   -1.4870    6.6800   13.3820 C   0  0  0  0  0
   -0.3320    6.6510   12.5930 C   0  0  0  0  0
   -3.5400    5.3740   13.9960 N   0  0  0  0  0
   -4.0360    4.2740   14.6180 C   0  0  0  0  0
   -3.2940    3.1230   14.8740 C   0  0  0  0  0
   -3.8800    2.0660   15.5590 C   0  0  0  0  0
   -5.2120    2.1550   15.9760 C   0  0  0  0  0
   -5.9480    3.3130   15.7130 C   0  0  0  0  0
   -5.3540    4.3700   15.0350 C   0  0  0  0  0
   -5.9210    0.8520   16.8210 S   0  0  0  0  0
   -7.4080    0.9760   16.6690 O   0  0  0  0  0
   -5.4040    0.9830   18.2170 O   0  0  0  0  0
   -5.3630   -0.6140   16.1370 N   0  0  0  0  0
   -1.8110    7.8450   14.2460 C   0  0  0  0  0
   -2.6770    7.8410   15.1180 O   0  0  0  0  0
    0.7700    7.9760   12.5910 Cl  0  0  0  0  0
   -0.5160    3.1410   10.7630 S   0  0  0  0  0
   -1.4540    1.7120   11.3620 C   0  0  0  0  0
   -4.1486    6.1925   13.9982 H   0  0  0  0  0
   -2.2593    3.0522   14.5386 H   0  0  0  0  0
   -3.3015    1.1670   15.7715 H   0  0  0  0  0
   -6.9855    3.3869   16.0389 H   0  0  0  0  0
   -5.9251    5.2757   14.8308 H   0  0  0  0  0
   -6.0241   -1.2589   15.7040 H   0  0  0  0  0
   -4.3693   -0.8429   16.1623 H   0  0  0  0  0
   -1.2432    8.7634   14.0965 H   0  0  0  0  0
   -1.1645    1.4940   12.3900 H   0  0  0  0  0
   -2.5199    1.9365   11.3232 H   0  0  0  0  0
   -1.2401    0.8486   10.7320 H   0  0  0  0  0
  1  2  4  0  0  0
  1  6  4  0  0  0
  2  3  4  0  0  0
  2 21  1  0  0  0
  3  4  4  0  0  0
  4  5  4  0  0  0
  4  7  1  0  0  0
  5  6  4  0  0  0
  5 18  1  0  0  0
  6 20  1  0  0  0
  7  8  1  0  0  0
  8  9  4  0  0  0
  8 13  4  0  0  0
  9 10  4  0  0  0
 10 11  4  0  0  0
 11 12  4  0  0  0
 11 14  1  0  0  0
 12 13  4  0  0  0
 14 15  2  0  0  0
 14 16  2  0  0  0
 14 17  1  0  0  0
 18 19  2  0  0  0
 21 22  1  0  0  0
  7 23  1  0  0  0
  9 24  1  0  0  0
 10 25  1  0  0  0
 12 26  1  0  0  0
 13 27  1  0  0  0
 17 28  1  0  0  0
 17 29  1  0  0  0
 18 30  1  0  0  0
 22 31  1  0  0  0
 22 32  1  0  0  0
 22 33  1  0  0  0
M  END
$$$$
