1gnj_ligand
  -I-interpret- 

 54 53  0  0  0  0  0  0  0  0999 V2000
   29.3850   13.4330   35.8230 C   0  0  0  0  0
   30.7830   12.9360   35.6010 C   0  0  0  0  0
   31.7120   13.2650   36.7510 C   0  0  0  0  0
   32.8490   14.1460   36.2710 C   0  0  0  0  0
   33.2250   15.1840   37.2250 C   0  0  0  0  0
   34.1980   16.1520   36.9210 C   0  0  0  0  0
   34.8990   16.1940   35.6370 C   0  0  0  0  0
   36.3390   16.3840   35.7660 C   0  0  0  0  0
   37.2150   16.3730   34.6630 C   0  0  0  0  0
   36.7660   16.1710   33.2860 C   0  0  0  0  0
   37.4660   15.0930   32.6080 C   0  0  0  0  0
   36.8890   14.3170   31.5850 C   0  0  0  0  0
   35.5300   14.4960   31.0840 C   0  0  0  0  0
   35.4450   14.2630   29.6390 C   0  0  0  0  0
   34.3720   13.5950   29.0040 C   0  0  0  0  0
   33.2210   13.0630   29.7210 C   0  0  0  0  0
   32.1920   12.4210   28.8000 C   0  0  0  0  0
   31.7380   11.0670   29.3220 C   0  0  0  0  0
   30.5460   11.1960   30.2630 C   0  0  0  0  0
   30.5450   10.0790   31.2750 C   0  0  0  0  0
   28.5270   12.6670   36.3370 O   0  0  0  0  0
   29.1260   14.6170   35.4840 O   0  0  0  0  0
   31.1726   13.4231   34.7071 H   0  0  0  0  0
   30.7405   11.8510   35.5059 H   0  0  0  0  0
   32.1236   12.3392   37.1530 H   0  0  0  0  0
   31.1517   13.7943   37.5217 H   0  0  0  0  0
   32.5154   14.6437   35.3605 H   0  0  0  0  0
   33.7191   13.5061   36.1238 H   0  0  0  0  0
   32.7382   15.2096   38.1999 H   0  0  0  0  0
   34.4405   16.9027   37.6731 H   0  0  0  0  0
   34.5057   17.0422   35.0768 H   0  0  0  0  0
   34.7380   15.2350   35.1445 H   0  0  0  0  0
   36.7562   16.5416   36.7606 H   0  0  0  0  0
   38.2793   16.5223   34.8447 H   0  0  0  0  0
   36.9639   17.0909   32.7357 H   0  0  0  0  0
   35.7084   15.9091   33.3185 H   0  0  0  0  0
   38.4910   14.8739   32.9071 H   0  0  0  0  0
   37.4972   13.5308   31.1377 H   0  0  0  0  0
   35.2248   15.5233   31.2831 H   0  0  0  0  0
   34.8834   13.7756   31.5850 H   0  0  0  0  0
   36.2604   14.6277   29.0144 H   0  0  0  0  0
   34.4083   13.4719   27.9216 H   0  0  0  0  0
   32.7358   13.8936   30.2336 H   0  0  0  0  0
   33.5814   12.2938   30.4041 H   0  0  0  0  0
   32.6497   12.2761   27.8214 H   0  0  0  0  0
   31.3232   13.0770   28.7452 H   0  0  0  0  0
   32.5636   10.6173   29.8735 H   0  0  0  0  0
   31.4394   10.4538   28.4717 H   0  0  0  0  0
   29.6275   11.1435   29.6784 H   0  0  0  0  0
   30.6127   12.1485   30.7887 H   0  0  0  0  0
   30.4849    9.1216   30.7574 H   0  0  0  0  0
   31.4636   10.1200   31.8604 H   0  0  0  0  0
   29.6859   10.1905   31.9365 H   0  0  0  0  0
   28.9290   11.8145   36.5192 H   0  0  0  0  0
  1  2  1  0  0  0
  1 21  1  0  0  0
  1 22  2  0  0  0
  2  3  1  0  0  0
  3  4  1  0  0  0
  4  5  1  0  0  0
  5  6  2  0  0  0
  6  7  1  0  0  0
  7  8  1  0  0  0
  8  9  2  0  0  0
  9 10  1  0  0  0
 10 11  1  0  0  0
 11 12  2  0  0  0
 12 13  1  0  0  0
 13 14  1  0  0  0
 14 15  2  0  0  0
 15 16  1  0  0  0
 16 17  1  0  0  0
 17 18  1  0  0  0
 18 19  1  0  0  0
 19 20  1  0  0  0
  2 23  1  0  0  0
  2 24  1  0  0  0
  3 25  1  0  0  0
  3 26  1  0  0  0
  4 27  1  0  0  0
  4 28  1  0  0  0
  5 29  1  0  0  0
  6 30  1  0  0  0
  7 31  1  0  0  0
  7 32  1  0  0  0
  8 33  1  0  0  0
  9 34  1  0  0  0
 10 35  1  0  0  0
 10 36  1  0  0  0
 11 37  1  0  0  0
 12 38  1  0  0  0
 13 39  1  0  0  0
 13 40  1  0  0  0
 14 41  1  0  0  0
 15 42  1  0  0  0
 16 43  1  0  0  0
 16 44  1  0  0  0
 17 45  1  0  0  0
 17 46  1  0  0  0
 18 47  1  0  0  0
 18 48  1  0  0  0
 19 49  1  0  0  0
 19 50  1  0  0  0
 20 51  1  0  0  0
 20 52  1  0  0  0
 20 53  1  0  0  0
 21 54  1  0  0  0
M  END
$$$$
