5qcn_ligand
  -I-interpret- 

 85 90  0  0  0  0  0  0  0  0999 V2000
   38.1240  -16.8570   28.2490 C   0  0  0  0  0
   39.9800  -21.3980   28.6200 C   0  0  0  0  0
   38.9740  -19.1250   28.5930 C   0  0  0  0  0
   39.9000  -22.8150   28.0840 C   0  0  0  0  0
   39.6060  -22.9510   26.7250 C   0  0  0  0  0
   39.2250  -21.7280   25.9220 C   0  0  0  0  0
   38.3690  -20.7950   26.7500 C   0  0  0  0  0
   40.1080  -23.9480   28.8670 C   0  0  0  0  0
   40.0620  -25.2100   28.2980 C   0  0  0  0  0
   45.5270  -21.5680   31.0920 C   0  0  0  0  0
   41.4560  -20.9880   28.4880 C   0  0  0  0  0
   46.3680  -21.0460   30.1080 C   0  0  0  0  0
   33.7060  -14.4270   29.2800 Cl  0  0  0  0  0
   36.5870  -13.8240   26.5850 C   0  0  0  0  0
   35.4260  -13.6880   27.3330 C   0  0  0  0  0
   35.1420  -14.6190   28.3100 C   0  0  0  0  0
   35.9870  -15.6790   28.5620 C   0  0  0  0  0
   37.1870  -15.8000   27.8490 C   0  0  0  0  0
   37.4730  -14.8720   26.8300 C   0  0  0  0  0
   38.5060  -15.1320   25.8810 N   0  0  0  0  0
   38.5780  -14.9550   24.5570 C   0  0  0  0  0
   39.7890  -15.2090   24.1440 N   0  0  0  0  0
   40.4990  -15.5080   25.2610 N   0  0  0  0  0
   39.7460  -15.4670   26.3130 N   0  0  0  0  0
   38.0030  -18.1540   28.0300 C   0  0  0  0  0
   39.6920  -18.8620   29.5580 O   0  0  0  0  0
   39.0790  -20.4050   27.9770 N   0  0  0  0  0
   39.8130  -25.3580   26.9400 C   0  0  0  0  0
   39.5750  -24.2310   26.1500 C   0  0  0  0  0
   41.9040  -20.5570   27.4240 O   0  0  0  0  0
   42.1980  -21.2450   29.5870 N   0  0  0  0  0
   43.5920  -21.0960   29.7430 C   0  0  0  0  0
   44.4210  -20.5420   28.7710 C   0  0  0  0  0
   45.7910  -20.5070   28.9610 C   0  0  0  0  0
   44.1560  -21.5970   30.9100 C   0  0  0  0  0
   47.8530  -20.9690   30.3030 C   0  0  0  0  0
   48.3650  -21.6160   31.3190 O   0  0  0  0  0
   48.5350  -20.2240   29.6170 O   0  0  0  0  0
   39.1980  -24.4050   24.7040 C   0  0  0  0  0
   38.0450  -24.6940   24.4350 O   0  0  0  0  0
   40.1070  -24.0960   23.7540 N   0  0  0  0  0
   39.7610  -24.0180   22.3330 C   0  0  0  0  0
   40.1130  -22.6340   21.7770 C   0  0  0  0  0
   41.5850  -22.2780   22.0530 C   0  0  0  0  0
   41.9800  -22.5010   23.5100 C   0  0  0  0  0
   41.5450  -23.8720   23.9860 C   0  0  0  0  0
   39.1350  -21.5680   22.2330 C   0  0  0  0  0
   39.7690  -20.5120   22.7670 O   0  0  0  0  0
   37.9370  -21.6510   22.1360 O   0  0  0  0  0
   38.9790  -19.4120   23.3250 C   0  0  0  0  0
   39.8760  -18.6010   24.2040 C   0  0  0  0  0
   39.0172  -16.5365   28.7853 H   0  0  0  0  0
   39.6238  -21.3985   29.6502 H   0  0  0  0  0
   38.6592  -22.0426   25.0451 H   0  0  0  0  0
   40.1328  -21.2038   25.6234 H   0  0  0  0  0
   37.4450  -21.3060   27.0207 H   0  0  0  0  0
   38.1499  -19.9010   26.1662 H   0  0  0  0  0
   40.3080  -23.8410   29.9331 H   0  0  0  0  0
   40.2220  -26.0912   28.9193 H   0  0  0  0  0
   45.9558  -21.9576   32.0153 H   0  0  0  0  0
   36.8085  -13.1037   25.7975 H   0  0  0  0  0
   34.7467  -12.8553   27.1505 H   0  0  0  0  0
   35.7219  -16.4216   29.3146 H   0  0  0  0  0
   37.7498  -14.6453   23.9196 H   0  0  0  0  0
   37.1736  -18.5183   27.4238 H   0  0  0  0  0
   39.8033  -26.3514   26.4915 H   0  0  0  0  0
   41.6893  -21.5880   30.4019 H   0  0  0  0  0
   43.9890  -20.1344   27.8570 H   0  0  0  0  0
   46.4274  -20.0513   28.2024 H   0  0  0  0  0
   43.5148  -22.0150   31.6860 H   0  0  0  0  0
   47.6827  -22.1482   31.7347 H   0  0  0  0  0
   38.6905  -24.1871   22.2169 H   0  0  0  0  0
   40.3237  -24.7752   21.7870 H   0  0  0  0  0
   40.0078  -22.6738   20.6928 H   0  0  0  0  0
   41.7223  -21.2207   21.8265 H   0  0  0  0  0
   42.2078  -22.9240   21.4342 H   0  0  0  0  0
   41.4907  -21.7456   24.1248 H   0  0  0  0  0
   43.0644  -22.4294   23.5935 H   0  0  0  0  0
   42.1048  -24.6234   23.4291 H   0  0  0  0  0
   41.7359  -23.9412   25.0569 H   0  0  0  0  0
   38.1405  -19.8039   23.9006 H   0  0  0  0  0
   38.5757  -18.7928   22.5237 H   0  0  0  0  0
   40.2646  -19.2308   25.0043 H   0  0  0  0  0
   40.7042  -18.2095   23.6134 H   0  0  0  0  0
   39.3109  -17.7735   24.6330 H   0  0  0  0  0
  1 18  1  0  0  0
 25  1  2  0  0  0
  2  4  1  0  0  0
 11  2  1  0  0  0
  2 27  1  0  0  0
  3 25  1  0  0  0
  3 26  2  0  0  0
 27  3  1  0  0  0
  4  5  4  0  0  0
  4  8  4  0  0  0
  5  6  1  0  0  0
  5 29  4  0  0  0
  7  6  1  0  0  0
 27  7  1  0  0  0
  8  9  4  0  0  0
  9 28  4  0  0  0
 10 12  4  0  0  0
 35 10  4  0  0  0
 11 30  2  0  0  0
 31 11  1  0  0  0
 12 34  4  0  0  0
 12 36  1  0  0  0
 16 13  1  0  0  0
 14 15  4  0  0  0
 19 14  4  0  0  0
 16 15  4  0  0  0
 17 16  4  0  0  0
 18 17  4  0  0  0
 18 19  4  0  0  0
 19 20  1  0  0  0
 20 21  4  0  0  0
 20 24  4  0  0  0
 21 22  4  0  0  0
 23 22  4  0  0  0
 24 23  4  0  0  0
 29 28  4  0  0  0
 29 39  1  0  0  0
 32 31  1  0  0  0
 32 33  4  0  0  0
 32 35  4  0  0  0
 33 34  4  0  0  0
 36 37  1  0  0  0
 36 38  2  0  0  0
 39 40  2  0  0  0
 39 41  1  0  0  0
 41 42  1  0  0  0
 41 46  1  0  0  0
 42 43  1  0  0  0
 43 44  1  0  0  0
 43 47  1  0  0  0
 44 45  1  0  0  0
 45 46  1  0  0  0
 47 48  1  0  0  0
 47 49  2  0  0  0
 48 50  1  0  0  0
 50 51  1  0  0  0
  1 52  1  0  0  0
  2 53  1  0  0  0
  6 54  1  0  0  0
  6 55  1  0  0  0
  7 56  1  0  0  0
  7 57  1  0  0  0
  8 58  1  0  0  0
  9 59  1  0  0  0
 10 60  1  0  0  0
 14 61  1  0  0  0
 15 62  1  0  0  0
 17 63  1  0  0  0
 21 64  1  0  0  0
 25 65  1  0  0  0
 28 66  1  0  0  0
 31 67  1  0  0  0
 33 68  1  0  0  0
 34 69  1  0  0  0
 35 70  1  0  0  0
 37 71  1  0  0  0
 42 72  1  0  0  0
 42 73  1  0  0  0
 43 74  1  0  0  0
 44 75  1  0  0  0
 44 76  1  0  0  0
 45 77  1  0  0  0
 45 78  1  0  0  0
 46 79  1  0  0  0
 46 80  1  0  0  0
 50 81  1  0  0  0
 50 82  1  0  0  0
 51 83  1  0  0  0
 51 84  1  0  0  0
 51 85  1  0  0  0
M  END
$$$$
