3s76_ligand
  -I-interpret- 

 13 13  0  0  0  0  0  0  0  0999 V2000
   15.0860    0.9930   16.8190 S   0  0  0  0  0
   16.8070    2.4100   15.2290 N   0  0  0  0  0
   13.6070    1.0220   16.7830 O   0  0  0  0  0
   15.5410    2.2220   15.7360 C   0  0  0  0  0
   15.7150    1.2740   18.0590 O   0  0  0  0  0
   14.7400    3.2040   15.2620 N   0  0  0  0  0
   15.4510    3.9750   14.3880 C   0  0  0  0  0
   16.7520    3.4900   14.3940 C   0  0  0  0  0
   15.6610   -0.3330   16.2070 N   0  0  0  0  0
   15.0708    4.8099   13.7993 H   0  0  0  0  0
   17.5880    3.9013   13.8283 H   0  0  0  0  0
   15.0263   -1.0454   15.8464 H   0  0  0  0  0
   16.6693   -0.4823   16.1699 H   0  0  0  0  0
  1  3  2  0  0  0
  1  4  1  0  0  0
  1  5  2  0  0  0
  1  9  1  0  0  0
  4  2  4  0  0  0
  2  8  4  0  0  0
  4  6  4  0  0  0
  6  7  4  0  0  0
  7  8  4  0  0  0
  7 10  1  0  0  0
  8 11  1  0  0  0
  9 12  1  0  0  0
  9 13  1  0  0  0
M  END
$$$$
