4ge5_ligand
  -I-interpret- 

 77 79  0  0  0  0  0  0  0  0999 V2000
   18.5240    1.8260   -2.3120 C   0  0  0  0  0
   19.2000    2.5500   -3.2400 C   0  0  0  0  0
   20.0730    1.9660   -4.1360 C   0  0  0  0  0
   20.7550    2.6920   -5.0890 C   0  0  0  0  0
   20.5400    4.0740   -5.1330 C   0  0  0  0  0
   19.6720    4.6710   -4.2450 C   0  0  0  0  0
   19.0090    3.9180   -3.3090 C   0  0  0  0  0
   21.6940    1.9540   -6.0320 C   0  0  0  0  0
   18.9150    1.7740   -1.1620 O   0  0  0  0  0
   21.3920    5.2210   -6.3840 Br  0  0  0  0  0
   17.3860    1.1140   -2.5830 N   0  0  0  0  0
   16.5160    0.3280   -1.6980 C   0  0  0  0  0
   16.6570   -1.1580   -2.0550 C   0  0  0  0  0
   16.7910   -2.0050   -1.2000 O   0  0  0  0  0
   15.0880    0.9430   -1.8630 C   0  0  0  0  0
   14.0480    0.2160   -1.0330 C   0  0  0  0  0
   13.8620    0.5180    0.3020 C   0  0  0  0  0
   13.2610   -0.7750   -1.5960 C   0  0  0  0  0
   12.9200   -0.1560    1.0460 C   0  0  0  0  0
   12.3270   -1.4420   -0.8510 C   0  0  0  0  0
   12.1350   -1.1520    0.4810 C   0  0  0  0  0
   11.1050   -1.9050    1.3020 C   0  0  0  0  0
   11.4950   -2.0160    2.6020 F   0  0  0  0  0
   10.9080   -3.1780    0.8360 F   0  0  0  0  0
    9.4400   -1.0870    1.3280 P   0  0  0  0  0
    9.4850    0.2290    2.0250 O   0  0  0  0  0
    8.9500   -0.8800   -0.2030 O   0  0  0  0  0
    8.4440   -2.0740    2.1090 O   0  0  0  0  0
   16.6120   -1.4370   -3.4020 N   0  0  0  0  0
   15.0720   -2.1660   -8.3280 N   0  0  0  0  0
   16.0140   -2.6460   -4.0090 C   0  0  0  0  0
   16.9830   -3.8400   -3.9330 C   0  0  0  0  0
   15.6980   -2.2860   -5.4810 C   0  0  0  0  0
   14.3730   -2.8310   -6.0450 C   0  0  0  0  0
   14.5280   -3.2730   -7.5220 C   0  0  0  0  0
   15.9370   -2.2060   -9.4000 C   0  0  0  0  0
   15.8240   -1.5740  -10.6150 C   0  0  0  0  0
   16.0090   -0.1960  -10.6740 C   0  0  0  0  0
   15.9090    0.5110  -11.8560 C   0  0  0  0  0
   15.6200   -0.1470  -13.0290 C   0  0  0  0  0
   15.4330   -1.5130  -12.9960 C   0  0  0  0  0
   15.5360   -2.2070  -11.8090 C   0  0  0  0  0
   16.7090   -4.9070   -3.4370 O   0  0  0  0  0
   16.9170   -2.9000   -9.2040 O   0  0  0  0  0
   14.9800   -2.5760  -14.8200 I   0  0  0  0  0
   18.2210   -3.6310   -4.4620 N   0  0  0  0  0
   20.2292    0.8883   -4.0880 H   0  0  0  0  0
   19.5110    5.7483   -4.2863 H   0  0  0  0  0
   18.3248    4.4029   -2.6127 H   0  0  0  0  0
   22.4714    1.4560   -5.4525 H   0  0  0  0  0
   21.1298    1.2127   -6.5979 H   0  0  0  0  0
   22.1511    2.6665   -6.7187 H   0  0  0  0  0
   17.0945    1.1325   -3.5603 H   0  0  0  0  0
   16.7738    0.3728   -0.6399 H   0  0  0  0  0
   14.8028    0.8584   -2.9116 H   0  0  0  0  0
   15.1253    1.9789   -1.5261 H   0  0  0  0  0
   14.4656    1.2958    0.7699 H   0  0  0  0  0
   13.3876   -1.0274   -2.6488 H   0  0  0  0  0
   12.7880    0.0970    2.0980 H   0  0  0  0  0
   11.7232   -2.2181   -1.3213 H   0  0  0  0  0
    8.9229   -1.7308   -0.6469 H   0  0  0  0  0
    8.4164   -2.9212    1.6584 H   0  0  0  0  0
   17.0258   -0.7525   -4.0349 H   0  0  0  0  0
   14.7632   -1.2338   -8.0522 H   0  0  0  0  0
   15.1119   -2.9444   -3.4749 H   0  0  0  0  0
   16.4908   -2.7333   -6.0806 H   0  0  0  0  0
   15.6207   -1.1994   -5.5187 H   0  0  0  0  0
   13.6244   -2.0402   -5.9966 H   0  0  0  0  0
   14.0746   -3.6967   -5.4537 H   0  0  0  0  0
   15.2113   -4.1208   -7.5716 H   0  0  0  0  0
   13.5513   -3.5551   -7.9151 H   0  0  0  0  0
   16.2408    0.3438   -9.7558 H   0  0  0  0  0
   16.0591    1.5906  -11.8595 H   0  0  0  0  0
   15.5402    0.4014  -13.9676 H   0  0  0  0  0
   15.3858   -3.2866  -11.8126 H   0  0  0  0  0
   18.9176   -4.3758   -4.4395 H   0  0  0  0  0
   18.4513   -2.7298   -4.8805 H   0  0  0  0  0
  1  2  1  0  0  0
  1  9  2  0  0  0
 11  1  1  0  0  0
  2  3  4  0  0  0
  2  7  4  0  0  0
  3  4  4  0  0  0
  4  5  4  0  0  0
  4  8  1  0  0  0
  6  5  4  0  0  0
  5 10  1  0  0  0
  7  6  4  0  0  0
 12 11  1  0  0  0
 13 12  1  0  0  0
 12 15  1  0  0  0
 13 14  2  0  0  0
 29 13  1  0  0  0
 15 16  1  0  0  0
 16 17  4  0  0  0
 16 18  4  0  0  0
 17 19  4  0  0  0
 18 20  4  0  0  0
 19 21  4  0  0  0
 20 21  4  0  0  0
 21 22  1  0  0  0
 22 23  1  0  0  0
 22 24  1  0  0  0
 22 25  1  0  0  0
 25 26  2  0  0  0
 25 27  1  0  0  0
 25 28  1  0  0  0
 31 29  1  0  0  0
 35 30  1  0  0  0
 30 36  1  0  0  0
 31 32  1  0  0  0
 33 31  1  0  0  0
 32 43  2  0  0  0
 32 46  1  0  0  0
 34 33  1  0  0  0
 34 35  1  0  0  0
 36 37  1  0  0  0
 36 44  2  0  0  0
 37 38  4  0  0  0
 37 42  4  0  0  0
 38 39  4  0  0  0
 39 40  4  0  0  0
 40 41  4  0  0  0
 41 42  4  0  0  0
 41 45  1  0  0  0
  3 47  1  0  0  0
  6 48  1  0  0  0
  7 49  1  0  0  0
  8 50  1  0  0  0
  8 51  1  0  0  0
  8 52  1  0  0  0
 11 53  1  0  0  0
 12 54  1  0  0  0
 15 55  1  0  0  0
 15 56  1  0  0  0
 17 57  1  0  0  0
 18 58  1  0  0  0
 19 59  1  0  0  0
 20 60  1  0  0  0
 27 61  1  0  0  0
 28 62  1  0  0  0
 29 63  1  0  0  0
 30 64  1  0  0  0
 31 65  1  0  0  0
 33 66  1  0  0  0
 33 67  1  0  0  0
 34 68  1  0  0  0
 34 69  1  0  0  0
 35 70  1  0  0  0
 35 71  1  0  0  0
 38 72  1  0  0  0
 39 73  1  0  0  0
 40 74  1  0  0  0
 42 75  1  0  0  0
 46 76  1  0  0  0
 46 77  1  0  0  0
M  END
$$$$
