### 
### Created by X-TOOL on Mon Sep 10 21:13:09 2018
### 

@<TRIPOS>MOLECULE
4ge5_ligand
   75    77     1     0     0
SMALL
GAST_HUCK


@<TRIPOS>ATOM
      1 C23        18.5240    1.8260   -2.3120 C.2       1 A89         0.2076
      2 C24        19.2000    2.5500   -3.2400 C.ar      1 A89         0.0460
      3 C25        20.0730    1.9660   -4.1360 C.ar      1 A89        -0.0383
      4 C26        20.7550    2.6920   -5.0890 C.ar      1 A89        -0.0312
      5 C27        20.5400    4.0740   -5.1330 C.ar      1 A89         0.0178
      6 C28        19.6720    4.6710   -4.2450 C.ar      1 A89        -0.0536
      7 C29        19.0090    3.9180   -3.3090 C.ar      1 A89        -0.0463
      8 C30        21.6940    1.9540   -6.0320 C.3       1 A89        -0.0289
      9 O7         18.9150    1.7740   -1.1620 O.2       1 A89        -0.3834
     10 BR         21.3920    5.2210   -6.3840 Br        1 A89        -0.0526
     11 N1         17.3860    1.1140   -2.5830 N.am      1 A89        -0.2621
     12 C9         16.5160    0.3280   -1.6980 C.3       1 A89         0.1447
     13 C10        16.6570   -1.1580   -2.0550 C.2       1 A89         0.2068
     14 O4         16.7910   -2.0050   -1.2000 O.2       1 A89        -0.3941
     15 C8         15.0880    0.9430   -1.8630 C.3       1 A89         0.0366
     16 C5         14.0480    0.2160   -1.0330 C.ar      1 A89        -0.0068
     17 C6         13.8620    0.5180    0.3020 C.ar      1 A89        -0.0280
     18 C4         13.2610   -0.7750   -1.5960 C.ar      1 A89        -0.0280
     19 C7         12.9200   -0.1560    1.0460 C.ar      1 A89        -0.0385
     20 C3         12.3270   -1.4420   -0.8510 C.ar      1 A89        -0.0385
     21 C2         12.1350   -1.1520    0.4810 C.ar      1 A89         0.0219
     22 C1         11.1050   -1.9050    1.3020 C.3       1 A89         0.2931
     23 F1         11.4950   -2.0160    2.6020 F         1 A89        -0.2419
     24 F2         10.9080   -3.1780    0.8360 F         1 A89        -0.2419
     25 P1          9.4400   -1.0870    1.3280 P.3       1 A89         0.0966
     26 O2          9.4850    0.2290    2.0250 O.co2     1 A89        -0.5668
     27 O1          8.9500   -0.8800   -0.2030 O.co2     1 A89        -0.5668
     28 O3          8.4440   -2.0740    2.1090 O.co2     1 A89        -0.5668
     29 N2         16.6120   -1.4370   -3.4020 N.am      1 A89        -0.2635
     30 N4         15.0720   -2.1660   -8.3280 N.am      1 A89        -0.2861
     31 C11        16.0140   -2.6460   -4.0090 C.3       1 A89         0.1307
     32 C12        16.9830   -3.8400   -3.9330 C.2       1 A89         0.1992
     33 C13        15.6980   -2.2860   -5.4810 C.3       1 A89        -0.0106
     34 C14        14.3730   -2.8310   -6.0450 C.3       1 A89        -0.0286
     35 C15        14.5280   -3.2730   -7.5220 C.3       1 A89         0.0306
     36 C16        15.9370   -2.2060   -9.4000 C.2       1 A89         0.2055
     37 C17        15.8240   -1.5740  -10.6150 C.ar      1 A89         0.0528
     38 C18        16.0090   -0.1960  -10.6740 C.ar      1 A89        -0.0394
     39 C19        15.9090    0.5110  -11.8560 C.ar      1 A89        -0.0533
     40 C20        15.6200   -0.1470  -13.0290 C.ar      1 A89        -0.0465
     41 C21        15.4330   -1.5130  -12.9960 C.ar      1 A89         0.0151
     42 C22        15.5360   -2.2070  -11.8090 C.ar      1 A89        -0.0308
     43 O5         16.7090   -4.9070   -3.4370 O.2       1 A89        -0.3947
     44 O6         16.9170   -2.9000   -9.2040 O.2       1 A89        -0.3847
     45 I          14.9800   -2.5760  -14.8200 I         1 A89        -0.0481
     46 N3         18.2210   -3.6310   -4.4620 N.am      1 A89        -0.2990
     47 H1         20.2283    0.8942   -4.0883 H         1 A89         0.0614
     48 H2         19.5119    5.7423   -4.2861 H         1 A89         0.0637
     49 H3         18.3286    4.4003   -2.6166 H         1 A89         0.0617
     50 H4         21.6855    0.8805   -5.7920 H         1 A89         0.0399
     51 H5         22.7145    2.3476   -5.9156 H         1 A89         0.0399
     52 H6         21.3607    2.1003   -7.0700 H         1 A89         0.0399
     53 H7         17.1002    1.1321   -3.5411 H         1 A89         0.1879
     54 H8         16.8314    0.4546   -0.6518 H         1 A89         0.0833
     55 H9         14.7983    0.8850   -2.9226 H         1 A89         0.0547
     56 H10        15.1182    1.9965   -1.5482 H         1 A89         0.0547
     57 H11        14.4623    1.2915    0.7673 H         1 A89         0.0652
     58 H12        13.3869   -1.0261   -2.6430 H         1 A89         0.0652
     59 H13        12.7888    0.0956    2.0922 H         1 A89         0.0835
     60 H14        11.7265   -2.2138   -1.3188 H         1 A89         0.0835
     61 H15        17.0177   -0.7659   -4.0225 H         1 A89         0.1883
     62 H16        14.7693   -1.2521   -8.0576 H         1 A89         0.1845
     63 H17        15.0849   -2.9069   -3.4811 H         1 A89         0.0800
     64 H18        16.5147   -2.6779   -6.1051 H         1 A89         0.0313
     65 H19        15.6702   -1.1892   -5.5597 H         1 A89         0.0313
     66 H20        13.6075   -2.0434   -5.9854 H         1 A89         0.0287
     67 H21        14.0567   -3.6961   -5.4437 H         1 A89         0.0287
     68 H22        15.2130   -4.1320   -7.5745 H         1 A89         0.0519
     69 H23        13.5444   -3.5634   -7.9198 H         1 A89         0.0519
     70 H24        16.2395    0.3408   -9.7609 H         1 A89         0.0690
     71 H25        16.0583    1.5847  -11.8595 H         1 A89         0.0636
     72 H26        15.5407    0.3984  -13.9625 H         1 A89         0.0681
     73 H27        15.3867   -3.2807  -11.8126 H         1 A89         0.0698
     74 H28        18.9014   -4.3637   -4.4468 H         1 A89         0.1815
     75 H29        18.4493   -2.7449   -4.8655 H         1 A89         0.1815
@<TRIPOS>BOND
     1    1    2 1  
     2    1    9 2  
     3   11    1 am 
     4    2    3 ar 
     5    2    7 ar 
     6    3    4 ar 
     7    4    5 ar 
     8    4    8 1  
     9    6    5 ar 
    10    5   10 1  
    11    7    6 ar 
    12   12   11 1  
    13   13   12 1  
    14   12   15 1  
    15   13   14 2  
    16   29   13 am 
    17   15   16 1  
    18   16   17 ar 
    19   16   18 ar 
    20   17   19 ar 
    21   18   20 ar 
    22   19   21 ar 
    23   20   21 ar 
    24   21   22 1  
    25   22   23 1  
    26   22   24 1  
    27   22   25 1  
    28   25   26 ar 
    29   25   27 ar 
    30   25   28 ar 
    31   31   29 1  
    32   35   30 1  
    33   30   36 am 
    34   31   32 1  
    35   33   31 1  
    36   32   43 2  
    37   32   46 am 
    38   34   33 1  
    39   34   35 1  
    40   36   37 1  
    41   36   44 2  
    42   37   38 ar 
    43   37   42 ar 
    44   38   39 ar 
    45   39   40 ar 
    46   40   41 ar 
    47   41   42 ar 
    48   41   45 1  
    49    3   47 1  
    50    6   48 1  
    51    7   49 1  
    52    8   50 1  
    53    8   51 1  
    54    8   52 1  
    55   11   53 1  
    56   12   54 1  
    57   15   55 1  
    58   15   56 1  
    59   17   57 1  
    60   18   58 1  
    61   19   59 1  
    62   20   60 1  
    63   29   61 1  
    64   30   62 1  
    65   31   63 1  
    66   33   64 1  
    67   33   65 1  
    68   34   66 1  
    69   34   67 1  
    70   35   68 1  
    71   35   69 1  
    72   38   70 1  
    73   39   71 1  
    74   40   72 1  
    75   42   73 1  
    76   46   74 1  
    77   46   75 1  
@<TRIPOS>SUBSTRUCTURE
     1 A89         1

