6hou_ligand
  -I-interpret- 

 19 19  0  0  0  0  0  0  0  0999 V2000
  -22.7690   15.6390  -13.4120 C   0  0  0  0  0
  -22.5500   15.1510  -14.6990 C   0  0  0  0  0
  -22.3930   13.7840  -14.8900 C   0  0  0  0  0
  -22.4560   12.9230  -13.7970 C   0  0  0  0  0
  -22.6690   13.4110  -12.5160 C   0  0  0  0  0
  -22.6800   17.9050  -14.0760 O   0  0  0  0  0
  -22.8290   14.7740  -12.3260 C   0  0  0  0  0
  -22.9430   17.1260  -13.1790 C   0  0  0  0  0
  -22.0320   14.1480  -17.2370 C   0  0  0  0  0
  -22.1720   13.2320  -16.1690 O   0  0  0  0  0
  -22.2930   11.5430  -13.9960 O   0  0  0  0  0
  -22.5024   15.8346  -15.5466 H   0  0  0  0  0
  -22.7101   12.7286  -11.6670 H   0  0  0  0  0
  -23.0020   15.1680  -11.3245 H   0  0  0  0  0
  -23.3003   17.4943  -12.2173 H   0  0  0  0  0
  -22.9397   14.7454  -17.3230 H   0  0  0  0  0
  -21.1819   14.8022  -17.0438 H   0  0  0  0  0
  -21.8669   13.6000  -18.1647 H   0  0  0  0  0
  -22.3623   11.0889  -13.1530 H   0  0  0  0  0
  1  2  4  0  0  0
  1  7  4  0  0  0
  1  8  1  0  0  0
  2  3  4  0  0  0
  3  4  4  0  0  0
  3 10  1  0  0  0
  4  5  4  0  0  0
  4 11  1  0  0  0
  5  7  4  0  0  0
  8  6  2  0  0  0
 10  9  1  0  0  0
  2 12  1  0  0  0
  5 13  1  0  0  0
  7 14  1  0  0  0
  8 15  1  0  0  0
  9 16  1  0  0  0
  9 17  1  0  0  0
  9 18  1  0  0  0
 11 19  1  0  0  0
M  END
$$$$
