3k7f_ligand
  -I-interpret- 

 52 54  0  0  0  0  0  0  0  0999 V2000
  -44.9300   46.9130    7.4350 C   0  0  0  0  0
  -44.4330   45.6170    7.3080 C   0  0  0  0  0
  -44.4250   44.7690    8.4130 C   0  0  0  0  0
  -44.9310   45.2130    9.6360 C   0  0  0  0  0
  -45.4330   46.5060    9.7600 C   0  0  0  0  0
  -45.4300   47.3620    8.6550 C   0  0  0  0  0
  -43.8960   43.3490    8.3220 C   0  0  0  0  0
  -43.3560   42.9290    6.9580 C   0  0  0  0  0
  -42.6810   41.5610    7.1250 C   0  0  0  0  0
  -42.3650   40.8890    5.7890 C   0  0  0  0  0
  -41.4530   39.6730    6.0040 C   0  0  0  0  0
  -40.0130   40.0820    6.3410 C   0  0  0  0  0
  -39.1440   38.8480    6.5800 C   0  0  0  0  0
  -39.6200   38.1450    7.7340 O   0  0  0  0  0
  -37.6950   39.2320    6.8400 C   0  0  0  0  0
  -36.5260   38.6410    6.6510 N   0  0  0  0  0
  -35.6030   39.4840    7.1030 C   0  0  0  0  0
  -36.2120   40.5700    7.5710 C   0  0  0  0  0
  -37.5430   40.4250    7.4150 O   0  0  0  0  0
  -35.5750   41.7690    8.1620 C   0  0  0  0  0
  -34.2700   41.7360    8.4620 N   0  0  0  0  0
  -33.6660   42.8180    8.9890 C   0  0  0  0  0
  -34.3770   43.9810    9.2520 C   0  0  0  0  0
  -35.7300   44.0340    8.9460 C   0  0  0  0  0
  -36.3350   42.9130    8.3910 C   0  0  0  0  0
  -32.2080   42.7220    9.3060 C   0  0  0  0  0
  -31.6220   41.6470    9.0450 O   0  0  0  0  0
  -31.6300   43.7020    9.8210 O   0  0  0  0  0
  -44.9274   47.5802    6.5730 H   0  0  0  0  0
  -44.0522   45.2685    6.3480 H   0  0  0  0  0
  -44.9332   44.5449   10.4973 H   0  0  0  0  0
  -45.8273   46.8497   10.7163 H   0  0  0  0  0
  -45.8173   48.3766    8.7477 H   0  0  0  0  0
  -44.7389   42.6917    8.5356 H   0  0  0  0  0
  -43.0590   43.2867    9.0174 H   0  0  0  0  0
  -42.6392   43.6636    6.5911 H   0  0  0  0  0
  -44.1666   42.8661    6.2320 H   0  0  0  0  0
  -43.3686   40.9139    7.6696 H   0  0  0  0  0
  -41.7393   41.7156    7.6517 H   0  0  0  0  0
  -41.8561   41.6046    5.1433 H   0  0  0  0  0
  -43.2961   40.5575    5.3294 H   0  0  0  0  0
  -41.4343   39.0951    5.0800 H   0  0  0  0  0
  -41.8470   39.0970    6.8413 H   0  0  0  0  0
  -40.0213   40.6883    7.2467 H   0  0  0  0  0
  -39.6016   40.6464    5.5042 H   0  0  0  0  0
  -39.2001   38.2272    5.6858 H   0  0  0  0  0
  -39.0734   37.3700    7.8832 H   0  0  0  0  0
  -34.5264   39.3137    7.0920 H   0  0  0  0  0
  -33.8781   44.8434    9.6941 H   0  0  0  0  0
  -36.3073   44.9385    9.1376 H   0  0  0  0  0
  -37.3949   42.9290    8.1372 H   0  0  0  0  0
  -32.2461   41.0299    8.6559 H   0  0  0  0  0
  1  2  4  0  0  0
  1  6  4  0  0  0
  2  3  4  0  0  0
  3  4  4  0  0  0
  3  7  1  0  0  0
  4  5  4  0  0  0
  5  6  4  0  0  0
  7  8  1  0  0  0
  8  9  1  0  0  0
  9 10  1  0  0  0
 10 11  1  0  0  0
 11 12  1  0  0  0
 12 13  1  0  0  0
 13 14  1  0  0  0
 13 15  1  0  0  0
 15 16  4  0  0  0
 15 19  4  0  0  0
 16 17  4  0  0  0
 17 18  4  0  0  0
 18 19  4  0  0  0
 18 20  1  0  0  0
 20 21  4  0  0  0
 20 25  4  0  0  0
 21 22  4  0  0  0
 22 23  4  0  0  0
 22 26  1  0  0  0
 23 24  4  0  0  0
 24 25  4  0  0  0
 26 27  1  0  0  0
 26 28  2  0  0  0
  1 29  1  0  0  0
  2 30  1  0  0  0
  4 31  1  0  0  0
  5 32  1  0  0  0
  6 33  1  0  0  0
  7 34  1  0  0  0
  7 35  1  0  0  0
  8 36  1  0  0  0
  8 37  1  0  0  0
  9 38  1  0  0  0
  9 39  1  0  0  0
 10 40  1  0  0  0
 10 41  1  0  0  0
 11 42  1  0  0  0
 11 43  1  0  0  0
 12 44  1  0  0  0
 12 45  1  0  0  0
 13 46  1  0  0  0
 14 47  1  0  0  0
 17 48  1  0  0  0
 23 49  1  0  0  0
 24 50  1  0  0  0
 25 51  1  0  0  0
 27 52  1  0  0  0
M  END
$$$$
