5abe_ligand
  -I-interpret- 

 46 46  0  0  0  0  0  0  0  0999 V2000
   27.9750   51.9700  245.2940 O   0  0  0  0  0
   29.1830   51.7760  245.1630 C   0  0  0  0  0
   29.8380   51.7280  244.0040 N   0  0  0  0  0
   29.1590   51.8980  242.7320 C   0  0  0  0  0
   29.9970   51.4990  246.4020 C   0  0  0  0  0
   29.0810   50.5050  247.1050 C   0  0  0  0  0
   29.7880   49.6720  248.1210 C   0  0  0  0  0
   30.7070   48.7410  247.5220 O   0  0  0  0  0
   28.5860   49.0790  248.8550 C   0  0  0  0  0
   28.3420   47.7450  248.4510 O   0  0  0  0  0
   27.3490   49.8820  248.4960 C   0  0  0  0  0
   26.4300   50.1170  249.6830 C   0  0  0  0  0
   25.7130   48.8960  249.7950 O   0  0  0  0  0
   27.8890   51.0790  247.8200 N   0  3  0  0  0
   28.0400   52.3240  248.6410 C   0  0  0  0  0
   28.9240   52.4140  249.8840 C   0  0  0  0  0
   28.5820   53.7250  250.6210 C   0  0  0  0  0
   29.7930   54.3610  251.3040 C   0  0  0  0  0
   29.4140   55.6290  252.0480 C   0  0  0  0  0
   30.8452   51.5672  244.0104 H   0  0  0  0  0
   28.4026   51.1214  242.6187 H   0  0  0  0  0
   28.6824   52.8779  242.7041 H   0  0  0  0  0
   29.8840   51.8219  241.9216 H   0  0  0  0  0
   30.2361   52.3847  246.9906 H   0  0  0  0  0
   31.0016   51.1242  246.2059 H   0  0  0  0  0
   28.7344   49.9212  246.2522 H   0  0  0  0  0
   30.4675   50.1931  248.7953 H   0  0  0  0  0
   31.4163   49.2247  247.0925 H   0  0  0  0  0
   28.8001   49.1063  249.9234 H   0  0  0  0  0
   27.5833   47.4010  248.9281 H   0  0  0  0  0
   26.6623   49.3619  247.8281 H   0  0  0  0  0
   25.7734   50.9751  249.5392 H   0  0  0  0  0
   26.9776   50.3645  250.5924 H   0  0  0  0  0
   25.0987   48.9532  250.5305 H   0  0  0  0  0
   27.2410   51.5229  247.1693 H   0  0  0  0  0
   27.0380   52.4738  249.0431 H   0  0  0  0  0
   28.5212   53.0153  247.9491 H   0  0  0  0  0
   29.9759   52.4069  249.5983 H   0  0  0  0  0
   28.7444   51.5588  250.5355 H   0  0  0  0  0
   27.8507   53.4897  251.3943 H   0  0  0  0  0
   28.2082   54.4333  249.8816 H   0  0  0  0  0
   30.5249   54.6172  250.5380 H   0  0  0  0  0
   30.1966   53.6479  252.0228 H   0  0  0  0  0
   28.9968   56.3502  251.3452 H   0  0  0  0  0
   28.6726   55.3930  252.8114 H   0  0  0  0  0
   30.3014   56.0510  252.5197 H   0  0  0  0  0
  1  2  2  0  0  0
  2  3  1  0  0  0
  2  5  1  0  0  0
  3  4  1  0  0  0
  5  6  1  0  0  0
  6  7  1  0  0  0
  6 14  1  0  0  0
  7  8  1  0  0  0
  7  9  1  0  0  0
  9 10  1  0  0  0
  9 11  1  0  0  0
 11 12  1  0  0  0
 11 14  1  0  0  0
 12 13  1  0  0  0
 14 15  1  0  0  0
 15 16  1  0  0  0
 16 17  1  0  0  0
 17 18  1  0  0  0
 18 19  1  0  0  0
  3 20  1  0  0  0
  4 21  1  0  0  0
  4 22  1  0  0  0
  4 23  1  0  0  0
  5 24  1  0  0  0
  5 25  1  0  0  0
  6 26  1  0  0  0
  7 27  1  0  0  0
  8 28  1  0  0  0
  9 29  1  0  0  0
 10 30  1  0  0  0
 11 31  1  0  0  0
 12 32  1  0  0  0
 12 33  1  0  0  0
 13 34  1  0  0  0
 14 35  1  0  0  0
 15 36  1  0  0  0
 15 37  1  0  0  0
 16 38  1  0  0  0
 16 39  1  0  0  0
 17 40  1  0  0  0
 17 41  1  0  0  0
 18 42  1  0  0  0
 18 43  1  0  0  0
 19 44  1  0  0  0
 19 45  1  0  0  0
 19 46  1  0  0  0
M  END
$$$$
