3ivi_ligand
  -I-interpret- 

 73 76  0  0  0  0  0  0  0  0999 V2000
   15.5350    0.2800   49.1850 C   0  0  0  0  0
   14.1880   -0.2680   48.8130 C   0  0  0  0  0
   14.3000   -1.7560   48.5190 C   0  0  0  0  0
   14.4200   -2.5880   49.8060 C   0  0  0  0  0
   14.4670   -2.0180   51.0890 C   0  0  0  0  0
   14.6890   -4.1830   52.1330 C   0  0  0  0  0
   14.7490   -6.2920   50.7090 C   0  0  0  0  0
   15.1790   -6.9490   52.0240 C   0  0  0  0  0
    9.4020   -2.3460   48.5640 C   0  0  0  0  0
    9.1380   -0.2440   49.8570 C   0  0  0  0  0
    8.1650   -3.0390   47.9860 C   0  0  0  0  0
    5.8090   -2.0830   48.1800 C   0  0  0  0  0
    3.6170   -1.1810   48.3510 F   0  0  0  0  0
    4.6830   -1.7470   48.9470 C   0  0  0  0  0
    4.6530   -1.9840   50.3210 C   0  0  0  0  0
    5.7690   -2.5580   50.9250 C   0  0  0  0  0
    5.7940   -2.8110   52.2500 F   0  0  0  0  0
    6.8880   -2.8910   50.1550 C   0  0  0  0  0
    6.9240   -2.6620   48.7840 C   0  0  0  0  0
    9.0980   -0.9260   48.7030 N   0  0  0  0  0
    8.6680    1.1840   49.8040 C   0  0  0  0  0
    9.5060   -0.7120   50.9230 O   0  0  0  0  0
   10.6610   -2.6140   47.7280 C   0  0  0  0  0
   11.0560   -3.9890   47.7650 O   0  0  0  0  0
   11.7920   -1.7540   48.2610 C   0  0  0  0  0
   13.1100   -2.1150   47.7740 N   0  3  0  0  0
   15.8150    1.4740   49.7930 C   0  0  0  0  0
   16.8190   -0.3910   48.9170 C   0  0  0  0  0
   17.8210    0.3960   49.3700 N   0  0  0  0  0
   17.1510    1.5240   49.8870 N   0  0  0  0  0
   16.8730   -1.7250   48.2520 C   0  0  0  0  0
   15.5100   -2.0060   47.6180 C   0  0  0  0  0
   14.5900   -2.8050   52.2350 C   0  0  0  0  0
   14.6430   -4.7890   50.8660 C   0  0  0  0  0
   14.5110   -3.9750   49.7230 C   0  0  0  0  0
   15.7820   -6.6240   49.6510 C   0  0  0  0  0
   13.4250   -6.9030   50.2670 C   0  0  0  0  0
   13.8218    0.2480   47.9255 H   0  0  0  0  0
   13.4958   -0.1155   49.6411 H   0  0  0  0  0
   14.4059   -0.9346   51.1920 H   0  0  0  0  0
   14.8018   -4.7929   53.0293 H   0  0  0  0  0
   16.1513   -6.5576   52.3233 H   0  0  0  0  0
   14.4431   -6.7275   52.7970 H   0  0  0  0  0
   15.2476   -8.0278   51.8843 H   0  0  0  0  0
    9.6348   -2.7572   49.5462 H   0  0  0  0  0
    8.3061   -4.1186   48.0379 H   0  0  0  0  0
    8.0316   -2.7226   46.9515 H   0  0  0  0  0
    5.8118   -1.8904   47.1072 H   0  0  0  0  0
    3.7735   -1.7251   50.9105 H   0  0  0  0  0
    7.7532   -3.3412   50.6416 H   0  0  0  0  0
    8.8357   -0.4142   47.8605 H   0  0  0  0  0
    7.8104    1.3077   50.4653 H   0  0  0  0  0
    9.4746    1.8428   50.1258 H   0  0  0  0  0
    8.3797    1.4326   48.7826 H   0  0  0  0  0
   10.4348   -2.3670   46.6907 H   0  0  0  0  0
   11.8443   -4.1088   47.2304 H   0  0  0  0  0
   11.8070   -1.8848   49.3430 H   0  0  0  0  0
   11.5991   -0.7343   47.9277 H   0  0  0  0  0
   13.1083   -3.1350   47.7839 H   0  0  0  0  0
   13.2008   -1.6016   46.8973 H   0  0  0  0  0
   15.1015    2.2260   50.1299 H   0  0  0  0  0
   17.1091   -2.4969   48.9845 H   0  0  0  0  0
   17.6479   -1.7277   47.4854 H   0  0  0  0  0
   15.4141   -1.3235   46.7735 H   0  0  0  0  0
   15.4969   -3.0669   47.3684 H   0  0  0  0  0
   14.6083   -2.3322   53.2169 H   0  0  0  0  0
   14.4791   -4.4471   48.7411 H   0  0  0  0  0
   16.7540   -6.2402   49.9609 H   0  0  0  0  0
   15.8395   -7.7055   49.5279 H   0  0  0  0  0
   15.4929   -6.1643   48.7059 H   0  0  0  0  0
   13.5520   -7.9757   50.1212 H   0  0  0  0  0
   12.6707   -6.7261   51.0337 H   0  0  0  0  0
   13.1084   -6.4428   49.3310 H   0  0  0  0  0
  2  1  1  0  0  0
  1 27  4  0  0  0
  1 28  4  0  0  0
  3  2  1  0  0  0
  3  4  1  0  0  0
 26  3  1  0  0  0
  3 32  1  0  0  0
  4  5  4  0  0  0
  4 35  4  0  0  0
  5 33  4  0  0  0
 33  6  4  0  0  0
  6 34  4  0  0  0
  7  8  1  0  0  0
 34  7  1  0  0  0
  7 36  1  0  0  0
  7 37  1  0  0  0
  9 11  1  0  0  0
  9 20  1  0  0  0
 23  9  1  0  0  0
 20 10  1  0  0  0
 10 21  1  0  0  0
 10 22  2  0  0  0
 11 19  1  0  0  0
 12 14  4  0  0  0
 19 12  4  0  0  0
 14 13  1  0  0  0
 14 15  4  0  0  0
 16 15  4  0  0  0
 16 17  1  0  0  0
 18 16  4  0  0  0
 19 18  4  0  0  0
 23 24  1  0  0  0
 25 23  1  0  0  0
 25 26  1  0  0  0
 27 30  4  0  0  0
 28 29  4  0  0  0
 28 31  1  0  0  0
 29 30  4  0  0  0
 31 32  1  0  0  0
 34 35  4  0  0  0
  2 38  1  0  0  0
  2 39  1  0  0  0
  5 40  1  0  0  0
  6 41  1  0  0  0
  8 42  1  0  0  0
  8 43  1  0  0  0
  8 44  1  0  0  0
  9 45  1  0  0  0
 11 46  1  0  0  0
 11 47  1  0  0  0
 12 48  1  0  0  0
 15 49  1  0  0  0
 18 50  1  0  0  0
 20 51  1  0  0  0
 21 52  1  0  0  0
 21 53  1  0  0  0
 21 54  1  0  0  0
 23 55  1  0  0  0
 24 56  1  0  0  0
 25 57  1  0  0  0
 25 58  1  0  0  0
 26 59  1  0  0  0
 26 60  1  0  0  0
 27 61  1  0  0  0
 31 62  1  0  0  0
 31 63  1  0  0  0
 32 64  1  0  0  0
 32 65  1  0  0  0
 33 66  1  0  0  0
 35 67  1  0  0  0
 36 68  1  0  0  0
 36 69  1  0  0  0
 36 70  1  0  0  0
 37 71  1  0  0  0
 37 72  1  0  0  0
 37 73  1  0  0  0
M  END
$$$$
