4b9h_ligand
  -I-interpret- 

111114  0  0  0  0  0  0  0  0999 V2000
  -12.3170   23.3080   53.9020 C   0  0  0  0  0
  -13.4460   23.4820   54.9460 C   0  0  0  0  0
  -12.9100   23.3170   56.3830 C   0  0  0  0  0
  -12.1710   21.9990   56.4960 C   0  0  0  0  0
  -11.1360   21.8380   55.3900 C   0  0  0  0  0
  -10.5370   20.4270   55.4560 C   0  0  0  0  0
  -15.3790   24.9290   54.3740 C   0  0  0  0  0
  -15.9070   26.3550   54.2320 C   0  0  0  0  0
  -14.0920   24.7850   54.7790 N   0  0  0  0  0
  -11.3370   24.3320   54.1070 O   0  0  0  0  0
  -13.9130   23.3680   57.4070 O   0  0  0  0  0
  -11.4700   22.0280   57.7210 O   0  0  0  0  0
  -11.6690   22.0420   54.0780 O   0  0  0  0  0
   -9.2280   20.5630   54.9800 O   0  0  0  0  0
  -16.1010   23.9260   54.1020 O   0  0  0  0  0
  -11.9740   21.2290   58.7810 C   0  0  0  0  0
  -10.7830   20.9550   59.7150 C   0  0  0  0  0
  -11.2140   20.2760   61.0480 C   0  0  0  0  0
  -12.4530   20.9360   61.6110 C   0  0  0  0  0
  -13.5430   21.1540   60.5450 C   0  0  0  0  0
  -14.7400   21.9160   61.0960 C   0  0  0  0  0
   -8.4730   20.4750   58.9830 C   0  0  0  0  0
   -7.5920   19.4480   58.2860 C   0  0  0  0  0
   -9.7650   20.1380   59.0710 N   0  0  0  0  0
  -10.1520   20.1920   61.9790 O   0  0  0  0  0
  -12.9950   20.1250   62.6340 O   0  0  0  0  0
  -12.9970   21.9320   59.4780 O   0  0  0  0  0
  -14.2510   23.1700   61.5310 O   0  0  0  0  0
   -8.0290   21.5210   59.4480 O   0  0  0  0  0
  -13.0280   20.8540   63.8880 C   0  0  0  0  0
  -14.0600   20.2440   64.8540 C   0  0  0  0  0
  -14.0740   20.9920   66.1760 C   0  0  0  0  0
  -12.6450   21.1420   66.6690 C   0  0  0  0  0
  -11.6630   21.6560   65.6230 C   0  0  0  0  0
  -10.2030   21.5350   66.1160 C   0  0  0  0  0
  -15.8340   19.1420   63.5900 C   0  0  0  0  0
  -17.1880   19.1990   62.9740 C   0  0  0  0  0
  -15.3940   20.2390   64.2520 N   0  0  0  0  0
  -14.9280   20.3400   67.1410 O   0  0  0  0  0
  -12.5850   22.1730   67.5710 O   0  0  0  0  0
  -11.7370   20.8550   64.4450 O   0  0  0  0  0
   -9.8910   20.1700   66.4410 O   0  0  0  0  0
  -15.1560   18.0990   63.5180 O   0  0  0  0  0
  -12.6640   21.7980   68.9290 C   0  0  0  0  0
  -11.9370   22.8450   69.7840 C   0  0  0  0  0
  -12.2560   22.5490   71.2680 C   0  0  0  0  0
  -13.7610   22.4030   71.5270 C   0  0  0  0  0
  -14.3620   21.3670   70.5530 C   0  0  0  0  0
  -15.8870   21.1930   70.6690 C   0  0  0  0  0
   -9.8930   24.1810   69.0420 C   0  0  0  0  0
   -8.3910   24.2170   68.8580 C   0  0  0  0  0
  -10.4780   23.0290   69.5250 N   0  0  0  0  0
  -11.6800   23.5060   72.1450 O   0  0  0  0  0
  -13.9520   21.9850   72.8650 O   0  0  0  0  0
  -14.0630   21.7300   69.2090 O   0  0  0  0  0
  -16.3160   20.3130   69.6390 O   0  0  0  0  0
  -10.5140   25.2100   68.7340 O   0  0  0  0  0
  -12.7492   23.3674   52.9031 H   0  0  0  0  0
  -14.1871   22.7002   54.7795 H   0  0  0  0  0
  -12.2536   24.1709   56.5509 H   0  0  0  0  0
  -12.8883   21.1813   56.4261 H   0  0  0  0  0
  -10.3802   22.6050   55.5590 H   0  0  0  0  0
  -11.1107   19.7177   54.8595 H   0  0  0  0  0
  -10.5573   20.0280   56.4701 H   0  0  0  0  0
  -16.1986   26.5317   53.1967 H   0  0  0  0  0
  -16.7719   26.4873   54.8821 H   0  0  0  0  0
  -15.1260   27.0602   54.5162 H   0  0  0  0  0
  -13.5484   25.6252   54.9766 H   0  0  0  0  0
  -11.7469   25.1928   53.9944 H   0  0  0  0  0
  -14.3890   24.1995   57.3460 H   0  0  0  0  0
   -8.7927   19.7075   54.9952 H   0  0  0  0  0
  -12.4082   20.3003   58.4107 H   0  0  0  0  0
  -10.3628   21.9338   59.9461 H   0  0  0  0  0
  -11.4789   19.2421   60.8267 H   0  0  0  0  0
  -12.1479   21.9102   61.9931 H   0  0  0  0  0
  -13.8733   20.1706   60.2104 H   0  0  0  0  0
  -15.2050   21.3716   61.9179 H   0  0  0  0  0
  -15.5090   22.0398   60.3335 H   0  0  0  0  0
   -7.1136   19.9085   57.4216 H   0  0  0  0  0
   -6.8291   19.0949   58.9799 H   0  0  0  0  0
   -8.2046   18.6077   57.9592 H   0  0  0  0  0
  -10.0554   19.2508   58.6600 H   0  0  0  0  0
  -10.4644   19.7680   62.7817 H   0  0  0  0  0
  -14.9757   23.6882   61.8886 H   0  0  0  0  0
  -13.3381   21.8829   63.7055 H   0  0  0  0  0
  -13.7682   19.2123   65.0503 H   0  0  0  0  0
  -14.4960   21.9866   66.0319 H   0  0  0  0  0
  -12.3904   20.1437   67.0249 H   0  0  0  0  0
  -11.9273   22.6961   65.4320 H   0  0  0  0  0
  -10.0795   22.1480   67.0088 H   0  0  0  0  0
   -9.5336   21.8717   65.3244 H   0  0  0  0  0
  -17.1067   19.0126   61.9031 H   0  0  0  0  0
  -17.8249   18.4404   63.4289 H   0  0  0  0  0
  -17.6203   20.1857   63.1405 H   0  0  0  0  0
  -15.9923   21.0613   64.3309 H   0  0  0  0  0
  -14.9158   20.8350   67.9634 H   0  0  0  0  0
   -8.9820   20.1143   66.7447 H   0  0  0  0  0
  -12.1871   20.8433   69.1510 H   0  0  0  0  0
  -12.3231   23.8199   69.4864 H   0  0  0  0  0
  -11.7942   21.5857   71.4847 H   0  0  0  0  0
  -14.2615   23.3580   71.3670 H   0  0  0  0  0
  -13.9047   20.4173   70.8306 H   0  0  0  0  0
  -16.3821   22.1585   70.5657 H   0  0  0  0  0
  -16.1427   20.7792   71.6445 H   0  0  0  0  0
   -8.1591   24.4026   67.8093 H   0  0  0  0  0
   -7.9701   25.0140   69.4710 H   0  0  0  0  0
   -7.9660   23.2603   69.1617 H   0  0  0  0  0
   -9.8640   22.2385   69.7212 H   0  0  0  0  0
  -11.9034   23.2829   73.0516 H   0  0  0  0  0
  -14.8914   21.8903   73.0385 H   0  0  0  0  0
  -17.2668   20.1935   69.6972 H   0  0  0  0  0
  2  1  1  0  0  0
  1 10  1  0  0  0
 13  1  1  0  0  0
  3  2  1  0  0  0
  2  9  1  0  0  0
  4  3  1  0  0  0
  3 11  1  0  0  0
  4  5  1  0  0  0
 12  4  1  0  0  0
  5  6  1  0  0  0
  5 13  1  0  0  0
  6 14  1  0  0  0
  7  8  1  0  0  0
  9  7  1  0  0  0
  7 15  2  0  0  0
 16 12  1  0  0  0
 17 16  1  0  0  0
 27 16  1  0  0  0
 18 17  1  0  0  0
 17 24  1  0  0  0
 19 18  1  0  0  0
 18 25  1  0  0  0
 19 20  1  0  0  0
 26 19  1  0  0  0
 20 21  1  0  0  0
 20 27  1  0  0  0
 21 28  1  0  0  0
 22 23  1  0  0  0
 24 22  1  0  0  0
 22 29  2  0  0  0
 30 26  1  0  0  0
 31 30  1  0  0  0
 41 30  1  0  0  0
 32 31  1  0  0  0
 31 38  1  0  0  0
 33 32  1  0  0  0
 32 39  1  0  0  0
 33 34  1  0  0  0
 40 33  1  0  0  0
 34 35  1  0  0  0
 34 41  1  0  0  0
 35 42  1  0  0  0
 36 37  1  0  0  0
 38 36  1  0  0  0
 36 43  2  0  0  0
 44 40  1  0  0  0
 45 44  1  0  0  0
 44 55  1  0  0  0
 45 46  1  0  0  0
 52 45  1  0  0  0
 46 47  1  0  0  0
 46 53  1  0  0  0
 47 48  1  0  0  0
 47 54  1  0  0  0
 48 49  1  0  0  0
 55 48  1  0  0  0
 49 56  1  0  0  0
 50 51  1  0  0  0
 50 52  1  0  0  0
 50 57  2  0  0  0
  1 58  1  0  0  0
  2 59  1  0  0  0
  3 60  1  0  0  0
  4 61  1  0  0  0
  5 62  1  0  0  0
  6 63  1  0  0  0
  6 64  1  0  0  0
  8 65  1  0  0  0
  8 66  1  0  0  0
  8 67  1  0  0  0
  9 68  1  0  0  0
 10 69  1  0  0  0
 11 70  1  0  0  0
 14 71  1  0  0  0
 16 72  1  0  0  0
 17 73  1  0  0  0
 18 74  1  0  0  0
 19 75  1  0  0  0
 20 76  1  0  0  0
 21 77  1  0  0  0
 21 78  1  0  0  0
 23 79  1  0  0  0
 23 80  1  0  0  0
 23 81  1  0  0  0
 24 82  1  0  0  0
 25 83  1  0  0  0
 28 84  1  0  0  0
 30 85  1  0  0  0
 31 86  1  0  0  0
 32 87  1  0  0  0
 33 88  1  0  0  0
 34 89  1  0  0  0
 35 90  1  0  0  0
 35 91  1  0  0  0
 37 92  1  0  0  0
 37 93  1  0  0  0
 37 94  1  0  0  0
 38 95  1  0  0  0
 39 96  1  0  0  0
 42 97  1  0  0  0
 44 98  1  0  0  0
 45 99  1  0  0  0
 46100  1  0  0  0
 47101  1  0  0  0
 48102  1  0  0  0
 49103  1  0  0  0
 49104  1  0  0  0
 51105  1  0  0  0
 51106  1  0  0  0
 51107  1  0  0  0
 52108  1  0  0  0
 53109  1  0  0  0
 54110  1  0  0  0
 56111  1  0  0  0
M  END
$$$$
