4i6h_ligand
  -I-interpret- 

 52 56  0  0  0  0  0  0  0  0999 V2000
   13.7190    4.1170   10.1560 O   0  0  0  0  0
   12.6470    4.7280   10.2210 C   0  0  0  0  0
   11.4290    4.0220   10.0570 N   0  0  0  0  0
   11.4480    2.5900    9.7820 C   0  0  0  0  0
   10.2200    4.7080   10.0900 C   0  0  0  0  0
   12.6810    6.1780   10.4590 C   0  0  0  0  0
   13.4640    6.8790    9.3500 C   0  0  0  0  0
   12.8110    6.8680    7.9960 C   0  0  0  0  0
   11.4000    6.8470   10.5220 N   0  0  0  0  0
   11.3590    8.2610   10.8260 C   0  0  0  0  0
   11.3430    9.3510    9.7660 C   0  0  0  0  0
   11.9910   10.5470   10.4440 C   0  0  0  0  0
   12.6490   10.0870   11.7400 C   0  0  0  0  0
   12.3450    8.6210   11.9150 C   0  0  0  0  0
   10.2220    6.1480   10.3360 C   0  0  0  0  0
    9.0650    6.7850   10.3830 N   0  0  0  0  0
    7.9150    6.1180   10.2400 C   0  0  0  0  0
    7.8890    4.8060    9.9920 N   0  0  0  0  0
    9.0010    4.0900    9.9040 C   0  0  0  0  0
    6.7890    6.7850   10.2650 N   0  0  0  0  0
    5.8230    6.4940    9.4430 C   0  0  0  0  0
    4.8280    7.4100    9.7070 C   0  0  0  0  0
    5.2380    8.2350   10.6630 N   0  0  0  0  0
    6.4710    7.8390   10.9530 C   0  0  0  0  0
    7.2610    8.5140   12.0130 C   0  0  0  0  0
    7.8530    7.7130   12.9620 C   0  0  0  0  0
    8.5830    8.9010   13.9330 S   0  0  0  0  0
    8.0650   10.2810   13.0560 C   0  0  0  0  0
    7.3370    9.8640   12.0330 N   0  0  0  0  0
   10.8687    2.0674   10.5432 H   0  0  0  0  0
   11.0121    2.4040    8.8004 H   0  0  0  0  0
   12.4774    2.2320    9.7976 H   0  0  0  0  0
   13.1430    6.2541   11.4433 H   0  0  0  0  0
   14.4065    6.3415    9.2460 H   0  0  0  0  0
   13.5536    7.9246    9.6445 H   0  0  0  0  0
   12.6689    5.8374    7.6709 H   0  0  0  0  0
   11.8443    7.3679    8.0562 H   0  0  0  0  0
   13.4480    7.3908    7.2826 H   0  0  0  0  0
   10.3098    8.2961   11.1194 H   0  0  0  0  0
   10.3328    9.5729    9.4221 H   0  0  0  0  0
   11.8770    9.0527    8.8638 H   0  0  0  0  0
   11.2339   11.2998   10.6634 H   0  0  0  0  0
   12.7424   10.9808    9.7842 H   0  0  0  0  0
   12.2621   10.6574   12.5844 H   0  0  0  0  0
   13.7262   10.2477   11.6957 H   0  0  0  0  0
   13.2512    8.0201   11.8386 H   0  0  0  0  0
   11.9295    8.4212   12.9027 H   0  0  0  0  0
    8.9526    3.0230    9.6867 H   0  0  0  0  0
    5.8048    5.6946    8.7022 H   0  0  0  0  0
    3.8587    7.4508    9.2101 H   0  0  0  0  0
    7.8536    6.6276   13.0622 H   0  0  0  0  0
    8.2950   11.3185   13.2987 H   0  0  0  0  0
  1  2  2  0  0  0
  2  3  1  0  0  0
  2  6  1  0  0  0
  3  4  1  0  0  0
  3  5  1  0  0  0
  5 15  4  0  0  0
  5 19  4  0  0  0
  6  7  1  0  0  0
  6  9  1  0  0  0
  7  8  1  0  0  0
  9 10  1  0  0  0
  9 15  1  0  0  0
 10 11  1  0  0  0
 10 14  1  0  0  0
 11 12  1  0  0  0
 12 13  1  0  0  0
 13 14  1  0  0  0
 15 16  4  0  0  0
 16 17  4  0  0  0
 17 18  4  0  0  0
 17 20  1  0  0  0
 18 19  4  0  0  0
 20 21  4  0  0  0
 20 24  4  0  0  0
 21 22  4  0  0  0
 22 23  4  0  0  0
 23 24  4  0  0  0
 24 25  1  0  0  0
 25 26  4  0  0  0
 25 29  4  0  0  0
 26 27  4  0  0  0
 27 28  4  0  0  0
 28 29  4  0  0  0
  4 30  1  0  0  0
  4 31  1  0  0  0
  4 32  1  0  0  0
  6 33  1  0  0  0
  7 34  1  0  0  0
  7 35  1  0  0  0
  8 36  1  0  0  0
  8 37  1  0  0  0
  8 38  1  0  0  0
 10 39  1  0  0  0
 11 40  1  0  0  0
 11 41  1  0  0  0
 12 42  1  0  0  0
 12 43  1  0  0  0
 13 44  1  0  0  0
 13 45  1  0  0  0
 14 46  1  0  0  0
 14 47  1  0  0  0
 19 48  1  0  0  0
 21 49  1  0  0  0
 22 50  1  0  0  0
 26 51  1  0  0  0
 28 52  1  0  0  0
M  END
$$$$
