2bmz_ligand
  -I-interpret- 

 44 45  0  0  0  0  0  0  0  0999 V2000
   10.7640   30.4300   44.9380 C   0  0  0  0  0
   11.2520   28.9740   44.9610 C   0  0  0  0  0
   12.3540   28.8310   46.0180 C   0  0  0  0  0
   13.5040   29.7960   45.6760 C   0  0  0  0  0
   12.9580   31.2570   45.6300 C   0  0  0  0  0
   10.1670   28.0910   45.2560 O   0  0  0  0  0
   12.8230   27.4810   46.0600 O   0  0  0  0  0
   14.5430   29.6870   46.6360 O   0  0  0  0  0
   11.8630   31.3500   44.6350 O   0  0  0  0  0
    6.8010   32.9380   44.0950 C   0  0  0  0  0
    7.6140   31.6220   44.2600 C   0  0  0  0  0
    9.1120   31.8510   43.9190 C   0  0  0  0  0
    9.2300   32.3960   42.5060 C   0  0  0  0  0
    8.4010   33.7030   42.3630 C   0  0  0  0  0
    8.4420   34.2480   40.9420 C   0  0  0  0  0
    6.5710   35.1690   45.0100 C   0  0  0  0  0
    7.2710   33.8840   45.0460 O   0  0  0  0  0
    7.1170   30.6460   43.3510 O   0  0  0  0  0
    9.7820   30.5600   43.9720 O   0  0  0  0  0
   10.5900   32.6250   42.1770 O   0  0  0  0  0
    6.9960   33.4420   42.7330 O   0  0  0  0  0
    8.0150   33.2620   40.0040 O   0  0  0  0  0
   10.3679   30.6800   45.9222 H   0  0  0  0  0
   11.6504   28.7101   43.9813 H   0  0  0  0  0
   11.9565   29.0811   47.0017 H   0  0  0  0  0
   13.9132   29.5347   44.7001 H   0  0  0  0  0
   13.7630   31.9348   45.3459 H   0  0  0  0  0
   12.5767   31.5314   46.6136 H   0  0  0  0  0
    9.4847   28.1899   44.5880 H   0  0  0  0  0
   12.0925   26.8962   46.2743 H   0  0  0  0  0
   14.8683   28.7839   46.6527 H   0  0  0  0  0
    5.7383   32.7618   44.2613 H   0  0  0  0  0
    7.5147   31.2920   45.2941 H   0  0  0  0  0
    9.5566   32.5555   44.6220 H   0  0  0  0  0
    8.8306   31.6577   41.8107 H   0  0  0  0  0
    8.8418   34.4457   43.0280 H   0  0  0  0  0
    9.4671   34.5340   40.7065 H   0  0  0  0  0
    7.7725   35.1057   40.8769 H   0  0  0  0  0
    6.6904   35.6188   44.0244 H   0  0  0  0  0
    5.5118   35.0101   45.2124 H   0  0  0  0  0
    6.9914   35.8316   45.7665 H   0  0  0  0  0
    7.6174   29.8329   43.4511 H   0  0  0  0  0
   10.6482   32.9687   41.2825 H   0  0  0  0  0
    8.0497   33.6290   39.1176 H   0  0  0  0  0
  1  2  1  0  0  0
  1  9  1  0  0  0
 19  1  1  0  0  0
  2  3  1  0  0  0
  2  6  1  0  0  0
  3  4  1  0  0  0
  3  7  1  0  0  0
  5  4  1  0  0  0
  4  8  1  0  0  0
  9  5  1  0  0  0
 11 10  1  0  0  0
 10 17  1  0  0  0
 10 21  1  0  0  0
 12 11  1  0  0  0
 11 18  1  0  0  0
 12 13  1  0  0  0
 12 19  1  0  0  0
 13 14  1  0  0  0
 13 20  1  0  0  0
 14 15  1  0  0  0
 14 21  1  0  0  0
 15 22  1  0  0  0
 17 16  1  0  0  0
  1 23  1  0  0  0
  2 24  1  0  0  0
  3 25  1  0  0  0
  4 26  1  0  0  0
  5 27  1  0  0  0
  5 28  1  0  0  0
  6 29  1  0  0  0
  7 30  1  0  0  0
  8 31  1  0  0  0
 10 32  1  0  0  0
 11 33  1  0  0  0
 12 34  1  0  0  0
 13 35  1  0  0  0
 14 36  1  0  0  0
 15 37  1  0  0  0
 15 38  1  0  0  0
 16 39  1  0  0  0
 16 40  1  0  0  0
 16 41  1  0  0  0
 18 42  1  0  0  0
 20 43  1  0  0  0
 22 44  1  0  0  0
M  END
$$$$
