6fod_ligand
  -I-interpret- 

 67 68  0  0  0  0  0  0  0  0999 V2000
   -1.7820   34.1150   37.1750 C   0  0  0  0  0
   -1.3190   33.9500   38.6410 C   0  0  0  0  0
    0.0750   34.4570   38.9260 C   0  0  0  0  0
    5.1630   27.6640   34.1480 O   0  0  0  0  0
    5.0120   28.8080   33.2900 C   0  0  0  0  0
    6.4020   29.2340   32.8370 C   0  0  0  0  0
    4.1660   28.3900   32.0950 C   0  0  0  0  0
    4.3420   29.9070   34.1160 C   0  0  0  0  0
    2.8520   29.7840   34.4360 C   0  0  0  0  0
    2.4660   30.4180   35.7570 C   0  0  0  0  0
    2.6800   29.5020   36.9490 C   0  0  0  0  0
    1.7720   29.7850   38.1570 C   0  0  0  0  0
    1.9390   31.1530   38.7740 C   0  0  0  0  0
    0.9180   32.1010   38.6860 C   0  0  0  0  0
    3.1390   31.5080   39.3730 C   0  0  0  0  0
    3.3230   32.7810   39.8820 C   0  0  0  0  0
    2.3170   33.7250   39.7740 C   0  0  0  0  0
    1.1070   33.4020   39.1560 C   0  0  0  0  0
    0.5170   35.7540   38.9710 C   0  0  0  0  0
   -0.1180   37.0040   38.7360 C   0  0  0  0  0
    0.4940   38.2000   38.4510 C   0  0  0  0  0
    1.9490   38.3820   38.2480 C   0  0  0  0  0
    2.6860   37.4980   37.5890 C   0  0  0  0  0
    2.5030   39.6720   38.8110 C   0  0  0  0  0
    3.8470   39.8150   38.3790 O   0  0  0  0  0
    1.6740   40.8460   38.3070 C   0  0  0  0  0
    0.2380   40.7060   38.7740 C   0  0  0  0  0
    0.1740   40.7000   40.2010 O   0  0  0  0  0
   -0.3620   39.4280   38.2120 C   0  0  0  0  0
   -1.7708   35.1719   36.9086 H   0  0  0  0  0
   -1.1070   33.5662   36.5182 H   0  0  0  0  0
   -2.7934   33.7228   37.0684 H   0  0  0  0  0
   -1.3165   32.8809   38.8536 H   0  0  0  0  0
   -2.0011   34.5369   39.2562 H   0  0  0  0  0
    5.6945   27.9050   34.9102 H   0  0  0  0  0
    6.8895   28.4002   32.3318 H   0  0  0  0  0
    6.3168   30.0766   32.1508 H   0  0  0  0  0
    6.9912   29.5290   33.7053 H   0  0  0  0  0
    3.2054   28.0128   32.4457 H   0  0  0  0  0
    4.0048   29.2512   31.4465 H   0  0  0  0  0
    4.6843   27.6078   31.5403 H   0  0  0  0  0
    4.4267   30.8080   33.5085 H   0  0  0  0  0
    4.8420   29.8769   35.0841 H   0  0  0  0  0
    2.6163   28.7217   34.5000 H   0  0  0  0  0
    2.3032   30.3025   33.6499 H   0  0  0  0  0
    1.4030   30.6546   35.7104 H   0  0  0  0  0
    3.0977   31.2950   35.8982 H   0  0  0  0  0
    3.7059   29.6554   37.2836 H   0  0  0  0  0
    2.4514   28.4904   36.6136 H   0  0  0  0  0
    2.0355   29.0587   38.9258 H   0  0  0  0  0
    0.7442   29.7244   37.7992 H   0  0  0  0  0
   -0.0388   31.8219   38.2448 H   0  0  0  0  0
    3.9444   30.7769   39.4432 H   0  0  0  0  0
    4.2627   33.0411   40.3693 H   0  0  0  0  0
    2.4700   34.7274   40.1739 H   0  0  0  0  0
    1.5688   35.8453   39.2420 H   0  0  0  0  0
   -1.2067   37.0143   38.7875 H   0  0  0  0  0
    2.2227   36.6019   37.1761 H   0  0  0  0  0
    3.7550   37.6676   37.4603 H   0  0  0  0  0
    2.4634   39.6517   39.9001 H   0  0  0  0  0
    4.2098   40.6313   38.7306 H   0  0  0  0  0
    1.6968   40.8593   37.2173 H   0  0  0  0  0
    2.0900   41.7736   38.7003 H   0  0  0  0  0
   -0.3362   41.5582   38.4104 H   0  0  0  0  0
   -0.7406   40.6108   40.4788 H   0  0  0  0  0
   -1.3150   39.2653   38.7154 H   0  0  0  0  0
   -0.4549   39.5570   37.1337 H   0  0  0  0  0
  2  1  1  0  0  0
  3  2  1  0  0  0
 18  3  1  0  0  0
  3 19  2  0  0  0
  5  4  1  0  0  0
  5  6  1  0  0  0
  5  7  1  0  0  0
  8  5  1  0  0  0
  9  8  1  0  0  0
 10  9  1  0  0  0
 11 10  1  0  0  0
 12 11  1  0  0  0
 13 12  1  0  0  0
 14 13  4  0  0  0
 13 15  4  0  0  0
 14 18  4  0  0  0
 15 16  4  0  0  0
 16 17  4  0  0  0
 17 18  4  0  0  0
 19 20  1  0  0  0
 20 21  2  0  0  0
 21 22  1  0  0  0
 21 29  1  0  0  0
 22 23  2  0  0  0
 22 24  1  0  0  0
 24 25  1  0  0  0
 24 26  1  0  0  0
 26 27  1  0  0  0
 27 28  1  0  0  0
 27 29  1  0  0  0
  1 30  1  0  0  0
  1 31  1  0  0  0
  1 32  1  0  0  0
  2 33  1  0  0  0
  2 34  1  0  0  0
  4 35  1  0  0  0
  6 36  1  0  0  0
  6 37  1  0  0  0
  6 38  1  0  0  0
  7 39  1  0  0  0
  7 40  1  0  0  0
  7 41  1  0  0  0
  8 42  1  0  0  0
  8 43  1  0  0  0
  9 44  1  0  0  0
  9 45  1  0  0  0
 10 46  1  0  0  0
 10 47  1  0  0  0
 11 48  1  0  0  0
 11 49  1  0  0  0
 12 50  1  0  0  0
 12 51  1  0  0  0
 14 52  1  0  0  0
 15 53  1  0  0  0
 16 54  1  0  0  0
 17 55  1  0  0  0
 19 56  1  0  0  0
 20 57  1  0  0  0
 23 58  1  0  0  0
 23 59  1  0  0  0
 24 60  1  0  0  0
 25 61  1  0  0  0
 26 62  1  0  0  0
 26 63  1  0  0  0
 27 64  1  0  0  0
 28 65  1  0  0  0
 29 66  1  0  0  0
 29 67  1  0  0  0
M  END
$$$$
