3n3g_ligand
  -I-interpret- 

 54 56  0  0  0  0  0  0  0  0999 V2000
   13.8640   -7.1990   19.2400 N   0  0  0  0  0
   12.5930   -7.2640   18.7550 C   0  0  0  0  0
   11.6090   -6.3900   19.2190 C   0  0  0  0  0
   11.9430   -5.4270   20.1680 C   0  0  0  0  0
   13.2450   -5.3480   20.6530 C   0  0  0  0  0
   14.1710   -6.2530   20.1620 C   0  0  0  0  0
   12.3700   -8.3430   17.7690 C   0  0  0  0  0
   11.0940   -8.8740   17.5040 C   0  0  0  0  0
   10.8970   -9.9270   16.5680 C   0  0  0  0  0
   12.0200  -10.4760   15.9010 C   0  0  0  0  0
   13.2860   -9.9520   16.1630 C   0  0  0  0  0
   13.4550   -8.9170   17.0830 C   0  0  0  0  0
   11.8140  -11.4920   14.9990 O   0  0  0  0  0
   12.5470  -12.7070   15.1630 C   0  0  0  0  0
   12.6280  -13.5050   13.8570 C   0  0  0  0  0
   11.3880  -14.3550   13.6390 C   0  0  0  0  0
   10.1150  -13.5530   13.5180 N   0  3  0  0  0
   15.5390   -6.2530   20.5720 C   0  0  0  0  0
   16.6710   -6.3080   20.8050 N   0  0  0  0  0
    9.4860  -10.4410   16.3460 C   0  0  0  0  0
    9.0570  -10.5110   15.0610 F   0  0  0  0  0
    8.5270   -9.7050   16.9540 F   0  0  0  0  0
    9.2970  -11.6840   16.8350 F   0  0  0  0  0
    7.6240  -13.5260   13.3980 C   0  0  0  0  0
    7.7210  -12.6770   12.1360 N   0  3  0  0  0
    8.8790  -11.7250   12.3510 C   0  0  0  0  0
   10.1760  -12.5410   12.3890 C   0  0  0  0  0
    8.8730  -14.4160   13.4870 C   0  0  0  0  0
    6.4260  -11.9730   11.7730 C   0  0  0  0  0
   10.5886   -6.4604   18.8422 H   0  0  0  0  0
   11.1838   -4.7344   20.5313 H   0  0  0  0  0
   13.5262   -4.5995   21.3938 H   0  0  0  0  0
   10.2314   -8.4666   18.0313 H   0  0  0  0  0
   14.1541  -10.3563   15.6424 H   0  0  0  0  0
   14.4598   -8.5414   17.2762 H   0  0  0  0  0
   12.0347  -13.3180   15.9061 H   0  0  0  0  0
   13.5610  -12.4556   15.4738 H   0  0  0  0  0
   13.4923  -14.1669   13.9124 H   0  0  0  0  0
   12.7111  -12.8008   13.0292 H   0  0  0  0  0
   11.2820  -15.0050   14.5076 H   0  0  0  0  0
   11.5235  -14.8941   12.7014 H   0  0  0  0  0
   10.0366  -13.0076   14.3763 H   0  0  0  0  0
    6.7283  -14.1460   13.3603 H   0  0  0  0  0
    7.5641  -12.8817   14.2751 H   0  0  0  0  0
    7.8899  -13.2714   11.3245 H   0  0  0  0  0
    8.7496  -11.1865   13.2898 H   0  0  0  0  0
    8.9195  -10.9980   11.5399 H   0  0  0  0  0
   10.2991  -13.0657   11.4415 H   0  0  0  0  0
   11.0190  -11.8697   12.5525 H   0  0  0  0  0
    8.8261  -15.0134   14.3975 H   0  0  0  0  0
    8.9112  -15.0719   12.6173 H   0  0  0  0  0
    5.6450  -12.7149   11.6065 H   0  0  0  0  0
    6.1327  -11.3115   12.5881 H   0  0  0  0  0
    6.5737  -11.3890   10.8646 H   0  0  0  0  0
  2  1  4  0  0  0
  1  6  4  0  0  0
  2  3  4  0  0  0
  7  2  1  0  0  0
  3  4  4  0  0  0
  4  5  4  0  0  0
  6  5  4  0  0  0
  6 18  1  0  0  0
  8  7  4  0  0  0
 12  7  4  0  0  0
  9  8  4  0  0  0
 10  9  4  0  0  0
  9 20  1  0  0  0
 10 11  4  0  0  0
 13 10  1  0  0  0
 11 12  4  0  0  0
 14 13  1  0  0  0
 15 14  1  0  0  0
 16 15  1  0  0  0
 17 16  1  0  0  0
 17 27  1  0  0  0
 28 17  1  0  0  0
 18 19  3  0  0  0
 20 21  1  0  0  0
 20 22  1  0  0  0
 20 23  1  0  0  0
 24 25  1  0  0  0
 24 28  1  0  0  0
 25 26  1  0  0  0
 25 29  1  0  0  0
 26 27  1  0  0  0
  3 30  1  0  0  0
  4 31  1  0  0  0
  5 32  1  0  0  0
  8 33  1  0  0  0
 11 34  1  0  0  0
 12 35  1  0  0  0
 14 36  1  0  0  0
 14 37  1  0  0  0
 15 38  1  0  0  0
 15 39  1  0  0  0
 16 40  1  0  0  0
 16 41  1  0  0  0
 17 42  1  0  0  0
 24 43  1  0  0  0
 24 44  1  0  0  0
 25 45  1  0  0  0
 26 46  1  0  0  0
 26 47  1  0  0  0
 27 48  1  0  0  0
 27 49  1  0  0  0
 28 50  1  0  0  0
 28 51  1  0  0  0
 29 52  1  0  0  0
 29 53  1  0  0  0
 29 54  1  0  0  0
M  END
$$$$
