1k4h_ligand
  -I-interpret- 

 34 35  0  0  0  0  0  0  0  0999 V2000
   12.9290   14.6350   18.0240 C   0  0  0  0  0
   12.3480   15.9970   17.5590 C   0  0  0  0  0
   11.7970   15.8360   16.1110 C   0  0  0  0  0
   14.6910   14.8460   18.4000 S   0  0  0  0  0
   14.9260   16.5260   19.1510 C   0  0  0  0  0
   16.3500   16.9360   19.6250 C   0  0  0  0  0
   16.5660   17.1270   21.0140 C   0  0  0  0  0
   15.5460   16.9320   21.9280 N   0  0  0  0  0
   15.6810   17.0890   23.2010 C   0  0  0  0  0
   16.8540   17.4550   23.7440 N   0  0  0  0  0
   17.9440   17.6790   23.0040 C   0  0  0  0  0
   19.0240   18.0180   23.5010 O   0  0  0  0  0
   17.8510   17.5110   21.4910 C   0  0  0  0  0
   18.9310   17.7190   20.5890 C   0  0  0  0  0
   18.7120   17.5300   19.1980 C   0  0  0  0  0
   19.7060   17.7150   18.2950 N   0  0  0  0  0
   17.4320   17.1480   18.7450 C   0  0  0  0  0
   14.6500   16.8820   23.9810 N   0  0  0  0  0
   12.4005   14.2934   18.9140 H   0  0  0  0  0
   12.8068   13.8933   17.2347 H   0  0  0  0  0
   13.1283   16.7578   17.5760 H   0  0  0  0  0
   11.5452   16.3054   18.2287 H   0  0  0  0  0
   12.6064   15.5319   15.4473 H   0  0  0  0  0
   11.0148   15.0770   16.1036 H   0  0  0  0  0
   11.3856   16.7869   15.7724 H   0  0  0  0  0
   14.3157   16.5219   20.0541 H   0  0  0  0  0
   14.6767   17.2300   18.3570 H   0  0  0  0  0
   16.9148   17.5658   24.7561 H   0  0  0  0  0
   19.9114   18.0187   20.9592 H   0  0  0  0  0
   20.6348   17.9958   18.6093 H   0  0  0  0  0
   19.5251   17.5734   17.3012 H   0  0  0  0  0
   17.2730   17.0115   17.6753 H   0  0  0  0  0
   13.7554   16.6006   23.5799 H   0  0  0  0  0
   14.7414   17.0022   24.9898 H   0  0  0  0  0
  1  4  1  0  0  0
  1  2  1  0  0  0
  2  3  1  0  0  0
  4  5  1  0  0  0
  5  6  1  0  0  0
  6 17  4  0  0  0
  6  7  4  0  0  0
  7 13  4  0  0  0
  7  8  1  0  0  0
  8  9  2  0  0  0
  9 18  1  0  0  0
  9 10  1  0  0  0
 10 11  1  0  0  0
 11 13  1  0  0  0
 11 12  2  0  0  0
 13 14  4  0  0  0
 14 15  4  0  0  0
 15 17  4  0  0  0
 15 16  1  0  0  0
  1 19  1  0  0  0
  1 20  1  0  0  0
  2 21  1  0  0  0
  2 22  1  0  0  0
  3 23  1  0  0  0
  3 24  1  0  0  0
  3 25  1  0  0  0
  5 26  1  0  0  0
  5 27  1  0  0  0
 10 28  1  0  0  0
 14 29  1  0  0  0
 16 30  1  0  0  0
 16 31  1  0  0  0
 17 32  1  0  0  0
 18 33  1  0  0  0
 18 34  1  0  0  0
M  END
$$$$
