4ezj_ligand
  -I-interpret- 

 70 75  0  0  0  0  0  0  0  0999 V2000
   22.7220   -6.4680   17.2250 F   0  0  0  0  0
   23.2290   -7.3050   18.1510 C   0  0  0  0  0
   24.4640   -7.8600   17.8930 C   0  0  0  0  0
   25.0420   -8.6880   18.8400 C   0  0  0  0  0
   24.3580   -8.9440   20.0260 C   0  0  0  0  0
   24.7420   -9.5970   21.1720 N   0  0  0  0  0
   23.7460   -9.4770   22.0990 C   0  0  0  0  0
   22.7110   -8.7740   21.5830 C   0  0  0  0  0
   23.1000   -8.4100   20.2460 C   0  0  0  0  0
   22.4790   -7.5450   19.2930 C   0  0  0  0  0
   21.2740   -6.7140   19.6680 C   0  0  0  0  0
   21.1930   -5.4890   19.1820 N   0  0  0  0  0
   20.0520   -4.7810   19.4840 C   0  0  0  0  0
   20.0030   -3.4100   19.1310 C   0  0  0  0  0
   18.9370   -2.6430   19.4900 C   0  0  0  0  0
   20.3160   -7.3490   20.3530 N   0  0  0  0  0
   19.1390   -6.7450   20.6330 C   0  0  0  0  0
   18.1490   -7.5460   21.3020 N   0  0  0  0  0
   16.7040   -7.3070   21.2150 C   0  0  0  0  0
   16.0660   -7.6010   22.5540 C   0  0  0  0  0
   16.3720   -8.9280   23.0050 O   0  0  0  0  0
   17.7860   -9.1130   23.1150 C   0  0  0  0  0
   18.4800   -8.8850   21.7980 C   0  0  0  0  0
   18.9610   -5.3540   20.2170 C   0  0  0  0  0
   17.8980   -4.5140   20.5340 N   0  0  0  0  0
   17.8970   -3.2270   20.1950 C   0  0  0  0  0
   16.6970   -2.4200   20.6310 C   0  0  0  0  0
   15.7180   -2.2290   19.5550 N   0  3  0  0  0
   14.8160   -1.1040   19.8060 C   0  0  0  0  0
   14.0020   -0.7940   18.5390 C   0  0  0  0  0
   14.9100   -3.4190   19.3390 C   0  0  0  0  0
   14.1450   -3.2880   18.0250 C   0  0  0  0  0
   13.2790   -2.0190   17.9290 C   0  0  0  0  0
   12.7240   -1.7600   16.4990 C   0  0  0  0  0
   13.8410   -1.5330   15.6120 O   0  0  0  0  0
   11.9710   -2.9680   15.9510 C   0  0  0  0  0
   11.8450   -0.5180   16.4340 C   0  0  0  0  0
   24.9788   -7.6497   16.9556 H   0  0  0  0  0
   26.0201   -9.1340   18.6598 H   0  0  0  0  0
   23.7799   -9.8879   23.1080 H   0  0  0  0  0
   21.7716   -8.5321   22.0801 H   0  0  0  0  0
   20.8242   -2.9662   18.5682 H   0  0  0  0  0
   18.9022   -1.5858   19.2269 H   0  0  0  0  0
   16.2721   -7.9579   20.4548 H   0  0  0  0  0
   16.5223   -6.2666   20.9453 H   0  0  0  0  0
   14.9847   -7.5146   22.4466 H   0  0  0  0  0
   16.4548   -6.8910   23.2840 H   0  0  0  0  0
   17.9752  -10.1390   23.4305 H   0  0  0  0  0
   18.1721   -8.3930   23.8365 H   0  0  0  0  0
   19.5583   -8.9675   21.9344 H   0  0  0  0  0
   18.1502   -9.6332   21.0772 H   0  0  0  0  0
   17.0507   -1.4360   20.9387 H   0  0  0  0  0
   16.2046   -2.9636   21.4373 H   0  0  0  0  0
   16.2733   -2.0312   18.7226 H   0  0  0  0  0
   15.4023   -0.2271   20.0804 H   0  0  0  0  0
   14.1350   -1.3629   20.6167 H   0  0  0  0  0
   14.7038   -0.4300   17.7886 H   0  0  0  0  0
   13.2323   -0.0755   18.8208 H   0  0  0  0  0
   14.2020   -3.5296   20.1604 H   0  0  0  0  0
   15.5588   -4.2937   19.2943 H   0  0  0  0  0
   13.4736   -4.1438   17.9548 H   0  0  0  0  0
   14.8832   -3.2372   17.2246 H   0  0  0  0  0
   12.3926   -2.1950   18.5385 H   0  0  0  0  0
   13.5150   -1.3713   14.7237 H   0  0  0  0  0
   12.6441   -3.8242   15.9057 H   0  0  0  0  0
   11.1310   -3.1988   16.6062 H   0  0  0  0  0
   11.6017   -2.7412   14.9509 H   0  0  0  0  0
   10.9971   -0.6388   17.1082 H   0  0  0  0  0
   12.4272    0.3536   16.7329 H   0  0  0  0  0
   11.4838   -0.3830   15.4145 H   0  0  0  0  0
  1  2  1  0  0  0
  2  3  4  0  0  0
  2 10  4  0  0  0
  3  4  4  0  0  0
  4  5  4  0  0  0
  5  6  4  0  0  0
  5  9  4  0  0  0
  6  7  4  0  0  0
  7  8  4  0  0  0
  8  9  4  0  0  0
  9 10  4  0  0  0
 10 11  1  0  0  0
 11 12  4  0  0  0
 11 16  4  0  0  0
 12 13  4  0  0  0
 13 14  4  0  0  0
 13 24  4  0  0  0
 14 15  4  0  0  0
 15 26  4  0  0  0
 16 17  4  0  0  0
 17 18  1  0  0  0
 17 24  4  0  0  0
 18 19  1  0  0  0
 18 23  1  0  0  0
 19 20  1  0  0  0
 20 21  1  0  0  0
 21 22  1  0  0  0
 22 23  1  0  0  0
 24 25  4  0  0  0
 25 26  4  0  0  0
 26 27  1  0  0  0
 27 28  1  0  0  0
 28 29  1  0  0  0
 28 31  1  0  0  0
 29 30  1  0  0  0
 30 33  1  0  0  0
 31 32  1  0  0  0
 32 33  1  0  0  0
 33 34  1  0  0  0
 34 35  1  0  0  0
 34 36  1  0  0  0
 34 37  1  0  0  0
  3 38  1  0  0  0
  4 39  1  0  0  0
  7 40  1  0  0  0
  8 41  1  0  0  0
 14 42  1  0  0  0
 15 43  1  0  0  0
 19 44  1  0  0  0
 19 45  1  0  0  0
 20 46  1  0  0  0
 20 47  1  0  0  0
 22 48  1  0  0  0
 22 49  1  0  0  0
 23 50  1  0  0  0
 23 51  1  0  0  0
 27 52  1  0  0  0
 27 53  1  0  0  0
 28 54  1  0  0  0
 29 55  1  0  0  0
 29 56  1  0  0  0
 30 57  1  0  0  0
 30 58  1  0  0  0
 31 59  1  0  0  0
 31 60  1  0  0  0
 32 61  1  0  0  0
 32 62  1  0  0  0
 33 63  1  0  0  0
 35 64  1  0  0  0
 36 65  1  0  0  0
 36 66  1  0  0  0
 36 67  1  0  0  0
 37 68  1  0  0  0
 37 69  1  0  0  0
 37 70  1  0  0  0
M  END
$$$$
