### 
### Created by X-TOOL on Mon Sep 10 21:12:48 2018
### 

@<TRIPOS>MOLECULE
1jp5_ligand
  110   112     1     0     0
SMALL
GAST_HUCK


@<TRIPOS>ATOM
      1 N          -0.7350   14.4760   42.7060 N.4       1 PRO         0.2461
      2 CA          0.3100   15.2070   41.9590 C.3       1 PRO         0.0670
      3 C           0.1440   15.0140   40.4600 C.2       1 PRO         0.2268
      4 O           0.2120   13.8830   39.9580 O.2       1 PRO        -0.3907
      5 CB          1.6490   14.6540   42.4240 C.3       1 PRO         0.0127
      6 CG          1.3140   14.1850   43.8150 C.3       1 PRO        -0.0053
      7 CD         -0.1090   13.6040   43.7140 C.3       1 PRO        -0.0313
      8 N          -0.0710   16.1130   39.7420 N.am      1 GLN        -0.2609
      9 CA         -0.2360   16.0500   38.2870 C.3       1 GLN         0.1331
     10 C           1.0550   15.5740   37.5970 C.2       1 GLN         0.2041
     11 O           2.1470   16.1170   37.8110 O.2       1 GLN        -0.3944
     12 CB         -0.6490   17.4190   37.7280 C.3       1 GLN         0.0045
     13 CG         -1.9520   17.9910   38.2990 C.3       1 GLN         0.0412
     14 CD         -3.1790   17.1110   38.0420 C.2       1 GLN         0.1737
     15 OE1        -3.4340   16.6670   36.9170 O.2       1 GLN        -0.3973
     16 NE2        -3.9550   16.8740   39.0910 N.am      1 GLN        -0.3009
     17 N           0.9190   14.5450   36.7740 N.am      1 ILE        -0.2635
     18 CA          2.0580   13.9860   36.0640 C.3       1 ILE         0.1335
     19 C           2.9530   15.0490   35.4390 C.2       1 ILE         0.2042
     20 O           2.4800   15.9960   34.8130 O.2       1 ILE        -0.3944
     21 CB          1.6000   13.0360   34.9290 C.3       1 ILE        -0.0037
     22 CG1         2.8130   12.3790   34.2620 C.3       1 ILE        -0.0491
     23 CG2         0.8270   13.8270   33.8750 C.3       1 ILE        -0.0582
     24 CD1         3.6750   11.5870   35.2010 C.3       1 ILE        -0.0648
     25 N           4.2560   14.8850   35.6200 N.am      1 THR        -0.2613
     26 CA          5.2200   15.7940   35.0210 C.3       1 THR         0.1565
     27 C           5.9390   14.9590   33.9670 C.2       1 THR         0.2065
     28 O           5.4500   14.7990   32.8460 O.2       1 THR        -0.3943
     29 CB          6.2480   16.3150   36.0520 C.3       1 THR         0.0924
     30 OG1         5.5790   17.1220   37.0300 O.3       1 THR        -0.3874
     31 CG2         7.3210   17.1490   35.3620 C.3       1 THR        -0.0346
     32 N           7.0890   14.4110   34.3500 N.am      1 LEU        -0.2636
     33 CA          7.9020   13.5710   33.4790 C.3       1 LEU         0.1312
     34 C           7.8890   13.9430   31.9850 C.2       1 LEU         0.2040
     35 O           8.7940   14.6350   31.5090 O.2       1 LEU        -0.3944
     36 CB          7.5030   12.0960   33.6760 C.3       1 LEU        -0.0101
     37 CG          7.8150   11.4730   35.0500 C.3       1 LEU        -0.0425
     38 CD1         7.1870   10.1090   35.1510 C.3       1 LEU        -0.0625
     39 CD2         9.3160   11.3590   35.2460 C.3       1 LEU        -0.0625
     40 N           6.8630   13.5040   31.2560 N.am      1 TRP        -0.2639
     41 CA          6.7630   13.7550   29.8160 C.3       1 TRP         0.1170
     42 C           6.4320   15.1840   29.4090 C.2       1 TRP         0.1257
     43 O           6.3610   15.4400   28.1820 O.2       1 TRP        -0.3723
     44 CB          5.7360   12.8050   29.2100 C.3       1 TRP         0.0029
     45 CG          5.7540   11.4840   29.8810 C.2       1 TRP        -0.0418
     46 CD1         6.8510   10.7140   30.1570 C.2       1 TRP         0.0167
     47 CD2         4.6280   10.7920   30.4160 C.ar      1 TRP        -0.0214
     48 NE1         6.4750    9.5820   30.8390 N.pl3     1 TRP        -0.2890
     49 CE2         5.1150    9.6030   31.0130 C.ar      1 TRP         0.0603
     50 CE3         3.2530   11.0570   30.4540 C.ar      1 TRP        -0.0747
     51 CZ2         4.2710    8.6780   31.6420 C.ar      1 TRP        -0.0443
     52 CZ3         2.4120   10.1400   31.0810 C.ar      1 TRP        -0.0792
     53 CH2         2.9270    8.9620   31.6660 C.ar      1 TRP        -0.0768
     54 H1         -1.2734   13.9141   42.0653 H         1 PRO         0.2035
     55 H2         -1.3421   15.1366   43.1655 H         1 PRO         0.2035
     56 H3          0.2494   16.2807   42.1902 H         1 PRO         0.1099
     57 H4          2.4230   15.4355   42.4391 H         1 PRO         0.0347
     58 H5          1.9820   13.8203   41.7883 H         1 PRO         0.0347
     59 H6          1.3373   15.0273   44.5221 H         1 PRO         0.0320
     60 H7          2.0240   13.4114   44.1426 H         1 PRO         0.0320
     61 H8         -0.0885   12.5571   43.3771 H         1 PRO         0.0814
     62 H9         -0.6347   13.6688   44.6781 H         1 PRO         0.0814
     63 H10        -0.1210   16.9987   40.2036 H         1 GLN         0.1885
     64 H11        -1.0345   15.3272   38.0636 H         1 GLN         0.0801
     65 H12        -0.7693   17.3198   36.6391 H         1 GLN         0.0337
     66 H13         0.1595   18.1329   37.9441 H         1 GLN         0.0337
     67 H14        -2.1290   18.9751   37.8404 H         1 GLN         0.0504
     68 H15        -1.8318   18.1093   39.3860 H         1 GLN         0.0504
     69 H16        -4.7722   16.3065   38.9904 H         1 GLN         0.1814
     70 H17        -3.7229   17.2628   39.9826 H         1 GLN         0.1814
     71 H18         0.0131   14.1439   36.6381 H         1 ILE         0.1883
     72 H19         2.6543   13.4115   36.7881 H         1 ILE         0.0803
     73 H20         0.9498   12.2559   35.3516 H         1 ILE         0.0345
     74 H21         3.4300   13.1703   33.8112 H         1 ILE         0.0267
     75 H22         2.4498   11.7033   33.4737 H         1 ILE         0.0267
     76 H23        -0.0471   14.3038   34.3425 H         1 ILE         0.0235
     77 H24         0.4913   13.1463   33.0788 H         1 ILE         0.0235
     78 H25         1.4802   14.6005   33.4449 H         1 ILE         0.0235
     79 H26         4.5184   11.1513   34.6452 H         1 ILE         0.0230
     80 H27         3.0792   10.7810   35.6542 H         1 ILE         0.0230
     81 H28         4.0593   12.2480   35.9918 H         1 ILE         0.0230
     82 H29         4.5819   14.1223   36.1786 H         1 THR         0.1884
     83 H30         4.7028   16.6474   34.5583 H         1 THR         0.0826
     84 H31         6.7232   15.4575   36.5508 H         1 THR         0.0639
     85 H32         6.2121   17.4411   37.6624 H         1 THR         0.2101
     86 H33         8.0420   17.5103   36.1101 H         1 THR         0.0257
     87 H34         6.8516   18.0081   34.8604 H         1 THR         0.0257
     88 H35         7.8439   16.5306   34.6176 H         1 THR         0.0257
     89 H36         7.4115   14.5836   35.2807 H         1 LEU         0.1883
     90 H37         8.9429   13.6826   33.8168 H         1 LEU         0.0800
     91 H38         8.0301   11.5033   32.9138 H         1 LEU         0.0315
     92 H39         6.4177   12.0197   33.5141 H         1 LEU         0.0315
     93 H40         7.3991   12.1189   35.8373 H         1 LEU         0.0298
     94 H41         7.4149    9.6723   36.1346 H         1 LEU         0.0232
     95 H42         7.5901    9.4602   34.3595 H         1 LEU         0.0232
     96 H43         6.0970   10.1975   35.0329 H         1 LEU         0.0232
     97 H44         9.7723   12.3571   35.1717 H         1 LEU         0.0232
     98 H45         9.7385   10.7040   34.4698 H         1 LEU         0.0232
     99 H46         9.5249   10.9333   36.2385 H         1 LEU         0.0232
    100 H47         6.1367   12.9856   31.7074 H         1 TRP         0.1886
    101 H48         7.7461   13.5198   29.3821 H         1 TRP         0.0805
    102 H49         6.2626   15.9576   30.1565 H         1 TRP         0.1375
    103 H50         5.9635   12.6666   28.1427 H         1 TRP         0.0397
    104 H51         4.7342   13.2464   29.3172 H         1 TRP         0.0397
    105 H52         7.8736   10.9624   29.8768 H         1 TRP         0.0795
    106 H53         7.1101    8.8399   31.1657 H         1 TRP         0.2216
    107 H54         2.8512   11.9578   30.0044 H         1 TRP         0.0540
    108 H55         4.6634    7.7733   32.0922 H         1 TRP         0.0541
    109 H56         1.3461   10.3336   31.1205 H         1 TRP         0.0510
    110 H57         2.2468    8.2667   32.1445 H         1 TRP         0.0530
@<TRIPOS>BOND
     1    1    2 1  
     2    1    7 1  
     3    2    3 1  
     4    2    5 1  
     5    3    4 2  
     6    3    8 am 
     7    5    6 1  
     8    6    7 1  
     9    8    9 1  
    10    9   10 1  
    11    9   12 1  
    12   10   11 2  
    13   10   17 am 
    14   12   13 1  
    15   13   14 1  
    16   14   15 2  
    17   14   16 am 
    18   17   18 1  
    19   18   19 1  
    20   18   21 1  
    21   19   20 2  
    22   19   25 am 
    23   21   22 1  
    24   21   23 1  
    25   22   24 1  
    26   25   26 1  
    27   26   27 1  
    28   26   29 1  
    29   27   28 2  
    30   27   32 am 
    31   29   30 1  
    32   29   31 1  
    33   32   33 1  
    34   33   34 1  
    35   33   36 1  
    36   34   35 2  
    37   34   40 am 
    38   36   37 1  
    39   37   38 1  
    40   37   39 1  
    41   40   41 1  
    42   41   42 1  
    43   41   44 1  
    44   42   43 2  
    45   44   45 1  
    46   45   46 2  
    47   45   47 1  
    48   46   48 1  
    49   47   49 ar 
    50   47   50 ar 
    51   48   49 1  
    52   49   51 ar 
    53   50   52 ar 
    54   51   53 ar 
    55   52   53 ar 
    56    1   54 1  
    57    1   55 1  
    58    2   56 1  
    59    5   57 1  
    60    5   58 1  
    61    6   59 1  
    62    6   60 1  
    63    7   61 1  
    64    7   62 1  
    65    8   63 1  
    66    9   64 1  
    67   12   65 1  
    68   12   66 1  
    69   13   67 1  
    70   13   68 1  
    71   16   69 1  
    72   16   70 1  
    73   17   71 1  
    74   18   72 1  
    75   21   73 1  
    76   22   74 1  
    77   22   75 1  
    78   23   76 1  
    79   23   77 1  
    80   23   78 1  
    81   24   79 1  
    82   24   80 1  
    83   24   81 1  
    84   25   82 1  
    85   26   83 1  
    86   29   84 1  
    87   30   85 1  
    88   31   86 1  
    89   31   87 1  
    90   31   88 1  
    91   32   89 1  
    92   33   90 1  
    93   36   91 1  
    94   36   92 1  
    95   37   93 1  
    96   38   94 1  
    97   38   95 1  
    98   38   96 1  
    99   39   97 1  
   100   39   98 1  
   101   39   99 1  
   102   40  100 1  
   103   41  101 1  
   104   42  102 1  
   105   44  103 1  
   106   44  104 1  
   107   46  105 1  
   108   48  106 1  
   109   50  107 1  
   110   51  108 1  
   111   52  109 1  
   112   53  110 1  
@<TRIPOS>SUBSTRUCTURE
     1 PRO         1

