1jp5_ligand
  -I-interpret- 

109111  0  0  0  0  0  0  0  0999 V2000
   -0.7350   14.4760   42.7060 N   0  3  0  0  0
    0.3100   15.2070   41.9590 C   0  0  0  0  0
    0.1440   15.0140   40.4600 C   0  0  0  0  0
    0.2120   13.8830   39.9580 O   0  0  0  0  0
    1.6490   14.6540   42.4240 C   0  0  0  0  0
    1.3140   14.1850   43.8150 C   0  0  0  0  0
   -0.1090   13.6040   43.7140 C   0  0  0  0  0
   -0.0710   16.1130   39.7420 N   0  0  0  0  0
   -0.2360   16.0500   38.2870 C   0  0  0  0  0
    1.0550   15.5740   37.5970 C   0  0  0  0  0
    2.1470   16.1170   37.8110 O   0  0  0  0  0
   -0.6490   17.4190   37.7280 C   0  0  0  0  0
   -1.9520   17.9910   38.2990 C   0  0  0  0  0
   -3.1790   17.1110   38.0420 C   0  0  0  0  0
   -3.4340   16.6670   36.9170 O   0  0  0  0  0
   -3.9550   16.8740   39.0910 N   0  0  0  0  0
    0.9190   14.5450   36.7740 N   0  0  0  0  0
    2.0580   13.9860   36.0640 C   0  0  0  0  0
    2.9530   15.0490   35.4390 C   0  0  0  0  0
    2.4800   15.9960   34.8130 O   0  0  0  0  0
    1.6000   13.0360   34.9290 C   0  0  0  0  0
    2.8130   12.3790   34.2620 C   0  0  0  0  0
    0.8270   13.8270   33.8750 C   0  0  0  0  0
    3.6750   11.5870   35.2010 C   0  0  0  0  0
    4.2560   14.8850   35.6200 N   0  0  0  0  0
    5.2200   15.7940   35.0210 C   0  0  0  0  0
    5.9390   14.9590   33.9670 C   0  0  0  0  0
    5.4500   14.7990   32.8460 O   0  0  0  0  0
    6.2480   16.3150   36.0520 C   0  0  0  0  0
    5.5790   17.1220   37.0300 O   0  0  0  0  0
    7.3210   17.1490   35.3620 C   0  0  0  0  0
    7.0890   14.4110   34.3500 N   0  0  0  0  0
    7.9020   13.5710   33.4790 C   0  0  0  0  0
    7.8890   13.9430   31.9850 C   0  0  0  0  0
    8.7940   14.6350   31.5090 O   0  0  0  0  0
    7.5030   12.0960   33.6760 C   0  0  0  0  0
    7.8150   11.4730   35.0500 C   0  0  0  0  0
    7.1870   10.1090   35.1510 C   0  0  0  0  0
    9.3160   11.3590   35.2460 C   0  0  0  0  0
    6.8630   13.5040   31.2560 N   0  0  0  0  0
    6.7630   13.7550   29.8160 C   0  0  0  0  0
    6.4320   15.1840   29.4090 C   0  0  0  0  0
    6.3610   15.4400   28.1820 O   0  0  0  0  0
    5.7360   12.8050   29.2100 C   0  0  0  0  0
    5.7540   11.4840   29.8810 C   0  0  0  0  0
    6.8510   10.7140   30.1570 C   0  0  0  0  0
    4.6280   10.7920   30.4160 C   0  0  0  0  0
    6.4750    9.5820   30.8390 N   0  0  0  0  0
    5.1150    9.6030   31.0130 C   0  0  0  0  0
    3.2530   11.0570   30.4540 C   0  0  0  0  0
    4.2710    8.6780   31.6420 C   0  0  0  0  0
    2.4120   10.1400   31.0810 C   0  0  0  0  0
    2.9270    8.9620   31.6660 C   0  0  0  0  0
   -1.2776   13.9061   42.0570 H   0  0  0  0  0
   -1.3472   15.1454   43.1723 H   0  0  0  0  0
    0.2406   16.2780   42.1491 H   0  0  0  0  0
    2.4572   15.3848   42.3929 H   0  0  0  0  0
    2.0426   13.8666   41.7812 H   0  0  0  0  0
    1.3652   14.9998   44.5372 H   0  0  0  0  0
    2.0273   13.4418   44.1713 H   0  0  0  0  0
   -0.1225   12.5501   43.4362 H   0  0  0  0  0
   -0.6391   13.6013   44.6664 H   0  0  0  0  0
   -0.1220   17.0164   40.2128 H   0  0  0  0  0
   -1.0247   15.3271   38.0785 H   0  0  0  0  0
   -0.8083   17.2851   36.6580 H   0  0  0  0  0
    0.1434   18.1182   37.9952 H   0  0  0  0  0
   -2.1297   18.9476   37.8076 H   0  0  0  0  0
   -1.8274   18.0673   39.3792 H   0  0  0  0  0
   -4.7965   16.3073   38.9852 H   0  0  0  0  0
   -3.7104   17.2584   40.0036 H   0  0  0  0  0
   -0.0050   14.1359   36.6353 H   0  0  0  0  0
    2.6260   13.4441   36.8202 H   0  0  0  0  0
    0.9616   12.2649   35.3602 H   0  0  0  0  0
    3.4305   13.1800   33.8556 H   0  0  0  0  0
    2.4322   11.6859   33.5119 H   0  0  0  0  0
   -0.0469   14.2870   34.3363 H   0  0  0  0  0
    1.4709   14.6024   33.4599 H   0  0  0  0  0
    0.5075   13.1539   33.0794 H   0  0  0  0  0
    4.0551   12.2431   35.9840 H   0  0  0  0  0
    3.0835   10.7888   35.6494 H   0  0  0  0  0
    4.5103   11.1559   34.6492 H   0  0  0  0  0
    4.5884   14.1070   36.1898 H   0  0  0  0  0
    4.7218   16.6736   34.6133 H   0  0  0  0  0
    6.7206   15.4601   36.5355 H   0  0  0  0  0
    6.2188   17.4444   37.6690 H   0  0  0  0  0
    7.8383   16.5351   34.6247 H   0  0  0  0  0
    6.8546   17.9998   34.8654 H   0  0  0  0  0
    8.0348   17.5064   36.1042 H   0  0  0  0  0
    7.4180   14.5871   35.2993 H   0  0  0  0  0
    8.9334   13.7455   33.7853 H   0  0  0  0  0
    8.0842   11.5280   32.9496 H   0  0  0  0  0
    6.4188   12.0613   33.5696 H   0  0  0  0  0
    7.4030   12.1172   35.8267 H   0  0  0  0  0
    6.1070   10.1981   35.0338 H   0  0  0  0  0
    7.5872    9.4671   34.3662 H   0  0  0  0  0
    7.4135    9.6774   36.1259 H   0  0  0  0  0
    9.7363   10.7271   34.4636 H   0  0  0  0  0
    9.7644   12.3511   35.1936 H   0  0  0  0  0
    9.5213   10.9172   36.2211 H   0  0  0  0  0
    6.1222   12.9752   31.7164 H   0  0  0  0  0
    7.7664   13.5790   29.4282 H   0  0  0  0  0
    6.2625   15.9583   30.1572 H   0  0  0  0  0
    5.9790   12.6604   28.1573 H   0  0  0  0  0
    4.7455   13.2422   29.3358 H   0  0  0  0  0
    7.8745   10.9626   29.8765 H   0  0  0  0  0
    2.8489   11.9628   30.0019 H   0  0  0  0  0
    4.6655    7.7683   32.0947 H   0  0  0  0  0
    1.3403   10.3346   31.1207 H   0  0  0  0  0
    2.2430    8.2628   32.1471 H   0  0  0  0  0
  1  2  1  0  0  0
  1  7  1  0  0  0
  2  3  1  0  0  0
  2  5  1  0  0  0
  3  4  2  0  0  0
  3  8  1  0  0  0
  5  6  1  0  0  0
  6  7  1  0  0  0
  8  9  1  0  0  0
  9 10  1  0  0  0
  9 12  1  0  0  0
 10 11  2  0  0  0
 10 17  1  0  0  0
 12 13  1  0  0  0
 13 14  1  0  0  0
 14 15  2  0  0  0
 14 16  1  0  0  0
 17 18  1  0  0  0
 18 19  1  0  0  0
 18 21  1  0  0  0
 19 20  2  0  0  0
 19 25  1  0  0  0
 21 22  1  0  0  0
 21 23  1  0  0  0
 22 24  1  0  0  0
 25 26  1  0  0  0
 26 27  1  0  0  0
 26 29  1  0  0  0
 27 28  2  0  0  0
 27 32  1  0  0  0
 29 30  1  0  0  0
 29 31  1  0  0  0
 32 33  1  0  0  0
 33 34  1  0  0  0
 33 36  1  0  0  0
 34 35  2  0  0  0
 34 40  1  0  0  0
 36 37  1  0  0  0
 37 38  1  0  0  0
 37 39  1  0  0  0
 40 41  1  0  0  0
 41 42  1  0  0  0
 41 44  1  0  0  0
 42 43  2  0  0  0
 44 45  1  0  0  0
 45 46  4  0  0  0
 45 47  4  0  0  0
 46 48  4  0  0  0
 47 49  4  0  0  0
 47 50  4  0  0  0
 48 49  4  0  0  0
 49 51  4  0  0  0
 50 52  4  0  0  0
 51 53  4  0  0  0
 52 53  4  0  0  0
  1 54  1  0  0  0
  1 55  1  0  0  0
  2 56  1  0  0  0
  5 57  1  0  0  0
  5 58  1  0  0  0
  6 59  1  0  0  0
  6 60  1  0  0  0
  7 61  1  0  0  0
  7 62  1  0  0  0
  8 63  1  0  0  0
  9 64  1  0  0  0
 12 65  1  0  0  0
 12 66  1  0  0  0
 13 67  1  0  0  0
 13 68  1  0  0  0
 16 69  1  0  0  0
 16 70  1  0  0  0
 17 71  1  0  0  0
 18 72  1  0  0  0
 21 73  1  0  0  0
 22 74  1  0  0  0
 22 75  1  0  0  0
 23 76  1  0  0  0
 23 77  1  0  0  0
 23 78  1  0  0  0
 24 79  1  0  0  0
 24 80  1  0  0  0
 24 81  1  0  0  0
 25 82  1  0  0  0
 26 83  1  0  0  0
 29 84  1  0  0  0
 30 85  1  0  0  0
 31 86  1  0  0  0
 31 87  1  0  0  0
 31 88  1  0  0  0
 32 89  1  0  0  0
 33 90  1  0  0  0
 36 91  1  0  0  0
 36 92  1  0  0  0
 37 93  1  0  0  0
 38 94  1  0  0  0
 38 95  1  0  0  0
 38 96  1  0  0  0
 39 97  1  0  0  0
 39 98  1  0  0  0
 39 99  1  0  0  0
 40100  1  0  0  0
 41101  1  0  0  0
 42102  1  0  0  0
 44103  1  0  0  0
 44104  1  0  0  0
 46105  1  0  0  0
 50106  1  0  0  0
 51107  1  0  0  0
 52108  1  0  0  0
 53109  1  0  0  0
M  END
$$$$
