1i7g_ligand
  -I-interpret- 

 52 53  0  0  0  0  0  0  0  0999 V2000
   38.5740   31.9690   36.6470 C   0  0  0  0  0
   39.5130   30.7880   36.6050 C   0  0  0  0  0
   40.3300   30.6260   37.9090 C   0  0  0  0  0
   41.2860   31.7030   37.9490 O   0  0  0  0  0
   41.6910   32.1050   39.2530 C   0  0  0  0  0
   42.2940   33.4880   39.1140 C   0  0  0  0  0
   40.9620   29.2420   37.9120 C   0  0  0  0  0
   40.0910   28.2780   38.2830 O   0  0  0  0  0
   42.1140   28.9560   37.6270 O   0  0  0  0  0
   39.0760   33.2960   36.4380 C   0  0  0  0  0
   38.2100   34.4030   36.4970 C   0  0  0  0  0
   36.8300   34.2240   36.7650 C   0  0  0  0  0
   36.3250   32.8990   36.9670 C   0  0  0  0  0
   37.1850   31.7900   36.9090 C   0  0  0  0  0
   36.1240   35.3940   36.7930 O   0  0  0  0  0
   34.8720   35.4130   37.4750 C   0  0  0  0  0
   34.5440   36.8830   37.7090 C   0  0  0  0  0
   34.8830   37.3340   39.0980 C   0  0  0  0  0
   35.7260   38.4610   39.3000 C   0  0  0  0  0
   36.0290   38.8900   40.6080 C   0  0  0  0  0
   35.4930   38.1950   41.7340 C   0  0  0  0  0
   34.6630   37.0770   41.5380 C   0  0  0  0  0
   34.3560   36.6440   40.2300 C   0  0  0  0  0
   35.8350   38.7070   42.9490 O   0  0  0  0  0
   34.8030   39.7180   43.7040 S   0  0  0  0  0
   35.7830   39.9980   45.1580 C   0  0  0  0  0
   34.7270   40.9530   42.9560 O   0  0  0  0  0
   33.6190   38.9790   44.0960 O   0  0  0  0  0
   40.2163   30.9492   35.7880 H   0  0  0  0  0
   38.9123   29.8881   36.4731 H   0  0  0  0  0
   39.7196   30.6896   38.8098 H   0  0  0  0  0
   42.4161   31.4048   39.6678 H   0  0  0  0  0
   40.8422   32.1181   39.9368 H   0  0  0  0  0
   43.1480   33.4444   38.4381 H   0  0  0  0  0
   41.5454   34.1707   38.7120 H   0  0  0  0  0
   42.6209   33.8404   40.0923 H   0  0  0  0  0
   39.2370   28.6746   38.4700 H   0  0  0  0  0
   40.1355   33.4478   36.2321 H   0  0  0  0  0
   38.6036   35.4065   36.3353 H   0  0  0  0  0
   35.2640   32.7500   37.1675 H   0  0  0  0  0
   36.7876   30.7871   37.0653 H   0  0  0  0  0
   34.9265   34.8658   38.4161 H   0  0  0  0  0
   34.0949   34.9235   36.8879 H   0  0  0  0  0
   33.4716   37.0148   37.5654 H   0  0  0  0  0
   35.1354   37.4745   37.0101 H   0  0  0  0  0
   36.1382   38.9935   38.4429 H   0  0  0  0  0
   36.6745   39.7550   40.7603 H   0  0  0  0  0
   34.2561   36.5440   42.3973 H   0  0  0  0  0
   33.7121   35.7768   40.0839 H   0  0  0  0  0
   35.2029   40.5719   45.8806 H   0  0  0  0  0
   36.0645   39.0399   45.5949 H   0  0  0  0  0
   36.6811   40.5535   44.8879 H   0  0  0  0  0
  1 14  4  0  0  0
  1 10  4  0  0  0
  1  2  1  0  0  0
  2  3  1  0  0  0
  3  7  1  0  0  0
  3  4  1  0  0  0
  4  5  1  0  0  0
  5  6  1  0  0  0
  7  9  2  0  0  0
  7  8  1  0  0  0
 10 11  4  0  0  0
 11 12  4  0  0  0
 12 15  1  0  0  0
 12 13  4  0  0  0
 13 14  4  0  0  0
 15 16  1  0  0  0
 16 17  1  0  0  0
 17 18  1  0  0  0
 18 23  4  0  0  0
 18 19  4  0  0  0
 19 20  4  0  0  0
 20 21  4  0  0  0
 21 24  1  0  0  0
 21 22  4  0  0  0
 22 23  4  0  0  0
 24 25  1  0  0  0
 25 28  2  0  0  0
 25 27  2  0  0  0
 25 26  1  0  0  0
  2 29  1  0  0  0
  2 30  1  0  0  0
  3 31  1  0  0  0
  5 32  1  0  0  0
  5 33  1  0  0  0
  6 34  1  0  0  0
  6 35  1  0  0  0
  6 36  1  0  0  0
  8 37  1  0  0  0
 10 38  1  0  0  0
 11 39  1  0  0  0
 13 40  1  0  0  0
 14 41  1  0  0  0
 16 42  1  0  0  0
 16 43  1  0  0  0
 17 44  1  0  0  0
 17 45  1  0  0  0
 19 46  1  0  0  0
 20 47  1  0  0  0
 22 48  1  0  0  0
 23 49  1  0  0  0
 26 50  1  0  0  0
 26 51  1  0  0  0
 26 52  1  0  0  0
M  END
$$$$
