1ws1_ligand
  -I-interpret- 

 61 61  0  0  0  0  0  0  0  0999 V2000
   -4.9730   44.3770   55.2300 C   0  0  0  0  0
   -4.4200   44.0440   53.8400 C   0  0  0  0  0
   -4.4140   44.9500   53.0380 O   0  0  0  0  0
   -4.0010   42.8200   53.5250 N   0  0  0  0  0
   -3.5700   42.5550   52.3880 O   0  0  0  0  0
   -6.5650   44.3290   55.0840 C   0  0  0  0  0
   -7.3070   44.9290   56.2760 C   0  0  0  0  0
   -7.0000   44.6240   57.4030 O   0  0  0  0  0
   -7.0070   42.8300   54.9920 C   0  0  0  0  0
   -8.5320   42.9080   54.7410 C   0  0  0  0  0
   -9.1510   41.6190   54.5510 C   0  0  0  0  0
  -10.5730   41.7530   54.0230 C   0  0  0  0  0
  -11.5180   42.3420   55.0060 C   0  0  0  0  0
   -8.2950   45.8170   55.9570 N   0  0  0  0  0
   -9.1130   46.5460   56.9020 C   0  0  0  0  0
   -8.8170   48.0510   56.9830 C   0  0  0  0  0
   -8.7580   48.6800   55.6450 C   0  0  0  0  0
   -7.4890   48.2190   57.6940 C   0  0  0  0  0
  -10.5900   46.2420   56.5180 C   0  0  0  0  0
  -10.8830   46.1010   55.3110 O   0  0  0  0  0
  -11.5180   46.1150   57.4910 N   0  0  0  0  0
  -12.9250   45.8040   57.1800 C   0  0  0  0  0
  -11.3130   46.2470   58.9630 C   0  0  0  0  0
  -12.6880   46.0030   59.5370 C   0  0  0  0  0
  -13.4500   45.2600   58.4990 C   0  0  0  0  0
  -13.7070   47.0270   56.7600 C   0  0  0  0  0
  -13.5340   47.3590   55.5740 O   0  0  0  0  0
  -14.4680   47.6556   57.5432 O   0  0  0  0  0
   -4.6338   45.3558   55.5692 H   0  0  0  0  0
   -4.6205   43.6678   55.9789 H   0  0  0  0  0
   -4.0340   42.0841   54.2305 H   0  0  0  0  0
   -3.3171   41.6297   52.3505 H   0  0  0  0  0
   -6.8127   44.9121   54.1970 H   0  0  0  0  0
   -6.7637   42.2700   55.8949 H   0  0  0  0  0
   -6.4839   42.2914   54.2018 H   0  0  0  0  0
   -8.6845   43.4823   53.8272 H   0  0  0  0  0
   -8.9859   43.3626   55.6215 H   0  0  0  0  0
   -9.1875   41.1090   55.5137 H   0  0  0  0  0
   -8.5644   41.0590   53.8227 H   0  0  0  0  0
  -10.9299   40.7507   53.7860 H   0  0  0  0  0
  -10.5405   42.4190   53.1607 H   0  0  0  0  0
  -11.5573   41.7106   55.8936 H   0  0  0  0  0
  -11.1771   43.3396   55.2830 H   0  0  0  0  0
  -12.5106   42.4066   54.5602 H   0  0  0  0  0
   -8.4715   45.9804   54.9658 H   0  0  0  0  0
   -8.8847   46.2108   57.9138 H   0  0  0  0  0
   -9.6224   48.5453   57.5263 H   0  0  0  0  0
   -7.9690   48.2095   55.0582 H   0  0  0  0  0
   -9.7153   48.5485   55.1406 H   0  0  0  0  0
   -8.5464   49.7437   55.7540 H   0  0  0  0  0
   -7.5568   47.7901   58.6938 H   0  0  0  0  0
   -6.7091   47.7075   57.1299 H   0  0  0  0  0
   -7.2495   49.2798   57.7678 H   0  0  0  0  0
  -13.0208   45.1118   56.3434 H   0  0  0  0  0
  -10.9120   47.2214   59.2420 H   0  0  0  0  0
  -10.5716   45.5452   59.3449 H   0  0  0  0  0
  -13.1805   46.9430   59.7860 H   0  0  0  0  0
  -12.6295   45.4316   60.4634 H   0  0  0  0  0
  -13.3093   44.1823   58.5817 H   0  0  0  0  0
  -14.5258   45.4029   58.6009 H   0  0  0  0  0
  -14.4565   47.2341   58.4057 H   0  0  0  0  0
  1  2  1  0  0  0
  1  6  1  0  0  0
  2  3  2  0  0  0
  2  4  1  0  0  0
  4  5  1  0  0  0
  6  7  1  0  0  0
  6  9  1  0  0  0
  7  8  2  0  0  0
  7 14  1  0  0  0
  9 10  1  0  0  0
 10 11  1  0  0  0
 11 12  1  0  0  0
 12 13  1  0  0  0
 14 15  1  0  0  0
 15 16  1  0  0  0
 15 19  1  0  0  0
 16 17  1  0  0  0
 16 18  1  0  0  0
 19 20  2  0  0  0
 19 21  1  0  0  0
 21 22  1  0  0  0
 21 23  1  0  0  0
 22 25  1  0  0  0
 22 26  1  0  0  0
 23 24  1  0  0  0
 24 25  1  0  0  0
 26 27  2  0  0  0
 26 28  1  0  0  0
  1 29  1  0  0  0
  1 30  1  0  0  0
  4 31  1  0  0  0
  5 32  1  0  0  0
  6 33  1  0  0  0
  9 34  1  0  0  0
  9 35  1  0  0  0
 10 36  1  0  0  0
 10 37  1  0  0  0
 11 38  1  0  0  0
 11 39  1  0  0  0
 12 40  1  0  0  0
 12 41  1  0  0  0
 13 42  1  0  0  0
 13 43  1  0  0  0
 13 44  1  0  0  0
 14 45  1  0  0  0
 15 46  1  0  0  0
 16 47  1  0  0  0
 17 48  1  0  0  0
 17 49  1  0  0  0
 17 50  1  0  0  0
 18 51  1  0  0  0
 18 52  1  0  0  0
 18 53  1  0  0  0
 22 54  1  0  0  0
 23 55  1  0  0  0
 23 56  1  0  0  0
 24 57  1  0  0  0
 24 58  1  0  0  0
 25 59  1  0  0  0
 25 60  1  0  0  0
 28 61  1  0  0  0
M  END
$$$$
