3b7j_ligand
  -I-interpret- 

 19 20  0  0  0  0  0  0  0  0999 V2000
   21.0810   12.7820  -12.5760 O   0  0  0  0  0
   20.5930   13.8740  -12.2870 C   0  0  0  0  0
   21.4160   14.9780  -12.0960 C   0  0  0  0  0
   20.8530   16.2130  -11.7880 C   0  0  0  0  0
   19.4740   16.3380  -11.6720 C   0  0  0  0  0
   18.9820   17.4340  -11.3980 O   0  0  0  0  0
   18.6500   15.2320  -11.8590 C   0  0  0  0  0
   19.2140   13.9990  -12.1660 C   0  0  0  0  0
   18.4020   12.8800  -12.3250 C   0  0  0  0  0
   17.0240   12.9940  -12.1750 C   0  0  0  0  0
   16.4600   14.2270  -11.8680 C   0  0  0  0  0
   17.2710   15.3470  -11.7120 C   0  0  0  0  0
   16.7080   16.5520  -11.4290 O   0  0  0  0  0
   22.4975   14.8768  -12.1871 H   0  0  0  0  0
   21.4937   17.0819  -11.6378 H   0  0  0  0  0
   18.8459   11.9144  -12.5671 H   0  0  0  0  0
   16.3872   12.1179  -12.2980 H   0  0  0  0  0
   15.3802   14.3167  -11.7492 H   0  0  0  0  0
   15.7556   16.4512  -11.3622 H   0  0  0  0  0
  1  2  2  0  0  0
  2  3  1  0  0  0
  2  8  1  0  0  0
  3  4  2  0  0  0
  4  5  1  0  0  0
  5  6  2  0  0  0
  5  7  1  0  0  0
  7  8  4  0  0  0
  7 12  4  0  0  0
  8  9  4  0  0  0
  9 10  4  0  0  0
 10 11  4  0  0  0
 11 12  4  0  0  0
 12 13  1  0  0  0
  3 14  1  0  0  0
  4 15  1  0  0  0
  9 16  1  0  0  0
 10 17  1  0  0  0
 11 18  1  0  0  0
 13 19  1  0  0  0
M  END
$$$$
