1m0o_ligand
  -I-interpret- 

 44 44  0  0  0  0  0  0  0  0999 V2000
   17.2890   52.3380   16.5490 C   0  0  0  0  0
   16.2880   53.2470   16.0950 C   0  0  0  0  0
   18.3640   52.0000   15.6390 C   0  0  0  0  0
   17.2920   51.7180   17.9640 C   0  0  0  0  0
   16.4010   53.7860   14.7820 C   0  0  0  0  0
   18.4330   52.5750   14.3780 C   0  0  0  0  0
   15.2290   53.6110   16.8980 O   0  0  0  0  0
   19.3300   51.0640   16.1030 C   0  0  0  0  0
   16.3730   52.1820   18.7540 N   0  0  0  0  0
   17.4550   53.4490   13.9930 N   0  0  0  0  0
   15.3700   54.7740   14.2590 C   0  0  0  0  0
   19.2150   49.7090   16.0170 O   0  0  0  0  0
   16.1530   51.7980   20.1730 C   0  0  0  0  0
   20.1330   48.7420   16.7460 P   0  0  0  0  0
   16.7820   52.9600   20.9970 C   0  0  0  0  0
   16.9600   50.5120   20.6860 C   0  0  0  0  0
   14.4980   51.6870   20.4540 P   0  0  0  0  0
   19.6780   47.3930   16.4710 O   0  0  0  0  0
   20.0630   49.0500   18.1590 O   0  0  0  0  0
   21.4580   48.7980   16.2110 O   0  0  0  0  0
   14.0230   50.3910   19.9210 O   0  0  0  0  0
   14.2010   51.7140   21.8970 O   0  0  0  0  0
   13.7520   52.7930   19.7790 O   0  0  0  0  0
   16.1600   54.3150   20.6450 C   0  0  0  0  0
   18.0062   50.9547   18.2729 H   0  0  0  0  0
   19.2551   52.3333   13.7043 H   0  0  0  0  0
   14.6649   54.2254   16.4227 H   0  0  0  0  0
   19.3129   51.2293   17.1803 H   0  0  0  0  0
   20.1791   51.2656   15.4500 H   0  0  0  0  0
   14.3857   54.3057   14.2618 H   0  0  0  0  0
   15.3560   55.6558   14.8996 H   0  0  0  0  0
   15.6318   55.0662   13.2421 H   0  0  0  0  0
   17.8466   53.0036   20.7672 H   0  0  0  0  0
   16.6002   52.7657   22.0540 H   0  0  0  0  0
   16.8118   50.3961   21.7596 H   0  0  0  0  0
   16.5936   49.6248   20.1695 H   0  0  0  0  0
   18.0216   50.6434   20.4765 H   0  0  0  0  0
   18.7853   47.2830   16.8065 H   0  0  0  0  0
   19.1507   48.9947   18.4526 H   0  0  0  0  0
   14.2050   50.3475   18.9794 H   0  0  0  0  0
   13.9430   52.7787   18.8383 H   0  0  0  0  0
   16.3188   54.5223   19.5868 H   0  0  0  0  0
   15.0907   54.2880   20.8548 H   0  0  0  0  0
   16.6294   55.0954   21.2439 H   0  0  0  0  0
  1  4  1  0  0  0
  1  3  4  0  0  0
  1  2  4  0  0  0
  2  7  1  0  0  0
  2  5  4  0  0  0
  5 11  1  0  0  0
  5 10  4  0  0  0
 10  6  4  0  0  0
  6  3  4  0  0  0
  3  8  1  0  0  0
  8 12  1  0  0  0
 12 14  1  0  0  0
 14 20  2  0  0  0
 14 19  1  0  0  0
 14 18  1  0  0  0
  4  9  2  0  0  0
  9 13  1  0  0  0
 13 17  1  0  0  0
 13 16  1  0  0  0
 13 15  1  0  0  0
 15 24  1  0  0  0
 17 23  1  0  0  0
 17 22  2  0  0  0
 17 21  1  0  0  0
  4 25  1  0  0  0
  6 26  1  0  0  0
  7 27  1  0  0  0
  8 28  1  0  0  0
  8 29  1  0  0  0
 11 30  1  0  0  0
 11 31  1  0  0  0
 11 32  1  0  0  0
 15 33  1  0  0  0
 15 34  1  0  0  0
 16 35  1  0  0  0
 16 36  1  0  0  0
 16 37  1  0  0  0
 18 38  1  0  0  0
 19 39  1  0  0  0
 21 40  1  0  0  0
 23 41  1  0  0  0
 24 42  1  0  0  0
 24 43  1  0  0  0
 24 44  1  0  0  0
M  END
$$$$
