4b33_ligand
  -I-interpret- 

 19 20  0  0  0  0  0  0  0  0999 V2000
   19.1830    9.3790   -2.2300 O   0  0  0  0  0
   19.2270    8.0280   -2.1330 C   0  0  0  0  0
   20.2930    7.3510   -2.6930 C   0  0  0  0  0
   21.2820    8.0900   -3.3370 C   0  0  0  0  0
   22.3580    7.4250   -3.9060 C   0  0  0  0  0
   18.2150    7.3280   -1.4880 C   0  0  0  0  0
   18.2920    5.9440   -1.4130 C   0  0  0  0  0
   19.3540    5.2550   -1.9740 C   0  0  0  0  0
   20.3660    5.9680   -2.6220 C   0  0  0  0  0
   21.4460    5.3030   -3.1960 C   0  0  0  0  0
   22.4400    6.0410   -3.8340 C   0  0  0  0  0
   18.3901    9.7041   -1.7973 H   0  0  0  0  0
   21.2115    9.1763   -3.3932 H   0  0  0  0  0
   23.1412    7.9904   -4.4110 H   0  0  0  0  0
   17.3714    7.8587   -1.0465 H   0  0  0  0  0
   17.5031    5.3903   -0.9039 H   0  0  0  0  0
   19.4001    4.1678   -1.9108 H   0  0  0  0  0
   21.5130    4.2162   -3.1466 H   0  0  0  0  0
   23.2907    5.5269   -4.2812 H   0  0  0  0  0
  1  2  1  0  0  0
  2  3  4  0  0  0
  2  6  4  0  0  0
  3  4  4  0  0  0
  3  9  4  0  0  0
  4  5  4  0  0  0
  5 11  4  0  0  0
  6  7  4  0  0  0
  7  8  4  0  0  0
  8  9  4  0  0  0
  9 10  4  0  0  0
 10 11  4  0  0  0
  1 12  1  0  0  0
  4 13  1  0  0  0
  5 14  1  0  0  0
  6 15  1  0  0  0
  7 16  1  0  0  0
  8 17  1  0  0  0
 10 18  1  0  0  0
 11 19  1  0  0  0
M  END
$$$$
