5mwy_ligand
  -I-interpret- 

 60 65  0  0  0  0  0  0  0  0999 V2000
    8.1500   17.6680   16.7500 C   0  0  0  0  0
    8.5880   19.0570   17.1960 C   0  0  0  0  0
    7.4860   16.0690   14.9230 C   0  0  0  0  0
    8.6490   16.9210   19.1290 C   0  0  0  0  0
    8.4430   15.1710   17.1200 C   0  0  0  0  0
    9.0360   18.3520   21.0400 C   0  0  0  0  0
    8.9920   19.3700   18.6490 C   0  0  0  0  0
    7.5640   14.8550   15.8660 C   0  0  0  0  0
    7.7500   15.8870   13.6180 C   0  0  0  0  0
    9.9330   15.0910   16.7840 C   0  0  0  0  0
    8.9330   20.2830   22.3250 C   0  0  0  0  0
    9.0650   16.8900   21.4950 C   0  0  0  0  0
    7.7220   17.0110   12.6510 C   0  0  0  0  0
   10.4760   18.9030   21.1290 C   0  0  0  0  0
    6.8590   18.7250   19.7650 C   0  0  0  0  0
   10.8910   14.9000   17.7130 O   0  0  0  0  0
   11.9960   13.9800   17.4230 C   0  0  0  0  0
    9.4960   18.1630   16.5420 O   0  0  0  0  0
    8.0250   16.5210   17.7760 C   0  0  0  0  0
    7.3020   17.4760   15.4690 C   0  0  0  0  0
    8.3680   18.3980   19.6400 C   0  0  0  0  0
    8.3240   19.1260   22.0210 O   0  0  0  0  0
    8.4300   16.0510   20.3760 C   0  0  0  0  0
    7.7900   18.5620   14.4920 C   0  0  0  0  0
   10.2940   15.1980   15.6480 O   0  0  0  0  0
    8.4390   21.2000   22.9150 O   0  0  0  0  0
    8.0290   16.9180   11.4920 O   0  0  0  0  0
   10.3440   20.2700   21.8460 C   0  0  0  0  0
    7.2650   18.3490   13.0950 C   0  0  0  0  0
    5.8040   17.6700   15.7770 C   0  0  0  0  0
    8.1391   20.0399   17.0530 H   0  0  0  0  0
    9.6670   16.7741   18.7683 H   0  0  0  0  0
    8.2628   14.4037   17.8729 H   0  0  0  0  0
    8.6409   20.3733   18.8905 H   0  0  0  0  0
   10.0759   19.2844   18.7260 H   0  0  0  0  0
    8.0142   14.0223   15.3257 H   0  0  0  0  0
    6.5563   14.6078   16.2000 H   0  0  0  0  0
    7.9913   14.8860   13.2605 H   0  0  0  0  0
    8.5120   16.7676   22.4263 H   0  0  0  0  0
   10.0892   16.5672   21.6816 H   0  0  0  0  0
   10.9281   19.0081   20.1428 H   0  0  0  0  0
   11.1331   18.2250   21.6736 H   0  0  0  0  0
    6.7385   19.7483   20.1205 H   0  0  0  0  0
    6.3837   18.6194   18.7898 H   0  0  0  0  0
    6.3967   18.0365   20.4724 H   0  0  0  0  0
   11.5972   12.9832   17.2345 H   0  0  0  0  0
   12.5362   14.3290   16.5430 H   0  0  0  0  0
   12.6728   13.9465   18.2768 H   0  0  0  0  0
    6.9899   16.3346   18.0624 H   0  0  0  0  0
    8.8755   15.0604   20.2847 H   0  0  0  0  0
    7.3785   15.8289   20.5580 H   0  0  0  0  0
    8.8786   18.5205   14.4551 H   0  0  0  0  0
    7.4264   19.5261   14.8475 H   0  0  0  0  0
   11.0603   20.3836   22.6597 H   0  0  0  0  0
   10.5669   21.1087   21.1864 H   0  0  0  0  0
    6.1765   18.4052   13.0825 H   0  0  0  0  0
    7.6378   19.1229   12.4240 H   0  0  0  0  0
    5.6511   18.6506   16.2277 H   0  0  0  0  0
    5.2322   17.6009   14.8516 H   0  0  0  0  0
    5.4733   16.8952   16.4687 H   0  0  0  0  0
  1  2  1  0  0  0
  1 18  1  0  0  0
 19  1  1  0  0  0
  1 20  1  0  0  0
  2  7  1  0  0  0
 18  2  1  0  0  0
  8  3  1  0  0  0
  3  9  2  0  0  0
 20  3  1  0  0  0
  4 19  1  0  0  0
 21  4  1  0  0  0
  4 23  1  0  0  0
  5  8  1  0  0  0
  5 10  1  0  0  0
 19  5  1  0  0  0
  6 12  1  0  0  0
  6 14  1  0  0  0
  6 21  1  0  0  0
  6 22  1  0  0  0
  7 21  1  0  0  0
  9 13  1  0  0  0
 10 16  1  0  0  0
 10 25  2  0  0  0
 22 11  1  0  0  0
 11 26  2  0  0  0
 11 28  1  0  0  0
 12 23  1  0  0  0
 13 27  2  0  0  0
 13 29  1  0  0  0
 14 28  1  0  0  0
 21 15  1  0  0  0
 16 17  1  0  0  0
 20 24  1  0  0  0
 20 30  1  0  0  0
 24 29  1  0  0  0
  2 31  1  0  0  0
  4 32  1  0  0  0
  5 33  1  0  0  0
  7 34  1  0  0  0
  7 35  1  0  0  0
  8 36  1  0  0  0
  8 37  1  0  0  0
  9 38  1  0  0  0
 12 39  1  0  0  0
 12 40  1  0  0  0
 14 41  1  0  0  0
 14 42  1  0  0  0
 15 43  1  0  0  0
 15 44  1  0  0  0
 15 45  1  0  0  0
 17 46  1  0  0  0
 17 47  1  0  0  0
 17 48  1  0  0  0
 19 49  1  0  0  0
 23 50  1  0  0  0
 23 51  1  0  0  0
 24 52  1  0  0  0
 24 53  1  0  0  0
 28 54  1  0  0  0
 28 55  1  0  0  0
 29 56  1  0  0  0
 29 57  1  0  0  0
 30 58  1  0  0  0
 30 59  1  0  0  0
 30 60  1  0  0  0
M  END
$$$$
