6h4x_ligand
  -I-interpret- 

 32 34  0  0  0  0  0  0  0  0999 V2000
    6.3130  -15.7190  -53.5950 C   0  0  0  0  0
    7.3220  -15.6950  -54.5670 C   0  0  0  0  0
    7.6380  -14.5230  -55.2450 C   0  0  0  0  0
    6.9120  -13.3930  -54.9420 C   0  0  0  0  0
    5.6860  -14.4760  -53.3470 C   0  0  0  0  0
    4.5530  -15.2390  -51.2740 C   0  0  0  0  0
    6.5790  -17.9670  -53.3120 C   0  0  0  0  0
    3.7140  -14.6530  -50.3660 C   0  0  0  0  0
    3.1700  -15.2710  -49.1040 C   0  0  0  0  0
    4.0170  -14.9530  -47.8830 C   0  0  0  0  0
    8.9260  -17.0220  -55.6960 O   0  0  0  0  0
    8.0070  -16.9430  -54.8910 C   0  0  0  0  0
    5.9460  -13.3500  -54.0200 N   0  0  0  0  0
    5.9360  -16.8790  -52.9590 N   0  0  0  0  0
    7.5700  -18.0230  -54.2230 N   0  0  0  0  0
    4.8160  -14.3270  -52.2310 N   0  0  0  0  0
    4.1720  -13.1490  -51.9980 N   0  0  0  0  0
    3.5120  -13.3590  -50.8740 C   0  0  0  0  0
    3.4650  -15.5010  -46.6400 N   0  3  0  0  0
    8.4329  -14.4996  -55.9905 H   0  0  0  0  0
    7.1393  -12.4773  -55.4878 H   0  0  0  0  0
    4.9385  -16.2577  -51.2313 H   0  0  0  0  0
    6.2881  -18.9001  -52.8296 H   0  0  0  0  0
    3.1660  -16.3530  -49.2360 H   0  0  0  0  0
    2.1730  -14.8642  -48.9349 H   0  0  0  0  0
    4.0534  -13.8686  -47.7790 H   0  0  0  0  0
    4.9985  -15.4020  -48.0353 H   0  0  0  0  0
    8.0073  -18.9246  -54.4136 H   0  0  0  0  0
    2.8806  -12.6115  -50.3937 H   0  0  0  0  0
    4.0755  -15.2550  -45.8608 H   0  0  0  0  0
    2.5356  -15.1117  -46.4814 H   0  0  0  0  0
    3.4013  -16.5162  -46.7162 H   0  0  0  0  0
  1  2  4  0  0  0
  5  1  4  0  0  0
  1 14  1  0  0  0
  2  3  4  0  0  0
  2 12  1  0  0  0
  4  3  4  0  0  0
 13  4  4  0  0  0
  5 13  4  0  0  0
 16  5  1  0  0  0
  6  8  4  0  0  0
  6 16  4  0  0  0
 14  7  2  0  0  0
  7 15  1  0  0  0
  8  9  1  0  0  0
  8 18  4  0  0  0
  9 10  1  0  0  0
 10 19  1  0  0  0
 12 11  2  0  0  0
 12 15  1  0  0  0
 16 17  4  0  0  0
 17 18  4  0  0  0
  3 20  1  0  0  0
  4 21  1  0  0  0
  6 22  1  0  0  0
  7 23  1  0  0  0
  9 24  1  0  0  0
  9 25  1  0  0  0
 10 26  1  0  0  0
 10 27  1  0  0  0
 15 28  1  0  0  0
 18 29  1  0  0  0
 19 30  1  0  0  0
 19 31  1  0  0  0
 19 32  1  0  0  0
M  END
$$$$
