4uia_ligand
  -I-interpret- 

 70 70  0  0  0  0  0  0  0  0999 V2000
   69.0940   41.4490   43.7730 C   0  0  0  0  0
   69.9210   42.6440   44.3030 C   0  0  0  0  0
   69.1830   43.4340   45.4110 C   0  0  0  0  0
   68.6880   42.5220   46.5580 C   0  0  0  0  0
   67.8330   41.3400   46.0440 C   0  0  0  0  0
   68.5640   40.5580   44.9240 C   0  0  0  0  0
   67.9600   39.1890   44.4990 C   0  0  0  0  0
   66.5080   39.1100   43.9220 C   0  0  0  0  0
   66.2850   39.9770   42.6640 C   0  0  0  0  0
   66.8320   39.6720   41.6040 O   0  0  0  0  0
   65.4060   40.9770   42.7910 N   0  0  0  0  0
   65.0260   41.8620   41.6760 C   0  0  0  0  0
   64.9940   43.3300   42.1420 C   0  0  0  0  0
   65.0260   44.3760   41.0010 C   0  0  0  0  0
   63.8010   44.3480   40.0750 C   0  0  0  0  0
   66.3490   44.4190   40.2250 C   0  0  0  0  0
   65.4940   39.3560   44.9690 N   0  0  0  0  0
   64.3340   38.6940   45.0290 C   0  0  0  0  0
   64.0520   37.7910   44.2340 O   0  0  0  0  0
   63.5160   39.0550   46.0240 N   0  0  0  0  0
   62.1990   38.4370   46.2790 C   0  0  0  0  0
   61.2070   38.7860   45.1590 C   0  0  0  0  0
   61.1860   39.9680   44.7480 O   0  0  0  0  0
   60.5030   37.8490   44.7300 O   0  0  0  0  0
   61.6480   38.9090   47.6260 C   0  0  0  0  0
   60.8570   37.8010   48.3250 C   0  0  0  0  0
   59.8570   38.3980   49.3150 C   0  0  0  0  0
   58.9420   37.3190   49.8890 C   0  0  0  0  0
   57.7580   37.1610   49.0300 N   0  3  0  0  0
   69.7395   40.8408   43.1393 H   0  0  0  0  0
   68.2387   41.8421   43.2234 H   0  0  0  0  0
   70.1007   43.3233   43.4698 H   0  0  0  0  0
   70.8437   42.2505   44.7295 H   0  0  0  0  0
   68.3125   43.9114   44.9611 H   0  0  0  0  0
   69.8827   44.1556   45.8328 H   0  0  0  0  0
   68.0677   43.1229   47.2230 H   0  0  0  0  0
   69.5620   42.1113   47.0635 H   0  0  0  0  0
   66.9024   41.7368   45.6382 H   0  0  0  0  0
   67.6467   40.6604   46.8756 H   0  0  0  0  0
   69.4632   40.2111   45.4332 H   0  0  0  0  0
   67.9135   38.6159   45.4250 H   0  0  0  0  0
   68.5949   38.8579   43.6772 H   0  0  0  0  0
   66.3793   38.0843   43.5763 H   0  0  0  0  0
   64.9782   41.1345   43.7035 H   0  0  0  0  0
   64.0344   41.5805   41.3215 H   0  0  0  0  0
   65.7591   41.7595   40.8759 H   0  0  0  0  0
   65.8893   43.4903   42.7427 H   0  0  0  0  0
   64.0535   43.4720   42.6744 H   0  0  0  0  0
   64.9633   45.3262   41.5314 H   0  0  0  0  0
   63.7251   43.3677   39.6045 H   0  0  0  0  0
   62.9014   44.5429   40.6587 H   0  0  0  0  0
   63.9102   45.1136   39.3069 H   0  0  0  0  0
   67.1618   44.6649   40.9084 H   0  0  0  0  0
   66.5352   43.4450   39.7725 H   0  0  0  0  0
   66.2866   45.1776   39.4448 H   0  0  0  0  0
   65.6881   40.0631   45.6781 H   0  0  0  0  0
   63.8209   39.8040   46.6456 H   0  0  0  0  0
   62.3285   37.3550   46.3031 H   0  0  0  0  0
   61.8224   40.4891   45.2431 H   0  0  0  0  0
   60.9806   39.7528   47.4505 H   0  0  0  0  0
   62.4862   39.1907   48.2633 H   0  0  0  0  0
   61.5512   37.1592   48.8674 H   0  0  0  0  0
   60.3124   37.2279   47.5746 H   0  0  0  0  0
   59.2448   39.1330   48.7924 H   0  0  0  0  0
   60.4093   38.8591   50.1338 H   0  0  0  0  0
   58.6246   37.6107   50.8901 H   0  0  0  0  0
   59.4833   36.3740   49.9341 H   0  0  0  0  0
   57.1512   36.4392   49.4188 H   0  0  0  0  0
   57.2513   38.0451   48.9855 H   0  0  0  0  0
   58.0536   36.8896   48.0922 H   0  0  0  0  0
  1  2  1  0  0  0
  1  6  1  0  0  0
  2  3  1  0  0  0
  3  4  1  0  0  0
  4  5  1  0  0  0
  5  6  1  0  0  0
  6  7  1  0  0  0
  7  8  1  0  0  0
  8  9  1  0  0  0
  8 17  1  0  0  0
  9 10  2  0  0  0
  9 11  1  0  0  0
 11 12  1  0  0  0
 12 13  1  0  0  0
 13 14  1  0  0  0
 14 15  1  0  0  0
 14 16  1  0  0  0
 17 18  1  0  0  0
 18 19  2  0  0  0
 18 20  1  0  0  0
 20 21  1  0  0  0
 21 22  1  0  0  0
 21 25  1  0  0  0
 22 23  1  0  0  0
 22 24  2  0  0  0
 25 26  1  0  0  0
 26 27  1  0  0  0
 27 28  1  0  0  0
 28 29  1  0  0  0
  1 30  1  0  0  0
  1 31  1  0  0  0
  2 32  1  0  0  0
  2 33  1  0  0  0
  3 34  1  0  0  0
  3 35  1  0  0  0
  4 36  1  0  0  0
  4 37  1  0  0  0
  5 38  1  0  0  0
  5 39  1  0  0  0
  6 40  1  0  0  0
  7 41  1  0  0  0
  7 42  1  0  0  0
  8 43  1  0  0  0
 11 44  1  0  0  0
 12 45  1  0  0  0
 12 46  1  0  0  0
 13 47  1  0  0  0
 13 48  1  0  0  0
 14 49  1  0  0  0
 15 50  1  0  0  0
 15 51  1  0  0  0
 15 52  1  0  0  0
 16 53  1  0  0  0
 16 54  1  0  0  0
 16 55  1  0  0  0
 17 56  1  0  0  0
 20 57  1  0  0  0
 21 58  1  0  0  0
 23 59  1  0  0  0
 25 60  1  0  0  0
 25 61  1  0  0  0
 26 62  1  0  0  0
 26 63  1  0  0  0
 27 64  1  0  0  0
 27 65  1  0  0  0
 28 66  1  0  0  0
 28 67  1  0  0  0
 29 68  1  0  0  0
 29 69  1  0  0  0
 29 70  1  0  0  0
M  END
$$$$
