4lpb_ligand
  -I-interpret- 

 47 50  0  0  0  0  0  0  0  0999 V2000
   19.6010   34.0510    1.5870 C   0  0  0  0  0
   19.2610   32.6090    1.8730 C   0  0  0  0  0
   17.6430   31.6090    3.4390 C   0  0  0  0  0
   10.0690   30.7420   11.8670 N   0  0  0  0  0
   14.1030   29.7140    6.6280 C   0  0  0  0  0
   13.7880   30.9600    6.1390 C   0  0  0  0  0
   13.1270   29.0650    7.4790 C   0  0  0  0  0
   12.5200   29.6980    8.5450 C   0  0  0  0  0
   11.5660   28.9910    9.2460 C   0  0  0  0  0
   11.2460   27.7040    8.8890 C   0  0  0  0  0
   12.7150   27.7780    7.1950 C   0  0  0  0  0
   10.8500   29.5990   10.3640 C   0  0  0  0  0
    9.3230   29.5900   11.8150 C   0  0  0  0  0
   15.7550   27.8670    6.6700 C   0  0  0  0  0
   15.8150   25.3410    9.2040 C   0  0  0  0  0
   17.9480   32.5250    2.4600 N   0  0  0  0  0
   18.3630   30.6740    3.7560 O   0  0  0  0  0
   16.4210   31.9120    3.9980 N   0  0  0  0  0
   15.6670   31.1290    4.8940 C   0  0  0  0  0
   16.0860   29.8860    5.3250 C   0  0  0  0  0
   15.3040   29.1650    6.2090 C   0  0  0  0  0
   14.5270   31.6860    5.3010 N   0  0  0  0  0
   11.8070   27.0620    7.8650 N   0  0  0  0  0
   11.0390   30.7380   10.9290 N   0  0  0  0  0
    8.3720   29.2820   12.5180 O   0  0  0  0  0
    9.8370   28.8250   10.8210 O   0  0  0  0  0
   15.4730   27.3370    7.8410 N   0  0  0  0  0
   16.0380   26.0940    7.9640 C   0  0  0  0  0
   16.7600   25.6760    6.8710 C   0  0  0  0  0
   16.7330   26.8850    5.6560 S   0  0  0  0  0
   16.4440   24.1360    9.1800 F   0  0  0  0  0
   16.2360   26.0140   10.3050 F   0  0  0  0  0
   14.4910   25.0940    9.3810 F   0  0  0  0  0
   18.8684   34.4652    0.8943 H   0  0  0  0  0
   19.5843   34.6183    2.5176 H   0  0  0  0  0
   20.5950   34.1075    1.1433 H   0  0  0  0  0
   19.9934   32.1966    2.5670 H   0  0  0  0  0
   19.2764   32.0433    0.9414 H   0  0  0  0  0
   12.8443   31.3950    6.4681 H   0  0  0  0  0
   12.7849   30.7183    8.8222 H   0  0  0  0  0
   10.4919   27.1791    9.4754 H   0  0  0  0  0
   13.1788   27.2957    6.3345 H   0  0  0  0  0
   11.6498   30.3350   10.2819 H   0  0  0  0  0
   17.2217   33.1653    2.1392 H   0  0  0  0  0
   16.0143   32.8087    3.7319 H   0  0  0  0  0
   17.0305   29.4741    4.9695 H   0  0  0  0  0
   17.2734   24.7180    6.7892 H   0  0  0  0  0
  2  1  1  0  0  0
 16  2  1  0  0  0
  3 16  1  0  0  0
  3 17  2  0  0  0
 18  3  1  0  0  0
 13  4  1  0  0  0
 24  4  2  0  0  0
  5  6  4  0  0  0
  5  7  1  0  0  0
 21  5  4  0  0  0
  6 22  4  0  0  0
  7  8  4  0  0  0
  7 11  4  0  0  0
  8  9  4  0  0  0
  9 10  4  0  0  0
  9 12  1  0  0  0
 23 10  4  0  0  0
 11 23  4  0  0  0
 12 24  1  0  0  0
 12 26  1  0  0  0
 13 25  2  0  0  0
 26 13  1  0  0  0
 14 21  1  0  0  0
 27 14  4  0  0  0
 14 30  4  0  0  0
 28 15  1  0  0  0
 15 31  1  0  0  0
 15 32  1  0  0  0
 15 33  1  0  0  0
 19 18  1  0  0  0
 20 19  4  0  0  0
 19 22  4  0  0  0
 21 20  4  0  0  0
 27 28  4  0  0  0
 28 29  4  0  0  0
 29 30  4  0  0  0
  1 34  1  0  0  0
  1 35  1  0  0  0
  1 36  1  0  0  0
  2 37  1  0  0  0
  2 38  1  0  0  0
  6 39  1  0  0  0
  8 40  1  0  0  0
 10 41  1  0  0  0
 11 42  1  0  0  0
 12 43  1  0  0  0
 16 44  1  0  0  0
 18 45  1  0  0  0
 20 46  1  0  0  0
 29 47  1  0  0  0
M  END
$$$$
