1q65_ligand
  -I-interpret- 

 40 41  0  0  0  0  0  0  0  0999 V2000
   19.2610   17.9060   18.1000 N   0  0  0  0  0
   18.2250   17.6020   19.1760 C   0  0  0  0  0
   16.9120   17.2020   18.7910 C   0  0  0  0  0
   15.9230   16.9120   19.7760 C   0  0  0  0  0
   16.2580   17.0290   21.1630 C   0  0  0  0  0
   15.3450   16.7670   22.1520 N   0  0  0  0  0
   15.6070   16.8610   23.4160 C   0  0  0  0  0
   14.7070   16.6060   24.3190 N   0  0  0  0  0
   16.8110   17.2230   23.8670 N   0  0  0  0  0
   17.8300   17.5180   23.0530 C   0  0  0  0  0
   18.9310   17.8490   23.4760 O   0  0  0  0  0
   17.5880   17.4310   21.5430 C   0  0  0  0  0
   18.5710   17.7180   20.5530 C   0  0  0  0  0
   14.5240   16.4780   19.3280 C   0  0  0  0  0
   13.4120   17.9120   19.4250 S   0  0  0  0  0
   12.6820   17.6940   17.7760 C   0  0  0  0  0
   13.6850   18.0380   16.6640 C   0  0  0  0  0
   13.1250   17.7380   15.3250 N   0  3  0  0  0
   14.2110   17.6560   14.3270 C   0  0  0  0  0
   12.1320   18.7530   14.9060 C   0  0  0  0  0
   19.0122   17.8225   17.1143 H   0  0  0  0  0
   20.2031   18.1929   18.3656 H   0  0  0  0  0
   16.6618   17.1171   17.7335 H   0  0  0  0  0
   13.7679   16.3241   24.0378 H   0  0  0  0  0
   14.9400   16.6879   25.3087 H   0  0  0  0  0
   16.9594   17.2767   24.8747 H   0  0  0  0  0
   19.5758   18.0227   20.8455 H   0  0  0  0  0
   14.1582   15.6807   19.9750 H   0  0  0  0  0
   14.5613   16.1063   18.3040 H   0  0  0  0  0
   11.8260   18.3629   17.6870 H   0  0  0  0  0
   12.3884   16.6502   17.6644 H   0  0  0  0  0
   14.5832   17.4375   16.8078 H   0  0  0  0  0
   13.9102   19.1032   16.7161 H   0  0  0  0  0
   12.6472   16.8388   15.3846 H   0  0  0  0  0
   14.7403   18.6081   14.2888 H   0  0  0  0  0
   14.9045   16.8644   14.6108 H   0  0  0  0  0
   13.7867   17.4352   13.3476 H   0  0  0  0  0
   11.3122   18.7754   15.6240 H   0  0  0  0  0
   12.6094   19.7321   14.8671 H   0  0  0  0  0
   11.7459   18.4961   13.9196 H   0  0  0  0  0
  1  2  1  0  0  0
  2  3  4  0  0  0
  2 13  4  0  0  0
  3  4  4  0  0  0
  4  5  4  0  0  0
  4 14  1  0  0  0
  5  6  1  0  0  0
  5 12  4  0  0  0
  6  7  2  0  0  0
  7  8  1  0  0  0
  7  9  1  0  0  0
  9 10  1  0  0  0
 10 11  2  0  0  0
 10 12  1  0  0  0
 12 13  4  0  0  0
 14 15  1  0  0  0
 15 16  1  0  0  0
 16 17  1  0  0  0
 17 18  1  0  0  0
 18 19  1  0  0  0
 18 20  1  0  0  0
  1 21  1  0  0  0
  1 22  1  0  0  0
  3 23  1  0  0  0
  8 24  1  0  0  0
  8 25  1  0  0  0
  9 26  1  0  0  0
 13 27  1  0  0  0
 14 28  1  0  0  0
 14 29  1  0  0  0
 16 30  1  0  0  0
 16 31  1  0  0  0
 17 32  1  0  0  0
 17 33  1  0  0  0
 18 34  1  0  0  0
 19 35  1  0  0  0
 19 36  1  0  0  0
 19 37  1  0  0  0
 20 38  1  0  0  0
 20 39  1  0  0  0
 20 40  1  0  0  0
M  END
$$$$
