5ylv_ligand
  -I-interpret- 

 41 43  0  0  0  0  0  0  0  0999 V2000
   51.0550  -10.9990   -6.6310 C   0  0  0  0  0
   50.5970  -15.7550   -8.9870 C   0  0  0  0  0
   51.3470  -14.6600   -9.4110 C   0  0  0  0  0
   49.1470  -12.0570   -4.4560 C   0  0  0  0  0
   49.6140  -18.0380   -7.3740 C   0  0  0  0  0
   48.7210  -18.9590   -6.5570 C   0  0  0  0  0
   48.9340  -19.1240   -5.2000 C   0  0  0  0  0
   47.6820  -19.6400   -7.1570 C   0  0  0  0  0
   50.2170  -10.0020   -7.4270 C   0  0  0  0  0
   48.1240  -19.9450   -4.4400 C   0  0  0  0  0
   46.8700  -20.4550   -6.3910 C   0  0  0  0  0
   47.0830  -20.6210   -5.0330 C   0  0  0  0  0
   50.4550  -12.3850   -6.6340 C   0  0  0  0  0
   49.9020  -14.4450   -7.0980 C   0  0  0  0  0
   49.6090  -12.8350   -5.6500 C   0  0  0  0  0
   49.8680  -15.6410   -7.8110 C   0  0  0  0  0
   51.3410  -13.4800   -8.6590 C   0  0  0  0  0
   50.6240  -13.3870   -7.5210 N   0  0  0  0  0
   49.2800  -14.1030   -5.9500 N   0  0  0  0  0
   50.8330   -9.7760   -8.7350 N   0  3  0  0  0
   49.1140  -16.6890   -7.3430 O   0  0  0  0  0
   51.1009  -10.6531   -5.5984 H   0  0  0  0  0
   52.0405  -11.0566   -7.0930 H   0  0  0  0  0
   50.5830  -16.6791   -9.5648 H   0  0  0  0  0
   51.9366  -14.7224  -10.3257 H   0  0  0  0  0
   50.0105  -11.7627   -3.8594 H   0  0  0  0  0
   48.6130  -11.1668   -4.7884 H   0  0  0  0  0
   48.4826  -12.6774   -3.8545 H   0  0  0  0  0
   49.6287  -18.3855   -8.4070 H   0  0  0  0  0
   50.6180  -18.0523   -6.9500 H   0  0  0  0  0
   49.7579  -18.5952   -4.7208 H   0  0  0  0  0
   47.5028  -19.5361   -8.2271 H   0  0  0  0  0
   50.1644   -9.0584   -6.8838 H   0  0  0  0  0
   49.2124  -10.4019   -7.5643 H   0  0  0  0  0
   48.3094  -20.0571   -3.3717 H   0  0  0  0  0
   46.0419  -20.9797   -6.8675 H   0  0  0  0  0
   46.4384  -21.2746   -4.4453 H   0  0  0  0  0
   51.9243  -12.6239   -8.9980 H   0  0  0  0  0
   50.2704   -9.1095   -9.2638 H   0  0  0  0  0
   51.7734   -9.4025   -8.6066 H   0  0  0  0  0
   50.8830  -10.6590   -9.2431 H   0  0  0  0  0
  1  9  1  0  0  0
 13  1  1  0  0  0
  2  3  4  0  0  0
 16  2  4  0  0  0
  3 17  4  0  0  0
 15  4  1  0  0  0
  5  6  1  0  0  0
 21  5  1  0  0  0
  6  7  4  0  0  0
  6  8  4  0  0  0
  7 10  4  0  0  0
  8 11  4  0  0  0
  9 20  1  0  0  0
 10 12  4  0  0  0
 11 12  4  0  0  0
 15 13  4  0  0  0
 18 13  4  0  0  0
 16 14  4  0  0  0
 14 18  4  0  0  0
 14 19  4  0  0  0
 19 15  4  0  0  0
 16 21  1  0  0  0
 17 18  4  0  0  0
  1 22  1  0  0  0
  1 23  1  0  0  0
  2 24  1  0  0  0
  3 25  1  0  0  0
  4 26  1  0  0  0
  4 27  1  0  0  0
  4 28  1  0  0  0
  5 29  1  0  0  0
  5 30  1  0  0  0
  7 31  1  0  0  0
  8 32  1  0  0  0
  9 33  1  0  0  0
  9 34  1  0  0  0
 10 35  1  0  0  0
 11 36  1  0  0  0
 12 37  1  0  0  0
 17 38  1  0  0  0
 20 39  1  0  0  0
 20 40  1  0  0  0
 20 41  1  0  0  0
M  END
$$$$
