1b5j_ligand
  -I-interpret- 

 65 64  0  0  0  0  0  0  0  0999 V2000
    6.9140   16.4940   15.1200 N   0  3  0  0  0
    6.4250   17.7690   14.5330 C   0  0  0  0  0
    5.1810   18.2630   15.2420 C   0  0  0  0  0
    4.4250   17.4650   15.8020 O   0  0  0  0  0
    6.2210   17.6860   13.0080 C   0  0  0  0  0
    5.2760   16.5630   12.5730 C   0  0  0  0  0
    5.1850   16.4610   11.0510 C   0  0  0  0  0
    6.4310   15.8590   10.4010 C   0  0  0  0  0
    6.6880   14.4600   10.8540 N   0  3  0  0  0
    5.0240   19.5860   15.2760 N   0  0  0  0  0
    3.8710   20.2000   15.9420 C   0  0  0  0  0
    2.5810   20.0540   15.1670 C   0  0  0  0  0
    2.4670   20.2870   13.9640 O   0  0  0  0  0
    4.1160   21.7310   16.0430 C   0  0  0  0  0
    5.3340   22.0100   16.9260 C   0  0  0  0  0
    5.3010   21.7160   18.3800 C   0  0  0  0  0
    4.3940   21.1620   18.9820 O   0  0  0  0  0
    6.3900   22.0720   19.0740 N   0  0  0  0  0
    1.5280   19.6590   15.9010 N   0  0  0  0  0
    0.2110   19.4900   15.3510 C   0  0  0  0  0
   -0.8060   20.3950   16.0690 C   0  0  0  0  0
   -1.8000   20.6880   15.3750 O   0  0  0  0  0
   -0.1970   18.0150   15.5780 C   0  0  0  0  0
   -1.6010   17.7200   15.1130 C   0  0  0  0  0
   -1.6070   17.3160   13.6490 C   0  0  0  0  0
   -3.0610   16.9250   13.2890 C   0  0  0  0  0
   -3.1060   16.9290   11.7960 N   0  3  0  0  0
   -0.6160   20.7860   17.2430 O   0  0  0  0  0
    7.7501   16.1900   14.6211 H   0  0  0  0  0
    7.1378   16.6382   16.1047 H   0  0  0  0  0
    6.1885   15.7820   15.0357 H   0  0  0  0  0
    7.2117   18.5064   14.6926 H   0  0  0  0  0
    7.1940   17.4848   12.5598 H   0  0  0  0  0
    5.7766   18.6282   12.6872 H   0  0  0  0  0
    4.2816   16.7796   12.9634 H   0  0  0  0  0
    5.6624   15.6195   12.9585 H   0  0  0  0  0
    5.0707   17.4729   10.6624 H   0  0  0  0  0
    4.3460   15.8055   10.8174 H   0  0  0  0  0
    7.2884   16.4690   10.6853 H   0  0  0  0  0
    6.2742   15.8414    9.3225 H   0  0  0  0  0
    7.5260   14.1036   10.3945 H   0  0  0  0  0
    6.8231   14.4506   11.8650 H   0  0  0  0  0
    5.8899   13.8732   10.6110 H   0  0  0  0  0
    5.7199   20.1835   14.8297 H   0  0  0  0  0
    3.7740   19.6982   16.9047 H   0  0  0  0  0
    3.2388   22.2060   16.4823 H   0  0  0  0  0
    4.2974   22.1313   15.0455 H   0  0  0  0  0
    5.4568   23.0919   16.8760 H   0  0  0  0  0
    6.1032   21.3428   16.5370 H   0  0  0  0  0
    6.4432   21.8786   20.0741 H   0  0  0  0  0
    7.1660   22.5365   18.6024 H   0  0  0  0  0
    1.6693   19.4705   16.8934 H   0  0  0  0  0
    0.2196   19.7532   14.2933 H   0  0  0  0  0
   -0.1509   17.8165   16.6488 H   0  0  0  0  0
    0.4842   17.3876   15.0032 H   0  0  0  0  0
   -2.2083   18.6171   15.2338 H   0  0  0  0  0
   -2.0041   16.8997   15.7069 H   0  0  0  0  0
   -0.9306   16.4784   13.4788 H   0  0  0  0  0
   -1.2640   18.1389   13.0219 H   0  0  0  0  0
   -3.7832   17.6208   13.7161 H   0  0  0  0  0
   -3.3297   15.9510   13.6979 H   0  0  0  0  0
   -4.0442   16.6776   11.4846 H   0  0  0  0  0
   -2.8706   17.8601   11.4524 H   0  0  0  0  0
   -2.4338   16.2521   11.4350 H   0  0  0  0  0
    0.2151   20.4309   17.5668 H   0  0  0  0  0
  2  1  1  0  0  0
  2  5  1  0  0  0
  3  2  1  0  0  0
  3  4  2  0  0  0
  5  6  1  0  0  0
  6  7  1  0  0  0
  7  8  1  0  0  0
  8  9  1  0  0  0
 11 10  1  0  0  0
 11 14  1  0  0  0
 12 11  1  0  0  0
 12 13  2  0  0  0
 14 15  1  0  0  0
 15 16  1  0  0  0
 16 18  1  0  0  0
 16 17  2  0  0  0
 10  3  1  0  0  0
 19 20  1  0  0  0
 20 23  1  0  0  0
 20 21  1  0  0  0
 21 22  2  0  0  0
 21 28  1  0  0  0
 23 24  1  0  0  0
 24 25  1  0  0  0
 25 26  1  0  0  0
 26 27  1  0  0  0
 12 19  1  0  0  0
  1 29  1  0  0  0
  1 30  1  0  0  0
  1 31  1  0  0  0
  2 32  1  0  0  0
  5 33  1  0  0  0
  5 34  1  0  0  0
  6 35  1  0  0  0
  6 36  1  0  0  0
  7 37  1  0  0  0
  7 38  1  0  0  0
  8 39  1  0  0  0
  8 40  1  0  0  0
  9 41  1  0  0  0
  9 42  1  0  0  0
  9 43  1  0  0  0
 10 44  1  0  0  0
 11 45  1  0  0  0
 14 46  1  0  0  0
 14 47  1  0  0  0
 15 48  1  0  0  0
 15 49  1  0  0  0
 18 50  1  0  0  0
 18 51  1  0  0  0
 19 52  1  0  0  0
 20 53  1  0  0  0
 23 54  1  0  0  0
 23 55  1  0  0  0
 24 56  1  0  0  0
 24 57  1  0  0  0
 25 58  1  0  0  0
 25 59  1  0  0  0
 26 60  1  0  0  0
 26 61  1  0  0  0
 27 62  1  0  0  0
 27 63  1  0  0  0
 27 64  1  0  0  0
 28 65  1  0  0  0
M  END
$$$$
