5zaf_ligand
  -I-interpret- 

 45 47  0  0  0  0  0  0  0  0999 V2000
   -0.4850   31.6850   26.4990 C   0  0  0  0  0
   -0.9980   32.7240   27.2850 C   0  0  0  0  0
   -1.7390   38.3060   24.6030 N   0  0  0  0  0
   -1.6390   37.7510   25.8020 C   0  0  0  0  0
   -1.5630   33.1070   30.8940 C   0  0  0  0  0
   -2.3460   31.8010   29.2770 C   0  0  0  0  0
   -0.3780   29.2070   26.1790 C   0  0  0  0  0
    1.0100   28.6140   25.9060 C   0  0  0  0  0
    1.7990   28.0880   28.2630 C   0  0  0  0  0
   -0.1400   33.3680   23.3120 N   0  0  0  0  0
   -0.4350   33.1710   24.6270 C   0  0  0  0  0
   -1.2230   35.8010   23.7520 O   0  0  0  0  0
   -1.2320   35.5600   24.9480 C   0  0  0  0  0
   -1.3890   36.4550   25.9320 N   0  0  0  0  0
   -1.7620   38.4400   26.8500 N   0  0  0  0  0
   -0.9570   34.1780   25.4270 C   0  0  0  0  0
   -0.2060   31.9600   25.1870 N   0  0  0  0  0
   -1.2290   33.9290   26.7270 N   0  0  0  0  0
   -1.3970   32.6460   28.7170 C   0  0  0  0  0
   -0.9330   33.4580   29.7180 C   0  0  0  0  0
   -2.4390   32.0840   30.6200 O   0  0  0  0  0
   -0.1450   30.4030   26.9880 N   0  0  0  0  0
    0.6330   30.3260   28.2510 C   0  0  0  0  0
    0.6890   28.9330   28.8770 C   0  0  0  0  0
    1.3780   27.5230   26.9120 C   0  0  0  0  0
   -1.6234   37.7353   23.7656 H   0  0  0  0  0
   -1.9316   39.3040   24.5174 H   0  0  0  0  0
   -1.3953   33.5617   31.8703 H   0  0  0  0  0
   -2.9194   31.0429   28.7435 H   0  0  0  0  0
   -1.0196   28.4948   26.6978 H   0  0  0  0  0
   -0.8964   29.4493   25.2513 H   0  0  0  0  0
    1.7443   29.4152   25.9899 H   0  0  0  0  0
    0.9997   28.1692   24.9109 H   0  0  0  0  0
    2.0164   27.2577   28.9349 H   0  0  0  0  0
    2.6766   28.7182   28.1184 H   0  0  0  0  0
   -0.3016   34.2797   22.8841 H   0  0  0  0  0
    0.2426   32.6039   22.7551 H   0  0  0  0  0
   -1.6691   37.9982   27.7646 H   0  0  0  0  0
   -0.1910   34.2483   29.6044 H   0  0  0  0  0
    0.1390   30.9793   28.9702 H   0  0  0  0  0
    1.6579   30.6098   28.0121 H   0  0  0  0  0
    0.8878   29.0417   29.9432 H   0  0  0  0  0
   -0.2637   28.4351   28.6964 H   0  0  0  0  0
    2.2204   26.9631   26.5058 H   0  0  0  0  0
    0.4968   26.9009   27.0689 H   0  0  0  0  0
  1  2  4  0  0  0
 17  1  4  0  0  0
  1 22  1  0  0  0
  2 18  4  0  0  0
  2 19  1  0  0  0
  4  3  1  0  0  0
 14  4  4  0  0  0
  4 15  2  0  0  0
  5 20  4  0  0  0
 21  5  4  0  0  0
 19  6  4  0  0  0
  6 21  4  0  0  0
  7  8  1  0  0  0
 22  7  1  0  0  0
  8 25  1  0  0  0
  9 24  1  0  0  0
 25  9  1  0  0  0
 11 10  1  0  0  0
 16 11  4  0  0  0
 11 17  4  0  0  0
 13 12  2  0  0  0
 13 14  1  0  0  0
 13 16  1  0  0  0
 16 18  4  0  0  0
 19 20  4  0  0  0
 22 23  1  0  0  0
 23 24  1  0  0  0
  3 26  1  0  0  0
  3 27  1  0  0  0
  5 28  1  0  0  0
  6 29  1  0  0  0
  7 30  1  0  0  0
  7 31  1  0  0  0
  8 32  1  0  0  0
  8 33  1  0  0  0
  9 34  1  0  0  0
  9 35  1  0  0  0
 10 36  1  0  0  0
 10 37  1  0  0  0
 15 38  1  0  0  0
 20 39  1  0  0  0
 23 40  1  0  0  0
 23 41  1  0  0  0
 24 42  1  0  0  0
 24 43  1  0  0  0
 25 44  1  0  0  0
 25 45  1  0  0  0
M  END
$$$$
