3tct_ligand
  -I-interpret- 

 27 29  0  0  0  0  0  0  0  0999 V2000
    0.6100   -1.0360    0.4330 O   0  0  0  0  0
    2.2530   -2.0740   -0.6340 O   0  0  0  0  0
   -0.0630    0.4020   -1.8210 C   0  0  0  0  0
   -0.5380    1.0350   -2.9580 C   0  0  0  0  0
   -0.0700   -0.0250  -10.4080 C   0  0  0  0  0
   -0.3970    1.1700   -8.3640 C   0  0  0  0  0
    0.3050   -1.1730   -8.3510 C   0  0  0  0  0
    1.0980   -1.2750   -3.1550 C   0  0  0  0  0
   -0.5380    0.8830   -5.4330 N   0  0  0  0  0
    0.6900   -0.9510   -5.6040 O   0  0  0  0  0
    1.2510   -1.3330   -0.6040 C   0  0  0  0  0
   -0.4150    1.1300   -9.7300 C   0  0  0  0  0
    0.2880   -1.1650   -9.7170 C   0  0  0  0  0
    0.7640   -0.7080   -1.9130 C   0  0  0  0  0
   -0.0460    0.0030   -7.6950 C   0  0  0  0  0
   -0.0030    0.0110   -6.2930 C   0  0  0  0  0
   -0.2270    0.4890   -4.1900 C   0  0  0  0  0
    0.5810   -0.6430   -4.2790 C   0  0  0  0  0
   -0.8250    2.5390  -10.6170 Cl  0  0  0  0  0
    0.6920   -2.5930  -10.5760 Cl  0  0  0  0  0
   -0.1177   -0.4539    0.2023 H   0  0  0  0  0
   -0.3435    0.7821   -0.8387 H   0  0  0  0  0
   -1.1412    1.9398   -2.8836 H   0  0  0  0  0
   -0.0809   -0.0351  -11.4979 H   0  0  0  0  0
   -0.6479    2.0809   -7.8206 H   0  0  0  0  0
    0.5834   -2.0682   -7.7950 H   0  0  0  0  0
    1.7277   -2.1614   -3.2320 H   0  0  0  0  0
 11  1  1  0  0  0
 11  2  2  0  0  0
  4  3  4  0  0  0
 14  3  4  0  0  0
 17  4  4  0  0  0
 12  5  4  0  0  0
 13  5  4  0  0  0
  6 12  4  0  0  0
 15  6  4  0  0  0
  7 13  4  0  0  0
 15  7  4  0  0  0
  8 14  4  0  0  0
 18  8  4  0  0  0
 16  9  4  0  0  0
  9 17  4  0  0  0
 16 10  4  0  0  0
 10 18  4  0  0  0
 14 11  1  0  0  0
 12 19  1  0  0  0
 13 20  1  0  0  0
 15 16  1  0  0  0
 17 18  4  0  0  0
  1 21  1  0  0  0
  3 22  1  0  0  0
  4 23  1  0  0  0
  5 24  1  0  0  0
  6 25  1  0  0  0
  7 26  1  0  0  0
  8 27  1  0  0  0
M  END
$$$$
