4f5y_ligand
  -I-interpret- 

 70 76  0  0  0  0  0  0  0  0999 V2000
   20.1830   20.0320   21.1420 P   0  0  0  0  0
   20.2840   19.4130   19.7030 O   0  0  0  0  0
   21.3250   19.4100   21.9800 O   0  0  0  0  0
   20.4060   21.5870   21.0390 O   0  0  0  0  0
   20.5490   22.2860   22.2590 C   0  0  0  0  0
   20.3920   23.7920   22.0050 C   0  0  0  0  0
   21.6050   24.2980   21.4630 O   0  0  0  0  0
   19.3170   24.2520   21.0480 C   0  0  0  0  0
   18.0990   24.3930   21.7120 O   0  0  0  0  0
   19.8460   25.5400   20.5960 C   0  0  0  0  0
   19.6720   26.5330   21.5580 O   0  0  0  0  0
   21.3170   25.2410   20.4370 C   0  0  0  0  0
   21.6050   24.8230   19.0840 N   0  0  0  0  0
   21.5310   23.5570   18.5500 C   0  0  0  0  0
   21.8790   23.5760   17.2250 N   0  0  0  0  0
   22.1960   24.9180   16.8820 C   0  0  0  0  0
   22.6320   25.6180   15.7040 C   0  0  0  0  0
   22.8260   24.9490   14.5190 O   0  0  0  0  0
   22.8650   27.0160   15.7370 N   0  0  0  0  0
   22.6790   27.7370   16.9340 C   0  0  0  0  0
   22.9280   29.1620   16.9660 N   0  0  0  0  0
   22.2620   27.0850   18.0720 N   0  0  0  0  0
   22.0140   25.7030   18.0920 C   0  0  0  0  0
   16.7080   24.0190   21.0660 P   0  0  0  0  0
   15.5990   24.6210   21.9350 O   0  0  0  0  0
   16.6210   24.5590   19.6160 O   0  0  0  0  0
   16.5660   22.4350   21.0540 O   0  0  0  0  0
   16.3500   21.7180   22.2730 C   0  0  0  0  0
   16.4500   20.2290   21.9590 C   0  0  0  0  0
   15.3440   19.7830   21.2540 O   0  0  0  0  0
   17.6210   19.9100   21.1090 C   0  0  0  0  0
   18.7660   19.7520   21.8130 O   0  0  0  0  0
   17.1650   18.5930   20.5420 C   0  0  0  0  0
   17.4230   17.4990   21.3810 O   0  0  0  0  0
   15.7210   18.8040   20.3260 C   0  0  0  0  0
   15.5670   19.2820   18.9900 N   0  0  0  0  0
   15.6910   20.5520   18.5480 C   0  0  0  0  0
   15.5040   20.6160   17.1850 N   0  0  0  0  0
   15.2560   19.3190   16.7540 C   0  0  0  0  0
   14.9710   18.6710   15.4700 C   0  0  0  0  0
   14.9220   19.4820   14.3090 O   0  0  0  0  0
   14.7600   17.3060   15.4280 N   0  0  0  0  0
   14.8160   16.5060   16.6470 C   0  0  0  0  0
   14.5960   15.0790   16.6340 N   0  0  0  0  0
   15.0770   17.1000   17.8530 N   0  0  0  0  0
   15.2990   18.4740   17.9230 C   0  0  0  0  0
   19.5883   19.7761   19.1501 H   0  0  0  0  0
   21.5355   22.0884   22.6783 H   0  0  0  0  0
   19.7842   21.9535   22.9609 H   0  0  0  0  0
   20.1090   24.1637   22.9898 H   0  0  0  0  0
   19.1134   23.5610   20.2300 H   0  0  0  0  0
   19.3541   25.9080   19.6956 H   0  0  0  0  0
   20.0290   27.3614   21.2294 H   0  0  0  0  0
   21.9721   26.1031   20.5627 H   0  0  0  0  0
   21.2370   22.6649   19.1031 H   0  0  0  0  0
   23.1680   27.5013   14.8926 H   0  0  0  0  0
   22.7945   29.6837   17.8322 H   0  0  0  0  0
   23.2370   29.6448   16.1223 H   0  0  0  0  0
   17.3228   24.1707   19.0885 H   0  0  0  0  0
   15.3680   21.9541   22.6830 H   0  0  0  0  0
   17.0959   21.9999   23.0161 H   0  0  0  0  0
   16.5316   19.7422   22.9308 H   0  0  0  0  0
   17.8693   20.6899   20.3891 H   0  0  0  0  0
   17.7051   18.3313   19.6321 H   0  0  0  0  0
   17.1090   16.6945   20.9617 H   0  0  0  0  0
   15.1151   17.9070   20.4540 H   0  0  0  0  0
   15.9095   21.4100   19.1837 H   0  0  0  0  0
   14.5631   16.8530   14.5356 H   0  0  0  0  0
   14.6377   14.5486   17.5042 H   0  0  0  0  0
   14.3989   14.6014   15.7546 H   0  0  0  0  0
  1  2  1  0  0  0
  1  3  2  0  0  0
  1  4  1  0  0  0
  1 32  1  0  0  0
  4  5  1  0  0  0
  5  6  1  0  0  0
  6  7  1  0  0  0
  6  8  1  0  0  0
  7 12  1  0  0  0
  8  9  1  0  0  0
  8 10  1  0  0  0
  9 24  1  0  0  0
 10 11  1  0  0  0
 10 12  1  0  0  0
 12 13  1  0  0  0
 13 14  4  0  0  0
 13 23  4  0  0  0
 14 15  4  0  0  0
 15 16  4  0  0  0
 16 17  1  0  0  0
 16 23  4  0  0  0
 17 18  2  0  0  0
 17 19  1  0  0  0
 19 20  1  0  0  0
 20 21  1  0  0  0
 20 22  2  0  0  0
 22 23  1  0  0  0
 24 25  2  0  0  0
 24 26  1  0  0  0
 24 27  1  0  0  0
 27 28  1  0  0  0
 28 29  1  0  0  0
 29 30  1  0  0  0
 29 31  1  0  0  0
 30 35  1  0  0  0
 31 32  1  0  0  0
 31 33  1  0  0  0
 33 34  1  0  0  0
 33 35  1  0  0  0
 35 36  1  0  0  0
 36 37  4  0  0  0
 36 46  4  0  0  0
 37 38  4  0  0  0
 38 39  4  0  0  0
 39 40  1  0  0  0
 39 46  4  0  0  0
 40 41  2  0  0  0
 40 42  1  0  0  0
 42 43  1  0  0  0
 43 44  1  0  0  0
 43 45  2  0  0  0
 45 46  1  0  0  0
  2 47  1  0  0  0
  5 48  1  0  0  0
  5 49  1  0  0  0
  6 50  1  0  0  0
  8 51  1  0  0  0
 10 52  1  0  0  0
 11 53  1  0  0  0
 12 54  1  0  0  0
 14 55  1  0  0  0
 19 56  1  0  0  0
 21 57  1  0  0  0
 21 58  1  0  0  0
 26 59  1  0  0  0
 28 60  1  0  0  0
 28 61  1  0  0  0
 29 62  1  0  0  0
 31 63  1  0  0  0
 33 64  1  0  0  0
 34 65  1  0  0  0
 35 66  1  0  0  0
 37 67  1  0  0  0
 42 68  1  0  0  0
 44 69  1  0  0  0
 44 70  1  0  0  0
M  END
$$$$
