3wgg_ligand
  -I-interpret- 

 73 77  0  0  0  0  0  0  0  0999 V2000
    4.5600   27.0870   13.9620 P   0  0  0  0  0
    3.3900   27.4530   14.8480 O   0  0  0  0  0
    5.2650   28.1460   13.1310 O   0  0  0  0  0
    4.1140   25.8390   13.0430 O   0  0  0  0  0
    3.4710   24.6600   13.5290 C   0  0  0  0  0
    2.5820   24.2390   12.3670 C   0  0  0  0  0
    2.0220   22.9480   12.5240 O   0  0  0  0  0
    1.4100   25.1930   12.2130 C   0  0  0  0  0
    1.4510   25.5890   10.8350 O   0  0  0  0  0
    0.1850   24.3160   12.5300 C   0  0  0  0  0
   -0.9310   24.6480   11.6920 O   0  0  0  0  0
    0.6720   22.9620   12.0970 C   0  0  0  0  0
    0.0610   21.8390   12.8020 N   0  0  0  0  0
   -0.3780   21.7610   14.0780 C   0  0  0  0  0
   -0.7910   20.4850   14.2890 N   0  0  0  0  0
   -0.6230   19.8040   13.1260 C   0  0  0  0  0
   -0.8760   18.5070   12.7050 C   0  0  0  0  0
   -1.4150   17.5960   13.5430 N   0  0  0  0  0
   -0.5890   18.1590   11.4450 N   0  0  0  0  0
   -0.0870   19.0270   10.5480 C   0  0  0  0  0
    0.1350   20.2850   10.9050 N   0  0  0  0  0
   -0.1100   20.6790   12.1820 C   0  0  0  0  0
    5.7020   26.4300   14.9370 O   0  0  0  0  0
    7.2040   26.1690   14.3920 P   0  0  0  0  0
    8.0430   27.3780   14.6710 O   0  0  0  0  0
    7.1650   25.6980   12.9520 O   0  0  0  0  0
    7.7510   25.0170   15.3960 O   0  0  0  0  0
    7.3120   23.6450   15.3930 C   0  0  0  0  0
    7.9270   22.8810   16.5820 C   0  0  0  0  0
    9.2210   23.4390   16.9080 O   0  0  0  0  0
    7.1420   22.9610   17.8750 C   0  0  0  0  0
    7.3620   21.7410   18.6270 O   0  0  0  0  0
    7.8180   24.0800   18.6400 C   0  0  0  0  0
    7.6730   23.7370   20.0050 O   0  0  0  0  0
    9.2850   24.0730   18.1900 C   0  0  0  0  0
   10.2200   23.2390   19.0140 N   0  0  0  0  0
   10.7690   23.7590   20.1690 C   0  0  0  0  0
   11.6230   23.0850   20.9670 C   0  0  0  0  0
   12.1170   23.7540   22.1780 C   0  0  0  0  0
   11.5920   24.7900   22.5790 O   0  0  0  0  0
   13.1710   23.2050   22.7830 N   0  0  0  0  0
   12.0760   21.6830   20.6000 C   0  0  0  0  0
   11.4570   21.2280   19.2870 C   0  0  0  0  0
   10.6020   21.9830   18.5780 C   0  0  0  0  0
    5.9781   27.7387   12.6338 H   0  0  0  0  0
    2.9072   24.8376   14.4448 H   0  0  0  0  0
    4.1806   23.8840   13.8161 H   0  0  0  0  0
    3.2385   24.2471   11.4969 H   0  0  0  0  0
    1.4057   26.0822   12.8434 H   0  0  0  0  0
    2.2277   26.1321   10.6823 H   0  0  0  0  0
   -0.1431   24.4120   13.5650 H   0  0  0  0  0
   -1.6757   24.0847   11.9148 H   0  0  0  0  0
    0.4631   22.8411   11.0341 H   0  0  0  0  0
   -0.3970   22.5735   14.8044 H   0  0  0  0  0
   -1.6427   17.8573   14.5023 H   0  0  0  0  0
   -1.5945   16.6464   13.2168 H   0  0  0  0  0
    0.1361   18.6981    9.5330 H   0  0  0  0  0
    6.6028   24.9227   12.8852 H   0  0  0  0  0
    7.6312   23.1723   14.4642 H   0  0  0  0  0
    6.2257   23.6198   15.4787 H   0  0  0  0  0
    7.9521   21.8459   16.2412 H   0  0  0  0  0
    6.0745   23.1097   17.7123 H   0  0  0  0  0
    6.8688   21.7802   19.4497 H   0  0  0  0  0
    7.4068   25.0754   18.4719 H   0  0  0  0  0
    8.0843   24.4126   20.5490 H   0  0  0  0  0
    9.6711   25.0909   18.2440 H   0  0  0  0  0
   10.4961   24.7753   20.4534 H   0  0  0  0  0
   13.5709   23.6464   23.6110 H   0  0  0  0  0
   13.5773   22.3436   22.4177 H   0  0  0  0  0
   11.7603   20.9990   21.3878 H   0  0  0  0  0
   13.1604   21.6865   20.4895 H   0  0  0  0  0
   11.7199   20.2422   18.9033 H   0  0  0  0  0
   10.2011   21.5984   17.6402 H   0  0  0  0  0
  1  2  2  0  0  0
  1  3  1  0  0  0
  1  4  1  0  0  0
  1 23  1  0  0  0
  4  5  1  0  0  0
  5  6  1  0  0  0
  6  7  1  0  0  0
  6  8  1  0  0  0
  7 12  1  0  0  0
  8  9  1  0  0  0
  8 10  1  0  0  0
 10 11  1  0  0  0
 10 12  1  0  0  0
 12 13  1  0  0  0
 13 14  4  0  0  0
 13 22  4  0  0  0
 14 15  4  0  0  0
 15 16  4  0  0  0
 16 17  4  0  0  0
 16 22  4  0  0  0
 17 18  1  0  0  0
 17 19  4  0  0  0
 19 20  4  0  0  0
 20 21  4  0  0  0
 21 22  4  0  0  0
 23 24  1  0  0  0
 24 25  2  0  0  0
 24 26  1  0  0  0
 24 27  1  0  0  0
 27 28  1  0  0  0
 28 29  1  0  0  0
 29 30  1  0  0  0
 29 31  1  0  0  0
 30 35  1  0  0  0
 31 32  1  0  0  0
 31 33  1  0  0  0
 33 34  1  0  0  0
 33 35  1  0  0  0
 35 36  1  0  0  0
 36 37  1  0  0  0
 36 44  1  0  0  0
 37 38  2  0  0  0
 38 39  1  0  0  0
 38 42  1  0  0  0
 39 40  2  0  0  0
 39 41  1  0  0  0
 42 43  1  0  0  0
 43 44  2  0  0  0
  3 45  1  0  0  0
  5 46  1  0  0  0
  5 47  1  0  0  0
  6 48  1  0  0  0
  8 49  1  0  0  0
  9 50  1  0  0  0
 10 51  1  0  0  0
 11 52  1  0  0  0
 12 53  1  0  0  0
 14 54  1  0  0  0
 18 55  1  0  0  0
 18 56  1  0  0  0
 20 57  1  0  0  0
 26 58  1  0  0  0
 28 59  1  0  0  0
 28 60  1  0  0  0
 29 61  1  0  0  0
 31 62  1  0  0  0
 32 63  1  0  0  0
 33 64  1  0  0  0
 34 65  1  0  0  0
 35 66  1  0  0  0
 37 67  1  0  0  0
 41 68  1  0  0  0
 41 69  1  0  0  0
 42 70  1  0  0  0
 42 71  1  0  0  0
 43 72  1  0  0  0
 44 73  1  0  0  0
M  END
$$$$
