2y6s_ligand
  -I-interpret- 

220219  0  0  0  0  0  0  0  0999 V2000
   43.4920  -40.3900   18.7580 N   0  3  0  0  0
   43.9360  -39.9710   20.0820 C   0  0  0  0  0
   45.3900  -39.5230   20.0380 C   0  0  0  0  0
   45.8050  -38.8290   19.1100 O   0  0  0  0  0
   43.7830  -41.1170   21.0830 C   0  0  0  0  0
   42.3950  -41.7240   21.1170 C   0  0  0  0  0
   42.3480  -42.9620   21.9960 C   0  0  0  0  0
   40.9650  -43.5960   21.9810 C   0  0  0  0  0
   40.9180  -44.8360   22.8050 N   0  3  0  0  0
   46.1490  -39.9280   21.0540 N   0  0  0  0  0
   47.5890  -39.6780   21.1380 C   0  0  0  0  0
   48.0310  -38.3690   20.4800 C   0  0  0  0  0
   48.0890  -37.3280   21.1340 O   0  0  0  0  0
   48.3660  -40.8640   20.5580 C   0  0  0  0  0
   47.9700  -42.2300   21.1280 C   0  0  0  0  0
   48.7840  -43.3500   20.4920 C   0  0  0  0  0
   48.1180  -42.2470   22.6440 C   0  0  0  0  0
   48.3510  -38.4330   19.1900 N   0  0  0  0  0
   48.7350  -37.2520   18.4360 C   0  0  0  0  0
   47.6660  -36.1750   18.4730 C   0  0  0  0  0
   46.6640  -36.2510   17.7590 O   0  0  0  0  0
   47.8830  -35.1680   19.3130 N   0  0  0  0  0
   46.9250  -34.0860   19.4910 C   0  0  0  0  0
   47.6680  -32.7750   19.6970 C   0  0  0  0  0
   48.5030  -32.6620   20.5960 O   0  0  0  0  0
   46.0200  -34.3670   20.6900 C   0  0  0  0  0
   45.1000  -33.2290   21.1330 C   0  0  0  0  0
   44.1510  -32.8380   20.0140 C   0  0  0  0  0
   44.3230  -33.6240   22.3780 C   0  0  0  0  0
   47.3620  -31.7840   18.8650 N   0  0  0  0  0
   48.0930  -30.5210   18.8930 C   0  0  0  0  0
   47.5530  -29.5770   19.9660 C   0  0  0  0  0
   46.4200  -29.1030   19.8840 O   0  0  0  0  0
   48.0900  -29.8430   17.5150 C   0  0  0  0  0
   48.5970  -30.8260   16.4550 C   0  0  0  0  0
   48.9460  -28.5890   17.5380 C   0  0  0  0  0
   48.7420  -30.2250   15.0780 C   0  0  0  0  0
   48.3810  -29.3030   20.9690 N   0  0  0  0  0
   47.9240  -28.6150   22.1690 C   0  0  0  0  0
   48.5310  -27.2270   22.3480 C   0  0  0  0  0
   48.9460  -26.8630   23.4480 O   0  0  0  0  0
   48.2330  -29.4500   23.4220 C   0  0  0  0  0
   49.6390  -29.7300   23.4740 O   0  0  0  0  0
   47.4630  -30.7610   23.3880 C   0  0  0  0  0
   48.5740  -26.4500   21.2730 N   0  0  0  0  0
   49.0870  -25.0880   21.3530 C   0  0  0  0  0
   48.1500  -24.1630   22.1190 C   0  0  0  0  0
   48.5780  -23.4530   23.0290 O   0  0  0  0  0
   49.3670  -24.5280   19.9580 C   0  0  0  0  0
   50.5630  -25.1860   19.2990 C   0  0  0  0  0
   50.4600  -25.7270   18.2000 O   0  0  0  0  0
   51.7100  -25.1430   19.9720 N   0  0  0  0  0
   46.8700  -24.1790   21.7580 N   0  0  0  0  0
   45.9000  -23.3060   22.4120 C   0  0  0  0  0
   44.7680  -24.0670   23.1010 C   0  0  0  0  0
   43.8050  -23.4650   23.5670 O   0  0  0  0  0
   45.3080  -22.2740   21.4360 C   0  0  0  0  0
   44.5390  -22.9490   20.4400 O   0  0  0  0  0
   46.4130  -21.4850   20.7590 C   0  0  0  0  0
   44.8850  -25.3890   23.1640 N   0  0  0  0  0
   43.9790  -26.1910   23.9880 C   0  0  0  0  0
   44.7710  -27.1970   24.8160 C   0  0  0  0  0
   45.9320  -27.4760   24.5180 O   0  0  0  0  0
   42.9290  -26.9440   23.1510 C   0  0  0  0  0
   43.6060  -27.9830   22.2570 C   0  0  0  0  0
   42.0990  -25.9750   22.3300 C   0  0  0  0  0
   42.6350  -28.8930   21.5390 C   0  0  0  0  0
   44.1440  -27.7350   25.8570 N   0  0  0  0  0
   44.8010  -28.7160   26.7160 C   0  0  0  0  0
   44.4430  -30.1270   26.2820 C   0  0  0  0  0
   45.2720  -31.0340   26.3330 O   0  0  0  0  0
   44.4200  -28.4960   28.1710 C   0  0  0  0  0
   43.1960  -30.3040   25.8580 N   0  0  0  0  0
   42.7220  -31.5880   25.3800 C   0  0  0  0  0
   41.3660  -31.4440   24.7240 C   0  0  0  0  0
   40.9190  -30.3300   24.4500 O   0  0  0  0  0
   40.7090  -32.5670   24.4620 N   0  0  0  0  0
   39.3640  -32.5220   23.9080 C   0  0  0  0  0
   38.4200  -31.9860   24.9700 C   0  0  0  0  0
   38.7070  -32.0680   26.1650 O   0  0  0  0  0
   38.8820  -33.9060   23.4440 C   0  0  0  0  0
   39.8570  -34.4910   22.4330 C   0  0  0  0  0
   38.7040  -34.8380   24.6380 C   0  0  0  0  0
   37.3000  -31.4270   24.5290 N   0  0  0  0  0
   36.3200  -30.8640   25.4460 C   0  0  0  0  0
   35.4150  -31.9540   26.0150 C   0  0  0  0  0
   34.9090  -31.8290   27.1310 O   0  0  0  0  0
   35.5030  -29.7920   24.7500 C   0  0  0  0  0
   35.2210  -33.0210   25.2430 N   0  0  0  0  0
   34.4530  -34.1690   25.6920 C   0  0  0  0  0
   35.1290  -34.8750   26.8530 C   0  0  0  0  0
   35.7800  -35.9070   26.6720 O   0  0  0  0  0
   34.9640  -34.3040   28.0450 N   0  0  0  0  0
   35.5840  -34.7980   29.2750 C   0  0  0  0  0
   37.0590  -34.4140   29.3650 C   0  0  0  0  0
   37.3940  -33.2790   29.7110 O   0  0  0  0  0
   35.4100  -36.3140   29.4150 C   0  0  0  0  0
   33.9690  -36.8250   29.3350 C   0  0  0  0  0
   33.9330  -38.3410   29.4530 C   0  0  0  0  0
   33.0990  -36.1730   30.4030 C   0  0  0  0  0
   37.9433  -35.2660   29.0827 O   0  0  0  0  0
   43.6005  -39.6153   18.1034 H   0  0  0  0  0
   44.0552  -41.1813   18.4465 H   0  0  0  0  0
   42.5108  -40.6654   18.8011 H   0  0  0  0  0
   43.3150  -39.1338   20.4005 H   0  0  0  0  0
   43.9822  -40.7095   22.0741 H   0  0  0  0  0
   44.4732  -41.9047   20.7809 H   0  0  0  0  0
   42.1196  -42.0113   20.1022 H   0  0  0  0  0
   41.7057  -40.9850   21.5255 H   0  0  0  0  0
   42.5861  -42.6712   23.0192 H   0  0  0  0  0
   43.0670  -43.6869   21.6143 H   0  0  0  0  0
   40.7186  -43.8580   20.9521 H   0  0  0  0  0
   40.2550  -42.8808   22.3962 H   0  0  0  0  0
   39.9780  -45.2305   22.7702 H   0  0  0  0  0
   41.5861  -45.5131   22.4367 H   0  0  0  0  0
   41.1578  -44.6105   23.7704 H   0  0  0  0  0
   45.7031  -40.4402   21.8151 H   0  0  0  0  0
   47.8186  -39.5684   22.1979 H   0  0  0  0  0
   49.4154  -40.7083   20.8081 H   0  0  0  0  0
   48.1511  -40.8919   19.4897 H   0  0  0  0  0
   46.9212  -42.4012   20.8855 H   0  0  0  0  0
   48.6100  -43.3580   19.4160 H   0  0  0  0  0
   49.8432  -43.1845   20.6888 H   0  0  0  0  0
   48.4791  -44.3059   20.9178 H   0  0  0  0  0
   49.1554  -42.0424   22.9088 H   0  0  0  0  0
   47.4732  -41.4836   23.0793 H   0  0  0  0  0
   47.8310  -43.2272   23.0248 H   0  0  0  0  0
   48.3260  -39.3365   18.7173 H   0  0  0  0  0
   48.8836  -37.5466   17.3971 H   0  0  0  0  0
   49.6421  -36.8448   18.8826 H   0  0  0  0  0
   48.7495  -35.1527   19.8509 H   0  0  0  0  0
   46.3044  -34.0132   18.5979 H   0  0  0  0  0
   46.6855  -34.5615   21.5311 H   0  0  0  0  0
   45.3649  -35.1842   20.3883 H   0  0  0  0  0
   45.7189  -32.3645   21.3732 H   0  0  0  0  0
   44.7271  -32.5092   19.1491 H   0  0  0  0  0
   43.5405  -33.6984   19.7398 H   0  0  0  0  0
   43.5066  -32.0268   20.3527 H   0  0  0  0  0
   43.7181  -34.5049   22.1630 H   0  0  0  0  0
   45.0211  -33.8490   23.1843 H   0  0  0  0  0
   43.6745  -32.8004   22.6765 H   0  0  0  0  0
   46.6029  -31.9086   18.1952 H   0  0  0  0  0
   49.1258  -30.7550   19.1513 H   0  0  0  0  0
   47.0704  -29.5504   17.2643 H   0  0  0  0  0
   47.8630  -31.6285   16.3814 H   0  0  0  0  0
   49.5870  -31.1569   16.7688 H   0  0  0  0  0
   48.5488  -27.8930   18.2768 H   0  0  0  0  0
   49.9700  -28.8544   17.8007 H   0  0  0  0  0
   48.9315  -28.1226   16.5529 H   0  0  0  0  0
   47.7732  -29.8579   14.7393 H   0  0  0  0  0
   49.4519  -29.3987   15.1165 H   0  0  0  0  0
   49.1053  -30.9859   14.3873 H   0  0  0  0  0
   49.3597  -29.5811   20.8968 H   0  0  0  0  0
   46.8487  -28.4906   22.0409 H   0  0  0  0  0
   47.9328  -28.8842   24.3040 H   0  0  0  0  0
   49.8316  -30.2515   24.2567 H   0  0  0  0  0
   46.3937  -30.5521   23.3545 H   0  0  0  0  0
   47.7517  -31.3276   22.5028 H   0  0  0  0  0
   47.6936  -31.3396   24.2825 H   0  0  0  0  0
   48.2434  -26.8110   20.3781 H   0  0  0  0  0
   50.0240  -25.1347   21.9080 H   0  0  0  0  0
   49.5812  -23.4640   20.0590 H   0  0  0  0  0
   48.4923  -24.7196   19.3364 H   0  0  0  0  0
   52.5486  -25.5697   19.5783 H   0  0  0  0  0
   51.7506  -24.6833   20.8817 H   0  0  0  0  0
   46.5629  -24.8081   21.0162 H   0  0  0  0  0
   46.4645  -22.7850   23.1853 H   0  0  0  0  0
   44.6748  -21.5870   21.9975 H   0  0  0  0  0
   44.1699  -22.3049   19.8313 H   0  0  0  0  0
   46.9995  -20.9620   21.5144 H   0  0  0  0  0
   47.0576  -22.1672   20.2047 H   0  0  0  0  0
   45.9730  -20.7610   20.0732 H   0  0  0  0  0
   45.6189  -25.8532   22.6289 H   0  0  0  0  0
   43.4509  -25.4954   24.6402 H   0  0  0  0  0
   42.2552  -27.4666   23.8300 H   0  0  0  0  0
   44.2265  -28.6094   22.8979 H   0  0  0  0  0
   44.1682  -27.4414   21.4963 H   0  0  0  0  0
   41.5864  -25.2819   22.9971 H   0  0  0  0  0
   42.7520  -25.4184   21.6577 H   0  0  0  0  0
   41.3644  -26.5309   21.7474 H   0  0  0  0  0
   42.0372  -29.4349   22.2718 H   0  0  0  0  0
   41.9804  -28.2955   20.9045 H   0  0  0  0  0
   43.1900  -29.6022   20.9249 H   0  0  0  0  0
   43.1839  -27.4568   26.0601 H   0  0  0  0  0
   45.8791  -28.5867   26.6202 H   0  0  0  0  0
   44.7265  -27.4961   28.4783 H   0  0  0  0  0
   43.3403  -28.5966   28.2817 H   0  0  0  0  0
   44.9210  -29.2381   28.7926 H   0  0  0  0  0
   42.5528  -29.5124   25.8692 H   0  0  0  0  0
   42.6346  -32.2697   26.2260 H   0  0  0  0  0
   43.4297  -31.9754   24.6471 H   0  0  0  0  0
   41.1496  -33.4675   24.6502 H   0  0  0  0  0
   39.3763  -31.8719   23.0332 H   0  0  0  0  0
   37.9127  -33.7958   22.9577 H   0  0  0  0  0
   39.9246  -33.8286   21.5700 H   0  0  0  0  0
   40.8397  -34.5910   22.8938 H   0  0  0  0  0
   39.5026  -35.4710   22.1135 H   0  0  0  0  0
   39.6568  -34.9495   25.1555 H   0  0  0  0  0
   37.9659  -34.4158   25.3200 H   0  0  0  0  0
   38.3624  -35.8125   24.2889 H   0  0  0  0  0
   37.1221  -31.3912   23.5253 H   0  0  0  0  0
   36.8528  -30.4056   26.2791 H   0  0  0  0  0
   36.1658  -28.9983   24.4053 H   0  0  0  0  0
   34.9835  -30.2292   23.8973 H   0  0  0  0  0
   34.7747  -29.3809   25.4490 H   0  0  0  0  0
   35.6246  -33.0327   24.3063 H   0  0  0  0  0
   34.3691  -34.8722   24.8634 H   0  0  0  0  0
   33.4750  -33.8203   26.0237 H   0  0  0  0  0
   34.3720  -33.4755   28.1038 H   0  0  0  0  0
   35.0680  -34.3164   30.1056 H   0  0  0  0  0
   35.7770  -36.5772   30.4070 H   0  0  0  0  0
   35.9451  -36.7653   28.5795 H   0  0  0  0  0
   33.5628  -36.5495   28.3618 H   0  0  0  0  0
   34.5107  -38.7812   28.6403 H   0  0  0  0  0
   34.3624  -38.6400   30.4092 H   0  0  0  0  0
   32.9002  -38.6843   29.3938 H   0  0  0  0  0
   33.4997  -36.4074   31.3892 H   0  0  0  0  0
   33.0963  -35.0927   30.2579 H   0  0  0  0  0
   32.0810  -36.5542   30.3230 H   0  0  0  0  0
   37.5223  -36.0922   28.8343 H   0  0  0  0  0
  1  2  1  0  0  0
  2  3  1  0  0  0
  2  5  1  0  0  0
  3  4  2  0  0  0
  3 10  1  0  0  0
  5  6  1  0  0  0
  6  7  1  0  0  0
  7  8  1  0  0  0
  8  9  1  0  0  0
 10 11  1  0  0  0
 11 12  1  0  0  0
 11 14  1  0  0  0
 12 13  2  0  0  0
 12 18  1  0  0  0
 14 15  1  0  0  0
 15 16  1  0  0  0
 15 17  1  0  0  0
 18 19  1  0  0  0
 19 20  1  0  0  0
 20 21  2  0  0  0
 20 22  1  0  0  0
 22 23  1  0  0  0
 23 24  1  0  0  0
 23 26  1  0  0  0
 24 25  2  0  0  0
 24 30  1  0  0  0
 26 27  1  0  0  0
 27 28  1  0  0  0
 27 29  1  0  0  0
 30 31  1  0  0  0
 31 32  1  0  0  0
 31 34  1  0  0  0
 32 33  2  0  0  0
 32 38  1  0  0  0
 34 35  1  0  0  0
 34 36  1  0  0  0
 35 37  1  0  0  0
 38 39  1  0  0  0
 39 40  1  0  0  0
 39 42  1  0  0  0
 40 41  2  0  0  0
 40 45  1  0  0  0
 42 43  1  0  0  0
 42 44  1  0  0  0
 45 46  1  0  0  0
 46 47  1  0  0  0
 46 49  1  0  0  0
 47 48  2  0  0  0
 47 53  1  0  0  0
 49 50  1  0  0  0
 50 51  2  0  0  0
 50 52  1  0  0  0
 53 54  1  0  0  0
 54 55  1  0  0  0
 54 57  1  0  0  0
 55 56  2  0  0  0
 55 60  1  0  0  0
 57 58  1  0  0  0
 57 59  1  0  0  0
 60 61  1  0  0  0
 61 62  1  0  0  0
 61 64  1  0  0  0
 62 63  2  0  0  0
 62 68  1  0  0  0
 64 65  1  0  0  0
 64 66  1  0  0  0
 65 67  1  0  0  0
 68 69  1  0  0  0
 69 70  1  0  0  0
 69 72  1  0  0  0
 70 71  2  0  0  0
 70 73  1  0  0  0
 73 74  1  0  0  0
 74 75  1  0  0  0
 75 76  2  0  0  0
 75 77  1  0  0  0
 77 78  1  0  0  0
 78 79  1  0  0  0
 78 81  1  0  0  0
 79 80  2  0  0  0
 79 84  1  0  0  0
 81 82  1  0  0  0
 81 83  1  0  0  0
 84 85  1  0  0  0
 85 86  1  0  0  0
 85 88  1  0  0  0
 86 87  2  0  0  0
 86 89  1  0  0  0
 89 90  1  0  0  0
 90 91  1  0  0  0
 91 92  2  0  0  0
 91 93  1  0  0  0
 93 94  1  0  0  0
 94 95  1  0  0  0
 94 97  1  0  0  0
 95 96  2  0  0  0
 97 98  1  0  0  0
 98 99  1  0  0  0
 98100  1  0  0  0
 95101  1  0  0  0
  1102  1  0  0  0
  1103  1  0  0  0
  1104  1  0  0  0
  2105  1  0  0  0
  5106  1  0  0  0
  5107  1  0  0  0
  6108  1  0  0  0
  6109  1  0  0  0
  7110  1  0  0  0
  7111  1  0  0  0
  8112  1  0  0  0
  8113  1  0  0  0
  9114  1  0  0  0
  9115  1  0  0  0
  9116  1  0  0  0
 10117  1  0  0  0
 11118  1  0  0  0
 14119  1  0  0  0
 14120  1  0  0  0
 15121  1  0  0  0
 16122  1  0  0  0
 16123  1  0  0  0
 16124  1  0  0  0
 17125  1  0  0  0
 17126  1  0  0  0
 17127  1  0  0  0
 18128  1  0  0  0
 19129  1  0  0  0
 19130  1  0  0  0
 22131  1  0  0  0
 23132  1  0  0  0
 26133  1  0  0  0
 26134  1  0  0  0
 27135  1  0  0  0
 28136  1  0  0  0
 28137  1  0  0  0
 28138  1  0  0  0
 29139  1  0  0  0
 29140  1  0  0  0
 29141  1  0  0  0
 30142  1  0  0  0
 31143  1  0  0  0
 34144  1  0  0  0
 35145  1  0  0  0
 35146  1  0  0  0
 36147  1  0  0  0
 36148  1  0  0  0
 36149  1  0  0  0
 37150  1  0  0  0
 37151  1  0  0  0
 37152  1  0  0  0
 38153  1  0  0  0
 39154  1  0  0  0
 42155  1  0  0  0
 43156  1  0  0  0
 44157  1  0  0  0
 44158  1  0  0  0
 44159  1  0  0  0
 45160  1  0  0  0
 46161  1  0  0  0
 49162  1  0  0  0
 49163  1  0  0  0
 52164  1  0  0  0
 52165  1  0  0  0
 53166  1  0  0  0
 54167  1  0  0  0
 57168  1  0  0  0
 58169  1  0  0  0
 59170  1  0  0  0
 59171  1  0  0  0
 59172  1  0  0  0
 60173  1  0  0  0
 61174  1  0  0  0
 64175  1  0  0  0
 65176  1  0  0  0
 65177  1  0  0  0
 66178  1  0  0  0
 66179  1  0  0  0
 66180  1  0  0  0
 67181  1  0  0  0
 67182  1  0  0  0
 67183  1  0  0  0
 68184  1  0  0  0
 69185  1  0  0  0
 72186  1  0  0  0
 72187  1  0  0  0
 72188  1  0  0  0
 73189  1  0  0  0
 74190  1  0  0  0
 74191  1  0  0  0
 77192  1  0  0  0
 78193  1  0  0  0
 81194  1  0  0  0
 82195  1  0  0  0
 82196  1  0  0  0
 82197  1  0  0  0
 83198  1  0  0  0
 83199  1  0  0  0
 83200  1  0  0  0
 84201  1  0  0  0
 85202  1  0  0  0
 88203  1  0  0  0
 88204  1  0  0  0
 88205  1  0  0  0
 89206  1  0  0  0
 90207  1  0  0  0
 90208  1  0  0  0
 93209  1  0  0  0
 94210  1  0  0  0
 97211  1  0  0  0
 97212  1  0  0  0
 98213  1  0  0  0
 99214  1  0  0  0
 99215  1  0  0  0
 99216  1  0  0  0
100217  1  0  0  0
100218  1  0  0  0
100219  1  0  0  0
101220  1  0  0  0
M  END
$$$$
