### 
### Created by X-TOOL on Mon Sep 10 21:13:11 2018
### 

@<TRIPOS>MOLECULE
2y6s_ligand
  219   218     1     0     0
SMALL
GAST_HUCK


@<TRIPOS>ATOM
      1 N          43.4920  -40.3900   18.7580 N.4       1 LYS         0.2379
      2 CA         43.9360  -39.9710   20.0820 C.3       1 LYS         0.0650
      3 C          45.3900  -39.5230   20.0380 C.2       1 LYS         0.2267
      4 O          45.8050  -38.8290   19.1100 O.2       1 LYS        -0.3907
      5 CB         43.7830  -41.1170   21.0830 C.3       1 LYS         0.0080
      6 CG         42.3950  -41.7240   21.1170 C.3       1 LYS        -0.0410
      7 CD         42.3480  -42.9620   21.9960 C.3       1 LYS        -0.0123
      8 CE         40.9650  -43.5960   21.9810 C.3       1 LYS        -0.0354
      9 NZ         40.9180  -44.8360   22.8050 N.4       1 LYS         0.2185
     10 N          46.1490  -39.9280   21.0540 N.am      1 LEU        -0.2610
     11 CA         47.5890  -39.6780   21.1380 C.3       1 LEU         0.1313
     12 C          48.0310  -38.3690   20.4800 C.2       1 LEU         0.2037
     13 O          48.0890  -37.3280   21.1340 O.2       1 LEU        -0.3944
     14 CB         48.3660  -40.8640   20.5580 C.3       1 LEU        -0.0101
     15 CG         47.9700  -42.2300   21.1280 C.3       1 LEU        -0.0425
     16 CD1        48.7840  -43.3500   20.4920 C.3       1 LEU        -0.0625
     17 CD2        48.1180  -42.2470   22.6440 C.3       1 LEU        -0.0625
     18 N          48.3510  -38.4330   19.1900 N.am      1 GLY        -0.2664
     19 CA         48.7350  -37.2520   18.4360 C.3       1 GLY         0.1201
     20 C          47.6660  -36.1750   18.4730 C.2       1 GLY         0.2007
     21 O          46.6640  -36.2510   17.7590 O.2       1 GLY        -0.3947
     22 N          47.8830  -35.1680   19.3130 N.am      1 LEU        -0.2640
     23 CA         46.9250  -34.0860   19.4910 C.3       1 LEU         0.1312
     24 C          47.6680  -32.7750   19.6970 C.2       1 LEU         0.2039
     25 O          48.5030  -32.6620   20.5960 O.2       1 LEU        -0.3944
     26 CB         46.0200  -34.3670   20.6900 C.3       1 LEU        -0.0101
     27 CG         45.1000  -33.2290   21.1330 C.3       1 LEU        -0.0425
     28 CD1        44.1510  -32.8380   20.0140 C.3       1 LEU        -0.0625
     29 CD2        44.3230  -33.6240   22.3780 C.3       1 LEU        -0.0625
     30 N          47.3620  -31.7840   18.8650 N.am      1 ILE        -0.2635
     31 CA         48.0930  -30.5210   18.8930 C.3       1 ILE         0.1335
     32 C          47.5530  -29.5770   19.9660 C.2       1 ILE         0.2042
     33 O          46.4200  -29.1030   19.8840 O.2       1 ILE        -0.3944
     34 CB         48.0900  -29.8430   17.5150 C.3       1 ILE        -0.0037
     35 CG1        48.5970  -30.8260   16.4550 C.3       1 ILE        -0.0491
     36 CG2        48.9460  -28.5890   17.5380 C.3       1 ILE        -0.0582
     37 CD1        48.7420  -30.2250   15.0780 C.3       1 ILE        -0.0648
     38 N          48.3810  -29.3030   20.9690 N.am      1 THR        -0.2613
     39 CA         47.9240  -28.6150   22.1690 C.3       1 THR         0.1565
     40 C          48.5310  -27.2270   22.3480 C.2       1 THR         0.2066
     41 O          48.9460  -26.8630   23.4480 O.2       1 THR        -0.3943
     42 CB         48.2330  -29.4500   23.4220 C.3       1 THR         0.0924
     43 OG1        49.6390  -29.7300   23.4740 O.3       1 THR        -0.3874
     44 CG2        47.4630  -30.7610   23.3880 C.3       1 THR        -0.0346
     45 N          48.5740  -26.4500   21.2730 N.am      1 ASN        -0.2615
     46 CA         49.0870  -25.0880   21.3530 C.3       1 ASN         0.1476
     47 C          48.1500  -24.1630   22.1190 C.2       1 ASN         0.2063
     48 O          48.5780  -23.4530   23.0290 O.2       1 ASN        -0.3942
     49 CB         49.3670  -24.5280   19.9580 C.3       1 ASN         0.0773
     50 CG         50.5630  -25.1860   19.2990 C.2       1 ASN         0.1780
     51 OD1        50.4600  -25.7270   18.2000 O.2       1 ASN        -0.3970
     52 ND2        51.7100  -25.1430   19.9720 N.am      1 ASN        -0.3007
     53 N          46.8700  -24.1790   21.7580 N.am      1 THR        -0.2612
     54 CA         45.9000  -23.3060   22.4120 C.3       1 THR         0.1565
     55 C          44.7680  -24.0670   23.1010 C.2       1 THR         0.2065
     56 O          43.8050  -23.4650   23.5670 O.2       1 THR        -0.3943
     57 CB         45.3080  -22.2740   21.4360 C.3       1 THR         0.0924
     58 OG1        44.5390  -22.9490   20.4400 O.3       1 THR        -0.3874
     59 CG2        46.4130  -21.4850   20.7590 C.3       1 THR        -0.0346
     60 N          44.8850  -25.3890   23.1640 N.am      1 ILE        -0.2634
     61 CA         43.9790  -26.1910   23.9880 C.3       1 ILE         0.1335
     62 C          44.7710  -27.1970   24.8160 C.2       1 ILE         0.2041
     63 O          45.9320  -27.4760   24.5180 O.2       1 ILE        -0.3944
     64 CB         42.9290  -26.9440   23.1510 C.3       1 ILE        -0.0037
     65 CG1        43.6060  -27.9830   22.2570 C.3       1 ILE        -0.0491
     66 CG2        42.0990  -25.9750   22.3300 C.3       1 ILE        -0.0582
     67 CD1        42.6350  -28.8930   21.5390 C.3       1 ILE        -0.0648
     68 N          44.1440  -27.7350   25.8570 N.am      1 ALA        -0.2640
     69 CA         44.8010  -28.7160   26.7160 C.3       1 ALA         0.1282
     70 C          44.4430  -30.1270   26.2820 C.2       1 ALA         0.2034
     71 O          45.2720  -31.0340   26.3330 O.2       1 ALA        -0.3944
     72 CB         44.4200  -28.4960   28.1710 C.3       1 ALA        -0.0244
     73 N          43.1960  -30.3040   25.8580 N.am      1 GLY        -0.2664
     74 CA         42.7220  -31.5880   25.3800 C.3       1 GLY         0.1201
     75 C          41.3660  -31.4440   24.7240 C.2       1 GLY         0.2008
     76 O          40.9190  -30.3300   24.4500 O.2       1 GLY        -0.3947
     77 N          40.7090  -32.5670   24.4620 N.am      1 VAL        -0.2637
     78 CA         39.3640  -32.5220   23.9080 C.3       1 VAL         0.1332
     79 C          38.4200  -31.9860   24.9700 C.2       1 VAL         0.2041
     80 O          38.7070  -32.0680   26.1650 O.2       1 VAL        -0.3944
     81 CB         38.8820  -33.9060   23.4440 C.3       1 VAL        -0.0063
     82 CG1        39.8570  -34.4910   22.4330 C.3       1 VAL        -0.0584
     83 CG2        38.7040  -34.8380   24.6380 C.3       1 VAL        -0.0584
     84 N          37.3000  -31.4270   24.5290 N.am      1 ALA        -0.2640
     85 CA         36.3200  -30.8640   25.4460 C.3       1 ALA         0.1282
     86 C          35.4150  -31.9540   26.0150 C.2       1 ALA         0.2034
     87 O          34.9090  -31.8290   27.1310 O.2       1 ALA        -0.3944
     88 CB         35.5030  -29.7920   24.7500 C.3       1 ALA        -0.0244
     89 N          35.2210  -33.0210   25.2430 N.am      1 GLY        -0.2664
     90 CA         34.4530  -34.1690   25.6920 C.3       1 GLY         0.1201
     91 C          35.1290  -34.8750   26.8530 C.2       1 GLY         0.2002
     92 O          35.7800  -35.9070   26.6720 O.2       1 GLY        -0.3947
     93 N          34.9640  -34.3040   28.0450 N.am      1 LEU        -0.2697
     94 CA         35.5840  -34.7980   29.2750 C.3       1 LEU         0.0946
     95 C          37.0590  -34.4140   29.3650 C.2       1 LEU         0.0601
     96 O          37.3940  -33.2790   29.7110 O.co2     1 LEU        -0.5666
     97 CB         35.4100  -36.3140   29.4150 C.3       1 LEU        -0.0156
     98 CG         33.9690  -36.8250   29.3350 C.3       1 LEU        -0.0431
     99 CD1        33.9330  -38.3410   29.4530 C.3       1 LEU        -0.0625
    100 CD2        33.0990  -36.1730   30.4030 C.3       1 LEU        -0.0625
    101 H          43.6005  -39.6153   18.1034 H         1 LYS         0.2015
    102 H          44.0552  -41.1813   18.4465 H         1 LYS         0.2015
    103 H          42.5108  -40.6654   18.8011 H         1 LYS         0.2015
    104 H          43.3150  -39.1338   20.4005 H         1 LYS         0.1098
    105 H          43.9822  -40.7095   22.0741 H         1 LYS         0.0346
    106 H          44.4732  -41.9047   20.7809 H         1 LYS         0.0346
    107 H          42.1196  -42.0113   20.1022 H         1 LYS         0.0270
    108 H          41.7057  -40.9850   21.5255 H         1 LYS         0.0270
    109 H          42.5861  -42.6712   23.0192 H         1 LYS         0.0317
    110 H          43.0670  -43.6869   21.6143 H         1 LYS         0.0317
    111 H          40.7186  -43.8580   20.9521 H         1 LYS         0.0813
    112 H          40.2550  -42.8808   22.3962 H         1 LYS         0.0813
    113 H          39.9780  -45.2305   22.7702 H         1 LYS         0.1994
    114 H          41.5861  -45.5131   22.4367 H         1 LYS         0.1994
    115 H          41.1578  -44.6105   23.7704 H         1 LYS         0.1994
    116 H          45.7031  -40.4402   21.8151 H         1 LEU         0.1884
    117 H          47.8186  -39.5684   22.1979 H         1 LEU         0.0800
    118 H          49.4154  -40.7083   20.8081 H         1 LEU         0.0315
    119 H          48.1511  -40.8919   19.4897 H         1 LEU         0.0315
    120 H          46.9212  -42.4012   20.8855 H         1 LEU         0.0298
    121 H          48.6100  -43.3580   19.4160 H         1 LEU         0.0232
    122 H          49.8432  -43.1845   20.6888 H         1 LEU         0.0232
    123 H          48.4791  -44.3059   20.9178 H         1 LEU         0.0232
    124 H          49.1554  -42.0424   22.9088 H         1 LEU         0.0232
    125 H          47.4732  -41.4836   23.0793 H         1 LEU         0.0232
    126 H          47.8310  -43.2272   23.0248 H         1 LEU         0.0232
    127 H          48.3260  -39.3365   18.7173 H         1 GLY         0.1881
    128 H          48.8836  -37.5466   17.3971 H         1 GLY         0.0763
    129 H          49.6421  -36.8448   18.8826 H         1 GLY         0.0763
    130 H          48.7495  -35.1527   19.8509 H         1 LEU         0.1883
    131 H          46.3044  -34.0132   18.5979 H         1 LEU         0.0800
    132 H          46.6855  -34.5615   21.5311 H         1 LEU         0.0315
    133 H          45.3649  -35.1842   20.3883 H         1 LEU         0.0315
    134 H          45.7189  -32.3645   21.3732 H         1 LEU         0.0298
    135 H          44.7271  -32.5092   19.1491 H         1 LEU         0.0232
    136 H          43.5405  -33.6984   19.7398 H         1 LEU         0.0232
    137 H          43.5066  -32.0268   20.3527 H         1 LEU         0.0232
    138 H          43.7181  -34.5049   22.1630 H         1 LEU         0.0232
    139 H          45.0211  -33.8490   23.1843 H         1 LEU         0.0232
    140 H          43.6745  -32.8004   22.6765 H         1 LEU         0.0232
    141 H          46.6029  -31.9086   18.1952 H         1 ILE         0.1883
    142 H          49.1258  -30.7550   19.1513 H         1 ILE         0.0803
    143 H          47.0704  -29.5504   17.2643 H         1 ILE         0.0345
    144 H          47.8630  -31.6285   16.3814 H         1 ILE         0.0267
    145 H          49.5870  -31.1569   16.7688 H         1 ILE         0.0267
    146 H          48.5488  -27.8930   18.2768 H         1 ILE         0.0235
    147 H          49.9700  -28.8544   17.8007 H         1 ILE         0.0235
    148 H          48.9315  -28.1226   16.5529 H         1 ILE         0.0235
    149 H          47.7732  -29.8579   14.7393 H         1 ILE         0.0230
    150 H          49.4519  -29.3987   15.1165 H         1 ILE         0.0230
    151 H          49.1053  -30.9859   14.3873 H         1 ILE         0.0230
    152 H          49.3597  -29.5811   20.8968 H         1 THR         0.1884
    153 H          46.8487  -28.4906   22.0409 H         1 THR         0.0826
    154 H          47.9328  -28.8842   24.3040 H         1 THR         0.0639
    155 H          50.1275  -28.9043   23.5101 H         1 THR         0.2101
    156 H          46.3937  -30.5521   23.3545 H         1 THR         0.0257
    157 H          47.7517  -31.3276   22.5028 H         1 THR         0.0257
    158 H          47.6936  -31.3396   24.2825 H         1 THR         0.0257
    159 H          48.2434  -26.8110   20.3781 H         1 ASN         0.1885
    160 H          50.0240  -25.1347   21.9080 H         1 ASN         0.0826
    161 H          49.5812  -23.4640   20.0590 H         1 ASN         0.0551
    162 H          48.4923  -24.7196   19.3364 H         1 ASN         0.0551
    163 H          52.5486  -25.5697   19.5783 H         1 ASN         0.1814
    164 H          51.7506  -24.6833   20.8817 H         1 ASN         0.1814
    165 H          46.5629  -24.8081   21.0162 H         1 THR         0.1884
    166 H          46.4645  -22.7850   23.1853 H         1 THR         0.0826
    167 H          44.6748  -21.5870   21.9975 H         1 THR         0.0639
    168 H          45.1042  -23.5581   19.9592 H         1 THR         0.2101
    169 H          46.9995  -20.9620   21.5144 H         1 THR         0.0257
    170 H          47.0576  -22.1672   20.2047 H         1 THR         0.0257
    171 H          45.9730  -20.7610   20.0732 H         1 THR         0.0257
    172 H          45.6189  -25.8532   22.6289 H         1 ILE         0.1883
    173 H          43.4509  -25.4954   24.6402 H         1 ILE         0.0803
    174 H          42.2552  -27.4666   23.8300 H         1 ILE         0.0345
    175 H          44.2265  -28.6094   22.8979 H         1 ILE         0.0267
    176 H          44.1682  -27.4414   21.4963 H         1 ILE         0.0267
    177 H          41.5864  -25.2819   22.9971 H         1 ILE         0.0235
    178 H          42.7520  -25.4184   21.6577 H         1 ILE         0.0235
    179 H          41.3644  -26.5309   21.7474 H         1 ILE         0.0235
    180 H          42.0372  -29.4349   22.2718 H         1 ILE         0.0230
    181 H          41.9804  -28.2955   20.9045 H         1 ILE         0.0230
    182 H          43.1900  -29.6022   20.9249 H         1 ILE         0.0230
    183 H          43.1839  -27.4568   26.0601 H         1 ALA         0.1883
    184 H          45.8791  -28.5867   26.6202 H         1 ALA         0.0797
    185 H          44.7265  -27.4961   28.4783 H         1 ALA         0.0277
    186 H          43.3403  -28.5966   28.2817 H         1 ALA         0.0277
    187 H          44.9210  -29.2381   28.7926 H         1 ALA         0.0277
    188 H          42.5528  -29.5124   25.8692 H         1 GLY         0.1881
    189 H          42.6346  -32.2697   26.2260 H         1 GLY         0.0763
    190 H          43.4297  -31.9754   24.6471 H         1 GLY         0.0763
    191 H          41.1496  -33.4675   24.6502 H         1 VAL         0.1883
    192 H          39.3763  -31.8719   23.0332 H         1 VAL         0.0802
    193 H          37.9127  -33.7958   22.9577 H         1 VAL         0.0343
    194 H          39.9246  -33.8286   21.5700 H         1 VAL         0.0234
    195 H          40.8397  -34.5910   22.8938 H         1 VAL         0.0234
    196 H          39.5026  -35.4710   22.1135 H         1 VAL         0.0234
    197 H          39.6568  -34.9495   25.1555 H         1 VAL         0.0234
    198 H          37.9659  -34.4158   25.3200 H         1 VAL         0.0234
    199 H          38.3624  -35.8125   24.2889 H         1 VAL         0.0234
    200 H          37.1221  -31.3912   23.5253 H         1 ALA         0.1883
    201 H          36.8528  -30.4056   26.2791 H         1 ALA         0.0797
    202 H          36.1658  -28.9983   24.4053 H         1 ALA         0.0277
    203 H          34.9835  -30.2292   23.8973 H         1 ALA         0.0277
    204 H          34.7747  -29.3809   25.4490 H         1 ALA         0.0277
    205 H          35.6246  -33.0327   24.3063 H         1 GLY         0.1881
    206 H          34.3691  -34.8722   24.8634 H         1 GLY         0.0763
    207 H          33.4750  -33.8203   26.0237 H         1 GLY         0.0763
    208 H          34.3720  -33.4755   28.1038 H         1 LEU         0.1875
    209 H          35.0680  -34.3164   30.1056 H         1 LEU         0.0726
    210 O1         37.9433  -35.2660   29.0827 O.co2     1 LEU        -0.5666
    211 H          35.7770  -36.5772   30.4070 H         1 LEU         0.0308
    212 H          35.9451  -36.7653   28.5795 H         1 LEU         0.0308
    213 H          33.5628  -36.5495   28.3618 H         1 LEU         0.0297
    214 H          34.5107  -38.7812   28.6403 H         1 LEU         0.0232
    215 H          34.3624  -38.6400   30.4092 H         1 LEU         0.0232
    216 H          32.9002  -38.6843   29.3938 H         1 LEU         0.0232
    217 H          33.4997  -36.4074   31.3892 H         1 LEU         0.0232
    218 H          33.0963  -35.0927   30.2579 H         1 LEU         0.0232
    219 H          32.0810  -36.5542   30.3230 H         1 LEU         0.0232
@<TRIPOS>BOND
     1    1    2 1  
     2    2    3 1  
     3    2    5 1  
     4    3    4 2  
     5    3   10 am 
     6    5    6 1  
     7    6    7 1  
     8    7    8 1  
     9    8    9 1  
    10   10   11 1  
    11   11   12 1  
    12   11   14 1  
    13   12   13 2  
    14   12   18 am 
    15   14   15 1  
    16   15   16 1  
    17   15   17 1  
    18   18   19 1  
    19   19   20 1  
    20   20   21 2  
    21   20   22 am 
    22   22   23 1  
    23   23   24 1  
    24   23   26 1  
    25   24   25 2  
    26   24   30 am 
    27   26   27 1  
    28   27   28 1  
    29   27   29 1  
    30   30   31 1  
    31   31   32 1  
    32   31   34 1  
    33   32   33 2  
    34   32   38 am 
    35   34   35 1  
    36   34   36 1  
    37   35   37 1  
    38   38   39 1  
    39   39   40 1  
    40   39   42 1  
    41   40   41 2  
    42   40   45 am 
    43   42   43 1  
    44   42   44 1  
    45   45   46 1  
    46   46   47 1  
    47   46   49 1  
    48   47   48 2  
    49   47   53 am 
    50   49   50 1  
    51   50   51 2  
    52   50   52 am 
    53   53   54 1  
    54   54   55 1  
    55   54   57 1  
    56   55   56 2  
    57   55   60 am 
    58   57   58 1  
    59   57   59 1  
    60   60   61 1  
    61   61   62 1  
    62   61   64 1  
    63   62   63 2  
    64   62   68 am 
    65   64   65 1  
    66   64   66 1  
    67   65   67 1  
    68   68   69 1  
    69   69   70 1  
    70   69   72 1  
    71   70   71 2  
    72   70   73 am 
    73   73   74 1  
    74   74   75 1  
    75   75   76 2  
    76   75   77 am 
    77   77   78 1  
    78   78   79 1  
    79   78   81 1  
    80   79   80 2  
    81   79   84 am 
    82   81   82 1  
    83   81   83 1  
    84   84   85 1  
    85   85   86 1  
    86   85   88 1  
    87   86   87 2  
    88   86   89 am 
    89   89   90 1  
    90   90   91 1  
    91   91   92 2  
    92   91   93 am 
    93   93   94 1  
    94   94   95 1  
    95   94   97 1  
    96   95   96 ar 
    97   97   98 1  
    98   98   99 1  
    99   98  100 1  
   100    1  101 1  
   101    1  102 1  
   102    1  103 1  
   103    2  104 1  
   104    5  105 1  
   105    5  106 1  
   106    6  107 1  
   107    6  108 1  
   108    7  109 1  
   109    7  110 1  
   110    8  111 1  
   111    8  112 1  
   112    9  113 1  
   113    9  114 1  
   114    9  115 1  
   115   10  116 1  
   116   11  117 1  
   117   14  118 1  
   118   14  119 1  
   119   15  120 1  
   120   16  121 1  
   121   16  122 1  
   122   16  123 1  
   123   17  124 1  
   124   17  125 1  
   125   17  126 1  
   126   18  127 1  
   127   19  128 1  
   128   19  129 1  
   129   22  130 1  
   130   23  131 1  
   131   26  132 1  
   132   26  133 1  
   133   27  134 1  
   134   28  135 1  
   135   28  136 1  
   136   28  137 1  
   137   29  138 1  
   138   29  139 1  
   139   29  140 1  
   140   30  141 1  
   141   31  142 1  
   142   34  143 1  
   143   35  144 1  
   144   35  145 1  
   145   36  146 1  
   146   36  147 1  
   147   36  148 1  
   148   37  149 1  
   149   37  150 1  
   150   37  151 1  
   151   38  152 1  
   152   39  153 1  
   153   42  154 1  
   154   43  155 1  
   155   44  156 1  
   156   44  157 1  
   157   44  158 1  
   158   45  159 1  
   159   46  160 1  
   160   49  161 1  
   161   49  162 1  
   162   52  163 1  
   163   52  164 1  
   164   53  165 1  
   165   54  166 1  
   166   57  167 1  
   167   58  168 1  
   168   59  169 1  
   169   59  170 1  
   170   59  171 1  
   171   60  172 1  
   172   61  173 1  
   173   64  174 1  
   174   65  175 1  
   175   65  176 1  
   176   66  177 1  
   177   66  178 1  
   178   66  179 1  
   179   67  180 1  
   180   67  181 1  
   181   67  182 1  
   182   68  183 1  
   183   69  184 1  
   184   72  185 1  
   185   72  186 1  
   186   72  187 1  
   187   73  188 1  
   188   74  189 1  
   189   74  190 1  
   190   77  191 1  
   191   78  192 1  
   192   81  193 1  
   193   82  194 1  
   194   82  195 1  
   195   82  196 1  
   196   83  197 1  
   197   83  198 1  
   198   83  199 1  
   199   84  200 1  
   200   85  201 1  
   201   88  202 1  
   202   88  203 1  
   203   88  204 1  
   204   89  205 1  
   205   90  206 1  
   206   90  207 1  
   207   93  208 1  
   208   94  209 1  
   209   95  210 ar 
   210   97  211 1  
   211   97  212 1  
   212   98  213 1  
   213   99  214 1  
   214   99  215 1  
   215   99  216 1  
   216  100  217 1  
   217  100  218 1  
   218  100  219 1  
@<TRIPOS>SUBSTRUCTURE
     1 LYS         1

