1tv6_ligand
  -I-interpret- 

 43 47  0  0  0  0  0  0  0  0999 V2000
  146.4450  -23.0100   76.4920 S   0  0  0  0  0
  145.2900  -24.2080   77.0790 C   0  0  0  0  0
  144.0180  -23.9100   76.5880 N   0  0  0  0  0
  143.9480  -22.7630   75.7770 C   0  0  0  0  0
  145.1990  -22.1430   75.6080 C   0  0  0  0  0
  145.3340  -20.9720   74.8220 C   0  0  0  0  0
  144.1860  -20.4470   74.1950 C   0  0  0  0  0
  142.9280  -21.0790   74.3600 C   0  0  0  0  0
  142.7890  -22.2350   75.1400 C   0  0  0  0  0
  142.8560  -24.7560   76.9410 C   0  0  0  0  0
  142.5260  -25.9390   76.0540 C   0  0  0  0  0
  142.9550  -27.2350   76.3120 C   0  0  0  0  0
  142.6080  -28.3110   75.4630 C   0  0  0  0  0
  141.8020  -28.0970   74.3040 C   0  0  0  0  0
  141.3680  -26.7730   74.0460 C   0  0  0  0  0
  141.7270  -25.7200   74.9120 C   0  0  0  0  0
  141.4120  -29.2370   73.3770 N   0  0  0  0  0
  140.6240  -29.2310   72.1610 C   0  0  0  0  0
  140.5010  -30.4240   71.6230 N   0  0  0  0  0
  141.1940  -31.2900   72.4430 C   0  0  0  0  0
  141.7840  -30.6120   73.5520 C   0  0  0  0  0
  142.5430  -31.3290   74.5230 C   0  0  0  0  0
  142.6680  -32.7120   74.2960 C   0  0  0  0  0
  142.1200  -33.3820   73.2420 N   0  0  0  0  0
  141.3960  -32.6770   72.3310 C   0  0  0  0  0
  139.9980  -28.0330   71.5290 C   0  0  0  0  0
  145.5900  -25.1500   77.8040 O   0  0  0  0  0
  146.3036  -20.4881   74.7048 H   0  0  0  0  0
  144.2660  -19.5505   73.5802 H   0  0  0  0  0
  142.0505  -20.6571   73.8700 H   0  0  0  0  0
  141.8186  -22.7176   75.2561 H   0  0  0  0  0
  141.9913  -24.0963   76.8690 H   0  0  0  0  0
  143.1024  -25.1876   77.9111 H   0  0  0  0  0
  143.5732  -27.4266   77.1890 H   0  0  0  0  0
  142.9600  -29.3159   75.6960 H   0  0  0  0  0
  140.7516  -26.5670   73.1709 H   0  0  0  0  0
  141.3783  -24.7106   74.6936 H   0  0  0  0  0
  142.9964  -30.8382   75.3842 H   0  0  0  0  0
  143.2459  -33.2911   75.0162 H   0  0  0  0  0
  140.9573  -33.2058   71.4849 H   0  0  0  0  0
  139.2960  -27.5796   72.2289 H   0  0  0  0  0
  140.7741  -27.3119   71.2724 H   0  0  0  0  0
  139.4682  -28.3354   70.6257 H   0  0  0  0  0
  1  2  1  0  0  0
  1  5  1  0  0  0
  2  3  1  0  0  0
  2 27  2  0  0  0
  3  4  1  0  0  0
  3 10  1  0  0  0
  4  5  4  0  0  0
  4  9  4  0  0  0
  5  6  4  0  0  0
  6  7  4  0  0  0
  7  8  4  0  0  0
  8  9  4  0  0  0
 10 11  1  0  0  0
 11 12  4  0  0  0
 11 16  4  0  0  0
 12 13  4  0  0  0
 13 14  4  0  0  0
 14 15  4  0  0  0
 14 17  1  0  0  0
 15 16  4  0  0  0
 17 18  4  0  0  0
 17 21  4  0  0  0
 18 19  4  0  0  0
 18 26  1  0  0  0
 19 20  4  0  0  0
 20 21  4  0  0  0
 20 25  4  0  0  0
 21 22  4  0  0  0
 22 23  4  0  0  0
 23 24  4  0  0  0
 24 25  4  0  0  0
  6 28  1  0  0  0
  7 29  1  0  0  0
  8 30  1  0  0  0
  9 31  1  0  0  0
 10 32  1  0  0  0
 10 33  1  0  0  0
 12 34  1  0  0  0
 13 35  1  0  0  0
 15 36  1  0  0  0
 16 37  1  0  0  0
 22 38  1  0  0  0
 23 39  1  0  0  0
 25 40  1  0  0  0
 26 41  1  0  0  0
 26 42  1  0  0  0
 26 43  1  0  0  0
M  END
$$$$
