2vxj_ligand
  -I-interpret- 

 66 68  0  0  0  0  0  0  0  0999 V2000
   17.5030  -26.7530  114.9340 C   0  0  0  0  0
   17.2490  -25.4530  114.2370 C   0  0  0  0  0
   17.2360  -25.6190  112.7100 C   0  0  0  0  0
   18.5290  -26.2850  112.2230 C   0  0  0  0  0
   18.7630  -27.5650  113.0480 C   0  0  0  0  0
   20.0510  -28.2690  112.6570 C   0  0  0  0  0
   16.0400  -24.9790  114.7490 O   0  0  0  0  0
   17.0790  -24.3870  112.1050 O   0  0  0  0  0
   19.5930  -25.3600  112.3180 O   0  0  0  0  0
   18.7130  -27.3180  114.4440 O   0  0  0  0  0
   20.1280  -29.5580  113.2190 O   0  0  0  0  0
   15.5400  -30.6020  117.0480 C   0  0  0  0  0
   16.0930  -29.8150  115.8520 C   0  0  0  0  0
   16.0590  -28.2890  116.0550 C   0  0  0  0  0
   14.6940  -27.8700  116.6350 C   0  0  0  0  0
   14.3880  -28.7620  117.8440 C   0  0  0  0  0
   13.1620  -28.3200  118.6300 C   0  0  0  0  0
   17.4220  -30.2340  115.5910 O   0  0  0  0  0
   16.3090  -27.5870  114.8340 O   0  0  0  0  0
   13.6960  -28.0490  115.6590 O   0  0  0  0  0
   14.2780  -30.1160  117.3960 O   0  0  0  0  0
   13.4370  -28.5440  120.0190 O   0  0  0  0  0
   13.8250  -34.6700  118.6510 C   0  0  0  0  0
   14.0020  -33.6020  117.5660 C   0  0  0  0  0
   15.2690  -32.7640  117.8430 C   0  0  0  0  0
   16.5030  -33.6510  118.0630 C   0  0  0  0  0
   17.8080  -32.9110  118.3760 C   0  0  0  0  0
   15.1330  -35.4210  118.8470 C   0  0  0  0  0
   14.9560  -36.2370  119.9940 O   0  0  0  0  0
   12.8280  -35.6240  118.3170 O   0  0  0  0  0
   12.8740  -32.7720  117.6010 O   0  0  0  0  0
   15.4920  -31.9800  116.7330 O   0  0  0  0  0
   16.2190  -34.5410  119.1100 O   0  0  0  0  0
   17.6410  -32.0530  119.4860 O   0  0  0  0  0
   17.6698  -26.6313  116.0043 H   0  0  0  0  0
   18.0462  -24.7325  114.4198 H   0  0  0  0  0
   16.3981  -26.2614  112.4390 H   0  0  0  0  0
   18.4586  -26.5787  111.1757 H   0  0  0  0  0
   17.9403  -28.2392  112.8099 H   0  0  0  0  0
   20.8910  -27.6811  113.0270 H   0  0  0  0  0
   20.0756  -28.3644  111.5715 H   0  0  0  0  0
   16.1083  -24.8961  115.7030 H   0  0  0  0  0
   16.2675  -23.9797  112.4168 H   0  0  0  0  0
   19.3917  -24.5867  111.7860 H   0  0  0  0  0
   20.9515  -29.9733  112.9527 H   0  0  0  0  0
   16.1987  -30.4725  117.9068 H   0  0  0  0  0
   15.4444  -30.0285  115.0024 H   0  0  0  0  0
   16.8515  -28.0262  116.7557 H   0  0  0  0  0
   14.7186  -26.8225  116.9355 H   0  0  0  0  0
   15.2128  -28.6721  118.5509 H   0  0  0  0  0
   12.2847  -28.8871  118.3188 H   0  0  0  0  0
   12.9521  -27.2660  118.4481 H   0  0  0  0  0
   17.7701  -29.7430  114.8431 H   0  0  0  0  0
   12.8459  -27.7879  116.0206 H   0  0  0  0  0
   12.6787  -28.2735  120.5419 H   0  0  0  0  0
   13.5207  -34.1477  119.5580 H   0  0  0  0  0
   14.1093  -34.0718  116.5883 H   0  0  0  0  0
   15.1136  -32.1733  118.7458 H   0  0  0  0  0
   16.6849  -34.1529  117.1127 H   0  0  0  0  0
   18.0918  -32.3146  117.5089 H   0  0  0  0  0
   18.5812  -33.6430  118.6094 H   0  0  0  0  0
   15.3645  -35.9833  117.9424 H   0  0  0  0  0
   15.7607  -36.7338  120.1591 H   0  0  0  0  0
   12.7544  -36.2691  119.0241 H   0  0  0  0  0
   12.9581  -32.0912  116.9294 H   0  0  0  0  0
   18.4678  -31.5995  119.6657 H   0  0  0  0  0
  1  2  1  0  0  0
  1 10  1  0  0  0
 19  1  1  0  0  0
  2  3  1  0  0  0
  2  7  1  0  0  0
  3  4  1  0  0  0
  3  8  1  0  0  0
  5  4  1  0  0  0
  4  9  1  0  0  0
  5  6  1  0  0  0
 10  5  1  0  0  0
  6 11  1  0  0  0
 12 13  1  0  0  0
 12 21  1  0  0  0
 32 12  1  0  0  0
 13 14  1  0  0  0
 13 18  1  0  0  0
 14 15  1  0  0  0
 14 19  1  0  0  0
 16 15  1  0  0  0
 15 20  1  0  0  0
 16 17  1  0  0  0
 21 16  1  0  0  0
 17 22  1  0  0  0
 24 23  1  0  0  0
 23 28  1  0  0  0
 23 30  1  0  0  0
 25 24  1  0  0  0
 24 31  1  0  0  0
 25 26  1  0  0  0
 25 32  1  0  0  0
 26 27  1  0  0  0
 26 33  1  0  0  0
 27 34  1  0  0  0
 28 29  1  0  0  0
 28 33  1  0  0  0
  1 35  1  0  0  0
  2 36  1  0  0  0
  3 37  1  0  0  0
  4 38  1  0  0  0
  5 39  1  0  0  0
  6 40  1  0  0  0
  6 41  1  0  0  0
  7 42  1  0  0  0
  8 43  1  0  0  0
  9 44  1  0  0  0
 11 45  1  0  0  0
 12 46  1  0  0  0
 13 47  1  0  0  0
 14 48  1  0  0  0
 15 49  1  0  0  0
 16 50  1  0  0  0
 17 51  1  0  0  0
 17 52  1  0  0  0
 18 53  1  0  0  0
 20 54  1  0  0  0
 22 55  1  0  0  0
 23 56  1  0  0  0
 24 57  1  0  0  0
 25 58  1  0  0  0
 26 59  1  0  0  0
 27 60  1  0  0  0
 27 61  1  0  0  0
 28 62  1  0  0  0
 29 63  1  0  0  0
 30 64  1  0  0  0
 31 65  1  0  0  0
 34 66  1  0  0  0
M  END
$$$$
