3kjq_ligand
  -I-interpret- 

 51 52  0  0  0  0  0  0  0  0999 V2000
  -12.8510   37.4490   38.2830 C   0  0  0  0  0
  -11.4490   37.3170   37.7640 C   0  0  0  0  0
  -11.2020   37.7610   36.6490 O   0  0  0  0  0
  -10.4220   36.6220   38.6450 C   0  0  0  0  0
   -9.5080   35.7430   37.8030 C   0  0  0  0  0
   -8.1710   35.6880   38.4920 C   0  0  0  0  0
   -7.7840   36.4950   39.3250 O   0  0  0  0  0
   -7.4340   34.6420   38.0710 O   0  0  0  0  0
  -11.1950   35.8210   39.5810 N   0  0  0  0  0
  -11.3330   36.1030   40.9230 C   0  0  0  0  0
  -10.8090   37.0340   41.5210 O   0  0  0  0  0
  -12.2370   35.1050   41.5920 C   0  0  0  0  0
  -13.6460   35.6000   41.4790 C   0  0  0  0  0
  -14.3820   36.0460   42.5040 C   0  0  0  0  0
  -13.9220   36.1300   43.9190 C   0  0  0  0  0
  -14.6000   35.0490   44.7320 C   0  0  0  0  0
  -12.4730   36.0000   43.9450 N   0  0  0  0  0
  -11.8920   35.0850   42.9920 N   0  0  0  0  0
  -10.7200   34.5620   43.5400 C   0  0  0  0  0
   -9.9350   33.8240   42.9690 O   0  0  0  0  0
  -10.6490   35.0530   44.8140 N   0  0  0  0  0
   -9.4740   34.8880   45.6420 C   0  0  0  0  0
   -8.5830   36.1120   45.5790 C   0  0  0  0  0
   -7.4940   35.9260   46.6100 C   0  0  0  0  0
   -6.6700   37.1630   46.7550 C   0  0  0  0  0
   -6.3470   37.9320   45.8630 O   0  0  0  0  0
   -6.3060   37.3100   48.0550 O   0  0  0  0  0
  -11.6880   35.9140   45.0900 C   0  0  0  0  0
  -11.9070   36.4890   46.1510 O   0  0  0  0  0
  -13.1210   38.5039   38.3324 H   0  0  0  0  0
  -13.5355   36.9285   37.6132 H   0  0  0  0  0
  -12.9112   37.0102   39.2790 H   0  0  0  0  0
   -9.7793   37.3337   39.1632 H   0  0  0  0  0
   -9.4025   36.1547   36.7993 H   0  0  0  0  0
   -9.9273   34.7417   37.7048 H   0  0  0  0  0
   -7.9315   34.1433   37.4188 H   0  0  0  0  0
  -11.6679   34.9929   39.2191 H   0  0  0  0  0
  -12.1361   34.1188   41.1389 H   0  0  0  0  0
  -14.1053   35.5968   40.4905 H   0  0  0  0  0
  -15.3985   36.3738   42.2866 H   0  0  0  0  0
  -14.1890   37.0907   44.3594 H   0  0  0  0  0
  -15.6802   35.1886   44.6906 H   0  0  0  0  0
  -14.3426   34.0724   44.3220 H   0  0  0  0  0
  -14.2639   35.1099   45.7671 H   0  0  0  0  0
   -8.9105   34.0284   45.2791 H   0  0  0  0  0
   -9.7932   34.7428   46.6740 H   0  0  0  0  0
   -9.1568   37.0154   45.7857 H   0  0  0  0  0
   -8.1537   36.2233   44.5833 H   0  0  0  0  0
   -6.8451   35.1118   46.2874 H   0  0  0  0  0
   -7.9588   35.7032   47.5704 H   0  0  0  0  0
   -6.6738   36.5899   48.5725 H   0  0  0  0  0
  1  2  1  0  0  0
  2  3  2  0  0  0
  2  4  1  0  0  0
  4  5  1  0  0  0
  4  9  1  0  0  0
  5  6  1  0  0  0
  6  7  2  0  0  0
  6  8  1  0  0  0
  9 10  1  0  0  0
 10 11  2  0  0  0
 10 12  1  0  0  0
 12 13  1  0  0  0
 12 18  1  0  0  0
 13 14  2  0  0  0
 14 15  1  0  0  0
 15 16  1  0  0  0
 15 17  1  0  0  0
 17 18  1  0  0  0
 17 28  1  0  0  0
 18 19  1  0  0  0
 19 20  2  0  0  0
 19 21  1  0  0  0
 21 22  1  0  0  0
 21 28  1  0  0  0
 22 23  1  0  0  0
 23 24  1  0  0  0
 24 25  1  0  0  0
 25 26  2  0  0  0
 25 27  1  0  0  0
 28 29  2  0  0  0
  1 30  1  0  0  0
  1 31  1  0  0  0
  1 32  1  0  0  0
  4 33  1  0  0  0
  5 34  1  0  0  0
  5 35  1  0  0  0
  8 36  1  0  0  0
  9 37  1  0  0  0
 12 38  1  0  0  0
 13 39  1  0  0  0
 14 40  1  0  0  0
 15 41  1  0  0  0
 16 42  1  0  0  0
 16 43  1  0  0  0
 16 44  1  0  0  0
 22 45  1  0  0  0
 22 46  1  0  0  0
 23 47  1  0  0  0
 23 48  1  0  0  0
 24 49  1  0  0  0
 24 50  1  0  0  0
 27 51  1  0  0  0
M  END
$$$$
