1tsy_ligand
  -I-interpret- 

 33 34  0  0  0  0  0  0  0  0999 V2000
   14.4320   48.8460  -53.9840 N   0  0  0  0  0
   13.6810   47.7990  -53.4490 C   0  0  0  0  0
   12.9580   48.0870  -52.3080 N   0  0  0  0  0
   12.9180   49.3370  -51.6860 C   0  0  0  0  0
   13.7170   50.3590  -52.3230 C   0  0  0  0  0
   14.4450   50.0460  -53.4640 C   0  0  0  0  0
   13.5510   46.6740  -53.9080 O   0  0  0  0  0
   12.2290   49.5410  -50.6860 O   0  0  0  0  0
   15.4310   48.7120  -55.0260 C   0  0  0  0  0
   14.9880   48.4110  -56.4520 C   0  0  0  0  0
   16.2850   48.6140  -57.2230 C   0  0  0  0  0
   16.8830   49.9300  -56.7110 C   0  0  0  0  0
   17.1560   47.5630  -56.7960 O   0  0  0  0  0
   16.3330   49.8850  -55.3080 O   0  0  0  0  0
   16.3040   51.1290  -57.4720 C   0  0  0  0  0
   16.8970   51.2580  -58.8460 O   0  0  0  0  0
   15.9310   51.7260  -59.9750 P   0  0  0  0  0
   15.2600   53.0010  -59.6920 O   0  0  0  0  0
   16.4480   51.8180  -61.3870 O   0  0  0  0  0
   14.9570   50.6300  -59.8960 O   0  0  0  0  0
   12.4141   47.3325  -51.8894 H   0  0  0  0  0
   13.7482   51.3678  -51.9113 H   0  0  0  0  0
   15.0441   50.8226  -53.9394 H   0  0  0  0  0
   15.9067   47.8713  -54.5210 H   0  0  0  0  0
   14.1714   49.0448  -56.7978 H   0  0  0  0  0
   14.5590   47.4165  -56.5746 H   0  0  0  0  0
   16.1454   48.6235  -58.3040 H   0  0  0  0  0
   17.9640   50.0314  -56.8070 H   0  0  0  0  0
   17.9969   47.6404  -57.2527 H   0  0  0  0  0
   16.5372   52.0347  -56.9122 H   0  0  0  0  0
   15.2290   50.9819  -57.5756 H   0  0  0  0  0
   16.8969   51.0009  -61.6161 H   0  0  0  0  0
   15.3979   49.7976  -60.0813 H   0  0  0  0  0
  1  2  1  0  0  0
  1  6  1  0  0  0
  1  9  1  0  0  0
  2  3  1  0  0  0
  2  7  2  0  0  0
  3  4  1  0  0  0
  4  5  1  0  0  0
  4  8  2  0  0  0
  5  6  2  0  0  0
  9 10  1  0  0  0
  9 14  1  0  0  0
 10 11  1  0  0  0
 11 12  1  0  0  0
 11 13  1  0  0  0
 12 14  1  0  0  0
 12 15  1  0  0  0
 15 16  1  0  0  0
 16 17  1  0  0  0
 17 18  2  0  0  0
 17 19  1  0  0  0
 17 20  1  0  0  0
  3 21  1  0  0  0
  5 22  1  0  0  0
  6 23  1  0  0  0
  9 24  1  0  0  0
 10 25  1  0  0  0
 10 26  1  0  0  0
 11 27  1  0  0  0
 12 28  1  0  0  0
 13 29  1  0  0  0
 15 30  1  0  0  0
 15 31  1  0  0  0
 19 32  1  0  0  0
 20 33  1  0  0  0
M  END
$$$$
