6ccq_ligand
  -I-interpret- 

 31 33  0  0  0  0  0  0  0  0999 V2000
   31.4710   -9.4650   32.9040 C   0  0  0  0  0
   31.3160  -10.4310   31.9180 C   0  0  0  0  0
   30.1620  -10.4830   31.1510 C   0  0  0  0  0
   23.4450  -11.6370   32.6910 C   0  0  0  0  0
   23.9820  -10.8820   33.7160 C   0  0  0  0  0
   24.5110   -9.6260   33.4970 C   0  0  0  0  0
   29.2500   -8.6260   32.4090 C   0  0  0  0  0
   23.9700  -11.5150   35.3380 Cl  0  0  0  0  0
   24.5060   -9.0900   32.2120 C   0  0  0  0  0
   23.9530   -9.8380   31.1740 C   0  0  0  0  0
   23.4410  -11.1070   31.4090 C   0  0  0  0  0
   25.0330   -7.6960   31.9800 C   0  0  0  0  0
   26.1320   -7.6030   30.9470 C   0  0  0  0  0
   27.4140   -8.2130   31.3880 C   0  0  0  0  0
   28.1580   -7.7660   32.3790 N   0  0  0  0  0
   29.1430   -9.5750   31.4230 C   0  0  0  0  0
   27.9610   -9.2800   30.7650 N   0  0  0  0  0
   30.4460   -8.5490   33.1640 C   0  0  0  0  0
   30.6180   -7.6270   34.1510 O   0  0  0  0  0
   32.3963   -9.4204   33.4783 H   0  0  0  0  0
   32.1108  -11.1566   31.7452 H   0  0  0  0  0
   30.0554  -11.2182   30.3533 H   0  0  0  0  0
   23.0335  -12.6274   32.8854 H   0  0  0  0  0
   24.9307   -9.0564   34.3262 H   0  0  0  0  0
   23.9222   -9.4222   30.1669 H   0  0  0  0  0
   23.0341  -11.6895   30.5824 H   0  0  0  0  0
   25.4548   -7.3539   32.9251 H   0  0  0  0  0
   24.1993   -7.0977   31.6124 H   0  0  0  0  0
   26.3191   -6.5452   30.7623 H   0  0  0  0  0
   25.7976   -8.1465   30.0633 H   0  0  0  0  0
   29.8359   -7.0735   34.2101 H   0  0  0  0  0
  1  2  4  0  0  0
 18  1  4  0  0  0
  3  2  4  0  0  0
 16  3  4  0  0  0
  5  4  4  0  0  0
 11  4  4  0  0  0
  6  5  4  0  0  0
  5  8  1  0  0  0
  9  6  4  0  0  0
 15  7  4  0  0  0
  7 16  4  0  0  0
  7 18  4  0  0  0
  9 10  4  0  0  0
 12  9  1  0  0  0
 10 11  4  0  0  0
 13 12  1  0  0  0
 14 13  1  0  0  0
 14 15  4  0  0  0
 14 17  4  0  0  0
 16 17  4  0  0  0
 18 19  1  0  0  0
  1 20  1  0  0  0
  2 21  1  0  0  0
  3 22  1  0  0  0
  4 23  1  0  0  0
  6 24  1  0  0  0
 10 25  1  0  0  0
 11 26  1  0  0  0
 12 27  1  0  0  0
 12 28  1  0  0  0
 13 29  1  0  0  0
 13 30  1  0  0  0
 19 31  1  0  0  0
M  END
$$$$
