4b7z_ligand
  -I-interpret- 

 44 44  0  0  0  0  0  0  0  0999 V2000
   28.7560   19.9680   11.8100 S   0  0  0  0  0
   29.2730   20.5950   13.2810 N   0  0  0  0  0
   27.3900   19.6390   11.9710 O   0  0  0  0  0
   31.1550   21.5210    9.4480 C   0  0  0  0  0
   26.9300   19.6460   14.7850 N   0  3  0  0  0
   29.7000   18.9420   11.5130 O   0  0  0  0  0
   30.1940   21.9580   10.3280 C   0  0  0  0  0
   28.8600   21.1910   10.5310 C   0  0  0  0  0
   26.5620   17.6550   16.3740 C   0  0  0  0  0
   30.4340   23.1210   11.0610 C   0  0  0  0  0
   31.6490   23.8040   10.9050 C   0  0  0  0  0
   32.6130   23.3460   10.0240 C   0  0  0  0  0
   32.3660   22.1900    9.2830 C   0  0  0  0  0
   28.4700   21.6150   14.0280 C   0  0  0  0  0
   27.2950   21.1090   14.9190 C   0  0  0  0  0
   33.9090   24.0990    9.8520 C   0  0  0  0  0
   25.4340   19.5160   14.5890 C   0  0  0  0  0
   24.7350   20.7180   13.9620 C   0  0  0  0  0
   27.2230   18.9960   16.1290 C   0  0  0  0  0
   30.1567   20.2725   13.6754 H   0  0  0  0  0
   30.9638   20.6229    8.8607 H   0  0  0  0  0
   27.4412   19.2277   14.0078 H   0  0  0  0  0
   28.1373   21.9559   10.8152 H   0  0  0  0  0
   28.7098   20.6395    9.6029 H   0  0  0  0  0
   25.4794   17.7700   16.3213 H   0  0  0  0  0
   26.8906   16.9453   15.6148 H   0  0  0  0  0
   26.8421   17.2883   17.3615 H   0  0  0  0  0
   29.6799   23.4972   11.7523 H   0  0  0  0  0
   31.8365   24.7074   11.4853 H   0  0  0  0  0
   33.1121   21.8144    8.5828 H   0  0  0  0  0
   28.0062   22.2365   13.2620 H   0  0  0  0  0
   29.1709   22.0896   14.7147 H   0  0  0  0  0
   27.6167   21.2473   15.9512 H   0  0  0  0  0
   26.4146   21.6704   14.6062 H   0  0  0  0  0
   33.6969   25.1098    9.5035 H   0  0  0  0  0
   34.4307   24.1449   10.8079 H   0  0  0  0  0
   34.5324   23.5845    9.1208 H   0  0  0  0  0
   25.0042   19.3963   15.5835 H   0  0  0  0  0
   25.2865   18.6831   13.9015 H   0  0  0  0  0
   24.8832   21.5934   14.5943 H   0  0  0  0  0
   25.1552   20.9064   12.9740 H   0  0  0  0  0
   23.6689   20.5101   13.8712 H   0  0  0  0  0
   26.8335   19.6735   16.8889 H   0  0  0  0  0
   28.2980   18.8177   16.1557 H   0  0  0  0  0
  2  1  1  0  0  0
  1  3  2  0  0  0
  1  6  2  0  0  0
  1  8  1  0  0  0
 14  2  1  0  0  0
  7  4  4  0  0  0
  4 13  4  0  0  0
 15  5  1  0  0  0
  5 17  1  0  0  0
  5 19  1  0  0  0
  8  7  1  0  0  0
  7 10  4  0  0  0
 19  9  1  0  0  0
 10 11  4  0  0  0
 11 12  4  0  0  0
 13 12  4  0  0  0
 12 16  1  0  0  0
 14 15  1  0  0  0
 17 18  1  0  0  0
  2 20  1  0  0  0
  4 21  1  0  0  0
  5 22  1  0  0  0
  8 23  1  0  0  0
  8 24  1  0  0  0
  9 25  1  0  0  0
  9 26  1  0  0  0
  9 27  1  0  0  0
 10 28  1  0  0  0
 11 29  1  0  0  0
 13 30  1  0  0  0
 14 31  1  0  0  0
 14 32  1  0  0  0
 15 33  1  0  0  0
 15 34  1  0  0  0
 16 35  1  0  0  0
 16 36  1  0  0  0
 16 37  1  0  0  0
 17 38  1  0  0  0
 17 39  1  0  0  0
 18 40  1  0  0  0
 18 41  1  0  0  0
 18 42  1  0  0  0
 19 43  1  0  0  0
 19 44  1  0  0  0
M  END
$$$$
