6jmf_ligand
  -I-interpret- 

 52 54  0  0  0  0  0  0  0  0999 V2000
  -12.1200   29.3390    9.9940 C   0  0  0  0  0
  -14.8100   29.2070    9.6050 C   0  0  0  0  0
  -14.2520   28.7140   10.7670 C   0  0  0  0  0
  -12.8900   28.7700   10.9740 C   0  0  0  0  0
  -10.1810   32.9370    4.2300 C   0  0  0  0  0
  -15.0010   28.0960   11.8140 C   0  0  0  0  0
  -10.6640   29.3940   10.2070 C   0  0  0  0  0
  -12.7220   29.8200    8.8530 C   0  0  0  0  0
  -14.0480   29.7630    8.6430 N   0  0  0  0  0
  -11.8380   30.3580    7.9350 N   0  0  0  0  0
  -16.2200   29.0910    9.4880 N   0  0  0  0  0
  -12.1340   30.9790    6.7390 C   0  0  0  0  0
  -11.0860   31.6070    6.1040 C   0  0  0  0  0
  -11.3040   32.2550    4.9160 C   0  0  0  0  0
  -12.5650   32.2740    4.3680 C   0  0  0  0  0
  -13.6080   31.6390    5.0050 C   0  0  0  0  0
  -13.3970   30.9870    6.1980 C   0  0  0  0  0
  -16.7520   29.4330    8.1690 C   0  0  0  0  0
  -18.2480   29.6830    8.2510 C   0  0  0  0  0
  -18.7850   30.1070    6.8910 C   0  0  0  0  0
  -18.4300   29.1310    5.7820 C   0  0  0  0  0
  -16.9420   28.8730    5.7490 C   0  0  0  0  0
  -16.4550   28.3890    7.0990 C   0  0  0  0  0
  -17.0580   27.0980    7.3850 N   0  3  0  0  0
  -15.5850   27.4870   12.6230 N   0  0  0  0  0
   -9.8890   29.8910    9.3940 O   0  0  0  0  0
  -10.3330   28.8290   11.3990 N   0  0  0  0  0
  -12.4414   28.3753   11.8857 H   0  0  0  0  0
   -9.7734   33.7091    4.8825 H   0  0  0  0  0
   -9.4038   32.2093    3.9966 H   0  0  0  0  0
  -10.5428   33.3924    3.3081 H   0  0  0  0  0
  -10.8481   30.2871    8.1707 H   0  0  0  0  0
  -16.8144   28.7931   10.2615 H   0  0  0  0  0
  -10.0887   31.5889    6.5435 H   0  0  0  0  0
  -12.7398   32.7936    3.4259 H   0  0  0  0  0
  -14.6040   31.6530    4.5625 H   0  0  0  0  0
  -14.2196   30.4842    6.7065 H   0  0  0  0  0
  -16.2372   30.3437    7.8627 H   0  0  0  0  0
  -18.4382   30.4769    8.9732 H   0  0  0  0  0
  -18.7469   28.7649    8.5613 H   0  0  0  0  0
  -18.3372   31.0692    6.6425 H   0  0  0  0  0
  -19.8719   30.1486    6.9614 H   0  0  0  0  0
  -18.7333   29.5596    4.8268 H   0  0  0  0  0
  -18.9458   28.1884    5.9654 H   0  0  0  0  0
  -16.4280   29.8014    5.5001 H   0  0  0  0  0
  -16.7328   28.1068    5.0025 H   0  0  0  0  0
  -15.3734   28.2540    7.0903 H   0  0  0  0  0
  -16.8262   26.4429    6.6383 H   0  0  0  0  0
  -16.6987   26.7453    8.2721 H   0  0  0  0  0
  -18.0708   27.2029    7.4447 H   0  0  0  0  0
   -9.3566   28.7903   11.6914 H   0  0  0  0  0
  -11.0612   28.4440   12.0006 H   0  0  0  0  0
  1  4  4  0  0  0
  1  7  1  0  0  0
  8  1  4  0  0  0
  2  3  4  0  0  0
  9  2  4  0  0  0
  2 11  1  0  0  0
  4  3  4  0  0  0
  3  6  1  0  0  0
 14  5  1  0  0  0
  6 25  3  0  0  0
  7 26  2  0  0  0
  7 27  1  0  0  0
  8  9  4  0  0  0
 10  8  1  0  0  0
 12 10  1  0  0  0
 11 18  1  0  0  0
 13 12  4  0  0  0
 12 17  4  0  0  0
 13 14  4  0  0  0
 14 15  4  0  0  0
 15 16  4  0  0  0
 16 17  4  0  0  0
 18 19  1  0  0  0
 18 23  1  0  0  0
 19 20  1  0  0  0
 20 21  1  0  0  0
 21 22  1  0  0  0
 22 23  1  0  0  0
 23 24  1  0  0  0
  4 28  1  0  0  0
  5 29  1  0  0  0
  5 30  1  0  0  0
  5 31  1  0  0  0
 10 32  1  0  0  0
 11 33  1  0  0  0
 13 34  1  0  0  0
 15 35  1  0  0  0
 16 36  1  0  0  0
 17 37  1  0  0  0
 18 38  1  0  0  0
 19 39  1  0  0  0
 19 40  1  0  0  0
 20 41  1  0  0  0
 20 42  1  0  0  0
 21 43  1  0  0  0
 21 44  1  0  0  0
 22 45  1  0  0  0
 22 46  1  0  0  0
 23 47  1  0  0  0
 24 48  1  0  0  0
 24 49  1  0  0  0
 24 50  1  0  0  0
 27 51  1  0  0  0
 27 52  1  0  0  0
M  END
$$$$
