### 
### Created by X-TOOL on Mon Sep 10 21:12:53 2018
### 

@<TRIPOS>MOLECULE
1y8o_ligand
   39    41     1     0     0
SMALL
GAST_HUCK


@<TRIPOS>ATOM
      1 PB        -46.2550   16.5650   73.3180 P.3       1 ADP         0.2069
      2 O1B       -45.8420   16.0780   74.7090 O.co2     1 ADP        -0.5891
      3 O2B       -45.2790   16.3630   72.1750 O.co2     1 ADP        -0.5891
      4 O3B       -46.9460   17.9210   73.3630 O.co2     1 ADP        -0.5891
      5 PA        -48.8140   15.7410   72.2220 P.3       1 ADP         0.3276
      6 O1A       -49.4330   14.3600   72.0410 O.co2     1 ADP        -0.5556
      7 O2A       -49.5120   16.8360   73.0210 O.co2     1 ADP        -0.5556
      8 O3A       -47.4000   15.4480   72.9730 O.3       1 ADP        -0.1548
      9 O5        -48.3870   16.3960   70.7930 O.3       1 ADP        -0.2436
     10 C5        -47.7190   15.6340   69.7900 C.3       1 ADP         0.1132
     11 C4        -46.9910   16.4800   68.7390 C.3       1 ADP         0.1189
     12 O4        -47.8500   17.0230   67.7030 O.3       1 ADP        -0.3364
     13 C3        -46.1790   17.6620   69.2830 C.3       1 ADP         0.1149
     14 O3        -44.8980   17.1780   69.7010 O.3       1 ADP        -0.3864
     15 C2        -46.0780   18.6000   68.0870 C.3       1 ADP         0.1385
     16 O2        -44.9560   18.2210   67.2760 O.3       1 ADP        -0.3836
     17 C1        -47.3250   18.3080   67.2590 C.3       1 ADP         0.2010
     18 N9        -48.3820   19.3470   67.4280 N.pl3     1 ADP        -0.1919
     19 C8        -49.4870   19.1920   68.1860 C.2       1 ADP         0.1123
     20 N7        -50.2910   20.2750   68.1310 N.2       1 ADP        -0.2958
     21 C5        -49.6960   21.1690   67.3180 C.ar      1 ADP         0.1045
     22 C6        -50.0150   22.5460   66.8570 C.ar      1 ADP         0.1298
     23 N6        -51.1460   23.1860   67.2440 N.pl3     1 ADP        -0.3152
     24 N1        -49.1320   23.1110   66.0110 N.ar      1 ADP        -0.2698
     25 C2        -47.9830   22.4900   65.6110 C.ar      1 ADP         0.0533
     26 N3        -47.6140   21.2540   66.0120 N.ar      1 ADP        -0.2714
     27 C4        -48.4320   20.5530   66.8460 C.ar      1 ADP         0.1613
     28 H1        -48.4657   15.0117   69.2750 H         1 ADP         0.0648
     29 H2        -46.9797   14.9864   70.2839 H         1 ADP         0.0648
     30 H3        -46.2806   15.7963   68.2514 H         1 ADP         0.0651
     31 H4        -46.6882   18.1526   70.1256 H         1 ADP         0.0648
     32 H5        -45.0141   16.5236   70.3798 H         1 ADP         0.2100
     33 H6        -46.0152   19.6537   68.3966 H         1 ADP         0.0676
     34 H7        -44.1603   18.2776   67.7919 H         1 ADP         0.2101
     35 H8        -47.0479   18.2525   66.1959 H         1 ADP         0.0996
     36 H9        -49.7044   18.3002   68.7720 H         1 ADP         0.1349
     37 H10       -51.3387   24.1401   66.9073 H         1 ADP         0.1820
     38 H11       -51.8124   22.7180   67.8747 H         1 ADP         0.1820
     39 H12       -47.3275   23.0213   64.9305 H         1 ADP         0.0996
@<TRIPOS>BOND
     1    1    2 ar 
     2    1    3 ar 
     3    1    4 ar 
     4    8    1 1  
     5    5    6 ar 
     6    5    7 ar 
     7    5    8 1  
     8    5    9 1  
     9    9   10 1  
    10   10   11 1  
    11   11   12 1  
    12   11   13 1  
    13   12   17 1  
    14   13   14 1  
    15   13   15 1  
    16   15   16 1  
    17   15   17 1  
    18   17   18 1  
    19   18   19 1  
    20   18   27 1  
    21   19   20 2  
    22   20   21 1  
    23   21   22 ar 
    24   21   27 ar 
    25   22   23 1  
    26   22   24 ar 
    27   24   25 ar 
    28   25   26 ar 
    29   26   27 ar 
    30   10   28 1  
    31   10   29 1  
    32   11   30 1  
    33   13   31 1  
    34   14   32 1  
    35   15   33 1  
    36   16   34 1  
    37   17   35 1  
    38   19   36 1  
    39   23   37 1  
    40   23   38 1  
    41   25   39 1  
@<TRIPOS>SUBSTRUCTURE
     1 ADP         1

