4fs3_ligand
  -I-interpret- 

 51 54  0  0  0  0  0  0  0  0999 V2000
  112.2380   64.8150   35.4650 O   0  0  0  0  0
  111.2650   65.5680   35.4960 C   0  0  0  0  0
  110.7310   66.0540   36.8440 C   0  0  0  0  0
  111.6690   65.6640   37.9540 C   0  0  0  0  0
  111.3040   66.2730   39.2900 C   0  0  0  0  0
  110.1770   67.0850   39.4630 C   0  0  0  0  0
  109.8960   67.5950   40.7290 C   0  0  0  0  0
  108.6900   68.4930   41.0070 C   0  0  0  0  0
  108.2460   68.2660   42.4560 C   0  0  0  0  0
  112.1370   65.9860   40.3640 C   0  0  0  0  0
  111.9010   66.4710   41.5940 N   0  0  0  0  0
  110.8210   67.2630   41.8390 C   0  0  0  0  0
  110.5910   67.7480   43.0920 N   0  0  0  0  0
  109.4060   68.2560   43.4570 C   0  0  0  0  0
  109.2490   68.6820   44.5990 O   0  0  0  0  0
  110.6520   65.9860   34.3900 N   0  0  0  0  0
  111.2400   65.6720   33.0850 C   0  0  0  0  0
  109.4120   66.8140   34.3380 C   0  0  0  0  0
  109.9780   68.2020   34.3610 C   0  0  0  0  0
  110.4240   68.8590   35.4850 O   0  0  0  0  0
  110.9520   70.1220   35.1320 C   0  0  0  0  0
  110.8850   70.3380   33.6850 C   0  0  0  0  0
  110.2450   69.0900   33.2030 C   0  0  0  0  0
  109.9830   68.9260   31.7330 C   0  0  0  0  0
  111.4940   71.0700   36.0000 C   0  0  0  0  0
  111.9510   72.2480   35.3970 C   0  0  0  0  0
  111.8840   72.4560   34.0060 C   0  0  0  0  0
  111.3430   71.5260   33.1110 C   0  0  0  0  0
  109.7583   65.5967   37.0253 H   0  0  0  0  0
  110.6436   67.1402   36.8195 H   0  0  0  0  0
  112.6620   66.0262   37.6878 H   0  0  0  0  0
  111.6185   64.5805   38.0617 H   0  0  0  0  0
  109.5276   67.3154   38.6184 H   0  0  0  0  0
  107.8765   68.2491   40.3238 H   0  0  0  0  0
  108.9597   69.5385   40.8577 H   0  0  0  0  0
  107.7656   67.2887   42.5019 H   0  0  0  0  0
  107.5854   69.0890   42.7287 H   0  0  0  0  0
  113.0069   65.3490   40.2039 H   0  0  0  0  0
  111.3475   67.7234   43.7758 H   0  0  0  0  0
  110.5174   65.1174   32.4863 H   0  0  0  0  0
  111.5026   66.5982   32.5739 H   0  0  0  0  0
  112.1358   65.0676   33.2275 H   0  0  0  0  0
  108.7181   66.6122   35.1540 H   0  0  0  0  0
  108.7884   66.6115   33.4672 H   0  0  0  0  0
  110.5174   68.0499   31.3655 H   0  0  0  0  0
  108.9134   68.7964   31.5681 H   0  0  0  0  0
  110.3288   69.8131   31.2024 H   0  0  0  0  0
  111.5575   70.9047   37.0755 H   0  0  0  0  0
  112.3734   73.0314   36.0263 H   0  0  0  0  0
  112.2743   73.3913   33.6048 H   0  0  0  0  0
  111.2832   71.7158   32.0393 H   0  0  0  0  0
  1  2  2  0  0  0
  2  3  1  0  0  0
  2 16  1  0  0  0
  3  4  1  0  0  0
  4  5  1  0  0  0
  5  6  4  0  0  0
  5 10  4  0  0  0
  6  7  4  0  0  0
  7  8  1  0  0  0
  7 12  4  0  0  0
  8  9  1  0  0  0
  9 14  1  0  0  0
 10 11  4  0  0  0
 11 12  4  0  0  0
 12 13  1  0  0  0
 13 14  1  0  0  0
 14 15  2  0  0  0
 16 17  1  0  0  0
 16 18  1  0  0  0
 18 19  1  0  0  0
 19 20  4  0  0  0
 19 23  4  0  0  0
 20 21  4  0  0  0
 21 22  4  0  0  0
 21 25  4  0  0  0
 22 23  4  0  0  0
 22 28  4  0  0  0
 23 24  1  0  0  0
 25 26  4  0  0  0
 26 27  4  0  0  0
 27 28  4  0  0  0
  3 29  1  0  0  0
  3 30  1  0  0  0
  4 31  1  0  0  0
  4 32  1  0  0  0
  6 33  1  0  0  0
  8 34  1  0  0  0
  8 35  1  0  0  0
  9 36  1  0  0  0
  9 37  1  0  0  0
 10 38  1  0  0  0
 13 39  1  0  0  0
 17 40  1  0  0  0
 17 41  1  0  0  0
 17 42  1  0  0  0
 18 43  1  0  0  0
 18 44  1  0  0  0
 24 45  1  0  0  0
 24 46  1  0  0  0
 24 47  1  0  0  0
 25 48  1  0  0  0
 26 49  1  0  0  0
 27 50  1  0  0  0
 28 51  1  0  0  0
M  END
$$$$
