### 
### Created by X-TOOL on Fri Nov 18 12:32:49 2016
### 

@<TRIPOS>MOLECULE
1czk_ligand
   50    52     1     0     0
SMALL
GAST_HUCK


@<TRIPOS>ATOM
      1 N1          1.3290   44.5480   53.4950 N.2       1 FMN        -0.2549
      2 C2          0.4150   45.3550   54.1150 C.2       1 FMN         0.2439
      3 O2         -0.6930   44.9540   54.3960 O.2       1 FMN        -0.3902
      4 N3          0.7370   46.6630   54.4400 N.am      1 FMN        -0.1938
      5 C4          1.9340   47.2600   54.1570 C.2       1 FMN         0.2704
      6 O4          2.1430   48.4030   54.4840 O.2       1 FMN        -0.3655
      7 C4A         2.9270   46.4200   53.4630 C.2       1 FMN         0.2076
      8 N5          4.1470   46.8700   53.2680 N.2       1 FMN        -0.2387
      9 C5A         5.0550   46.0220   52.6670 C.ar      1 FMN         0.0856
     10 C6          6.3610   46.4760   52.4000 C.ar      1 FMN        -0.0403
     11 C7          7.3580   45.6630   51.8930 C.ar      1 FMN        -0.0428
     12 C7M         8.7560   46.2420   51.6180 C.3       1 FMN        -0.0352
     13 C8          7.0560   44.2850   51.6160 C.ar      1 FMN        -0.0416
     14 C8M         8.1250   43.3440   51.1120 C.3       1 FMN        -0.0312
     15 C9          5.7720   43.8020   51.8270 C.ar      1 FMN        -0.0258
     16 C9A         4.7570   44.6550   52.3610 C.ar      1 FMN         0.1048
     17 N10         3.4550   44.2300   52.5950 N.pl3     1 FMN        -0.2138
     18 C10         2.5020   45.0590   53.1670 C.2       1 FMN         0.1894
     19 C1          3.0950   42.8500   52.1970 C.3       1 FMN         0.0886
     20 C2          2.7490   42.7990   50.7060 C.3       1 FMN         0.1102
     21 O2          1.6070   43.5830   50.3410 O.3       1 FMN        -0.3865
     22 C3          2.5330   41.3520   50.2790 C.3       1 FMN         0.1118
     23 O3          3.7740   40.6410   50.3550 O.3       1 FMN        -0.3865
     24 C4          1.8520   41.0430   48.9450 C.3       1 FMN         0.1111
     25 O4          1.7290   39.6230   48.8020 O.3       1 FMN        -0.3865
     26 C5          2.6230   41.6500   47.7770 C.3       1 FMN         0.1068
     27 O5          1.8830   41.4200   46.5690 O.3       1 FMN        -0.2734
     28 P           2.5640   41.6960   45.1610 P.3       1 FMN         0.2008
     29 O1P         3.3180   40.4910   44.8490 O.co2     1 FMN        -0.5537
     30 O2P         3.1420   43.0430   44.9880 O.co2     1 FMN        -0.5537
     31 O3P         1.2870   41.6450   44.2900 O.co2     1 FMN        -0.5537
     32 H1          0.0459   47.2081   54.9145 H         1 FMN         0.2248
     33 H2          6.5965   47.5147   52.6020 H         1 FMN         0.0564
     34 H3          8.7739   47.3056   51.8981 H         1 FMN         0.0366
     35 H4          8.9910   46.1406   50.5482 H         1 FMN         0.0366
     36 H5          9.5030   45.6941   52.2111 H         1 FMN         0.0366
     37 H6          7.6925   42.3436   50.9635 H         1 FMN         0.0395
     38 H7          8.9394   43.2856   51.8491 H         1 FMN         0.0395
     39 H8          8.5214   43.7175   50.1563 H         1 FMN         0.0395
     40 H9          5.5376   42.7716   51.5853 H         1 FMN         0.0493
     41 H10         2.2248   42.5189   52.7828 H         1 FMN         0.0631
     42 H11         3.9460   42.1817   52.3949 H         1 FMN         0.0631
     43 H12         3.6127   43.1976   50.1536 H         1 FMN         0.0647
     44 H13         1.7664   44.4936   50.5597 H         1 FMN         0.2100
     45 H14         1.8679   40.9254   51.0443 H         1 FMN         0.0647
     46 H15         3.6379   39.7393   50.0886 H         1 FMN         0.2100
     47 H16         0.8439   41.4831   48.9558 H         1 FMN         0.0646
     48 H17         2.5927   39.2280   48.8204 H         1 FMN         0.2100
     49 H18         3.6129   41.1764   47.7007 H         1 FMN         0.0639
     50 H19         2.7452   42.7315   47.9361 H         1 FMN         0.0639
@<TRIPOS>BOND
     1    1    2 1  
     2    1   18 2  
     3    2    3 2  
     4    2    4 am 
     5    4    5 am 
     6    5    6 2  
     7    5    7 1  
     8    7    8 2  
     9    7   18 1  
    10    8    9 1  
    11    9   10 ar 
    12    9   16 ar 
    13   10   11 ar 
    14   11   12 1  
    15   11   13 ar 
    16   13   14 1  
    17   13   15 ar 
    18   15   16 ar 
    19   16   17 1  
    20   17   18 1  
    21   17   19 1  
    22   19   20 1  
    23   20   21 1  
    24   20   22 1  
    25   22   23 1  
    26   22   24 1  
    27   24   25 1  
    28   24   26 1  
    29   26   27 1  
    30   27   28 1  
    31   28   29 ar 
    32   28   30 ar 
    33   28   31 ar 
    34    4   32 1  
    35   10   33 1  
    36   12   34 1  
    37   12   35 1  
    38   12   36 1  
    39   14   37 1  
    40   14   38 1  
    41   14   39 1  
    42   15   40 1  
    43   19   41 1  
    44   19   42 1  
    45   20   43 1  
    46   21   44 1  
    47   22   45 1  
    48   23   46 1  
    49   24   47 1  
    50   25   48 1  
    51   26   49 1  
    52   26   50 1  
@<TRIPOS>SUBSTRUCTURE
     1 FMN         1

