1czk_ligand
  -I-interpret- 

 52 54  0  0  0  0  0  0  0  0999 V2000
    1.3290   44.5480   53.4950 N   0  0  0  0  0
    0.4150   45.3550   54.1150 C   0  0  0  0  0
   -0.6930   44.9540   54.3960 O   0  0  0  0  0
    0.7370   46.6630   54.4400 N   0  0  0  0  0
    1.9340   47.2600   54.1570 C   0  0  0  0  0
    2.1430   48.4030   54.4840 O   0  0  0  0  0
    2.9270   46.4200   53.4630 C   0  0  0  0  0
    4.1470   46.8700   53.2680 N   0  0  0  0  0
    5.0550   46.0220   52.6670 C   0  0  0  0  0
    6.3610   46.4760   52.4000 C   0  0  0  0  0
    7.3580   45.6630   51.8930 C   0  0  0  0  0
    8.7560   46.2420   51.6180 C   0  0  0  0  0
    7.0560   44.2850   51.6160 C   0  0  0  0  0
    8.1250   43.3440   51.1120 C   0  0  0  0  0
    5.7720   43.8020   51.8270 C   0  0  0  0  0
    4.7570   44.6550   52.3610 C   0  0  0  0  0
    3.4550   44.2300   52.5950 N   0  0  0  0  0
    2.5020   45.0590   53.1670 C   0  0  0  0  0
    3.0950   42.8500   52.1970 C   0  0  0  0  0
    2.7490   42.7990   50.7060 C   0  0  0  0  0
    1.6070   43.5830   50.3410 O   0  0  0  0  0
    2.5330   41.3520   50.2790 C   0  0  0  0  0
    3.7740   40.6410   50.3550 O   0  0  0  0  0
    1.8520   41.0430   48.9450 C   0  0  0  0  0
    1.7290   39.6230   48.8020 O   0  0  0  0  0
    2.6230   41.6500   47.7770 C   0  0  0  0  0
    1.8830   41.4200   46.5690 O   0  0  0  0  0
    2.5640   41.6960   45.1610 P   0  0  0  0  0
    3.3180   40.4910   44.8490 O   0  0  0  0  0
    3.1420   43.0430   44.9880 O   0  0  0  0  0
    1.2870   41.6450   44.2900 O   0  0  0  0  0
    0.0320   47.2191   54.9240 H   0  0  0  0  0
    6.5978   47.5204   52.6031 H   0  0  0  0  0
    8.6768   47.0489   50.8895 H   0  0  0  0  0
    9.1767   46.6288   52.5462 H   0  0  0  0  0
    9.4018   45.4572   51.2241 H   0  0  0  0  0
    8.5170   43.7152   50.1651 H   0  0  0  0  0
    8.9313   43.2871   51.8432 H   0  0  0  0  0
    7.6952   42.3531   50.9653 H   0  0  0  0  0
    5.5363   42.7659   51.5840 H   0  0  0  0  0
    2.2283   42.5281   52.7743 H   0  0  0  0  0
    3.9430   42.1923   52.3879 H   0  0  0  0  0
    3.5986   43.2385   50.1834 H   0  0  0  0  0
    1.4529   43.5017   49.3969 H   0  0  0  0  0
    1.7837   41.0179   50.9966 H   0  0  0  0  0
    3.6365   39.7298   50.0858 H   0  0  0  0  0
    0.8590   41.4923   48.9372 H   0  0  0  0  0
    1.3019   39.4225   47.9659 H   0  0  0  0  0
    3.6072   41.1875   47.7024 H   0  0  0  0  0
    2.7517   42.7209   47.9345 H   0  0  0  0  0
    2.4943   43.7033   45.2451 H   0  0  0  0  0
    0.7529   42.4241   44.4612 H   0  0  0  0  0
  1  2  1  0  0  0
  1 18  2  0  0  0
  2  3  2  0  0  0
  2  4  1  0  0  0
  4  5  1  0  0  0
  5  6  2  0  0  0
  5  7  1  0  0  0
  7  8  2  0  0  0
  7 18  1  0  0  0
  8  9  1  0  0  0
  9 10  4  0  0  0
  9 16  4  0  0  0
 10 11  4  0  0  0
 11 12  1  0  0  0
 11 13  4  0  0  0
 13 14  1  0  0  0
 13 15  4  0  0  0
 15 16  4  0  0  0
 16 17  1  0  0  0
 17 18  1  0  0  0
 17 19  1  0  0  0
 19 20  1  0  0  0
 20 21  1  0  0  0
 20 22  1  0  0  0
 22 23  1  0  0  0
 22 24  1  0  0  0
 24 25  1  0  0  0
 24 26  1  0  0  0
 26 27  1  0  0  0
 27 28  1  0  0  0
 28 29  2  0  0  0
 28 30  1  0  0  0
 28 31  1  0  0  0
  4 32  1  0  0  0
 10 33  1  0  0  0
 12 34  1  0  0  0
 12 35  1  0  0  0
 12 36  1  0  0  0
 14 37  1  0  0  0
 14 38  1  0  0  0
 14 39  1  0  0  0
 15 40  1  0  0  0
 19 41  1  0  0  0
 19 42  1  0  0  0
 20 43  1  0  0  0
 21 44  1  0  0  0
 22 45  1  0  0  0
 23 46  1  0  0  0
 24 47  1  0  0  0
 25 48  1  0  0  0
 26 49  1  0  0  0
 26 50  1  0  0  0
 30 51  1  0  0  0
 31 52  1  0  0  0
M  END
$$$$
