3in4_ligand
  -I-interpret- 

 54 57  0  0  0  0  0  0  0  0999 V2000
   16.3090  -13.2410   15.5770 C   0  0  0  0  0
   15.8040  -11.3220   17.4690 N   0  0  0  0  0
   14.3490   -6.1890   18.8260 O   0  0  0  0  0
   15.6960  -11.9340   15.0960 C   0  0  0  0  0
   15.4290   -5.3490   16.9710 N   0  0  0  0  0
   15.4910  -10.9380   16.2090 C   0  0  0  0  0
   14.8550   -6.7880   15.3480 N   0  0  0  0  0
   14.9940   -9.6730   15.9150 C   0  0  0  0  0
   16.4320   -5.1830   14.8490 N   0  0  0  0  0
   14.7990   -8.7380   16.9380 C   0  0  0  0  0
    9.8820   -2.9390   14.0970 N   0  0  0  0  0
   15.1230   -9.1390   18.2420 C   0  0  0  0  0
    8.3250   -3.1510   15.8840 N   0  0  0  0  0
   15.6180  -10.4230   18.4660 C   0  0  0  0  0
   15.9700  -10.8660   19.8630 C   0  0  0  0  0
   17.4740  -10.9630   20.0690 C   0  0  0  0  0
   14.2470   -7.3370   16.6190 C   0  0  0  0  0
   14.6650   -6.2530   17.6450 C   0  0  0  0  0
   15.5450   -5.7480   15.6900 C   0  0  0  0  0
   16.0040   -4.1780   17.5850 C   0  0  0  0  0
   12.7180   -7.3670   16.5030 C   0  0  0  0  0
   11.9360   -8.4980   16.7650 C   0  0  0  0  0
   10.5480   -8.4390   16.6340 C   0  0  0  0  0
    9.9140   -7.2600   16.2460 C   0  0  0  0  0
   10.6620   -6.1100   15.9770 C   0  0  0  0  0
   12.0570   -6.1860   16.1130 C   0  0  0  0  0
   10.0240   -4.8560   15.5740 C   0  0  0  0  0
   10.4490   -4.1010   14.4970 C   0  0  0  0  0
    8.8380   -2.5170   14.8220 C   0  0  0  0  0
    8.9370   -4.3070   16.2330 C   0  0  0  0  0
   17.2811  -13.0408   16.0276 H   0  0  0  0  0
   15.6517  -13.6987   16.3163 H   0  0  0  0  0
   16.4318  -13.9165   14.7304 H   0  0  0  0  0
   14.7194  -12.1615   14.6686 H   0  0  0  0  0
   16.3817  -11.4903   14.3741 H   0  0  0  0  0
   14.7432   -7.1636   14.4063 H   0  0  0  0  0
   14.7556   -9.4088   14.8847 H   0  0  0  0  0
   17.0388   -4.4316   15.1772 H   0  0  0  0  0
   14.9886   -8.4504   19.0762 H   0  0  0  0  0
   15.5396  -11.8542   20.0255 H   0  0  0  0  0
   15.5772  -10.1287   20.5632 H   0  0  0  0  0
   17.8896  -11.6862   19.3674 H   0  0  0  0  0
   17.9267   -9.9865   19.8970 H   0  0  0  0  0
   17.6796  -11.2855   21.0897 H   0  0  0  0  0
   17.0900   -4.2220   17.5021 H   0  0  0  0  0
   15.6355   -3.2858   17.0788 H   0  0  0  0  0
   15.7197   -4.1441   18.6367 H   0  0  0  0  0
   12.4132   -9.4285   17.0726 H   0  0  0  0  0
    9.9510   -9.3278   16.8381 H   0  0  0  0  0
    8.8284   -7.2344   16.1517 H   0  0  0  0  0
   12.6522   -5.2960   15.9087 H   0  0  0  0  0
   11.3032   -4.4683   13.9283 H   0  0  0  0  0
    8.3672   -1.5805   14.5230 H   0  0  0  0  0
    8.5453   -4.8451   17.0962 H   0  0  0  0  0
  4  1  1  0  0  0
  6  2  4  0  0  0
 14  2  4  0  0  0
 18  3  2  0  0  0
  6  4  1  0  0  0
 18  5  1  0  0  0
  5 19  4  0  0  0
  5 20  1  0  0  0
  8  6  4  0  0  0
 17  7  1  0  0  0
  7 19  1  0  0  0
 10  8  4  0  0  0
 19  9  2  0  0  0
 10 12  4  0  0  0
 17 10  1  0  0  0
 28 11  4  0  0  0
 11 29  4  0  0  0
 12 14  4  0  0  0
 29 13  4  0  0  0
 13 30  4  0  0  0
 14 15  1  0  0  0
 15 16  1  0  0  0
 17 18  1  0  0  0
 21 17  1  0  0  0
 21 22  4  0  0  0
 26 21  4  0  0  0
 23 22  4  0  0  0
 24 23  4  0  0  0
 25 24  4  0  0  0
 25 26  4  0  0  0
 27 25  1  0  0  0
 27 28  4  0  0  0
 27 30  4  0  0  0
  1 31  1  0  0  0
  1 32  1  0  0  0
  1 33  1  0  0  0
  4 34  1  0  0  0
  4 35  1  0  0  0
  7 36  1  0  0  0
  8 37  1  0  0  0
  9 38  1  0  0  0
 12 39  1  0  0  0
 15 40  1  0  0  0
 15 41  1  0  0  0
 16 42  1  0  0  0
 16 43  1  0  0  0
 16 44  1  0  0  0
 20 45  1  0  0  0
 20 46  1  0  0  0
 20 47  1  0  0  0
 22 48  1  0  0  0
 23 49  1  0  0  0
 24 50  1  0  0  0
 26 51  1  0  0  0
 28 52  1  0  0  0
 29 53  1  0  0  0
 30 54  1  0  0  0
M  END
$$$$
