2xuz_ligand
  -I-interpret- 

 75 78  0  0  0  0  0  0  0  0999 V2000
   -6.2640  -15.8570   10.7310 O   0  0  0  0  0
   -5.3840  -16.7480   13.3240 O   0  0  0  0  0
   -8.1890  -16.5500   12.7760 O   0  0  0  0  0
   -4.0910  -21.3350   11.8160 N   0  0  0  0  0
   -9.2690  -17.3290   13.0480 C   0  0  0  0  0
   -4.2840  -17.5070   13.5710 C   0  0  0  0  0
   -4.2290  -18.7610   12.9770 C   0  0  0  0  0
   -9.1230  -18.6930   12.8010 C   0  0  0  0  0
   -6.3860  -16.1120    9.3920 C   0  0  0  0  0
  -10.4740  -16.8250   13.5370 C   0  0  0  0  0
   -8.9270  -21.4460   12.1840 N   0  0  0  0  0
   -6.2370  -15.1160    8.4390 C   0  0  0  0  0
   -2.1690  -17.9190   14.5930 C   0  0  0  0  0
   -6.8290  -18.3630    9.9370 O   0  0  0  0  0
   -6.8650  -20.1170    8.0650 N   0  0  0  0  0
   -3.1470  -19.6260   13.1580 C   0  0  0  0  0
   -3.2540  -17.0810   14.3870 C   0  0  0  0  0
   -6.6750  -17.4180    8.9890 C   0  0  0  0  0
  -11.5220  -17.7130   13.7800 C   0  0  0  0  0
   -5.2730  -19.1240   12.1770 O   0  0  0  0  0
   -7.9270  -19.1390   12.3340 O   0  0  0  0  0
   -6.3700  -15.4510    7.0980 C   0  0  0  0  0
   -6.6500  -16.7630    6.7080 C   0  0  0  0  0
  -11.3590  -19.0800   13.5370 C   0  0  0  0  0
   -2.1220  -19.1820   13.9920 C   0  0  0  0  0
   -2.1550  -21.6940   12.9310 O   0  0  0  0  0
   -3.0660  -20.9260   12.6000 C   0  0  0  0  0
   -4.1190  -22.7020   11.2620 C   0  0  0  0  0
   -4.2570  -22.6300    9.8770 C   0  0  0  0  0
   -3.2970  -22.8640    9.1410 O   0  0  0  0  0
   -5.4680  -22.2240    9.4390 O   0  0  0  0  0
   -5.5640  -22.1270    8.0170 C   0  0  0  0  0
   -6.9370  -21.5510    7.6830 C   0  0  0  0  0
   -7.0720  -19.0910    7.1900 C   0  0  0  0  0
   -6.8190  -17.7830    7.6480 C   0  0  0  0  0
   -7.3560  -19.2660    6.0020 O   0  0  0  0  0
   -7.9020  -22.3470    8.3420 C   0  0  0  0  0
   -8.0490  -23.5170    7.9830 O   0  0  0  0  0
   -5.2470  -23.5150   11.9260 C   0  0  0  0  0
   -6.4940  -22.7430   11.9820 O   0  0  0  0  0
   -7.6000  -23.4640   11.6160 C   0  0  0  0  0
   -7.5410  -24.6390   11.2590 O   0  0  0  0  0
   -8.8630  -22.8300   11.6490 C   0  0  0  0  0
   -9.4130  -22.7340   10.1960 C   0  0  0  0  0
   -8.5950  -21.7940    9.3830 O   0  0  0  0  0
  -10.0560  -20.9750   12.7770 C   0  0  0  0  0
  -11.0670  -21.6680   12.9200 O   0  0  0  0  0
  -10.1450  -19.6060   13.0610 C   0  0  0  0  0
   -6.4006  -16.6693   11.2240 H   0  0  0  0  0
   -5.3042  -15.9107   13.7868 H   0  0  0  0  0
   -8.3961  -15.6352   12.9804 H   0  0  0  0  0
   -4.8530  -20.6904   11.6058 H   0  0  0  0  0
  -10.5945  -15.7582   13.7256 H   0  0  0  0  0
   -8.1109  -20.8392   12.1052 H   0  0  0  0  0
   -6.0197  -14.0902    8.7366 H   0  0  0  0  0
   -1.3459  -17.5916   15.2282 H   0  0  0  0  0
   -7.0224  -19.2054    9.5191 H   0  0  0  0  0
   -6.6489  -19.8870    9.0349 H   0  0  0  0  0
   -3.2938  -16.1007   14.8618 H   0  0  0  0  0
  -12.4724  -17.3393   14.1611 H   0  0  0  0  0
   -5.1169  -20.0051   11.8292 H   0  0  0  0  0
   -7.9678  -20.0900   12.2097 H   0  0  0  0  0
   -6.2542  -14.6784    6.3379 H   0  0  0  0  0
   -6.7386  -16.9961    5.6469 H   0  0  0  0  0
  -12.1944  -19.7554   13.7213 H   0  0  0  0  0
   -1.2670  -19.8314   14.1797 H   0  0  0  0  0
   -3.1847  -23.2205   11.4775 H   0  0  0  0  0
   -5.4436  -23.1096    7.5608 H   0  0  0  0  0
   -4.7768  -21.4818    7.6268 H   0  0  0  0  0
   -7.2328  -21.5785    6.6343 H   0  0  0  0  0
   -4.9450  -23.7632   12.9435 H   0  0  0  0  0
   -5.4209  -24.4153   11.3366 H   0  0  0  0  0
   -9.4341  -23.4562   12.3344 H   0  0  0  0  0
  -10.4387  -22.3670   10.2318 H   0  0  0  0  0
   -9.3717  -23.7224    9.7383 H   0  0  0  0  0
  9  1  1  0  0  0
  6  2  1  0  0  0
  5  3  1  0  0  0
  4 27  1  0  0  0
 28  4  1  0  0  0
  8  5  4  0  0  0
  5 10  4  0  0  0
  7  6  4  0  0  0
  6 17  4  0  0  0
 16  7  4  0  0  0
  7 20  1  0  0  0
  8 21  1  0  0  0
 48  8  4  0  0  0
  9 12  4  0  0  0
 18  9  4  0  0  0
 19 10  4  0  0  0
 11 43  1  0  0  0
 46 11  1  0  0  0
 22 12  4  0  0  0
 13 17  4  0  0  0
 25 13  4  0  0  0
 18 14  1  0  0  0
 33 15  1  0  0  0
 15 34  1  0  0  0
 16 25  4  0  0  0
 27 16  1  0  0  0
 35 18  4  0  0  0
 24 19  4  0  0  0
 23 22  4  0  0  0
 35 23  4  0  0  0
 48 24  4  0  0  0
 27 26  2  0  0  0
 28 29  1  0  0  0
 39 28  1  0  0  0
 29 30  2  0  0  0
 29 31  1  0  0  0
 32 31  1  0  0  0
 33 32  1  0  0  0
 37 33  1  0  0  0
 34 35  1  0  0  0
 34 36  2  0  0  0
 37 38  2  0  0  0
 45 37  1  0  0  0
 40 39  1  0  0  0
 41 40  1  0  0  0
 41 42  2  0  0  0
 43 41  1  0  0  0
 43 44  1  0  0  0
 44 45  1  0  0  0
 46 47  2  0  0  0
 46 48  1  0  0  0
  1 49  1  0  0  0
  2 50  1  0  0  0
  3 51  1  0  0  0
  4 52  1  0  0  0
 10 53  1  0  0  0
 11 54  1  0  0  0
 12 55  1  0  0  0
 13 56  1  0  0  0
 14 57  1  0  0  0
 15 58  1  0  0  0
 17 59  1  0  0  0
 19 60  1  0  0  0
 20 61  1  0  0  0
 21 62  1  0  0  0
 22 63  1  0  0  0
 23 64  1  0  0  0
 24 65  1  0  0  0
 25 66  1  0  0  0
 28 67  1  0  0  0
 32 68  1  0  0  0
 32 69  1  0  0  0
 33 70  1  0  0  0
 39 71  1  0  0  0
 39 72  1  0  0  0
 43 73  1  0  0  0
 44 74  1  0  0  0
 44 75  1  0  0  0
M  END
$$$$
