5mxq_ligand
  -I-interpret- 

 29 30  0  0  0  0  0  0  0  0999 V2000
  -27.5010  -22.3680   -6.4490 C   0  0  0  0  0
  -28.8330  -22.5580   -6.0240 C   0  0  0  0  0
  -29.8850  -21.9880   -6.7820 C   0  0  0  0  0
  -28.3750  -21.0530   -8.2690 C   0  0  0  0  0
  -26.3370  -22.9200   -5.8650 C   0  0  0  0  0
  -26.3690  -23.7110   -4.8890 O   0  0  0  0  0
  -29.0320  -23.2630   -4.9050 N   0  0  0  0  0
  -30.8460  -22.0050   -3.1350 C   0  0  0  0  0
  -25.2260  -22.7640   -6.4380 O   0  0  0  0  0
  -27.3610  -21.5980   -7.5260 N   0  0  0  0  0
  -29.6820  -21.2520   -7.8940 C   0  0  0  0  0
  -30.6390  -23.2810   -4.2380 S   0  0  0  0  0
  -31.7550  -23.4060   -5.2460 O   0  0  0  0  0
  -30.6380  -24.5260   -3.3960 O   0  0  0  0  0
  -31.9570  -21.1430   -3.1760 C   0  0  0  0  0
  -32.1060  -20.1310   -2.2150 C   0  0  0  0  0
  -31.1080  -19.9950   -1.2450 C   0  0  0  0  0
  -30.0140  -20.8580   -1.1970 C   0  0  0  0  0
  -29.8820  -21.8670   -2.1480 C   0  0  0  0  0
  -30.9101  -22.1524   -6.4501 H   0  0  0  0  0
  -28.1454  -20.4626   -9.1560 H   0  0  0  0  0
  -28.2690  -23.7719   -4.4586 H   0  0  0  0  0
  -25.3254  -22.1421   -7.1625 H   0  0  0  0  0
  -30.5119  -20.8365   -8.4657 H   0  0  0  0  0
  -32.7064  -21.2617   -3.9586 H   0  0  0  0  0
  -32.9734  -19.4710   -2.2245 H   0  0  0  0  0
  -31.1872  -19.1951   -0.5088 H   0  0  0  0  0
  -29.2626  -20.7431   -0.4158 H   0  0  0  0  0
  -29.0275  -22.5429   -2.1166 H   0  0  0  0  0
  1  2  4  0  0  0
  1  5  1  0  0  0
  1 10  4  0  0  0
  2  3  4  0  0  0
  2  7  1  0  0  0
  3 11  4  0  0  0
 10  4  4  0  0  0
  4 11  4  0  0  0
  5  6  2  0  0  0
  5  9  1  0  0  0
  7 12  1  0  0  0
 12  8  1  0  0  0
  8 15  4  0  0  0
  8 19  4  0  0  0
 12 13  2  0  0  0
 12 14  2  0  0  0
 15 16  4  0  0  0
 16 17  4  0  0  0
 17 18  4  0  0  0
 18 19  4  0  0  0
  3 20  1  0  0  0
  4 21  1  0  0  0
  7 22  1  0  0  0
  9 23  1  0  0  0
 11 24  1  0  0  0
 15 25  1  0  0  0
 16 26  1  0  0  0
 17 27  1  0  0  0
 18 28  1  0  0  0
 19 29  1  0  0  0
M  END
$$$$
