5kks_ligand
  -I-interpret- 

 45 48  0  0  0  0  0  0  0  0999 V2000
   51.9460  107.6180   37.8350 C   0  0  0  0  0
   50.0930  106.3760   35.3570 C   0  0  0  0  0
   49.2550  104.0980   35.2640 C   0  0  0  0  0
   50.3070  103.7210   34.4410 C   0  0  0  0  0
   51.1470  105.9820   34.5440 C   0  0  0  0  0
   52.3820  104.3410   33.1530 C   0  0  0  0  0
   50.8510  103.5420   27.4400 C   0  0  0  0  0
   50.6590  102.5600   26.3610 C   0  0  0  0  0
   50.6830  100.6100   25.1680 C   0  0  0  0  0
   50.9400  101.1300   26.4460 C   0  0  0  0  0
   51.5560   98.9510   27.1660 C   0  0  0  0  0
   50.2800  108.1620   37.3450 S   0  0  0  0  0
   49.3370  107.3730   38.0650 O   0  0  0  0  0
   50.2240  109.5890   37.3330 O   0  0  0  0  0
   50.0340  107.7190   35.7610 N   0  0  0  0  0
   49.1450  105.4110   35.7220 C   0  0  0  0  0
   51.2510  104.6740   34.0850 C   0  0  0  0  0
   52.0000  104.8250   31.7700 C   0  0  0  0  0
   51.8550  106.0050   31.5260 O   0  0  0  0  0
   51.7980  103.8950   30.8180 N   0  0  0  0  0
   51.4390  104.1420   29.4950 C   0  0  0  0  0
   51.1960  103.1940   28.6570 N   0  0  0  0  0
   50.8620  104.8650   27.2320 C   0  0  0  0  0
   51.2920  105.6610   28.7350 S   0  0  0  0  0
   50.2890  102.8140   25.0870 C   0  0  0  0  0
   50.2820  101.6460   24.3750 N   0  0  0  0  0
   51.3770  100.2860   27.4590 C   0  0  0  0  0
   51.2820   98.5150   25.8780 C   0  0  0  0  0
   50.8400   99.3240   24.9360 N   0  0  0  0  0
   52.0725  107.7608   38.9082 H   0  0  0  0  0
   52.0688  106.5629   37.5906 H   0  0  0  0  0
   52.6911  108.2056   37.2987 H   0  0  0  0  0
   48.5071  103.3606   35.5555 H   0  0  0  0  0
   50.3903  102.6956   34.0809 H   0  0  0  0  0
   51.9062  106.7109   34.2606 H   0  0  0  0  0
   52.5591  103.2655   33.1420 H   0  0  0  0  0
   53.3002  104.8265   33.4836 H   0  0  0  0  0
   51.9046   98.2544   27.9284 H   0  0  0  0  0
   49.8357  108.4398   35.0671 H   0  0  0  0  0
   48.3137  105.6889   36.3699 H   0  0  0  0  0
   51.9190  102.9196   31.0905 H   0  0  0  0  0
   50.6410  105.3632   26.2880 H   0  0  0  0  0
   50.0356  103.7964   24.6885 H   0  0  0  0  0
   51.5734  100.6696   28.4602 H   0  0  0  0  0
   51.4381   97.4638   25.6358 H   0  0  0  0  0
 12  1  1  0  0  0
  5  2  4  0  0  0
  2 15  1  0  0  0
  2 16  4  0  0  0
  4  3  4  0  0  0
  3 16  4  0  0  0
 17  4  4  0  0  0
 17  5  4  0  0  0
  6 17  1  0  0  0
 18  6  1  0  0  0
  7  8  1  0  0  0
 22  7  4  0  0  0
  7 23  4  0  0  0
  8 10  4  0  0  0
  8 25  4  0  0  0
 10  9  4  0  0  0
  9 26  4  0  0  0
  9 29  4  0  0  0
 10 27  4  0  0  0
 27 11  4  0  0  0
 11 28  4  0  0  0
 12 13  2  0  0  0
 12 14  2  0  0  0
 15 12  1  0  0  0
 18 19  2  0  0  0
 20 18  1  0  0  0
 21 20  1  0  0  0
 21 22  4  0  0  0
 21 24  4  0  0  0
 23 24  4  0  0  0
 25 26  4  0  0  0
 28 29  4  0  0  0
  1 30  1  0  0  0
  1 31  1  0  0  0
  1 32  1  0  0  0
  3 33  1  0  0  0
  4 34  1  0  0  0
  5 35  1  0  0  0
  6 36  1  0  0  0
  6 37  1  0  0  0
 11 38  1  0  0  0
 15 39  1  0  0  0
 16 40  1  0  0  0
 20 41  1  0  0  0
 23 42  1  0  0  0
 25 43  1  0  0  0
 27 44  1  0  0  0
 28 45  1  0  0  0
M  END
$$$$
