### 
### Created by X-TOOL on Mon Sep 10 21:13:07 2018
### 

@<TRIPOS>MOLECULE
3rv3_ligand
   39    41     1     0     0
SMALL
GAST_HUCK


@<TRIPOS>ATOM
      1 PB         18.8170    6.9670   26.9040 P.3       1 ADP         0.2069
      2 O1B        17.4430    7.3440   27.4010 O.co2     1 ADP        -0.5891
      3 O2B        19.1410    7.6250   25.5790 O.co2     1 ADP        -0.5891
      4 O3B        19.9430    7.0570   27.8940 O.co2     1 ADP        -0.5891
      5 PA         17.6870    4.3030   26.3870 P.3       1 ADP         0.3276
      6 O1A        16.3210    4.8880   26.1110 O.co2     1 ADP        -0.5556
      7 O2A        18.2430    3.2610   25.4460 O.co2     1 ADP        -0.5556
      8 O3A        18.8310    5.4120   26.5170 O.3       1 ADP        -0.1548
      9 O5'        17.7250    3.6650   27.8490 O.3       1 ADP        -0.2436
     10 C5'        18.8520    2.9270   28.3200 C.3       1 ADP         0.1132
     11 C4'        18.3580    1.6190   28.9290 C.3       1 ADP         0.1189
     12 O4'        17.6390    1.9210   30.1290 O.3       1 ADP        -0.3364
     13 C3'        17.4170    0.8660   28.0020 C.3       1 ADP         0.1149
     14 O3'        17.6280   -0.5400   28.1940 O.3       1 ADP        -0.3864
     15 C2'        16.0410    1.2050   28.5420 C.3       1 ADP         0.1385
     16 O2'        15.1370    0.1280   28.3220 O.3       1 ADP        -0.3836
     17 C1'        16.3050    1.4160   30.0310 C.3       1 ADP         0.2010
     18 N9         15.4010    2.3810   30.6950 N.pl3     1 ADP        -0.1919
     19 C8         15.3210    3.7010   30.4470 C.2       1 ADP         0.1123
     20 N7         14.4140    4.2900   31.2530 N.2       1 ADP        -0.2958
     21 C5         13.8990    3.3430   32.0460 C.ar      1 ADP         0.1045
     22 C6         12.8860    3.3050   33.1240 C.ar      1 ADP         0.1298
     23 N6         12.2530    4.4490   33.4810 N.pl3     1 ADP        -0.3152
     24 N1         12.6410    2.1050   33.7170 N.ar      1 ADP        -0.2698
     25 C2         13.2890    0.9830   33.3370 C.ar      1 ADP         0.0533
     26 N3         14.2210    0.9570   32.3430 N.ar      1 ADP        -0.2714
     27 C4         14.5580    2.0830   31.6820 C.ar      1 ADP         0.1613
     28 H1         19.3857    3.5126   29.0831 H         1 ADP         0.0648
     29 H2         19.5308    2.7121   27.4815 H         1 ADP         0.0648
     30 H3         19.2240    0.9814   29.1602 H         1 ADP         0.0651
     31 H4         17.5416    1.1557   26.9482 H         1 ADP         0.0648
     32 H5         17.0472   -1.0273   27.6216 H         1 ADP         0.2100
     33 H6         15.6442    2.1195   28.0769 H         1 ADP         0.0676
     34 H7         15.0691   -0.0416   27.3897 H         1 ADP         0.2101
     35 H8         16.2238    0.4484   30.5478 H         1 ADP         0.0996
     36 H9         15.9102    4.2243   29.6954 H         1 ADP         0.1349
     37 H10        11.5461    4.4343   34.2300 H         1 ADP         0.1820
     38 H11        12.4788    5.3331   33.0033 H         1 ADP         0.1820
     39 H12        13.0561    0.0560   33.8484 H         1 ADP         0.0996
@<TRIPOS>BOND
     1    1    2 ar 
     2    1    3 ar 
     3    1    4 ar 
     4    8    1 1  
     5    5    6 ar 
     6    5    7 ar 
     7    5    8 1  
     8    5    9 1  
     9    9   10 1  
    10   10   11 1  
    11   11   12 1  
    12   11   13 1  
    13   12   17 1  
    14   13   14 1  
    15   13   15 1  
    16   15   16 1  
    17   15   17 1  
    18   17   18 1  
    19   18   19 1  
    20   18   27 1  
    21   19   20 2  
    22   20   21 1  
    23   21   22 ar 
    24   21   27 ar 
    25   22   23 1  
    26   22   24 ar 
    27   24   25 ar 
    28   25   26 ar 
    29   26   27 ar 
    30   10   28 1  
    31   10   29 1  
    32   11   30 1  
    33   13   31 1  
    34   14   32 1  
    35   15   33 1  
    36   16   34 1  
    37   17   35 1  
    38   19   36 1  
    39   23   37 1  
    40   23   38 1  
    41   25   39 1  
@<TRIPOS>SUBSTRUCTURE
     1 ADP         1

