3rv3_ligand
  -I-interpret- 

 42 44  0  0  0  0  0  0  0  0999 V2000
   18.8170    6.9670   26.9040 P   0  0  0  0  0
   17.4430    7.3440   27.4010 O   0  0  0  0  0
   19.1410    7.6250   25.5790 O   0  0  0  0  0
   19.9430    7.0570   27.8940 O   0  0  0  0  0
   17.6870    4.3030   26.3870 P   0  0  0  0  0
   16.3210    4.8880   26.1110 O   0  0  0  0  0
   18.2430    3.2610   25.4460 O   0  0  0  0  0
   18.8310    5.4120   26.5170 O   0  0  0  0  0
   17.7250    3.6650   27.8490 O   0  0  0  0  0
   18.8520    2.9270   28.3200 C   0  0  0  0  0
   18.3580    1.6190   28.9290 C   0  0  0  0  0
   17.6390    1.9210   30.1290 O   0  0  0  0  0
   17.4170    0.8660   28.0020 C   0  0  0  0  0
   17.6280   -0.5400   28.1940 O   0  0  0  0  0
   16.0410    1.2050   28.5420 C   0  0  0  0  0
   15.1370    0.1280   28.3220 O   0  0  0  0  0
   16.3050    1.4160   30.0310 C   0  0  0  0  0
   15.4010    2.3810   30.6950 N   0  0  0  0  0
   15.3210    3.7010   30.4470 C   0  0  0  0  0
   14.4140    4.2900   31.2530 N   0  0  0  0  0
   13.8990    3.3430   32.0460 C   0  0  0  0  0
   12.8860    3.3050   33.1240 C   0  0  0  0  0
   12.2530    4.4490   33.4810 N   0  0  0  0  0
   12.6410    2.1050   33.7170 N   0  0  0  0  0
   13.2890    0.9830   33.3370 C   0  0  0  0  0
   14.2210    0.9570   32.3430 N   0  0  0  0  0
   14.5580    2.0830   31.6820 C   0  0  0  0  0
   16.8084    7.2487   26.6870 H   0  0  0  0  0
   18.3898    7.5379   24.9876 H   0  0  0  0  0
   16.1065    5.5314   26.7904 H   0  0  0  0  0
   19.3874    3.5071   29.0716 H   0  0  0  0  0
   19.5305    2.7181   27.4929 H   0  0  0  0  0
   19.2299    0.9920   29.1155 H   0  0  0  0  0
   17.5523    1.1160   26.9497 H   0  0  0  0  0
   17.0411   -1.0324   27.6156 H   0  0  0  0  0
   15.5832    2.0712   28.0642 H   0  0  0  0  0
   14.2730    0.3607   28.6699 H   0  0  0  0  0
   16.1411    0.4631   30.5342 H   0  0  0  0  0
   15.9108    4.2248   29.6947 H   0  0  0  0  0
   12.4766    5.3246   33.0079 H   0  0  0  0  0
   11.5530    4.4344   34.2227 H   0  0  0  0  0
   13.0548    0.0509   33.8513 H   0  0  0  0  0
  1  2  1  0  0  0
  1  3  1  0  0  0
  1  4  2  0  0  0
  8  1  1  0  0  0
  5  6  1  0  0  0
  5  7  2  0  0  0
  5  8  1  0  0  0
  5  9  1  0  0  0
  9 10  1  0  0  0
 10 11  1  0  0  0
 11 12  1  0  0  0
 11 13  1  0  0  0
 12 17  1  0  0  0
 13 14  1  0  0  0
 13 15  1  0  0  0
 15 16  1  0  0  0
 15 17  1  0  0  0
 17 18  1  0  0  0
 18 19  4  0  0  0
 18 27  4  0  0  0
 19 20  4  0  0  0
 20 21  4  0  0  0
 21 22  4  0  0  0
 21 27  4  0  0  0
 22 23  1  0  0  0
 22 24  4  0  0  0
 24 25  4  0  0  0
 25 26  4  0  0  0
 26 27  4  0  0  0
  2 28  1  0  0  0
  3 29  1  0  0  0
  6 30  1  0  0  0
 10 31  1  0  0  0
 10 32  1  0  0  0
 11 33  1  0  0  0
 13 34  1  0  0  0
 14 35  1  0  0  0
 15 36  1  0  0  0
 16 37  1  0  0  0
 17 38  1  0  0  0
 19 39  1  0  0  0
 23 40  1  0  0  0
 23 41  1  0  0  0
 25 42  1  0  0  0
M  END
$$$$
