4bdb_ligand
  -I-interpret- 

 21 21  0  0  0  0  0  0  0  0999 V2000
  -35.1630   35.0470   10.2520 O   0  0  0  0  0
  -36.3080   36.2210    8.1200 C   0  0  0  0  0
  -36.5730   34.7940    8.5210 C   0  0  0  0  0
  -37.5160   33.9530    7.7490 C   0  0  0  0  0
  -37.1380   35.1290    5.6550 O   0  0  0  0  0
  -37.6580   34.0810    6.3450 C   0  0  0  0  0
  -38.3620   33.1360    5.6110 C   0  0  0  0  0
  -38.9380   32.0490    6.2570 C   0  0  0  0  0
  -39.5500   31.0720    5.5220 O   0  0  0  0  0
  -38.8500   31.9280    7.6350 C   0  0  0  0  0
  -38.1550   32.8740    8.3670 C   0  0  0  0  0
  -36.0500   34.2180    9.5410 N   0  0  0  0  0
  -34.8052   34.5636   11.0003 H   0  0  0  0  0
  -36.6125   36.8866    8.9277 H   0  0  0  0  0
  -35.2438   36.3500    7.9229 H   0  0  0  0  0
  -36.8766   36.4558    7.2202 H   0  0  0  0  0
  -37.3427   35.0298    4.7223 H   0  0  0  0  0
  -38.4626   33.2464    4.5313 H   0  0  0  0  0
  -39.8940   30.3973    6.1120 H   0  0  0  0  0
  -39.3276   31.0889    8.1410 H   0  0  0  0  0
  -38.1044   32.7758    9.4514 H   0  0  0  0  0
 12  1  1  0  0  0
  3  2  1  0  0  0
  3  4  1  0  0  0
  3 12  2  0  0  0
  4  6  4  0  0  0
  4 11  4  0  0  0
  6  5  1  0  0  0
  6  7  4  0  0  0
  7  8  4  0  0  0
  8  9  1  0  0  0
  8 10  4  0  0  0
 10 11  4  0  0  0
  1 13  1  0  0  0
  2 14  1  0  0  0
  2 15  1  0  0  0
  2 16  1  0  0  0
  5 17  1  0  0  0
  7 18  1  0  0  0
  9 19  1  0  0  0
 10 20  1  0  0  0
 11 21  1  0  0  0
M  END
$$$$
