3e9h_ligand
  -I-interpret- 

 60 62  0  0  0  0  0  0  0  0999 V2000
   64.8430  -69.9910   18.2400 N   0  3  0  0  0
   64.0810  -71.0990   17.6400 C   0  0  0  0  0
   63.0500  -71.6520   18.6350 C   0  0  0  0  0
   63.7320  -72.2000   19.8940 C   0  0  0  0  0
   62.7420  -72.7220   20.9390 C   0  0  0  0  0
   61.8320  -71.6480   21.5450 C   0  0  0  0  0
   62.6210  -70.8160   22.4620 N   0  3  0  0  0
   60.7660  -72.4000   22.3480 C   0  0  0  0  0
   60.7320  -72.3210   23.5740 O   0  0  0  0  0
   59.7400  -72.8250   21.6180 N   0  0  0  0  0
   58.6040  -73.7910   22.2650 S   0  0  0  0  0
   57.7440  -72.9160   23.1250 O   0  0  0  0  0
   57.7850  -74.4570   21.2020 O   0  0  0  0  0
   59.1630  -74.7450   23.1820 O   0  0  0  0  0
   59.9080  -75.8670   22.6780 C   0  0  0  0  0
   59.2320  -77.2300   22.8540 C   0  0  0  0  0
   59.1960  -77.6220   24.2290 O   0  0  0  0  0
   57.8010  -77.3940   22.3390 C   0  0  0  0  0
   57.8480  -77.6920   20.9410 O   0  0  0  0  0
   57.3610  -78.6540   23.0910 C   0  0  0  0  0
   57.7530  -79.8570   22.4210 O   0  0  0  0  0
   58.1100  -78.5470   24.4200 C   0  0  0  0  0
   57.2860  -78.0090   25.5280 N   0  0  0  0  0
   56.8560  -76.7560   25.6530 C   0  0  0  0  0
   56.1920  -76.6310   26.8010 N   0  0  0  0  0
   56.1930  -77.8140   27.4100 C   0  0  0  0  0
   56.8960  -78.6930   26.6010 C   0  0  0  0  0
   57.0450  -79.9690   26.9910 N   0  0  0  0  0
   56.5320  -80.4060   28.1300 C   0  0  0  0  0
   55.8500  -79.5900   28.9190 N   0  0  0  0  0
   55.6580  -78.3010   28.5980 C   0  0  0  0  0
   54.9410  -77.5080   29.3910 N   0  0  0  0  0
   65.5203  -69.6399   17.5630 H   0  0  0  0  0
   64.2023  -69.2417   18.5015 H   0  0  0  0  0
   65.3324  -70.3266   19.0696 H   0  0  0  0  0
   64.7731  -71.8968   17.3706 H   0  0  0  0  0
   63.5565  -70.7289   16.7591 H   0  0  0  0  0
   62.5036  -72.4635   18.1544 H   0  0  0  0  0
   62.3798  -70.8433   18.9266 H   0  0  0  0  0
   64.2911  -71.3823   20.3488 H   0  0  0  0  0
   64.3625  -73.0357   19.5904 H   0  0  0  0  0
   63.3309  -73.1390   21.7559 H   0  0  0  0  0
   62.0955  -73.4404   20.4350 H   0  0  0  0  0
   61.3891  -71.0121   20.7785 H   0  0  0  0  0
   63.3334  -70.3118   21.9341 H   0  0  0  0  0
   62.0061  -70.1491   22.9284 H   0  0  0  0  0
   63.0697  -71.4111   23.1584 H   0  0  0  0  0
   59.6645  -72.5419   20.6410 H   0  0  0  0  0
   60.8392  -75.9040   23.2433 H   0  0  0  0  0
   60.0226  -75.7105   21.6054 H   0  0  0  0  0
   59.8695  -77.8545   22.2281 H   0  0  0  0  0
   57.1595  -76.5241   22.4802 H   0  0  0  0  0
   56.9541  -77.7971   20.6071 H   0  0  0  0  0
   56.2763  -78.7079   23.1837 H   0  0  0  0  0
   57.4561  -80.6159   22.9285 H   0  0  0  0  0
   58.4236  -79.5544   24.6935 H   0  0  0  0  0
   57.0211  -75.9574   24.9297 H   0  0  0  0  0
   56.6721  -81.4470   28.4213 H   0  0  0  0  0
   54.7804  -76.5353   29.1292 H   0  0  0  0  0
   54.5522  -77.8730   30.2605 H   0  0  0  0  0
  1  2  1  0  0  0
  2  3  1  0  0  0
  3  4  1  0  0  0
  4  5  1  0  0  0
  5  6  1  0  0  0
  6  7  1  0  0  0
  6  8  1  0  0  0
  8  9  2  0  0  0
  8 10  1  0  0  0
 10 11  1  0  0  0
 11 12  2  0  0  0
 11 13  2  0  0  0
 11 14  1  0  0  0
 14 15  1  0  0  0
 15 16  1  0  0  0
 16 17  1  0  0  0
 16 18  1  0  0  0
 17 22  1  0  0  0
 18 19  1  0  0  0
 18 20  1  0  0  0
 20 21  1  0  0  0
 20 22  1  0  0  0
 22 23  1  0  0  0
 23 24  4  0  0  0
 23 27  4  0  0  0
 24 25  4  0  0  0
 25 26  4  0  0  0
 26 27  4  0  0  0
 26 31  4  0  0  0
 27 28  4  0  0  0
 28 29  4  0  0  0
 29 30  4  0  0  0
 30 31  4  0  0  0
 31 32  1  0  0  0
  1 33  1  0  0  0
  1 34  1  0  0  0
  1 35  1  0  0  0
  2 36  1  0  0  0
  2 37  1  0  0  0
  3 38  1  0  0  0
  3 39  1  0  0  0
  4 40  1  0  0  0
  4 41  1  0  0  0
  5 42  1  0  0  0
  5 43  1  0  0  0
  6 44  1  0  0  0
  7 45  1  0  0  0
  7 46  1  0  0  0
  7 47  1  0  0  0
 10 48  1  0  0  0
 15 49  1  0  0  0
 15 50  1  0  0  0
 16 51  1  0  0  0
 18 52  1  0  0  0
 19 53  1  0  0  0
 20 54  1  0  0  0
 21 55  1  0  0  0
 22 56  1  0  0  0
 24 57  1  0  0  0
 29 58  1  0  0  0
 32 59  1  0  0  0
 32 60  1  0  0  0
M  END
$$$$
