4mrz_ligand
  -I-interpret- 

 18 18  0  0  0  0  0  0  0  0999 V2000
    5.2330  -30.3280  -34.7940 C   0  0  0  0  0
    4.6130  -28.9480  -34.8860 C   0  0  0  0  0
    4.4580  -28.4010  -36.1570 C   0  0  0  0  0
    3.8930  -27.1380  -36.2930 C   0  0  0  0  0
    3.4920  -26.4490  -35.1970 N   0  0  0  0  0
    3.6190  -26.9480  -33.9510 C   0  0  0  0  0
    3.1760  -26.2220  -32.9090 N   0  0  0  0  0
    4.1780  -28.2240  -33.7570 C   0  0  0  0  0
    4.3170  -28.7110  -32.5000 N   0  0  0  0  0
    5.2490  -29.4710  -32.2600 O   0  0  0  0  0
    3.5820  -28.3930  -31.5700 O   0  0  0  0  0
    4.6164  -31.0393  -35.3434 H   0  0  0  0  0
    6.2341  -30.3046  -35.2245 H   0  0  0  0  0
    5.2928  -30.6290  -33.7481 H   0  0  0  0  0
    4.7769  -28.9582  -37.0378 H   0  0  0  0  0
    3.7722  -26.7006  -37.2841 H   0  0  0  0  0
    2.7514  -25.3083  -33.0678 H   0  0  0  0  0
    3.2646  -26.5852  -31.9600 H   0  0  0  0  0
  1  2  1  0  0  0
  2  3  4  0  0  0
  2  8  4  0  0  0
  3  4  4  0  0  0
  4  5  4  0  0  0
  5  6  4  0  0  0
  6  7  1  0  0  0
  6  8  4  0  0  0
  8  9  1  0  0  0
  9 10  2  0  0  0
  9 11  2  0  0  0
  1 12  1  0  0  0
  1 13  1  0  0  0
  1 14  1  0  0  0
  3 15  1  0  0  0
  4 16  1  0  0  0
  7 17  1  0  0  0
  7 18  1  0  0  0
M  END
$$$$
