5li3_ligand
  -I-interpret- 

 39 40  0  0  0  0  0  0  0  0999 V2000
  -24.5030   -2.7740   -0.8570 C   0  0  0  0  0
  -24.3650   -1.4720   -0.1360 C   0  0  0  0  0
  -24.0080    0.1660    3.1010 C   0  0  0  0  0
  -24.3990   -0.7050    4.1040 C   0  0  0  0  0
  -24.1420   -0.4280    5.4400 C   0  0  0  0  0
  -23.4910    0.7360    5.8250 C   0  0  0  0  0
  -23.2490    0.8780    7.2900 C   0  0  0  0  0
  -22.4230    1.7810    7.8180 C   0  0  0  0  0
  -22.1690    1.9030    9.2800 C   0  0  0  0  0
  -23.0960    1.6380    4.8210 C   0  0  0  0  0
  -23.3650    1.3570    3.4700 C   0  0  0  0  0
  -24.7540   -0.3850   -1.0600 C   0  0  0  0  0
  -24.2490   -4.2100   -0.4640 C   0  0  0  0  0
  -24.7710    1.0850   -0.7940 C   0  0  0  0  0
  -21.5010    2.8290    9.7080 O   0  0  0  0  0
  -22.7270    1.2060   10.2380 N   0  0  0  0  0
  -22.7100    1.8830   11.4600 O   0  0  0  0  0
  -24.3170   -0.1780    1.7690 N   0  0  0  0  0
  -23.9800   -1.2410    1.1760 N   0  0  0  0  0
  -25.0840   -0.9960   -2.2190 N   0  0  0  0  0
  -24.9230   -2.3890   -2.0700 N   0  0  0  0  0
  -25.2590   -3.1550   -3.2980 C   0  0  0  0  0
  -24.9186   -1.6259    3.8395 H   0  0  0  0  0
  -24.4581   -1.1396    6.2027 H   0  0  0  0  0
  -23.7771    0.2059    7.9664 H   0  0  0  0  0
  -21.9068    2.4654    7.1448 H   0  0  0  0  0
  -22.5791    2.5588    5.0914 H   0  0  0  0  0
  -23.0710    2.0718    2.7014 H   0  0  0  0  0
  -23.2011   -4.3302   -0.1891 H   0  0  0  0  0
  -24.8809   -4.4702    0.3852 H   0  0  0  0  0
  -24.4823   -4.8624   -1.3055 H   0  0  0  0  0
  -25.4502    1.2956    0.0321 H   0  0  0  0  0
  -23.7661    1.4175   -0.5336 H   0  0  0  0  0
  -25.1090    1.6107   -1.6871 H   0  0  0  0  0
  -23.1274    0.2770   10.1072 H   0  0  0  0  0
  -23.1271    1.3388   12.1319 H   0  0  0  0  0
  -24.3835   -3.7153   -3.6261 H   0  0  0  0  0
  -26.0741   -3.8458   -3.0822 H   0  0  0  0  0
  -25.5650   -2.4639   -4.0834 H   0  0  0  0  0
  2  1  4  0  0  0
  1 13  1  0  0  0
  1 21  4  0  0  0
  2 12  4  0  0  0
 19  2  1  0  0  0
  3  4  4  0  0  0
  3 11  4  0  0  0
 18  3  1  0  0  0
  4  5  4  0  0  0
  5  6  4  0  0  0
  6  7  1  0  0  0
 10  6  4  0  0  0
  7  8  2  0  0  0
  8  9  1  0  0  0
  9 15  2  0  0  0
  9 16  1  0  0  0
 11 10  4  0  0  0
 12 14  1  0  0  0
 12 20  4  0  0  0
 16 17  1  0  0  0
 18 19  2  0  0  0
 20 21  4  0  0  0
 21 22  1  0  0  0
  4 23  1  0  0  0
  5 24  1  0  0  0
  7 25  1  0  0  0
  8 26  1  0  0  0
 10 27  1  0  0  0
 11 28  1  0  0  0
 13 29  1  0  0  0
 13 30  1  0  0  0
 13 31  1  0  0  0
 14 32  1  0  0  0
 14 33  1  0  0  0
 14 34  1  0  0  0
 16 35  1  0  0  0
 17 36  1  0  0  0
 22 37  1  0  0  0
 22 38  1  0  0  0
 22 39  1  0  0  0
M  END
$$$$
