4m6u_ligand
  -I-interpret- 

 12 11  0  0  0  0  0  0  0  0999 V2000
  -22.6240   19.1650  -23.5560 C   0  0  0  0  0
  -21.9340   20.1990  -24.3950 C   0  0  0  0  0
  -22.8200   21.3890  -24.6170 C   0  0  0  0  0
  -23.5230   19.5360  -22.7710 O   0  0  0  0  0
  -22.2730   17.9710  -23.6740 O   0  0  0  0  0
  -20.7290   20.6160  -23.7430 O   0  0  0  0  0
  -23.2130   22.0340  -23.6220 O   0  0  0  0  0
  -23.1310   21.6900  -25.7900 O   0  0  0  0  0
  -21.7001   19.7575  -25.3637 H   0  0  0  0  0
  -21.5719   17.9077  -24.3268 H   0  0  0  0  0
  -20.1628   19.8538  -23.6014 H   0  0  0  0  0
  -22.7243   21.0677  -26.3974 H   0  0  0  0  0
  1  2  1  0  0  0
  1  4  2  0  0  0
  1  5  1  0  0  0
  2  3  1  0  0  0
  2  6  1  0  0  0
  3  7  2  0  0  0
  3  8  1  0  0  0
  2  9  1  0  0  0
  5 10  1  0  0  0
  6 11  1  0  0  0
  8 12  1  0  0  0
M  END
$$$$
