4mp2_ligand
  -I-interpret- 

 32 34  0  0  0  0  0  0  0  0999 V2000
   18.9170    1.8330  -38.5440 C   0  0  0  0  0
   17.8000    2.4780  -38.0080 C   0  0  0  0  0
   12.4710    0.0320  -38.1640 O   0  0  0  0  0
   16.6290    1.7440  -37.9230 C   0  0  0  0  0
   16.5870    0.3570  -38.3750 C   0  0  0  0  0
   10.2290    5.7420  -36.3990 O   0  0  0  0  0
   17.7110   -0.2640  -38.9030 C   0  0  0  0  0
   11.7500    2.6670  -39.8010 O   0  0  0  0  0
   18.8780    0.4990  -38.9810 C   0  0  0  0  0
   14.4360    1.0000  -37.7970 N   0  0  0  0  0
   15.2050   -0.1990  -38.1810 C   0  0  0  0  0
   15.2720    2.1590  -37.4130 C   0  0  0  0  0
   13.1010    1.0170  -37.8230 C   0  0  0  0  0
   11.4030    4.4360  -34.0480 Br  0  0  0  0  0
   11.5560    3.8060  -35.8180 C   0  0  0  0  0
   10.8860    4.6200  -36.8500 C   0  0  0  0  0
   10.9610    4.2310  -38.1940 C   0  0  0  0  0
   11.6640    3.0750  -38.5130 C   0  0  0  0  0
   12.2630    2.6550  -36.1260 C   0  0  0  0  0
   12.3510    2.2700  -37.4560 C   0  0  0  0  0
   19.8531    2.3853  -38.6261 H   0  0  0  0  0
   17.8480    3.5136  -37.6714 H   0  0  0  0  0
    9.8297    6.1985  -37.1432 H   0  0  0  0  0
   17.6837   -1.2998  -39.2412 H   0  0  0  0  0
   12.2661    1.8588  -39.8457 H   0  0  0  0  0
   19.7814    0.0478  -39.3914 H   0  0  0  0  0
   15.1625   -0.9932  -37.4356 H   0  0  0  0  0
   14.8129   -0.6942  -39.0694 H   0  0  0  0  0
   14.9222    3.1029  -37.8310 H   0  0  0  0  0
   15.2567    2.3688  -36.3435 H   0  0  0  0  0
   10.4786    4.8220  -38.9725 H   0  0  0  0  0
   12.7388    2.0659  -35.3420 H   0  0  0  0  0
  2  1  4  0  0  0
  1  9  4  0  0  0
  4  2  4  0  0  0
 13  3  2  0  0  0
  4  5  4  0  0  0
 12  4  1  0  0  0
  5  7  4  0  0  0
 11  5  1  0  0  0
 16  6  1  0  0  0
  7  9  4  0  0  0
 18  8  1  0  0  0
 10 11  1  0  0  0
 10 12  1  0  0  0
 13 10  1  0  0  0
 20 13  1  0  0  0
 15 14  1  0  0  0
 16 15  4  0  0  0
 15 19  4  0  0  0
 17 16  4  0  0  0
 18 17  4  0  0  0
 18 20  4  0  0  0
 19 20  4  0  0  0
  1 21  1  0  0  0
  2 22  1  0  0  0
  6 23  1  0  0  0
  7 24  1  0  0  0
  8 25  1  0  0  0
  9 26  1  0  0  0
 11 27  1  0  0  0
 11 28  1  0  0  0
 12 29  1  0  0  0
 12 30  1  0  0  0
 17 31  1  0  0  0
 19 32  1  0  0  0
M  END
$$$$
