4i73_ligand
  -I-interpret- 

 36 38  0  0  0  0  0  0  0  0999 V2000
    0.4780   -5.7870   21.6870 O   0  0  0  0  0
    1.6510   -5.7520   21.3330 C   0  0  0  0  0
    2.2130   -6.7600   20.6160 N   0  0  0  0  0
    3.5190   -6.7430   20.2540 C   0  0  0  0  0
    4.2940   -5.7030   20.5300 N   0  0  0  0  0
    3.8450   -4.6420   21.2100 C   0  0  0  0  0
    2.4800   -4.5790   21.6550 C   0  0  0  0  0
    4.5540   -3.3820   21.6060 C   0  0  0  0  0
    3.7220   -2.5320   22.3240 C   0  0  0  0  0
    2.1240   -3.1650   22.4940 S   0  0  0  0  0
    6.0130   -3.0650   21.2970 C   0  0  0  0  0
    6.2610   -2.5960   19.9010 N   0  3  0  0  0
    6.2640   -1.1190   19.6150 C   0  0  0  0  0
    5.0280   -0.3770   20.1440 C   0  0  0  0  0
    5.2250    0.0250   21.5170 O   0  0  0  0  0
    6.2960   -1.0740   18.0890 C   0  0  0  0  0
    7.6490   -0.8580   17.6230 O   0  0  0  0  0
    5.8210   -2.4670   17.6250 C   0  0  0  0  0
    6.8900   -3.1530   16.9740 O   0  0  0  0  0
    5.4540   -3.2360   18.8420 C   0  0  0  0  0
    1.6343   -7.5539   20.3417 H   0  0  0  0  0
    3.9397   -7.5992   19.7267 H   0  0  0  0  0
    4.0416   -1.5739   22.7338 H   0  0  0  0  0
    6.5756   -3.9893   21.4283 H   0  0  0  0  0
    6.3125   -2.2564   21.9637 H   0  0  0  0  0
    7.2289   -2.9155   19.8631 H   0  0  0  0  0
    7.0985   -0.6209   20.1085 H   0  0  0  0  0
    4.1669   -1.0432   20.0913 H   0  0  0  0  0
    4.8631    0.5125   19.5359 H   0  0  0  0  0
    4.4433    0.4864   21.8295 H   0  0  0  0  0
    5.6723   -0.2684   17.7014 H   0  0  0  0  0
    7.6554   -0.8318   16.6634 H   0  0  0  0  0
    4.9815   -2.3679   16.9369 H   0  0  0  0  0
    6.5868   -4.0180   16.6885 H   0  0  0  0  0
    4.3848   -3.2063   19.0519 H   0  0  0  0  0
    5.6585   -4.3021   18.7436 H   0  0  0  0  0
  1  2  2  0  0  0
  2  3  1  0  0  0
  2  7  1  0  0  0
  3  4  1  0  0  0
  4  5  2  0  0  0
  5  6  1  0  0  0
  6  7  4  0  0  0
  6  8  4  0  0  0
  7 10  4  0  0  0
  8  9  4  0  0  0
  8 11  1  0  0  0
  9 10  4  0  0  0
 11 12  1  0  0  0
 12 13  1  0  0  0
 12 20  1  0  0  0
 13 14  1  0  0  0
 13 16  1  0  0  0
 14 15  1  0  0  0
 16 17  1  0  0  0
 16 18  1  0  0  0
 18 19  1  0  0  0
 18 20  1  0  0  0
  3 21  1  0  0  0
  4 22  1  0  0  0
  9 23  1  0  0  0
 11 24  1  0  0  0
 11 25  1  0  0  0
 12 26  1  0  0  0
 13 27  1  0  0  0
 14 28  1  0  0  0
 14 29  1  0  0  0
 15 30  1  0  0  0
 16 31  1  0  0  0
 17 32  1  0  0  0
 18 33  1  0  0  0
 19 34  1  0  0  0
 20 35  1  0  0  0
 20 36  1  0  0  0
M  END
$$$$
