5ai9_ligand
  -I-interpret- 

 50 51  0  0  0  0  0  0  0  0999 V2000
   19.8400   10.5980   12.2520 C   0  0  0  0  0
   19.0330    9.3340   12.0970 C   0  0  0  0  0
   19.4570    8.3800   13.1780 C   0  0  0  0  0
   19.5010    8.6850   10.8020 C   0  0  0  0  0
   17.5410    9.6430   12.1040 C   0  0  0  0  0
   16.9040   10.1200   13.2470 C   0  0  0  0  0
   15.5600   10.4670   13.2840 C   0  0  0  0  0
   14.8180   10.3080   12.1230 C   0  0  0  0  0
   15.4000    9.8000   10.9810 C   0  0  0  0  0
   16.7500    9.4960   10.9680 C   0  0  0  0  0
   14.3230    9.5550    9.4130 Br  0  0  0  0  0
   13.4640   10.6260   12.0960 O   0  0  0  0  0
   14.8960   10.9670   14.5430 C   0  0  0  0  0
   15.7320   11.0470   15.7380 N   0  3  0  0  0
   14.8890   11.4500   16.8820 C   0  0  0  0  0
   15.7180   11.9160   18.0880 C   0  0  0  0  0
   14.9200   12.8000   19.0520 C   0  0  0  0  0
   13.7640   12.0110   19.5670 C   0  0  0  0  0
   13.9890   11.0040   20.5000 C   0  0  0  0  0
   12.9060   10.2610   20.9510 C   0  0  0  0  0
   11.6190   10.4940   20.5030 C   0  0  0  0  0
   11.4240   11.5050   19.5760 C   0  0  0  0  0
   12.4800   12.2690   19.0950 C   0  0  0  0  0
   19.6159   11.2741   11.4269 H   0  0  0  0  0
   19.5835   11.0778   13.1965 H   0  0  0  0  0
   20.9020   10.3527   12.2442 H   0  0  0  0  0
   19.2178    8.8069   14.1520 H   0  0  0  0  0
   18.9284    7.4348   13.0545 H   0  0  0  0  0
   20.5312    8.2088   13.1089 H   0  0  0  0  0
   18.9675    7.7461   10.6542 H   0  0  0  0  0
   19.2976    9.3554    9.9669 H   0  0  0  0  0
   20.5719    8.4905   10.8609 H   0  0  0  0  0
   17.4907   10.2264   14.1595 H   0  0  0  0  0
   17.2048    9.1328   10.0464 H   0  0  0  0  0
   13.1138   10.4552   11.2186 H   0  0  0  0  0
   14.1101   10.2479   14.7739 H   0  0  0  0  0
   14.5783   11.9877   14.3299 H   0  0  0  0  0
   16.4733   11.7331   15.5961 H   0  0  0  0  0
   16.1566   10.1385   15.9244 H   0  0  0  0  0
   14.3042   10.5835   17.1905 H   0  0  0  0  0
   14.2634   12.2832   16.5618 H   0  0  0  0  0
   16.5543   12.5044   17.7105 H   0  0  0  0  0
   16.0378   11.0294   18.6356 H   0  0  0  0  0
   14.5628   13.6896   18.5332 H   0  0  0  0  0
   15.5544   13.1159   19.8801 H   0  0  0  0  0
   14.9945   10.8024   20.8694 H   0  0  0  0  0
   13.0759    9.4695   21.6809 H   0  0  0  0  0
   10.7818    9.8994   20.8686 H   0  0  0  0  0
   10.4156   11.7063   19.2146 H   0  0  0  0  0
   12.3063   13.0562   18.3613 H   0  0  0  0  0
  1  2  1  0  0  0
  2  3  1  0  0  0
  2  4  1  0  0  0
  2  5  1  0  0  0
  5  6  4  0  0  0
  5 10  4  0  0  0
  6  7  4  0  0  0
  7  8  4  0  0  0
  7 13  1  0  0  0
  8  9  4  0  0  0
  8 12  1  0  0  0
  9 10  4  0  0  0
  9 11  1  0  0  0
 13 14  1  0  0  0
 14 15  1  0  0  0
 15 16  1  0  0  0
 16 17  1  0  0  0
 17 18  1  0  0  0
 18 19  4  0  0  0
 18 23  4  0  0  0
 19 20  4  0  0  0
 20 21  4  0  0  0
 21 22  4  0  0  0
 22 23  4  0  0  0
  1 24  1  0  0  0
  1 25  1  0  0  0
  1 26  1  0  0  0
  3 27  1  0  0  0
  3 28  1  0  0  0
  3 29  1  0  0  0
  4 30  1  0  0  0
  4 31  1  0  0  0
  4 32  1  0  0  0
  6 33  1  0  0  0
 10 34  1  0  0  0
 12 35  1  0  0  0
 13 36  1  0  0  0
 13 37  1  0  0  0
 14 38  1  0  0  0
 14 39  1  0  0  0
 15 40  1  0  0  0
 15 41  1  0  0  0
 16 42  1  0  0  0
 16 43  1  0  0  0
 17 44  1  0  0  0
 17 45  1  0  0  0
 19 46  1  0  0  0
 20 47  1  0  0  0
 21 48  1  0  0  0
 22 49  1  0  0  0
 23 50  1  0  0  0
M  END
$$$$
