1h3a_ligand
  -I-interpret- 

 52 54  0  0  0  0  0  0  0  0999 V2000
   63.1990   69.3230   57.6810 C   0  0  0  0  0
   62.3130   69.2220   58.6800 C   0  0  0  0  0
   61.7620   70.4210   59.4260 C   0  0  0  0  0
   62.8440   71.3720   59.8170 N   0  3  0  0  0
   63.6060   70.9250   61.0380 C   0  0  0  0  0
   62.8450   70.9730   62.3540 C   0  0  0  0  0
   62.7170   69.9070   63.1650 C   0  0  0  0  0
   61.9670   69.9620   64.4810 C   0  0  0  0  0
   62.5860   69.0430   65.4160 O   0  0  0  0  0
   63.5370   69.5900   66.3400 C   0  0  0  0  0
   63.9490   70.9650   66.2660 C   0  0  0  0  0
   64.8930   71.4390   67.2010 C   0  0  0  0  0
   65.4050   72.6690   67.3070 N   0  0  0  0  0
   66.1870   72.6720   68.2410 N   0  0  0  0  0
   66.2800   71.4860   68.8450 C   0  0  0  0  0
   65.4230   70.5940   68.1900 C   0  0  0  0  0
   65.0300   69.2140   68.2950 C   0  0  0  0  0
   64.0740   68.7300   67.3470 C   0  0  0  0  0
   67.2010   71.2800   70.0320 C   0  0  0  0  0
   67.6540   69.9860   70.4470 C   0  0  0  0  0
   68.5200   69.8510   71.5710 C   0  0  0  0  0
   68.9380   71.0120   72.2840 C   0  0  0  0  0
   68.4880   72.2990   71.8690 C   0  0  0  0  0
   67.6280   72.4250   70.7540 C   0  0  0  0  0
   63.6830   67.4580   67.4060 F   0  0  0  0  0
   70.0640   70.8500   73.7520 Br  0  0  0  0  0
   65.1030   73.8280   66.4620 C   0  0  0  0  0
   62.3000   72.7590   59.9970 C   0  0  0  0  0
   63.5585   70.3034   57.3685 H   0  0  0  0  0
   63.5606   68.4248   57.1804 H   0  0  0  0  0
   61.9712   68.2287   58.9710 H   0  0  0  0  0
   61.2721   70.0662   60.3327 H   0  0  0  0  0
   61.0656   70.9435   58.7702 H   0  0  0  0  0
   63.5138   71.3829   59.0478 H   0  0  0  0  0
   64.4446   71.6132   61.1442 H   0  0  0  0  0
   63.8639   69.8791   60.8717 H   0  0  0  0  0
   62.3824   71.9134   62.6537 H   0  0  0  0  0
   63.1720   68.9638   62.8627 H   0  0  0  0  0
   60.9261   69.6798   64.3229 H   0  0  0  0  0
   62.0032   70.9747   64.8826 H   0  0  0  0  0
   63.5405   71.6278   65.5032 H   0  0  0  0  0
   65.4438   68.5636   69.0656 H   0  0  0  0  0
   67.3345   69.0991   69.8998 H   0  0  0  0  0
   68.8611   68.8641   71.8839 H   0  0  0  0  0
   68.8076   73.1882   72.4125 H   0  0  0  0  0
   67.2887   73.4137   70.4450 H   0  0  0  0  0
   65.3636   73.6002   65.4284 H   0  0  0  0  0
   64.0393   74.0568   66.5279 H   0  0  0  0  0
   65.6823   74.6858   66.8035 H   0  0  0  0  0
   61.6268   72.7755   60.8541 H   0  0  0  0  0
   63.1241   73.4518   60.1673 H   0  0  0  0  0
   61.7554   73.0536   59.0999 H   0  0  0  0  0
  1  2  2  0  0  0
  2  3  1  0  0  0
  3  4  1  0  0  0
  4  5  1  0  0  0
  4 28  1  0  0  0
  5  6  1  0  0  0
  6  7  2  0  0  0
  7  8  1  0  0  0
  8  9  1  0  0  0
  9 10  1  0  0  0
 10 11  4  0  0  0
 10 18  4  0  0  0
 11 12  4  0  0  0
 12 13  4  0  0  0
 12 16  4  0  0  0
 13 14  4  0  0  0
 13 27  1  0  0  0
 14 15  4  0  0  0
 15 16  4  0  0  0
 15 19  1  0  0  0
 16 17  4  0  0  0
 17 18  4  0  0  0
 18 25  1  0  0  0
 19 20  4  0  0  0
 19 24  4  0  0  0
 20 21  4  0  0  0
 21 22  4  0  0  0
 22 23  4  0  0  0
 22 26  1  0  0  0
 23 24  4  0  0  0
  1 29  1  0  0  0
  1 30  1  0  0  0
  2 31  1  0  0  0
  3 32  1  0  0  0
  3 33  1  0  0  0
  4 34  1  0  0  0
  5 35  1  0  0  0
  5 36  1  0  0  0
  6 37  1  0  0  0
  7 38  1  0  0  0
  8 39  1  0  0  0
  8 40  1  0  0  0
 11 41  1  0  0  0
 17 42  1  0  0  0
 20 43  1  0  0  0
 21 44  1  0  0  0
 23 45  1  0  0  0
 24 46  1  0  0  0
 27 47  1  0  0  0
 27 48  1  0  0  0
 27 49  1  0  0  0
 28 50  1  0  0  0
 28 51  1  0  0  0
 28 52  1  0  0  0
M  END
$$$$
