4m5k_ligand
  -I-interpret- 

 34 36  0  0  0  0  0  0  0  0999 V2000
   54.2670   12.3580   34.5990 O   0  0  0  0  0
   54.7970   13.4160   34.2910 C   0  0  0  0  0
   53.9330   14.6550   34.3640 C   0  0  0  0  0
   52.6440   14.5710   34.9020 C   0  0  0  0  0
   51.8120   15.6880   34.9870 C   0  0  0  0  0
   50.4390   15.5820   35.5740 C   0  0  0  0  0
   52.2610   16.9130   34.5220 C   0  0  0  0  0
   53.5360   17.0150   33.9840 C   0  0  0  0  0
   54.3640   15.8980   33.9030 C   0  0  0  0  0
   56.2510   13.4310   33.8500 C   0  0  0  0  0
   57.3410   11.9950   33.7950 S   0  0  0  0  0
   56.3750   10.6960   33.1610 C   0  0  0  0  0
   55.5040   10.9040   32.1740 N   0  0  0  0  0
   54.8990    9.7150   31.9250 C   0  0  0  0  0
   55.4280    8.7730   32.7840 C   0  0  0  0  0
   56.3590    9.4150   33.5620 N   0  0  0  0  0
   53.9500    9.3900   31.0150 N   0  0  0  0  0
   53.5190    8.1370   31.0030 C   0  0  0  0  0
   52.5080    7.7840   30.0900 N   0  0  0  0  0
   53.9940    7.1870   31.8190 N   0  0  0  0  0
   54.9500    7.4510   32.7120 C   0  0  0  0  0
   55.4260    6.4780   33.5380 O   0  0  0  0  0
   52.2808   13.6091   35.2637 H   0  0  0  0  0
   49.8514   14.8701   34.9943 H   0  0  0  0  0
   50.5120   15.2395   36.6062 H   0  0  0  0  0
   49.9574   16.5595   35.5474 H   0  0  0  0  0
   51.6173   17.7908   34.5783 H   0  0  0  0  0
   53.8931   17.9788   33.6212 H   0  0  0  0  0
   55.3611   15.9969   33.4739 H   0  0  0  0  0
   56.7181   14.0440   34.6208 H   0  0  0  0  0
   56.1682   13.6965   32.7961 H   0  0  0  0  0
   52.1243    8.4861   29.4574 H   0  0  0  0  0
   52.1589    6.8260   30.0608 H   0  0  0  0  0
   53.6169    6.2413   31.7566 H   0  0  0  0  0
  1  2  2  0  0  0
  2  3  1  0  0  0
  2 10  1  0  0  0
  3  4  4  0  0  0
  3  9  4  0  0  0
  4  5  4  0  0  0
  5  6  1  0  0  0
  5  7  4  0  0  0
  7  8  4  0  0  0
  8  9  4  0  0  0
 10 11  1  0  0  0
 11 12  1  0  0  0
 12 13  4  0  0  0
 12 16  4  0  0  0
 13 14  4  0  0  0
 14 15  4  0  0  0
 14 17  1  0  0  0
 15 16  4  0  0  0
 15 21  1  0  0  0
 17 18  2  0  0  0
 18 19  1  0  0  0
 18 20  1  0  0  0
 20 21  1  0  0  0
 21 22  2  0  0  0
  4 23  1  0  0  0
  6 24  1  0  0  0
  6 25  1  0  0  0
  6 26  1  0  0  0
  7 27  1  0  0  0
  8 28  1  0  0  0
  9 29  1  0  0  0
 10 30  1  0  0  0
 10 31  1  0  0  0
 19 32  1  0  0  0
 19 33  1  0  0  0
 20 34  1  0  0  0
M  END
$$$$
