6ink_ligand
  -I-interpret- 

 50 53  0  0  0  0  0  0  0  0999 V2000
   25.2850   76.4920   24.7780 C   0  0  0  0  0
   25.2880   76.2940   29.1170 C   0  0  0  0  0
   24.5660   77.4290   25.5330 C   0  0  0  0  0
   23.6460   78.2590   24.8970 C   0  0  0  0  0
   26.6360   74.5770   23.3100 C   0  0  0  0  0
   24.8870   77.5510   26.9940 C   0  0  0  0  0
   22.9710   79.0770   27.1600 C   0  0  0  0  0
   22.8890   79.3100   25.6680 C   0  0  0  0  0
   23.1390   77.8650   20.7100 C   0  0  0  0  0
   25.1160   79.6080   28.3220 C   0  0  0  0  0
   24.4720   76.3220   27.8240 C   0  0  0  0  0
   24.3550   78.7990   27.5460 N   0  0  0  0  0
   25.7320   73.2710   31.2060 N   0  0  0  0  0
   25.0760   76.3620   23.4310 C   0  0  0  0  0
   23.4430   78.1270   23.5130 C   0  0  0  0  0
   25.5060   74.9340   29.7100 C   0  0  0  0  0
   25.4930   74.6080   31.0360 C   0  0  0  0  0
   25.9220   72.6940   29.9780 C   0  0  0  0  0
   25.7910   73.7100   29.0050 C   0  0  0  0  0
   26.1990   71.3690   29.6420 C   0  0  0  0  0
   24.1360   77.1890   22.7800 C   0  0  0  0  0
   26.3430   71.0730   28.3060 C   0  0  0  0  0
   26.2190   72.0560   27.3260 C   0  0  0  0  0
   25.9450   73.3650   27.6570 C   0  0  0  0  0
   24.0010   76.9860   21.4340 O   0  0  0  0  0
   25.7270   75.4530   22.6440 O   0  0  0  0  0
   24.7170   80.6060   28.8960 O   0  0  0  0  0
   26.0216   75.8573   25.2706 H   0  0  0  0  0
   24.7251   76.8681   29.8530 H   0  0  0  0  0
   26.2740   76.6885   28.8716 H   0  0  0  0  0
   27.4141   75.1648   23.7971 H   0  0  0  0  0
   26.0964   73.9956   24.0576 H   0  0  0  0  0
   27.0892   73.9040   22.5821 H   0  0  0  0  0
   25.9739   77.5860   27.0680 H   0  0  0  0  0
   22.3458   78.2245   27.4254 H   0  0  0  0  0
   22.6245   79.9687   27.6825 H   0  0  0  0  0
   21.8413   79.2659   25.3707 H   0  0  0  0  0
   23.3302   80.2820   25.4475 H   0  0  0  0  0
   22.1284   77.7936   21.1122 H   0  0  0  0  0
   23.4995   78.8888   20.8095 H   0  0  0  0  0
   23.1335   77.5811   19.6576 H   0  0  0  0  0
   26.1671   79.3456   28.4422 H   0  0  0  0  0
   23.4098   76.3811   28.0615 H   0  0  0  0  0
   24.6588   75.4129   27.2523 H   0  0  0  0  0
   22.7260   78.7770   23.0115 H   0  0  0  0  0
   25.3167   75.3147   31.8469 H   0  0  0  0  0
   26.2975   70.5989   30.4071 H   0  0  0  0  0
   26.5588   70.0471   28.0076 H   0  0  0  0  0
   26.3411   71.7840   26.2776 H   0  0  0  0  0
   25.8493   74.1225   26.8791 H   0  0  0  0  0
  1  3  4  0  0  0
 14  1  4  0  0  0
 11  2  1  0  0  0
  2 16  1  0  0  0
  4  3  4  0  0  0
  3  6  1  0  0  0
  4  8  1  0  0  0
 15  4  4  0  0  0
 26  5  1  0  0  0
  6 11  1  0  0  0
  6 12  1  0  0  0
  8  7  1  0  0  0
  7 12  1  0  0  0
 25  9  1  0  0  0
 12 10  1  0  0  0
 10 27  2  0  0  0
 17 13  4  0  0  0
 18 13  4  0  0  0
 21 14  4  0  0  0
 14 26  1  0  0  0
 21 15  4  0  0  0
 16 17  4  0  0  0
 16 19  4  0  0  0
 19 18  4  0  0  0
 18 20  4  0  0  0
 19 24  4  0  0  0
 20 22  4  0  0  0
 21 25  1  0  0  0
 22 23  4  0  0  0
 23 24  4  0  0  0
  1 28  1  0  0  0
  2 29  1  0  0  0
  2 30  1  0  0  0
  5 31  1  0  0  0
  5 32  1  0  0  0
  5 33  1  0  0  0
  6 34  1  0  0  0
  7 35  1  0  0  0
  7 36  1  0  0  0
  8 37  1  0  0  0
  8 38  1  0  0  0
  9 39  1  0  0  0
  9 40  1  0  0  0
  9 41  1  0  0  0
 10 42  1  0  0  0
 11 43  1  0  0  0
 11 44  1  0  0  0
 15 45  1  0  0  0
 17 46  1  0  0  0
 20 47  1  0  0  0
 22 48  1  0  0  0
 23 49  1  0  0  0
 24 50  1  0  0  0
M  END
$$$$
