2x52_ligand
  -I-interpret- 

 99100  0  0  0  0  0  0  0  0999 V2000
   32.5940   37.5340    4.8570 C   0  0  0  0  0
   34.1040   37.3560    5.0060 C   0  0  0  0  0
   34.7990   37.0300    4.0510 O   0  0  0  0  0
   34.5780   37.5800    6.2280 N   0  0  0  0  0
   36.0030   37.4530    6.5430 C   0  0  0  0  0
   36.1610   36.3820    7.6170 C   0  0  0  0  0
   35.8300   35.1030    7.0920 O   0  0  0  0  0
   37.5900   36.3630    8.1470 C   0  0  0  0  0
   37.6610   35.4740    9.2560 O   0  0  0  0  0
   38.0280   37.7680    8.5660 C   0  0  0  0  0
   39.4780   37.7500    9.0400 C   0  0  0  0  0
   40.3280   37.3160    7.9800 O   0  0  0  0  0
   37.8950   38.6700    7.4610 O   0  0  0  0  0
   36.5240   38.7930    7.0640 C   0  0  0  0  0
   35.7560   39.0500    8.2250 O   0  0  0  0  0
   35.6240   40.3700    8.4920 C   0  0  0  0  0
   36.1500   41.1950    7.7490 O   0  0  0  0  0
   34.9150   40.6910    9.5680 N   0  0  0  0  0
   34.6260   42.0720    9.9530 C   0  0  0  0  0
   34.4090   42.1160   11.4620 C   0  0  0  0  0
   33.0800   41.4630   11.8610 C   0  0  0  0  0
   33.1730   41.0600   13.2340 O   0  0  0  0  0
   31.8710   40.9180   13.8070 C   0  0  0  0  0
   31.4840   42.1700   14.5640 C   0  0  0  0  0
   30.1050   42.1000   14.9220 O   0  0  0  0  0
   29.6900   43.3300   15.5190 C   0  0  0  0  0
   28.8470   44.1460   14.5530 C   0  0  0  0  0
   27.5760   43.5190   14.3230 O   0  0  0  0  0
   27.3860   43.3310   12.9190 C   0  0  0  0  0
   26.6840   44.5420   12.3030 C   0  0  0  0  0
   25.2520   44.1950   11.8950 C   0  0  0  0  0
   25.2500   42.9450   11.1240 N   0  0  0  0  0
   24.4400   42.0560   11.6930 C   0  0  0  0  0
   23.9620   42.1680   12.7990 O   0  0  0  0  0
   24.2550   40.9820   10.7700 O   0  0  0  0  0
   23.3990   39.9810   11.2970 C   0  0  0  0  0
   22.0220   40.3270   11.0810 O   0  0  0  0  0
   21.7190   40.5130    9.6950 C   0  0  0  0  0
   20.2590   40.9450    9.5450 C   0  0  0  0  0
   20.0800   42.2270   10.1440 O   0  0  0  0  0
   22.0070   39.2390    8.8980 C   0  0  0  0  0
   21.7430   39.4590    7.5120 O   0  0  0  0  0
   23.4660   38.8340    9.0860 C   0  0  0  0  0
   23.7380   37.6040    8.4170 O   0  0  0  0  0
   23.7620   38.6930   10.5690 C   0  0  0  0  0
   25.1920   38.4330   10.7440 N   0  0  0  0  0
   25.3790   37.6480   11.8010 C   0  0  0  0  0
   26.8740   37.3830   11.9740 C   0  0  0  0  0
   24.4840   37.2190   12.5080 O   0  0  0  0  0
   32.3920   38.3106    4.1193 H   0  0  0  0  0
   32.1494   36.5946    4.5285 H   0  0  0  0  0
   32.1670   37.8233    5.8173 H   0  0  0  0  0
   33.9298   37.8484    6.9684 H   0  0  0  0  0
   36.5689   37.1739    5.6542 H   0  0  0  0  0
   35.4824   36.6189    8.4365 H   0  0  0  0  0
   34.9297   35.1182    6.7591 H   0  0  0  0  0
   38.2615   36.0213    7.3593 H   0  0  0  0  0
   37.3840   34.5972    8.9801 H   0  0  0  0  0
   37.3911   38.1028    9.3847 H   0  0  0  0  0
   39.5733   37.0642    9.8819 H   0  0  0  0  0
   39.7691   38.7546    9.3468 H   0  0  0  0  0
   41.2383   37.3069    8.2846 H   0  0  0  0  0
   36.4502   39.5739    6.3071 H   0  0  0  0  0
   34.5546   39.9381   10.1542 H   0  0  0  0  0
   33.7324   42.4236    9.4374 H   0  0  0  0  0
   35.4593   42.7182    9.6771 H   0  0  0  0  0
   34.3879   43.1595   11.7764 H   0  0  0  0  0
   35.2196   41.5681   11.9424 H   0  0  0  0  0
   32.8834   40.5971   11.2289 H   0  0  0  0  0
   32.2613   42.1712   11.7330 H   0  0  0  0  0
   31.8788   40.0751   14.4981 H   0  0  0  0  0
   31.1492   40.7508   13.0076 H   0  0  0  0  0
   31.6525   43.0432   13.9337 H   0  0  0  0  0
   32.0905   42.2521   15.4660 H   0  0  0  0  0
   30.5760   43.9070   15.7839 H   0  0  0  0  0
   29.0920   43.1061   16.4024 H   0  0  0  0  0
   29.3770   44.2207   13.6035 H   0  0  0  0  0
   28.6773   45.1325   14.9843 H   0  0  0  0  0
   26.7678   42.4471   12.7618 H   0  0  0  0  0
   28.3596   43.2084   12.4445 H   0  0  0  0  0
   27.2354   44.8522   11.4154 H   0  0  0  0  0
   26.6531   45.3423   13.0424 H   0  0  0  0  0
   24.8443   44.9994   11.2828 H   0  0  0  0  0
   24.6403   44.0709   12.7886 H   0  0  0  0  0
   25.7913   42.7820   10.2750 H   0  0  0  0  0
   23.5252   39.8721   12.3742 H   0  0  0  0  0
   22.3586   41.2979    9.2915 H   0  0  0  0  0
   19.6123   40.2194   10.0384 H   0  0  0  0  0
   20.0023   40.9987    8.4870 H   0  0  0  0  0
   19.1638   42.4979   10.0498 H   0  0  0  0  0
   21.3606   38.4395    9.2600 H   0  0  0  0  0
   21.9265   38.6548    7.0209 H   0  0  0  0  0
   24.1045   39.6058    8.6561 H   0  0  0  0  0
   24.6592   37.3671    8.5472 H   0  0  0  0  0
   23.1747   37.8711   10.9785 H   0  0  0  0  0
   25.9328   38.7986   10.1457 H   0  0  0  0  0
   27.1962   37.7491   12.9488 H   0  0  0  0  0
   27.0619   36.3114   11.9066 H   0  0  0  0  0
   27.4265   37.9001   11.1895 H   0  0  0  0  0
  1  2  1  0  0  0
  2  3  2  0  0  0
  2  4  1  0  0  0
  4  5  1  0  0  0
  5  6  1  0  0  0
  5 14  1  0  0  0
  6  7  1  0  0  0
  6  8  1  0  0  0
  8  9  1  0  0  0
  8 10  1  0  0  0
 10 11  1  0  0  0
 10 13  1  0  0  0
 11 12  1  0  0  0
 13 14  1  0  0  0
 14 15  1  0  0  0
 15 16  1  0  0  0
 16 17  2  0  0  0
 16 18  1  0  0  0
 18 19  1  0  0  0
 19 20  1  0  0  0
 20 21  1  0  0  0
 21 22  1  0  0  0
 22 23  1  0  0  0
 23 24  1  0  0  0
 24 25  1  0  0  0
 25 26  1  0  0  0
 26 27  1  0  0  0
 27 28  1  0  0  0
 28 29  1  0  0  0
 29 30  1  0  0  0
 30 31  1  0  0  0
 31 32  1  0  0  0
 32 33  1  0  0  0
 33 34  2  0  0  0
 33 35  1  0  0  0
 35 36  1  0  0  0
 36 37  1  0  0  0
 36 45  1  0  0  0
 37 38  1  0  0  0
 38 39  1  0  0  0
 38 41  1  0  0  0
 39 40  1  0  0  0
 41 42  1  0  0  0
 41 43  1  0  0  0
 43 44  1  0  0  0
 43 45  1  0  0  0
 45 46  1  0  0  0
 46 47  1  0  0  0
 47 48  1  0  0  0
 47 49  2  0  0  0
  1 50  1  0  0  0
  1 51  1  0  0  0
  1 52  1  0  0  0
  4 53  1  0  0  0
  5 54  1  0  0  0
  6 55  1  0  0  0
  7 56  1  0  0  0
  8 57  1  0  0  0
  9 58  1  0  0  0
 10 59  1  0  0  0
 11 60  1  0  0  0
 11 61  1  0  0  0
 12 62  1  0  0  0
 14 63  1  0  0  0
 18 64  1  0  0  0
 19 65  1  0  0  0
 19 66  1  0  0  0
 20 67  1  0  0  0
 20 68  1  0  0  0
 21 69  1  0  0  0
 21 70  1  0  0  0
 23 71  1  0  0  0
 23 72  1  0  0  0
 24 73  1  0  0  0
 24 74  1  0  0  0
 26 75  1  0  0  0
 26 76  1  0  0  0
 27 77  1  0  0  0
 27 78  1  0  0  0
 29 79  1  0  0  0
 29 80  1  0  0  0
 30 81  1  0  0  0
 30 82  1  0  0  0
 31 83  1  0  0  0
 31 84  1  0  0  0
 32 85  1  0  0  0
 36 86  1  0  0  0
 38 87  1  0  0  0
 39 88  1  0  0  0
 39 89  1  0  0  0
 40 90  1  0  0  0
 41 91  1  0  0  0
 42 92  1  0  0  0
 43 93  1  0  0  0
 44 94  1  0  0  0
 45 95  1  0  0  0
 46 96  1  0  0  0
 48 97  1  0  0  0
 48 98  1  0  0  0
 48 99  1  0  0  0
M  END
$$$$
