### 
### Created by X-TOOL on Mon Sep 10 21:13:02 2018
### 

@<TRIPOS>MOLECULE
2x52_ligand
   99   100     1     0     0
SMALL
GAST_HUCK


@<TRIPOS>ATOM
      1 CBV        32.5940   37.5340    4.8570 C.3       1 GYT         0.0257
      2 CBU        34.1040   37.3560    5.0060 C.2       1 GYT         0.1734
      3 OBW        34.7990   37.0300    4.0510 O.2       1 GYT        -0.3974
      4 NBT        34.5780   37.5800    6.2280 N.am      1 GYT        -0.2763
      5 CBS        36.0030   37.4530    6.5430 C.3       1 GYT         0.1251
      6 CBQ        36.1610   36.3820    7.6170 C.3       1 GYT         0.1114
      7 OBR        35.8300   35.1030    7.0920 O.3       1 GYT        -0.3867
      8 CBO        37.5900   36.3630    8.1470 C.3       1 GYT         0.1117
      9 OBP        37.6610   35.4740    9.2560 O.3       1 GYT        -0.3865
     10 CBL        38.0280   37.7680    8.5660 C.3       1 GYT         0.1133
     11 CBM        39.4780   37.7500    9.0400 C.3       1 GYT         0.0730
     12 OBN        40.3280   37.3160    7.9800 O.3       1 GYT        -0.3924
     13 OBK        37.8950   38.6700    7.4610 O.3       1 GYT        -0.3373
     14 CBJ        36.5240   38.7930    7.0640 C.3       1 GYT         0.2127
     15 OBI        35.7560   39.0500    8.2250 O.3       1 GYT        -0.2293
     16 CAA        35.6240   40.3700    8.4920 C.2       1 GYT         0.3221
     17 OAB        36.1500   41.1950    7.7490 O.2       1 GYT        -0.3775
     18 NAC        34.9150   40.6910    9.5680 N.am      1 GYT        -0.2624
     19 CAD        34.6260   42.0720    9.9530 C.3       1 GYT         0.0349
     20 CAE        34.4090   42.1160   11.4620 C.3       1 GYT        -0.0092
     21 CAF        33.0800   41.4630   11.8610 C.3       1 GYT         0.0496
     22 OAG        33.1730   41.0600   13.2340 O.3       1 GYT        -0.3774
     23 CAH        31.8710   40.9180   13.8070 C.3       1 GYT         0.0710
     24 CAI        31.4840   42.1700   14.5640 C.3       1 GYT         0.0711
     25 OAJ        30.1050   42.1000   14.9220 O.3       1 GYT        -0.3752
     26 CAK        29.6900   43.3300   15.5190 C.3       1 GYT         0.0711
     27 CAL        28.8470   44.1460   14.5530 C.3       1 GYT         0.0710
     28 OAM        27.5760   43.5190   14.3230 O.3       1 GYT        -0.3774
     29 CAN        27.3860   43.3310   12.9190 C.3       1 GYT         0.0496
     30 CAO        26.6840   44.5420   12.3030 C.3       1 GYT        -0.0092
     31 CAP        25.2520   44.1950   11.8950 C.3       1 GYT         0.0349
     32 NAQ        25.2500   42.9450   11.1240 N.am      1 GYT        -0.2624
     33 CAR        24.4400   42.0560   11.6930 C.2       1 GYT         0.3221
     34 OAS        23.9620   42.1680   12.7990 O.2       1 GYT        -0.3775
     35 O1         24.2550   40.9820   10.7700 O.3       1 GYT        -0.2293
     36 C1         23.3990   39.9810   11.2970 C.3       1 GYT         0.2127
     37 O5         22.0220   40.3270   11.0810 O.3       1 GYT        -0.3373
     38 C5         21.7190   40.5130    9.6950 C.3       1 GYT         0.1133
     39 C6         20.2590   40.9450    9.5450 C.3       1 GYT         0.0730
     40 O6         20.0800   42.2270   10.1440 O.3       1 GYT        -0.3924
     41 C4         22.0070   39.2390    8.8980 C.3       1 GYT         0.1117
     42 O4         21.7430   39.4590    7.5120 O.3       1 GYT        -0.3865
     43 C3         23.4660   38.8340    9.0860 C.3       1 GYT         0.1114
     44 O3         23.7380   37.6040    8.4170 O.3       1 GYT        -0.3867
     45 C2         23.7620   38.6930   10.5690 C.3       1 GYT         0.1251
     46 N2         25.1920   38.4330   10.7440 N.am      1 GYT        -0.2763
     47 CAX        25.3790   37.6480   11.8010 C.2       1 GYT         0.1734
     48 CAZ        26.8740   37.3830   11.9740 C.3       1 GYT         0.0257
     49 OAY        24.4840   37.2190   12.5080 O.2       1 GYT        -0.3974
     50 H          32.3920   38.3106    4.1193 H         1 GYT         0.0467
     51 H          32.1494   36.5946    4.5285 H         1 GYT         0.0467
     52 H          32.1670   37.8233    5.8173 H         1 GYT         0.0467
     53 H          33.9298   37.8484    6.9684 H         1 GYT         0.1857
     54 H          36.5689   37.1739    5.6542 H         1 GYT         0.0637
     55 H          35.4824   36.6189    8.4365 H         1 GYT         0.0645
     56 H          35.9340   34.4399    7.7784 H         1 GYT         0.2100
     57 H          38.2615   36.0213    7.3593 H         1 GYT         0.0647
     58 H          37.0637   35.7749    9.9446 H         1 GYT         0.2100
     59 H          37.3911   38.1028    9.3847 H         1 GYT         0.0647
     60 H          39.5733   37.0642    9.8819 H         1 GYT         0.0584
     61 H          39.7691   38.7546    9.3468 H         1 GYT         0.0584
     62 H          40.2440   37.9181    7.2371 H         1 GYT         0.2095
     63 H          36.4502   39.5739    6.3071 H         1 GYT         0.0986
     64 H          34.5546   39.9381   10.1542 H         1 GYT         0.1867
     65 H          33.7324   42.4236    9.4374 H         1 GYT         0.0520
     66 H          35.4593   42.7182    9.6771 H         1 GYT         0.0520
     67 H          34.3879   43.1595   11.7764 H         1 GYT         0.0307
     68 H          35.2196   41.5681   11.9424 H         1 GYT         0.0307
     69 H          32.8834   40.5971   11.2289 H         1 GYT         0.0560
     70 H          32.2613   42.1712   11.7330 H         1 GYT         0.0560
     71 H          31.8788   40.0751   14.4981 H         1 GYT         0.0583
     72 H          31.1492   40.7508   13.0076 H         1 GYT         0.0583
     73 H          31.6525   43.0432   13.9337 H         1 GYT         0.0583
     74 H          32.0905   42.2521   15.4660 H         1 GYT         0.0583
     75 H          30.5760   43.9070   15.7839 H         1 GYT         0.0583
     76 H          29.0920   43.1061   16.4024 H         1 GYT         0.0583
     77 H          29.3770   44.2207   13.6035 H         1 GYT         0.0583
     78 H          28.6773   45.1325   14.9843 H         1 GYT         0.0583
     79 H          26.7678   42.4471   12.7618 H         1 GYT         0.0560
     80 H          28.3596   43.2084   12.4445 H         1 GYT         0.0560
     81 H          27.2354   44.8522   11.4154 H         1 GYT         0.0307
     82 H          26.6531   45.3423   13.0424 H         1 GYT         0.0307
     83 H          24.8443   44.9994   11.2828 H         1 GYT         0.0520
     84 H          24.6403   44.0709   12.7886 H         1 GYT         0.0520
     85 H          25.7913   42.7820   10.2750 H         1 GYT         0.1867
     86 H          23.5252   39.8721   12.3742 H         1 GYT         0.0986
     87 H          22.3586   41.2979    9.2915 H         1 GYT         0.0647
     88 H          19.6123   40.2194   10.0384 H         1 GYT         0.0584
     89 H          20.0023   40.9987    8.4870 H         1 GYT         0.0584
     90 H          20.3062   42.1780   11.0757 H         1 GYT         0.2095
     91 H          21.3606   38.4395    9.2600 H         1 GYT         0.0647
     92 H          22.3043   40.1676    7.1890 H         1 GYT         0.2100
     93 H          24.1045   39.6058    8.6561 H         1 GYT         0.0645
     94 H          24.6592   37.3671    8.5472 H         1 GYT         0.2100
     95 H          23.1747   37.8711   10.9785 H         1 GYT         0.0637
     96 H          25.9328   38.7986   10.1457 H         1 GYT         0.1857
     97 H          27.1962   37.7491   12.9488 H         1 GYT         0.0467
     98 H          27.0619   36.3114   11.9066 H         1 GYT         0.0467
     99 H          27.4265   37.9001   11.1895 H         1 GYT         0.0467
@<TRIPOS>BOND
     1    1    2 1  
     2    2    3 2  
     3    2    4 am 
     4    4    5 1  
     5    5    6 1  
     6    5   14 1  
     7    6    7 1  
     8    6    8 1  
     9    8    9 1  
    10    8   10 1  
    11   10   11 1  
    12   10   13 1  
    13   11   12 1  
    14   13   14 1  
    15   14   15 1  
    16   15   16 1  
    17   16   17 2  
    18   16   18 am 
    19   18   19 1  
    20   19   20 1  
    21   20   21 1  
    22   21   22 1  
    23   22   23 1  
    24   23   24 1  
    25   24   25 1  
    26   25   26 1  
    27   26   27 1  
    28   27   28 1  
    29   28   29 1  
    30   29   30 1  
    31   30   31 1  
    32   31   32 1  
    33   32   33 am 
    34   33   34 2  
    35   33   35 1  
    36   35   36 1  
    37   36   37 1  
    38   36   45 1  
    39   37   38 1  
    40   38   39 1  
    41   38   41 1  
    42   39   40 1  
    43   41   42 1  
    44   41   43 1  
    45   43   44 1  
    46   43   45 1  
    47   45   46 1  
    48   46   47 am 
    49   47   48 1  
    50   47   49 2  
    51    1   50 1  
    52    1   51 1  
    53    1   52 1  
    54    4   53 1  
    55    5   54 1  
    56    6   55 1  
    57    7   56 1  
    58    8   57 1  
    59    9   58 1  
    60   10   59 1  
    61   11   60 1  
    62   11   61 1  
    63   12   62 1  
    64   14   63 1  
    65   18   64 1  
    66   19   65 1  
    67   19   66 1  
    68   20   67 1  
    69   20   68 1  
    70   21   69 1  
    71   21   70 1  
    72   23   71 1  
    73   23   72 1  
    74   24   73 1  
    75   24   74 1  
    76   26   75 1  
    77   26   76 1  
    78   27   77 1  
    79   27   78 1  
    80   29   79 1  
    81   29   80 1  
    82   30   81 1  
    83   30   82 1  
    84   31   83 1  
    85   31   84 1  
    86   32   85 1  
    87   36   86 1  
    88   38   87 1  
    89   39   88 1  
    90   39   89 1  
    91   40   90 1  
    92   41   91 1  
    93   42   92 1  
    94   43   93 1  
    95   44   94 1  
    96   45   95 1  
    97   46   96 1  
    98   48   97 1  
    99   48   98 1  
   100   48   99 1  
@<TRIPOS>SUBSTRUCTURE
     1 GYT         1

