1mmr_ligand
  -I-interpret- 

 72 74  0  0  0  0  0  0  0  0999 V2000
   48.5470  -41.6620   50.4750 S   0  0  0  0  0
   46.9890  -41.6190   50.1060 N   0  0  0  0  0
   48.4480  -42.3000   51.9330 N   0  0  0  0  0
   49.3690  -40.1680   50.8410 C   0  0  0  0  0
   48.8240  -38.9520   50.0840 C   0  0  0  0  0
   49.5880  -38.6050   48.8100 C   0  0  0  0  0
   50.8160  -38.6870   48.7630 O   0  0  0  0  0
   48.8960  -38.1550   47.7650 N   0  0  0  0  0
   49.5600  -37.7740   46.5250 C   0  0  0  0  0
   49.6590  -36.2600   46.4320 C   0  0  0  0  0
   48.6950  -35.5400   46.6970 O   0  0  0  0  0
   50.8270  -35.7590   46.0590 N   0  0  0  0  0
   51.0670  -34.3230   45.8780 C   0  0  0  0  0
   52.3220  -34.1660   44.9690 C   0  0  0  0  0
   52.0110  -33.5720   43.5890 C   0  0  0  0  0
   51.5760  -34.6190   42.5870 C   0  0  0  0  0
   50.3440  -34.1920   41.7760 C   0  0  0  0  0
   49.6180  -35.4330   41.2040 C   0  0  0  0  0
   49.6220  -36.5760   42.1510 N   0  0  0  0  0
   49.0010  -37.7940   51.0950 C   0  0  0  0  0
   48.1640  -36.5100   51.0830 C   0  0  0  0  0
   46.6720  -36.7350   50.7500 C   0  0  0  0  0
   48.2860  -35.9550   52.5160 C   0  0  0  0  0
   48.7740  -38.3430   45.3280 C   0  0  0  0  0
   49.3070  -37.8690   44.0140 C   0  0  0  0  0
   48.9740  -36.6760   43.3370 C   0  0  0  0  0
   50.2170  -38.5150   43.1610 C   0  0  0  0  0
   50.3870  -37.6860   42.0150 C   0  0  0  0  0
   50.9060  -39.7270   43.2620 C   0  0  0  0  0
   51.2480  -38.0770   40.9750 C   0  0  0  0  0
   51.7560  -40.1120   42.2220 C   0  0  0  0  0
   51.9280  -39.2970   41.0880 C   0  0  0  0  0
   49.5390  -42.6890   49.4600 C   0  0  0  0  0
   46.2972  -41.9595   50.7737 H   0  0  0  0  0
   47.5368  -42.5377   52.3249 H   0  0  0  0  0
   50.4106  -40.2921   50.5446 H   0  0  0  0  0
   49.2288  -39.9751   51.9046 H   0  0  0  0  0
   47.8025  -39.1439   49.7555 H   0  0  0  0  0
   47.8814  -38.0754   47.8338 H   0  0  0  0  0
   50.5700  -38.1837   46.5105 H   0  0  0  0  0
   51.5986  -36.4041   45.8890 H   0  0  0  0  0
   51.2327  -33.8409   46.8414 H   0  0  0  0  0
   50.2013  -33.8481   45.4162 H   0  0  0  0  0
   52.7369  -35.1614   44.8102 H   0  0  0  0  0
   53.0063  -33.4828   45.4720 H   0  0  0  0  0
   52.9216  -33.1062   43.2123 H   0  0  0  0  0
   51.1928  -32.8616   43.7072 H   0  0  0  0  0
   51.3151  -35.5215   43.1397 H   0  0  0  0  0
   52.3981  -34.7738   41.8882 H   0  0  0  0  0
   50.6651  -33.5568   40.9505 H   0  0  0  0  0
   49.6597  -33.6499   42.4287 H   0  0  0  0  0
   50.1406  -35.7426   40.2989 H   0  0  0  0  0
   48.5810  -35.1583   41.0107 H   0  0  0  0  0
   50.0032  -37.4295   50.8696 H   0  0  0  0  0
   48.7187  -38.2559   52.0411 H   0  0  0  0  0
   48.5304  -35.8391   50.3060 H   0  0  0  0  0
   46.5856  -37.1852   49.7611 H   0  0  0  0  0
   46.2315  -37.3999   51.4930 H   0  0  0  0  0
   46.1501  -35.7781   50.7619 H   0  0  0  0  0
   47.8963  -36.6879   53.2225 H   0  0  0  0  0
   49.3341  -35.7552   52.7389 H   0  0  0  0  0
   47.7135  -35.0309   52.5963 H   0  0  0  0  0
   47.7412  -38.0050   45.4131 H   0  0  0  0  0
   48.8622  -39.4291   45.3541 H   0  0  0  0  0
   48.2810  -35.9274   43.7209 H   0  0  0  0  0
   50.7820  -40.3623   44.1390 H   0  0  0  0  0
   51.3840  -37.4439   40.0982 H   0  0  0  0  0
   52.2938  -41.0576   42.2902 H   0  0  0  0  0
   52.5969  -39.6178   40.2894 H   0  0  0  0  0
   50.5364  -42.7702   49.8920 H   0  0  0  0  0
   49.0877  -43.6791   49.3959 H   0  0  0  0  0
   49.6079  -42.2545   48.4627 H   0  0  0  0  0
  1 33  1  0  0  0
  1  4  1  0  0  0
  1  3  2  0  0  0
  1  2  2  0  0  0
  4  5  1  0  0  0
  5 20  1  0  0  0
  5  6  1  0  0  0
  6  8  1  0  0  0
  6  7  2  0  0  0
  8  9  1  0  0  0
  9 24  1  0  0  0
  9 10  1  0  0  0
 10 12  1  0  0  0
 10 11  2  0  0  0
 12 13  1  0  0  0
 13 14  1  0  0  0
 14 15  1  0  0  0
 15 16  1  0  0  0
 16 17  1  0  0  0
 17 18  1  0  0  0
 18 19  1  0  0  0
 19 28  4  0  0  0
 19 26  4  0  0  0
 26 25  4  0  0  0
 25 27  4  0  0  0
 25 24  1  0  0  0
 27 29  4  0  0  0
 27 28  4  0  0  0
 28 30  4  0  0  0
 30 32  4  0  0  0
 32 31  4  0  0  0
 31 29  4  0  0  0
 20 21  1  0  0  0
 21 23  1  0  0  0
 21 22  1  0  0  0
  2 34  1  0  0  0
  3 35  1  0  0  0
  4 36  1  0  0  0
  4 37  1  0  0  0
  5 38  1  0  0  0
  8 39  1  0  0  0
  9 40  1  0  0  0
 12 41  1  0  0  0
 13 42  1  0  0  0
 13 43  1  0  0  0
 14 44  1  0  0  0
 14 45  1  0  0  0
 15 46  1  0  0  0
 15 47  1  0  0  0
 16 48  1  0  0  0
 16 49  1  0  0  0
 17 50  1  0  0  0
 17 51  1  0  0  0
 18 52  1  0  0  0
 18 53  1  0  0  0
 20 54  1  0  0  0
 20 55  1  0  0  0
 21 56  1  0  0  0
 22 57  1  0  0  0
 22 58  1  0  0  0
 22 59  1  0  0  0
 23 60  1  0  0  0
 23 61  1  0  0  0
 23 62  1  0  0  0
 24 63  1  0  0  0
 24 64  1  0  0  0
 26 65  1  0  0  0
 29 66  1  0  0  0
 30 67  1  0  0  0
 31 68  1  0  0  0
 32 69  1  0  0  0
 33 70  1  0  0  0
 33 71  1  0  0  0
 33 72  1  0  0  0
M  END
$$$$
