### 
### Created by X-TOOL on Mon Sep 10 21:13:01 2018
### 

@<TRIPOS>MOLECULE
3h2n_ligand
   22    23     1     0     0
SMALL
GAST_HUCK


@<TRIPOS>ATOM
      1 O12       -80.4690   86.2800   91.2880 O.2       1 B62        -0.3487
      2 C1        -79.5350   85.5190   91.4840 C.2       1 B62         0.2952
      3 N2        -79.3450   84.4240   90.7420 N.am      1 B62        -0.1912
      4 C6        -78.6560   85.7770   92.6300 C.2       1 B62         0.2198
      5 N7        -78.8680   86.8500   93.4290 N.2       1 B62        -0.2652
      6 C8        -78.1650   86.9190   94.7040 C.3       1 B62         0.0619
      7 C11       -78.2110   88.3530   95.2410 C.3       1 B62        -0.0437
      8 C9        -76.7470   86.3230   94.5540 C.3       1 B62         0.0554
      9 N10       -76.7160   84.9900   93.9230 N.pl3     1 B62        -0.2772
     10 C5        -77.5720   84.7700   92.8890 C.2       1 B62         0.1957
     11 N4        -77.4600   83.7050   92.0490 N.2       1 B62        -0.2214
     12 C3        -78.3130   83.5640   90.9830 C.2       1 B62         0.1719
     13 N13       -78.1790   82.4880   90.1580 N.2       1 B62        -0.3868
     14 H1        -79.9755   84.2296   89.9905 H         1 B62         0.2413
     15 H2        -78.7044   86.2875   95.4253 H         1 B62         0.0524
     16 H3        -77.6797   88.4015   96.2030 H         1 B62         0.0248
     17 H4        -79.2582   88.6573   95.3848 H         1 B62         0.0248
     18 H5        -77.7280   89.0299   94.5209 H         1 B62         0.0248
     19 H6        -76.2992   86.2413   95.5554 H         1 B62         0.0556
     20 H7        -76.1471   87.0100   93.9390 H         1 B62         0.0556
     21 H8        -76.0726   84.2560   94.2519 H         1 B62         0.1961
     22 H9        -77.4289   81.8308   90.3046 H         1 B62         0.0590
@<TRIPOS>BOND
     1    1    2 2  
     2    2    3 am 
     3    2    4 1  
     4    3   12 1  
     5    4    5 2  
     6    4   10 1  
     7    5    6 1  
     8    6    7 1  
     9    6    8 1  
    10    8    9 1  
    11    9   10 1  
    12   10   11 2  
    13   11   12 1  
    14   12   13 2  
    15    3   14 1  
    16    6   15 1  
    17    7   16 1  
    18    7   17 1  
    19    7   18 1  
    20    8   19 1  
    21    8   20 1  
    22    9   21 1  
    23   13   22 1  
@<TRIPOS>SUBSTRUCTURE
     1 B62         1

