3h2n_ligand
  -I-interpret- 

 22 23  0  0  0  0  0  0  0  0999 V2000
  -80.4690   86.2800   91.2880 O   0  0  0  0  0
  -79.5350   85.5190   91.4840 C   0  0  0  0  0
  -79.3450   84.4240   90.7420 N   0  0  0  0  0
  -78.6560   85.7770   92.6300 C   0  0  0  0  0
  -78.8680   86.8500   93.4290 N   0  0  0  0  0
  -78.1650   86.9190   94.7040 C   0  0  0  0  0
  -78.2110   88.3530   95.2410 C   0  0  0  0  0
  -76.7470   86.3230   94.5540 C   0  0  0  0  0
  -76.7160   84.9900   93.9230 N   0  0  0  0  0
  -77.5720   84.7700   92.8890 C   0  0  0  0  0
  -77.4600   83.7050   92.0490 N   0  0  0  0  0
  -78.3130   83.5640   90.9830 C   0  0  0  0  0
  -78.1790   82.4880   90.1580 N   0  0  0  0  0
  -79.9881   84.2257   89.9755 H   0  0  0  0  0
  -78.6578   86.3071   95.4596 H   0  0  0  0  0
  -77.7522   88.3844   96.2292 H   0  0  0  0  0
  -77.6651   89.0106   94.5645 H   0  0  0  0  0
  -79.2483   88.6807   95.3100 H   0  0  0  0  0
  -76.3359   86.2138   95.5576 H   0  0  0  0  0
  -76.1809   86.9969   93.9109 H   0  0  0  0  0
  -76.0789   84.2631   94.2487 H   0  0  0  0  0
  -77.4501   81.7969   90.3355 H   0  0  0  0  0
  1  2  2  0  0  0
  2  3  1  0  0  0
  2  4  1  0  0  0
  3 12  1  0  0  0
  4  5  2  0  0  0
  4 10  1  0  0  0
  5  6  1  0  0  0
  6  7  1  0  0  0
  6  8  1  0  0  0
  8  9  1  0  0  0
  9 10  1  0  0  0
 10 11  2  0  0  0
 11 12  1  0  0  0
 12 13  2  0  0  0
  3 14  1  0  0  0
  6 15  1  0  0  0
  7 16  1  0  0  0
  7 17  1  0  0  0
  7 18  1  0  0  0
  8 19  1  0  0  0
  8 20  1  0  0  0
  9 21  1  0  0  0
 13 22  1  0  0  0
M  END
$$$$
