### 
### Created by X-TOOL on Mon Sep 10 21:13:33 2018
### 

@<TRIPOS>MOLECULE
5nmg_ligand
  145   145     1     0     0
SMALL
GAST_HUCK


@<TRIPOS>ATOM
      1 N          43.3680   54.6510   37.5620 N.4       1 SER         0.2396
      2 CA         44.5370   53.9740   36.9510 C.3       1 SER         0.0885
      3 C          44.7460   54.3030   35.4590 C.2       1 SER         0.2290
      4 O          43.8310   54.6080   34.6870 O.2       1 SER        -0.3906
      5 CB         44.5050   52.4470   37.1370 C.3       1 SER         0.1041
      6 OG         43.2640   51.8990   36.8470 O.3       1 SER        -0.3870
      7 N          46.0290   54.2400   35.1350 N.am      1 LEU        -0.2609
      8 CA         46.5670   54.2110   33.8100 C.3       1 LEU         0.1313
      9 C          45.8290   53.2730   32.8360 C.2       1 LEU         0.2040
     10 O          45.3330   52.2030   33.2260 O.2       1 LEU        -0.3944
     11 CB         47.9950   53.6650   33.9160 C.3       1 LEU        -0.0101
     12 CG         49.0360   54.4900   34.6150 C.3       1 LEU        -0.0425
     13 CD1        50.2950   53.6780   34.7470 C.3       1 LEU        -0.0625
     14 CD2        49.2730   55.7550   33.8370 C.3       1 LEU        -0.0625
     15 N          45.8500   53.7060   31.5750 N.am      1 PHE        -0.2619
     16 CA         45.4690   52.9440   30.3990 C.3       1 PHE         0.1404
     17 C          46.4870   51.8140   30.1940 C.2       1 PHE         0.2061
     18 O          47.6180   51.9880   30.5690 O.2       1 PHE        -0.3942
     19 CB         45.4230   53.9360   29.2100 C.3       1 PHE         0.0214
     20 CG         44.9800   53.3620   27.9350 C.ar      1 PHE        -0.0386
     21 CD1        43.9300   52.5040   27.8590 C.ar      1 PHE        -0.0601
     22 CD2        45.6000   53.7280   26.7710 C.ar      1 PHE        -0.0601
     23 CE1        43.5370   51.9290   26.6600 C.ar      1 PHE        -0.0686
     24 CE2        45.1990   53.2090   25.5380 C.ar      1 PHE        -0.0686
     25 CZ         44.1560   52.2980   25.4990 C.ar      1 PHE        -0.0687
     26 N          46.0720   50.6430   29.6850 N.am      1 ASN        -0.2615
     27 CA         47.0090   49.5360   29.4130 C.3       1 ASN         0.1476
     28 C          47.6830   49.6000   28.0440 C.2       1 ASN         0.2063
     29 O          48.9290   49.6570   27.9680 O.2       1 ASN        -0.3942
     30 CB         46.4080   48.1200   29.6670 C.3       1 ASN         0.0773
     31 CG         45.0750   47.8270   28.9390 C.2       1 ASN         0.1780
     32 OD1        44.4770   48.6860   28.3550 O.2       1 ASN        -0.3970
     33 ND2        44.6190   46.5650   29.0180 N.am      1 ASN        -0.3007
     34 N          46.8800   49.6070   26.9800 N.am      1 THR        -0.2612
     35 CA         47.3820   49.3940   25.6160 C.3       1 THR         0.1565
     36 C          47.7110   50.7060   24.9480 C.2       1 THR         0.2065
     37 O          47.0810   51.1300   23.9590 O.2       1 THR        -0.3943
     38 CB         46.3660   48.6660   24.7440 C.3       1 THR         0.0924
     39 OG1        45.1020   49.3810   24.7020 O.3       1 THR        -0.3874
     40 CG2        46.1670   47.2530   25.2810 C.3       1 THR        -0.0346
     41 N          48.7360   51.3340   25.4980 N.am      1 ILE        -0.2634
     42 CA         49.2700   52.5650   24.9710 C.3       1 ILE         0.1335
     43 C          50.1090   52.3740   23.7090 C.2       1 ILE         0.2041
     44 O          51.0670   51.6050   23.6800 O.2       1 ILE        -0.3944
     45 CB         50.0730   53.2930   26.0410 C.3       1 ILE        -0.0037
     46 CG1        50.5010   54.6290   25.5240 C.3       1 ILE        -0.0491
     47 CG2        51.2430   52.4880   26.5710 C.3       1 ILE        -0.0582
     48 CD1        49.3630   55.6160   25.7120 C.3       1 ILE        -0.0648
     49 N          49.7560   53.1230   22.6730 N.am      1 ALA        -0.2640
     50 CA         50.2910   52.8850   21.3700 C.3       1 ALA         0.1282
     51 C          51.4330   53.8040   20.9910 C.2       1 ALA         0.2036
     52 O          51.4450   55.0230   21.2370 O.2       1 ALA        -0.3944
     53 CB         49.1930   52.9240   20.2910 C.3       1 ALA        -0.0244
     54 N          52.3110   53.1690   20.2460 N.am      1 VAL        -0.2635
     55 CA         53.5710   53.6350   19.7750 C.3       1 VAL         0.1332
     56 C          53.2010   54.4320   18.5180 C.2       1 VAL         0.2036
     57 O          52.1260   54.2170   17.9440 O.2       1 VAL        -0.3944
     58 CB         54.4570   52.3420   19.6220 C.3       1 VAL        -0.0063
     59 CG1        54.5310   51.7820   18.2360 C.3       1 VAL        -0.0584
     60 CG2        55.8210   52.4850   20.2290 C.3       1 VAL        -0.0584
     61 N          54.0510   55.4090   18.1700 N.am      1 LEU        -0.2695
     62 CA         53.9770   56.2570   16.9090 C.3       1 LEU         0.0946
     63 C          54.4000   55.5650   15.5520 C.2       1 LEU         0.0601
     64 O          54.9750   54.4510   15.5070 O.co2     1 LEU        -0.5666
     65 CB         54.8860   57.5170   17.0240 C.3       1 LEU        -0.0156
     66 CG         54.4350   58.7970   17.7100 C.3       1 LEU        -0.0431
     67 CD1        53.5050   58.4990   18.8440 C.3       1 LEU        -0.0625
     68 CD2        55.5810   59.6200   18.2310 C.3       1 LEU        -0.0625
     69 OXT        54.2050   56.1890   14.4260 O.co2     1 LEU        -0.5666
     70 H1         43.2970   54.3883   38.5326 H         1 SER         0.2016
     71 H2         42.5285   54.3751   37.0770 H         1 SER         0.2016
     72 H3         43.4837   55.6499   37.4919 H         1 SER         0.2016
     73 H4         45.4223   54.3469   37.4869 H         1 SER         0.1122
     74 H5         44.7570   52.2143   38.1821 H         1 SER         0.0640
     75 H6         45.2539   51.9953   36.4698 H         1 SER         0.0640
     76 H7         43.2963   50.9585   36.9766 H         1 SER         0.2099
     77 H8         46.6846   54.2098   35.8895 H         1 LEU         0.1884
     78 H9         46.5678   55.2319   33.4005 H         1 LEU         0.0800
     79 H10        48.3529   53.4952   32.8898 H         1 LEU         0.0315
     80 H11        47.9347   52.7036   34.4471 H         1 LEU         0.0315
     81 H12        48.6762   54.7544   35.6203 H         1 LEU         0.0298
     82 H13        51.0644   54.2750   35.2586 H         1 LEU         0.0232
     83 H14        50.6554   53.3950   33.7470 H         1 LEU         0.0232
     84 H15        50.0862   52.7702   35.3320 H         1 LEU         0.0232
     85 H16        48.3326   56.3206   33.7615 H         1 LEU         0.0232
     86 H17        49.6314   55.5032   32.8280 H         1 LEU         0.0232
     87 H18        50.0283   56.3664   34.3524 H         1 LEU         0.0232
     88 H19        46.1576   54.6456   31.4247 H         1 PHE         0.1885
     89 H20        44.4713   52.5033   30.5416 H         1 PHE         0.0823
     90 H21        46.4349   54.3428   29.0668 H         1 PHE         0.0474
     91 H22        44.7338   54.7517   29.4737 H         1 PHE         0.0474
     92 H23        43.3828   52.2614   28.7627 H         1 PHE         0.0557
     93 H24        46.4200   54.4360   26.8069 H         1 PHE         0.0557
     94 H25        42.7432   51.1909   26.6438 H         1 PHE         0.0599
     95 H26        45.6966   53.5145   24.6247 H         1 PHE         0.0599
     96 H27        43.8327   51.8801   24.5525 H         1 PHE         0.0559
     97 H28        45.1004   50.5175   29.4845 H         1 ASN         0.1885
     98 H29        47.8170   49.6560   30.1497 H         1 ASN         0.0826
     99 H30        46.2353   48.0131   30.7481 H         1 ASN         0.0551
    100 H31        47.1460   47.3736   29.3380 H         1 ASN         0.0551
    101 H32        43.7621   46.3139   28.5678 H         1 ASN         0.1814
    102 H33        45.1366   45.8773   29.5270 H         1 ASN         0.1814
    103 H34        45.9015   49.7627   27.1151 H         1 THR         0.1884
    104 H35        48.2962   48.7855   25.6781 H         1 THR         0.0826
    105 H36        46.7625   48.6027   23.7199 H         1 THR         0.0639
    106 H37        45.2425   50.2496   24.3438 H         1 THR         0.2101
    107 H38        45.4342   46.7227   24.6550 H         1 THR         0.0257
    108 H39        45.7974   47.3027   26.3158 H         1 THR         0.0257
    109 H40        47.1257   46.7141   25.2595 H         1 THR         0.0257
    110 H41        49.1586   50.9387   26.3136 H         1 ILE         0.1883
    111 H42        48.4150   53.2018   24.6999 H         1 ILE         0.0803
    112 H43        49.3979   53.4682   26.8916 H         1 ILE         0.0345
    113 H44        50.7481   54.5495   24.4551 H         1 ILE         0.0267
    114 H45        51.3850   54.9743   26.0801 H         1 ILE         0.0267
    115 H46        50.8825   51.5163   26.9395 H         1 ILE         0.0235
    116 H47        51.7230   53.0372   27.3944 H         1 ILE         0.0235
    117 H48        51.9725   52.3263   25.7637 H         1 ILE         0.0235
    118 H49        49.6678   56.6032   25.3345 H         1 ILE         0.0230
    119 H50        49.1168   55.6924   26.7814 H         1 ILE         0.0230
    120 H51        48.4799   55.2676   25.1564 H         1 ILE         0.0230
    121 H52        49.1030   53.8685   22.8065 H         1 ALA         0.1883
    122 H53        50.6985   51.8634   21.3826 H         1 ALA         0.0797
    123 H54        49.6418   52.7371   19.3043 H         1 ALA         0.0277
    124 H55        48.7115   53.9130   20.2934 H         1 ALA         0.0277
    125 H56        48.4414   52.1497   20.5045 H         1 ALA         0.0277
    126 H57        52.0615   52.2392   19.9755 H         1 VAL         0.1883
    127 H58        54.0548   54.3091   20.4971 H         1 VAL         0.0802
    128 H59        53.9443   51.5735   20.2192 H         1 VAL         0.0343
    129 H60        55.1696   50.8864   18.2361 H         1 VAL         0.0234
    130 H61        54.9572   52.5361   17.5581 H         1 VAL         0.0234
    131 H62        53.5206   51.5118   17.8952 H         1 VAL         0.0234
    132 H63        55.7290   52.8980   21.2444 H         1 VAL         0.0234
    133 H64        56.4281   53.1629   19.6111 H         1 VAL         0.0234
    134 H65        56.3063   51.4990   20.2769 H         1 VAL         0.0234
    135 H66        54.8051   55.5982   18.7990 H         1 LEU         0.1875
    136 H67        52.9303   56.5799   16.8085 H         1 LEU         0.0726
    137 H68        55.1461   57.7997   15.9933 H         1 LEU         0.0308
    138 H69        55.7926   57.1907   17.5546 H         1 LEU         0.0308
    139 H70        53.8939   59.3997   16.9657 H         1 LEU         0.0297
    140 H71        53.1952   59.4404   19.3212 H         1 LEU         0.0232
    141 H72        54.0182   57.8653   19.5823 H         1 LEU         0.0232
    142 H73        52.6180   57.9723   18.4621 H         1 LEU         0.0232
    143 H74        56.2737   59.8469   17.4072 H         1 LEU         0.0232
    144 H75        56.1122   59.0561   19.0119 H         1 LEU         0.0232
    145 H76        55.1953   60.5589   18.6548 H         1 LEU         0.0232
@<TRIPOS>BOND
     1    1    2 1  
     2    2    3 1  
     3    2    5 1  
     4    3    4 2  
     5    3    7 am 
     6    5    6 1  
     7    7    8 1  
     8    8    9 1  
     9    8   11 1  
    10    9   10 2  
    11    9   15 am 
    12   11   12 1  
    13   12   13 1  
    14   12   14 1  
    15   15   16 1  
    16   16   17 1  
    17   16   19 1  
    18   17   18 2  
    19   17   26 am 
    20   19   20 1  
    21   20   21 ar 
    22   20   22 ar 
    23   21   23 ar 
    24   22   24 ar 
    25   23   25 ar 
    26   24   25 ar 
    27   26   27 1  
    28   27   28 1  
    29   27   30 1  
    30   28   29 2  
    31   28   34 am 
    32   30   31 1  
    33   31   32 2  
    34   31   33 am 
    35   34   35 1  
    36   35   36 1  
    37   35   38 1  
    38   36   37 2  
    39   36   41 am 
    40   38   39 1  
    41   38   40 1  
    42   41   42 1  
    43   42   43 1  
    44   42   45 1  
    45   43   44 2  
    46   43   49 am 
    47   45   46 1  
    48   45   47 1  
    49   46   48 1  
    50   49   50 1  
    51   50   51 1  
    52   50   53 1  
    53   51   52 2  
    54   51   54 am 
    55   54   55 1  
    56   55   56 1  
    57   55   58 1  
    58   56   57 2  
    59   56   61 am 
    60   58   59 1  
    61   58   60 1  
    62   61   62 1  
    63   62   63 1  
    64   62   65 1  
    65   63   64 ar 
    66   63   69 ar 
    67   65   66 1  
    68   66   67 1  
    69   66   68 1  
    70    1   70 1  
    71    1   71 1  
    72    1   72 1  
    73    2   73 1  
    74    5   74 1  
    75    5   75 1  
    76    6   76 1  
    77    7   77 1  
    78    8   78 1  
    79   11   79 1  
    80   11   80 1  
    81   12   81 1  
    82   13   82 1  
    83   13   83 1  
    84   13   84 1  
    85   14   85 1  
    86   14   86 1  
    87   14   87 1  
    88   15   88 1  
    89   16   89 1  
    90   19   90 1  
    91   19   91 1  
    92   21   92 1  
    93   22   93 1  
    94   23   94 1  
    95   24   95 1  
    96   25   96 1  
    97   26   97 1  
    98   27   98 1  
    99   30   99 1  
   100   30  100 1  
   101   33  101 1  
   102   33  102 1  
   103   34  103 1  
   104   35  104 1  
   105   38  105 1  
   106   39  106 1  
   107   40  107 1  
   108   40  108 1  
   109   40  109 1  
   110   41  110 1  
   111   42  111 1  
   112   45  112 1  
   113   46  113 1  
   114   46  114 1  
   115   47  115 1  
   116   47  116 1  
   117   47  117 1  
   118   48  118 1  
   119   48  119 1  
   120   48  120 1  
   121   49  121 1  
   122   50  122 1  
   123   53  123 1  
   124   53  124 1  
   125   53  125 1  
   126   54  126 1  
   127   55  127 1  
   128   58  128 1  
   129   59  129 1  
   130   59  130 1  
   131   59  131 1  
   132   60  132 1  
   133   60  133 1  
   134   60  134 1  
   135   61  135 1  
   136   62  136 1  
   137   65  137 1  
   138   65  138 1  
   139   66  139 1  
   140   67  140 1  
   141   67  141 1  
   142   67  142 1  
   143   68  143 1  
   144   68  144 1  
   145   68  145 1  
@<TRIPOS>SUBSTRUCTURE
     1 SER         1

