5nmg_ligand
  -I-interpret- 

146146  0  0  0  0  0  0  0  0999 V2000
   43.3680   54.6510   37.5620 N   0  3  0  0  0
   44.5370   53.9740   36.9510 C   0  0  0  0  0
   44.7460   54.3030   35.4590 C   0  0  0  0  0
   43.8310   54.6080   34.6870 O   0  0  0  0  0
   44.5050   52.4470   37.1370 C   0  0  0  0  0
   43.2640   51.8990   36.8470 O   0  0  0  0  0
   46.0290   54.2400   35.1350 N   0  0  0  0  0
   46.5670   54.2110   33.8100 C   0  0  0  0  0
   45.8290   53.2730   32.8360 C   0  0  0  0  0
   45.3330   52.2030   33.2260 O   0  0  0  0  0
   47.9950   53.6650   33.9160 C   0  0  0  0  0
   49.0360   54.4900   34.6150 C   0  0  0  0  0
   50.2950   53.6780   34.7470 C   0  0  0  0  0
   49.2730   55.7550   33.8370 C   0  0  0  0  0
   45.8500   53.7060   31.5750 N   0  0  0  0  0
   45.4690   52.9440   30.3990 C   0  0  0  0  0
   46.4870   51.8140   30.1940 C   0  0  0  0  0
   47.6180   51.9880   30.5690 O   0  0  0  0  0
   45.4230   53.9360   29.2100 C   0  0  0  0  0
   44.9800   53.3620   27.9350 C   0  0  0  0  0
   43.9300   52.5040   27.8590 C   0  0  0  0  0
   45.6000   53.7280   26.7710 C   0  0  0  0  0
   43.5370   51.9290   26.6600 C   0  0  0  0  0
   45.1990   53.2090   25.5380 C   0  0  0  0  0
   44.1560   52.2980   25.4990 C   0  0  0  0  0
   46.0720   50.6430   29.6850 N   0  0  0  0  0
   47.0090   49.5360   29.4130 C   0  0  0  0  0
   47.6830   49.6000   28.0440 C   0  0  0  0  0
   48.9290   49.6570   27.9680 O   0  0  0  0  0
   46.4080   48.1200   29.6670 C   0  0  0  0  0
   45.0750   47.8270   28.9390 C   0  0  0  0  0
   44.4770   48.6860   28.3550 O   0  0  0  0  0
   44.6190   46.5650   29.0180 N   0  0  0  0  0
   46.8800   49.6070   26.9800 N   0  0  0  0  0
   47.3820   49.3940   25.6160 C   0  0  0  0  0
   47.7110   50.7060   24.9480 C   0  0  0  0  0
   47.0810   51.1300   23.9590 O   0  0  0  0  0
   46.3660   48.6660   24.7440 C   0  0  0  0  0
   45.1020   49.3810   24.7020 O   0  0  0  0  0
   46.1670   47.2530   25.2810 C   0  0  0  0  0
   48.7360   51.3340   25.4980 N   0  0  0  0  0
   49.2700   52.5650   24.9710 C   0  0  0  0  0
   50.1090   52.3740   23.7090 C   0  0  0  0  0
   51.0670   51.6050   23.6800 O   0  0  0  0  0
   50.0730   53.2930   26.0410 C   0  0  0  0  0
   50.5010   54.6290   25.5240 C   0  0  0  0  0
   51.2430   52.4880   26.5710 C   0  0  0  0  0
   49.3630   55.6160   25.7120 C   0  0  0  0  0
   49.7560   53.1230   22.6730 N   0  0  0  0  0
   50.2910   52.8850   21.3700 C   0  0  0  0  0
   51.4330   53.8040   20.9910 C   0  0  0  0  0
   51.4450   55.0230   21.2370 O   0  0  0  0  0
   49.1930   52.9240   20.2910 C   0  0  0  0  0
   52.3110   53.1690   20.2460 N   0  0  0  0  0
   53.5710   53.6350   19.7750 C   0  0  0  0  0
   53.2010   54.4320   18.5180 C   0  0  0  0  0
   52.1260   54.2170   17.9440 O   0  0  0  0  0
   54.4570   52.3420   19.6220 C   0  0  0  0  0
   54.5310   51.7820   18.2360 C   0  0  0  0  0
   55.8210   52.4850   20.2290 C   0  0  0  0  0
   54.0510   55.4090   18.1700 N   0  0  0  0  0
   53.9770   56.2570   16.9090 C   0  0  0  0  0
   54.4000   55.5650   15.5520 C   0  0  0  0  0
   54.9750   54.4510   15.5070 O   0  0  0  0  0
   54.8860   57.5170   17.0240 C   0  0  0  0  0
   54.4350   58.7970   17.7100 C   0  0  0  0  0
   53.5050   58.4990   18.8440 C   0  0  0  0  0
   55.5810   59.6200   18.2310 C   0  0  0  0  0
   54.2050   56.1890   14.4260 O   0  0  0  0  0
   43.4409   55.6568   37.4091 H   0  0  0  0  0
   42.5114   54.3018   37.1322 H   0  0  0  0  0
   43.3503   54.4585   38.5635 H   0  0  0  0  0
   45.3868   54.3808   37.4991 H   0  0  0  0  0
   44.7303   52.2320   38.1816 H   0  0  0  0  0
   45.2321   52.0108   36.4521 H   0  0  0  0  0
   43.2966   50.9485   36.9780 H   0  0  0  0  0
   46.6977   54.2092   35.9046 H   0  0  0  0  0
   46.4847   55.2255   33.4200 H   0  0  0  0  0
   48.3434   53.5849   32.8863 H   0  0  0  0  0
   47.9063   52.7577   34.5135 H   0  0  0  0  0
   48.6999   54.7672   35.6141 H   0  0  0  0  0
   50.0868   52.7788   35.3268 H   0  0  0  0  0
   50.6510   53.3982   33.7555 H   0  0  0  0  0
   51.0565   54.2706   35.2540 H   0  0  0  0  0
   49.6185   55.5039   32.8342 H   0  0  0  0  0
   48.3428   56.3194   33.7715 H   0  0  0  0  0
   50.0288   56.3553   34.3434 H   0  0  0  0  0
   46.1638   54.6644   31.4217 H   0  0  0  0  0
   44.4899   52.4755   30.4987 H   0  0  0  0  0
   46.4429   54.2888   29.0570 H   0  0  0  0  0
   44.6999   54.7078   29.4739 H   0  0  0  0  0
   43.3797   52.2601   28.7677 H   0  0  0  0  0
   46.4246   54.4400   26.8071 H   0  0  0  0  0
   42.7388   51.1869   26.6437 H   0  0  0  0  0
   45.6994   53.5162   24.6197 H   0  0  0  0  0
   43.8309   51.8778   24.5473 H   0  0  0  0  0
   45.0809   50.5149   29.4805 H   0  0  0  0  0
   47.7917   49.6929   30.1552 H   0  0  0  0  0
   46.2007   48.0561   30.7352 H   0  0  0  0  0
   47.1344   47.4004   29.2894 H   0  0  0  0  0
   43.7370   46.3126   28.5722 H   0  0  0  0  0
   45.1550   45.8598   29.5237 H   0  0  0  0  0
   45.8819   49.7658   27.1178 H   0  0  0  0  0
   48.2799   48.7839   25.7142 H   0  0  0  0  0
   46.7464   48.6169   23.7237 H   0  0  0  0  0
   44.4826   48.9013   24.1473 H   0  0  0  0  0
   47.1176   46.7202   25.2592 H   0  0  0  0  0
   45.8008   47.3036   26.3064 H   0  0  0  0  0
   45.4408   46.7286   24.6600 H   0  0  0  0  0
   49.1670   50.9308   26.3299 H   0  0  0  0  0
   48.4138   53.1725   24.6777 H   0  0  0  0  0
   49.4192   53.4352   26.9015 H   0  0  0  0  0
   50.7512   54.5520   24.4659 H   0  0  0  0  0
   51.3800   54.9714   26.0702 H   0  0  0  0  0
   50.8749   51.5616   27.0120 H   0  0  0  0  0
   51.9239   52.2566   25.7519 H   0  0  0  0  0
   51.7685   53.0690   27.3289 H   0  0  0  0  0
   48.4886   55.2697   25.1610 H   0  0  0  0  0
   49.1200   55.6908   26.7719 H   0  0  0  0  0
   49.6662   56.5937   25.3376 H   0  0  0  0  0
   49.0899   53.8834   22.8092 H   0  0  0  0  0
   50.7102   51.8800   21.4189 H   0  0  0  0  0
   48.4489   52.1564   20.5037 H   0  0  0  0  0
   48.7167   53.9044   20.2944 H   0  0  0  0  0
   49.6389   52.7387   19.3138 H   0  0  0  0  0
   52.0565   52.2206   19.9701 H   0  0  0  0  0
   54.1689   54.3017   20.3964 H   0  0  0  0  0
   53.9132   51.5980   20.2041 H   0  0  0  0  0
   53.5293   51.5148   17.8995 H   0  0  0  0  0
   54.9534   52.5302   17.5653 H   0  0  0  0  0
   55.1640   50.8946   18.2374 H   0  0  0  0  0
   56.3490   53.3059   19.7438 H   0  0  0  0  0
   55.7231   52.6936   21.2944 H   0  0  0  0  0
   56.3787   51.5591   20.0885 H   0  0  0  0  0
   54.8201   55.6019   18.8116 H   0  0  0  0  0
   52.9109   56.4778   16.8565 H   0  0  0  0  0
   55.0212   57.8234   15.9867 H   0  0  0  0  0
   55.7100   57.1747   17.6500 H   0  0  0  0  0
   53.9216   59.3768   16.9430 H   0  0  0  0  0
   52.6266   57.9771   18.4643 H   0  0  0  0  0
   54.0147   57.8710   19.5748 H   0  0  0  0  0
   53.1987   59.4326   19.3160 H   0  0  0  0  0
   56.1456   59.0356   18.9575 H   0  0  0  0  0
   56.2321   59.8994   17.4027 H   0  0  0  0  0
   55.1929   60.5194   18.7091 H   0  0  0  0  0
   53.7598   57.0223   14.5962 H   0  0  0  0  0
  1  2  1  0  0  0
  2  3  1  0  0  0
  2  5  1  0  0  0
  3  4  2  0  0  0
  3  7  1  0  0  0
  5  6  1  0  0  0
  7  8  1  0  0  0
  8  9  1  0  0  0
  8 11  1  0  0  0
  9 10  2  0  0  0
  9 15  1  0  0  0
 11 12  1  0  0  0
 12 13  1  0  0  0
 12 14  1  0  0  0
 15 16  1  0  0  0
 16 17  1  0  0  0
 16 19  1  0  0  0
 17 18  2  0  0  0
 17 26  1  0  0  0
 19 20  1  0  0  0
 20 21  4  0  0  0
 20 22  4  0  0  0
 21 23  4  0  0  0
 22 24  4  0  0  0
 23 25  4  0  0  0
 24 25  4  0  0  0
 26 27  1  0  0  0
 27 28  1  0  0  0
 27 30  1  0  0  0
 28 29  2  0  0  0
 28 34  1  0  0  0
 30 31  1  0  0  0
 31 32  2  0  0  0
 31 33  1  0  0  0
 34 35  1  0  0  0
 35 36  1  0  0  0
 35 38  1  0  0  0
 36 37  2  0  0  0
 36 41  1  0  0  0
 38 39  1  0  0  0
 38 40  1  0  0  0
 41 42  1  0  0  0
 42 43  1  0  0  0
 42 45  1  0  0  0
 43 44  2  0  0  0
 43 49  1  0  0  0
 45 46  1  0  0  0
 45 47  1  0  0  0
 46 48  1  0  0  0
 49 50  1  0  0  0
 50 51  1  0  0  0
 50 53  1  0  0  0
 51 52  2  0  0  0
 51 54  1  0  0  0
 54 55  1  0  0  0
 55 56  1  0  0  0
 55 58  1  0  0  0
 56 57  2  0  0  0
 56 61  1  0  0  0
 58 59  1  0  0  0
 58 60  1  0  0  0
 61 62  1  0  0  0
 62 63  1  0  0  0
 62 65  1  0  0  0
 63 64  2  0  0  0
 63 69  1  0  0  0
 65 66  1  0  0  0
 66 67  1  0  0  0
 66 68  1  0  0  0
  1 70  1  0  0  0
  1 71  1  0  0  0
  1 72  1  0  0  0
  2 73  1  0  0  0
  5 74  1  0  0  0
  5 75  1  0  0  0
  6 76  1  0  0  0
  7 77  1  0  0  0
  8 78  1  0  0  0
 11 79  1  0  0  0
 11 80  1  0  0  0
 12 81  1  0  0  0
 13 82  1  0  0  0
 13 83  1  0  0  0
 13 84  1  0  0  0
 14 85  1  0  0  0
 14 86  1  0  0  0
 14 87  1  0  0  0
 15 88  1  0  0  0
 16 89  1  0  0  0
 19 90  1  0  0  0
 19 91  1  0  0  0
 21 92  1  0  0  0
 22 93  1  0  0  0
 23 94  1  0  0  0
 24 95  1  0  0  0
 25 96  1  0  0  0
 26 97  1  0  0  0
 27 98  1  0  0  0
 30 99  1  0  0  0
 30100  1  0  0  0
 33101  1  0  0  0
 33102  1  0  0  0
 34103  1  0  0  0
 35104  1  0  0  0
 38105  1  0  0  0
 39106  1  0  0  0
 40107  1  0  0  0
 40108  1  0  0  0
 40109  1  0  0  0
 41110  1  0  0  0
 42111  1  0  0  0
 45112  1  0  0  0
 46113  1  0  0  0
 46114  1  0  0  0
 47115  1  0  0  0
 47116  1  0  0  0
 47117  1  0  0  0
 48118  1  0  0  0
 48119  1  0  0  0
 48120  1  0  0  0
 49121  1  0  0  0
 50122  1  0  0  0
 53123  1  0  0  0
 53124  1  0  0  0
 53125  1  0  0  0
 54126  1  0  0  0
 55127  1  0  0  0
 58128  1  0  0  0
 59129  1  0  0  0
 59130  1  0  0  0
 59131  1  0  0  0
 60132  1  0  0  0
 60133  1  0  0  0
 60134  1  0  0  0
 61135  1  0  0  0
 62136  1  0  0  0
 65137  1  0  0  0
 65138  1  0  0  0
 66139  1  0  0  0
 67140  1  0  0  0
 67141  1  0  0  0
 67142  1  0  0  0
 68143  1  0  0  0
 68144  1  0  0  0
 68145  1  0  0  0
 69146  1  0  0  0
M  END
$$$$
