### 
### Created by X-TOOL on Mon Aug  2 16:14:49 2021
### 

@<TRIPOS>MOLECULE
6miv_ligand
  184   185     1     0     0
SMALL
GAST_HUCK


@<TRIPOS>ATOM
      1 C1         95.9340   29.1090  171.3580 C.3       1 JU1         0.1880
      2 C2         96.5550   26.5780  173.9410 C.3       1 JU1         0.0730
      3 C3         96.4060   27.0570  172.4860 C.3       1 JU1         0.1136
      4 C4         97.6750   26.8480  171.6730 C.3       1 JU1         0.1190
      5 C5         97.5280   27.5230  170.3260 C.3       1 JU1         0.1146
      6 C6         97.1840   28.9810  170.5290 C.3       1 JU1         0.1341
      7 CBT        83.8220   32.9580  159.1270 C.3       1 JU1        -0.0653
      8 CBS        84.8690   31.8300  159.1470 C.3       1 JU1        -0.0559
      9 CBR        84.2520   30.5520  159.6660 C.3       1 JU1        -0.0533
     10 CBQ        85.2460   29.3820  159.5440 C.3       1 JU1        -0.0531
     11 CBP        85.3800   28.7490  160.9160 C.3       1 JU1        -0.0531
     12 CBO        86.0490   27.3870  160.8560 C.3       1 JU1        -0.0531
     13 CBN        86.1200   26.9500  162.3140 C.3       1 JU1        -0.0531
     14 CBM        87.0170   25.7360  162.4860 C.3       1 JU1        -0.0531
     15 CBL        86.9870   25.3580  163.9720 C.3       1 JU1        -0.0531
     16 CBK        88.0820   26.1120  164.7700 C.3       1 JU1        -0.0531
     17 CBJ        88.2840   25.4090  166.1240 C.3       1 JU1        -0.0531
     18 CBI        89.4960   26.0010  166.8800 C.3       1 JU1        -0.0530
     19 CBH        89.1780   27.4020  167.4070 C.3       1 JU1        -0.0506
     20 CBG        90.1960   27.8290  168.4880 C.3       1 JU1        -0.0243
     21 CAQ        91.6300   27.8990  167.9460 C.3       1 JU1         0.0833
     22 OAR        91.6850   28.6520  166.6900 O.3       1 JU1        -0.3892
     23 CAP        92.5640   28.5780  168.9690 C.3       1 JU1         0.1059
     24 OAS        92.1080   29.8950  169.2280 O.3       1 JU1        -0.3869
     25 CAN        92.5900   27.8900  170.3230 C.3       1 JU1         0.0936
     26 CAM        93.5900   28.6130  171.2510 C.3       1 JU1         0.0762
     27 O1         94.8620   28.5180  170.6310 O.3       1 JU1        -0.3463
     28 O5         96.9780   29.6040  169.2640 O.3       1 JU1        -0.3841
     29 O3         98.7680   27.4410  169.6420 O.3       1 JU1        -0.3864
     30 O2         96.1110   28.4510  172.6230 O.3       1 JU1        -0.3405
     31 O6         96.5610   25.1500  173.9490 O.3       1 JU1        -0.3924
     32 O4         98.8270   27.4440  172.2860 O.3       1 JU1        -0.3529
     33 CAT        99.6190   26.4700  173.0350 C.3       1 JU1         0.0971
     34 CAU       100.6020   25.7280  172.3180 C.ar      1 JU1         0.0144
     35 CAV       100.5590   24.3250  172.3690 C.ar      1 JU1        -0.0262
     36 CAW       101.5120   23.5500  171.7150 C.ar      1 JU1        -0.0449
     37 CAX       102.5610   24.1370  170.9910 C.ar      1 JU1        -0.0568
     38 CBA       103.5540   23.3310  170.3160 C.3       1 JU1        -0.0520
     39 CBD       103.3760   23.3810  168.7940 C.3       1 JU1        -0.0877
     40 CBB       103.4950   21.8500  170.7400 C.3       1 JU1        -0.0877
     41 CBC       104.9760   23.8390  170.6280 C.3       1 JU1        -0.0877
     42 CAY       102.6180   25.5440  170.9640 C.ar      1 JU1        -0.0449
     43 CAZ       101.6530   26.3350  171.6220 C.ar      1 JU1        -0.0262
     44 NAO        93.0040   26.4900  170.2200 N.am      1 JU1        -0.2791
     45 CBE        92.6200   25.6330  171.1720 C.2       1 JU1         0.1764
     46 OBF        91.8660   25.9320  172.1040 O.2       1 JU1        -0.3971
     47 CBU        93.1630   24.2230  171.0180 C.3       1 JU1         0.0372
     48 CBV        92.0610   23.1740  171.2050 C.3       1 JU1        -0.0361
     49 CBW        91.1300   23.0840  169.9970 C.3       1 JU1        -0.0510
     50 CBX        90.0240   22.0510  170.3190 C.3       1 JU1        -0.0529
     51 CBY        88.9640   21.9540  169.2170 C.3       1 JU1        -0.0531
     52 CBZ        87.9190   20.8970  169.6770 C.3       1 JU1        -0.0531
     53 CCA        86.5510   21.2550  169.1280 C.3       1 JU1        -0.0531
     54 CCB        85.4940   20.2040  169.5370 C.3       1 JU1        -0.0531
     55 CCC        84.7740   20.6400  170.8120 C.3       1 JU1        -0.0531
     56 CCD        83.2690   20.5650  170.6930 C.3       1 JU1        -0.0531
     57 CCE        82.6830   19.9840  171.9700 C.3       1 JU1        -0.0531
     58 CCF        82.9340   20.8320  173.2120 C.3       1 JU1        -0.0531
     59 CCG        82.2640   20.1170  174.4090 C.3       1 JU1        -0.0531
     60 CCH        83.2890   19.6890  175.4430 C.3       1 JU1        -0.0531
     61 CCI        82.7530   18.5230  176.3070 C.3       1 JU1        -0.0531
     62 CCJ        83.8240   17.4290  176.3010 C.3       1 JU1        -0.0531
     63 CCK        83.4180   16.1800  177.0860 C.3       1 JU1        -0.0531
     64 CCL        84.6400   15.2730  177.3000 C.3       1 JU1        -0.0531
     65 CCM        85.1550   14.6120  175.9980 C.3       1 JU1        -0.0531
     66 CCN        86.5860   15.0550  175.7470 C.3       1 JU1        -0.0531
     67 CCO        87.4330   14.0370  174.9720 C.3       1 JU1        -0.0531
     68 CCP        87.0020   13.8870  173.5050 C.3       1 JU1        -0.0531
     69 CCQ        87.0630   15.1950  172.7480 C.3       1 JU1        -0.0533
     70 CCR        87.0660   14.8960  171.2520 C.3       1 JU1        -0.0559
     71 CCS        86.8190   16.1840  170.4710 C.3       1 JU1        -0.0653
     72 H1         95.7155   30.1726  171.5339 H         1 JU1         0.0937
     73 H2         95.7117   26.9489  174.5421 H         1 JU1         0.0584
     74 H3         97.4989   26.9554  174.3612 H         1 JU1         0.0584
     75 H4         95.5756   26.5306  171.9926 H         1 JU1         0.0647
     76 H5         97.8421   25.7686  171.5428 H         1 JU1         0.0653
     77 H6         96.7387   27.0281  169.7411 H         1 JU1         0.0648
     78 H7         98.0156   29.4792  171.0489 H         1 JU1         0.0671
     79 H8         84.2847   33.8810  158.7475 H         1 JU1         0.0230
     80 H9         83.4471   33.1284  160.1470 H         1 JU1         0.0230
     81 H10        82.9861   32.6708  158.4722 H         1 JU1         0.0230
     82 H11        85.7042   32.1215  159.8008 H         1 JU1         0.0263
     83 H12        85.2432   31.6639  158.1261 H         1 JU1         0.0263
     84 H13        83.3496   30.3223  159.0804 H         1 JU1         0.0265
     85 H14        83.9789   30.6856  160.7231 H         1 JU1         0.0265
     86 H15        86.2241   29.7545  159.2057 H         1 JU1         0.0265
     87 H16        84.8669   28.6412  158.8246 H         1 JU1         0.0265
     88 H17        84.3768   28.6321  161.3518 H         1 JU1         0.0265
     89 H18        85.9823   29.4117  161.5547 H         1 JU1         0.0265
     90 H19        87.0564   27.4644  160.4210 H         1 JU1         0.0265
     91 H20        85.4475   26.6810  160.2646 H         1 JU1         0.0265
     92 H21        85.1072   26.6987  162.6620 H         1 JU1         0.0265
     93 H22        86.5199   27.7786  162.9169 H         1 JU1         0.0265
     94 H23        88.0449   25.9803  162.1798 H         1 JU1         0.0265
     95 H24        86.6417   24.9005  161.8768 H         1 JU1         0.0265
     96 H25        87.1550   24.2753  164.0693 H         1 JU1         0.0265
     97 H26        86.0011   25.6149  164.3868 H         1 JU1         0.0265
     98 H27        87.7667   27.1524  164.9374 H         1 JU1         0.0265
     99 H28        89.0251   26.1012  164.2039 H         1 JU1         0.0265
    100 H29        88.4571   24.3367  165.9504 H         1 JU1         0.0265
    101 H30        87.3794   25.5400  166.7359 H         1 JU1         0.0265
    102 H31        90.3544   26.0601  166.1947 H         1 JU1         0.0265
    103 H32        89.7474   25.3459  167.7271 H         1 JU1         0.0265
    104 H33        88.1682   27.4020  167.8433 H         1 JU1         0.0266
    105 H34        89.2170   28.1180  166.5728 H         1 JU1         0.0266
    106 H35        90.1646   27.0995  169.3107 H         1 JU1         0.0291
    107 H36        89.9129   28.8219  168.8673 H         1 JU1         0.0291
    108 H37        91.9844   26.8739  167.7626 H         1 JU1         0.0620
    109 H38        91.3729   29.5369  166.8387 H         1 JU1         0.2099
    110 H39        93.5816   28.6025  168.5520 H         1 JU1         0.0643
    111 H40        92.1085   30.3938  168.4195 H         1 JU1         0.2100
    112 H41        91.5821   27.9350  170.7614 H         1 JU1         0.0605
    113 H42        93.6117   28.1268  172.2375 H         1 JU1         0.0585
    114 H43        93.3034   29.6685  171.3686 H         1 JU1         0.0585
    115 H44        96.2640   29.1706  168.8114 H         1 JU1         0.2101
    116 H45        98.6938   27.8763  168.8008 H         1 JU1         0.2100
    117 H46        96.6525   24.8398  174.8423 H         1 JU1         0.2095
    118 H47        98.9184   25.7465  173.4773 H         1 JU1         0.0799
    119 H48       100.1383   27.0150  173.8370 H         1 JU1         0.0799
    120 H49        99.7689   23.8369  172.9281 H         1 JU1         0.0653
    121 H50       101.4425   22.4694  171.7659 H         1 JU1         0.0833
    122 H51       104.1458   22.7587  168.3142 H         1 JU1         0.0126
    123 H52       103.4759   24.4201  168.4471 H         1 JU1         0.0126
    124 H53       102.3788   23.0000  168.5287 H         1 JU1         0.0126
    125 H54       103.6197   21.7756  171.8304 H         1 JU1         0.0126
    126 H55       104.3010   21.2930  170.2400 H         1 JU1         0.0126
    127 H56       102.5222   21.4247  170.4523 H         1 JU1         0.0126
    128 H57       105.0591   24.8970  170.3385 H         1 JU1         0.0126
    129 H58       105.7097   23.2455  170.0628 H         1 JU1         0.0126
    130 H59       105.1737   23.7371  171.7053 H         1 JU1         0.0126
    131 H60       103.4226   26.0307  170.4247 H         1 JU1         0.0833
    132 H61       101.7259   27.4160  171.5883 H         1 JU1         0.0653
    133 H62        93.5639   26.1799  169.4516 H         1 JU1         0.1856
    134 H63        93.9463   24.0571  171.7723 H         1 JU1         0.0502
    135 H64        93.5938   24.1136  170.0118 H         1 JU1         0.0502
    136 H65        91.4656   23.4414  172.0904 H         1 JU1         0.0290
    137 H66        92.5312   22.1921  171.3622 H         1 JU1         0.0290
    138 H67        91.6973   22.7593  169.1123 H         1 JU1         0.0267
    139 H68        90.6766   24.0670  169.8015 H         1 JU1         0.0267
    140 H69        89.5302   22.3454  171.2568 H         1 JU1         0.0265
    141 H70        90.4914   21.0633  170.4451 H         1 JU1         0.0265
    142 H71        89.4300   21.6371  168.2724 H         1 JU1         0.0265
    143 H72        88.4763   22.9298  169.0760 H         1 JU1         0.0265
    144 H73        87.8780   20.8781  170.7761 H         1 JU1         0.0265
    145 H74        88.2141   19.9052  169.3040 H         1 JU1         0.0265
    146 H75        86.6054   21.3012  168.0303 H         1 JU1         0.0265
    147 H76        86.2517   22.2374  169.5220 H         1 JU1         0.0265
    148 H77        85.9919   19.2392  169.7140 H         1 JU1         0.0265
    149 H78        84.7594   20.0942  168.7256 H         1 JU1         0.0265
    150 H79        85.0568   21.6789  171.0370 H         1 JU1         0.0265
    151 H80        85.0938   19.9861  171.6367 H         1 JU1         0.0265
    152 H81        83.0010   19.9218  169.8419 H         1 JU1         0.0265
    153 H82        82.8641   21.5749  170.5312 H         1 JU1         0.0265
    154 H83        83.1278   18.9914  172.1338 H         1 JU1         0.0265
    155 H84        81.5961   19.8812  171.8358 H         1 JU1         0.0265
    156 H85        82.4951   21.8318  173.0787 H         1 JU1         0.0265
    157 H86        84.0155   20.9270  173.3892 H         1 JU1         0.0265
    158 H87        81.7326   19.2265  174.0421 H         1 JU1         0.0265
    159 H88        81.5460   20.8044  174.8802 H         1 JU1         0.0265
    160 H89        83.5196   20.5437  176.0959 H         1 JU1         0.0265
    161 H90        84.2048   19.3634  174.9280 H         1 JU1         0.0265
    162 H91        81.8162   18.1362  175.8795 H         1 JU1         0.0265
    163 H92        82.5718   18.8679  177.3357 H         1 JU1         0.0265
    164 H93        84.7431   17.8377  176.7463 H         1 JU1         0.0265
    165 H94        84.0197   17.1377  175.2585 H         1 JU1         0.0265
    166 H95        82.6500   15.6295  176.5228 H         1 JU1         0.0265
    167 H96        83.0116   16.4800  178.0631 H         1 JU1         0.0265
    168 H97        84.3636   14.4779  178.0081 H         1 JU1         0.0265
    169 H98        85.4525   15.8788  177.7276 H         1 JU1         0.0265
    170 H99        84.5210   14.9193  175.1533 H         1 JU1         0.0265
    171 H100       85.1214   13.5175  176.1025 H         1 JU1         0.0265
    172 H101       87.0672   15.2346  176.7197 H         1 JU1         0.0265
    173 H102       86.5611   15.9922  175.1716 H         1 JU1         0.0265
    174 H103       87.3422   13.0581  175.4654 H         1 JU1         0.0265
    175 H104       88.4830   14.3641  174.9967 H         1 JU1         0.0265
    176 H105       85.9686   13.5111  173.4774 H         1 JU1         0.0265
    177 H106       87.6688   13.1633  173.0134 H         1 JU1         0.0265
    178 H107       87.9813   15.7367  173.0188 H         1 JU1         0.0265
    179 H108       86.1866   15.8098  173.0006 H         1 JU1         0.0265
    180 H109       86.2716   14.1707  171.0222 H         1 JU1         0.0263
    181 H110       88.0409   14.4753  170.9649 H         1 JU1         0.0263
    182 H111       86.8217   15.9653  169.3930 H         1 JU1         0.0230
    183 H112       87.6133   16.9097  170.6999 H         1 JU1         0.0230
    184 H113       85.8440   16.6051  170.7572 H         1 JU1         0.0230
@<TRIPOS>BOND
     1    1    6 1  
     2   27    1 1  
     3    1   30 1  
     4    3    2 1  
     5    2   31 1  
     6    3    4 1  
     7   30    3 1  
     8    5    4 1  
     9    4   32 1  
    10    6    5 1  
    11    5   29 1  
    12    6   28 1  
    13    8    7 1  
    14    9    8 1  
    15   10    9 1  
    16   11   10 1  
    17   12   11 1  
    18   13   12 1  
    19   14   13 1  
    20   15   14 1  
    21   16   15 1  
    22   17   16 1  
    23   18   17 1  
    24   19   18 1  
    25   20   19 1  
    26   21   20 1  
    27   21   22 1  
    28   23   21 1  
    29   23   24 1  
    30   25   23 1  
    31   26   25 1  
    32   25   44 1  
    33   26   27 1  
    34   32   33 1  
    35   33   34 1  
    36   34   35 ar 
    37   34   43 ar 
    38   35   36 ar 
    39   36   37 ar 
    40   37   38 1  
    41   37   42 ar 
    42   38   39 1  
    43   38   40 1  
    44   38   41 1  
    45   42   43 ar 
    46   44   45 am 
    47   45   46 2  
    48   45   47 1  
    49   47   48 1  
    50   48   49 1  
    51   49   50 1  
    52   50   51 1  
    53   51   52 1  
    54   52   53 1  
    55   53   54 1  
    56   54   55 1  
    57   55   56 1  
    58   56   57 1  
    59   57   58 1  
    60   58   59 1  
    61   59   60 1  
    62   60   61 1  
    63   61   62 1  
    64   62   63 1  
    65   63   64 1  
    66   64   65 1  
    67   65   66 1  
    68   66   67 1  
    69   67   68 1  
    70   68   69 1  
    71   69   70 1  
    72   70   71 1  
    73    1   72 1  
    74    2   73 1  
    75    2   74 1  
    76    3   75 1  
    77    4   76 1  
    78    5   77 1  
    79    6   78 1  
    80    7   79 1  
    81    7   80 1  
    82    7   81 1  
    83    8   82 1  
    84    8   83 1  
    85    9   84 1  
    86    9   85 1  
    87   10   86 1  
    88   10   87 1  
    89   11   88 1  
    90   11   89 1  
    91   12   90 1  
    92   12   91 1  
    93   13   92 1  
    94   13   93 1  
    95   14   94 1  
    96   14   95 1  
    97   15   96 1  
    98   15   97 1  
    99   16   98 1  
   100   16   99 1  
   101   17  100 1  
   102   17  101 1  
   103   18  102 1  
   104   18  103 1  
   105   19  104 1  
   106   19  105 1  
   107   20  106 1  
   108   20  107 1  
   109   21  108 1  
   110   22  109 1  
   111   23  110 1  
   112   24  111 1  
   113   25  112 1  
   114   26  113 1  
   115   26  114 1  
   116   28  115 1  
   117   29  116 1  
   118   31  117 1  
   119   33  118 1  
   120   33  119 1  
   121   35  120 1  
   122   36  121 1  
   123   39  122 1  
   124   39  123 1  
   125   39  124 1  
   126   40  125 1  
   127   40  126 1  
   128   40  127 1  
   129   41  128 1  
   130   41  129 1  
   131   41  130 1  
   132   42  131 1  
   133   43  132 1  
   134   44  133 1  
   135   47  134 1  
   136   47  135 1  
   137   48  136 1  
   138   48  137 1  
   139   49  138 1  
   140   49  139 1  
   141   50  140 1  
   142   50  141 1  
   143   51  142 1  
   144   51  143 1  
   145   52  144 1  
   146   52  145 1  
   147   53  146 1  
   148   53  147 1  
   149   54  148 1  
   150   54  149 1  
   151   55  150 1  
   152   55  151 1  
   153   56  152 1  
   154   56  153 1  
   155   57  154 1  
   156   57  155 1  
   157   58  156 1  
   158   58  157 1  
   159   59  158 1  
   160   59  159 1  
   161   60  160 1  
   162   60  161 1  
   163   61  162 1  
   164   61  163 1  
   165   62  164 1  
   166   62  165 1  
   167   63  166 1  
   168   63  167 1  
   169   64  168 1  
   170   64  169 1  
   171   65  170 1  
   172   65  171 1  
   173   66  172 1  
   174   66  173 1  
   175   67  174 1  
   176   67  175 1  
   177   68  176 1  
   178   68  177 1  
   179   69  178 1  
   180   69  179 1  
   181   70  180 1  
   182   70  181 1  
   183   71  182 1  
   184   71  183 1  
   185   71  184 1  
@<TRIPOS>SUBSTRUCTURE
     1 JU1         1

