6miv_ligand
  -I-interpret- 

184185  0  0  0  0  0  0  0  0999 V2000
   95.9340   29.1090  171.3580 C   0  0  0  0  0
   96.5550   26.5780  173.9410 C   0  0  0  0  0
   96.4060   27.0570  172.4860 C   0  0  0  0  0
   97.6750   26.8480  171.6730 C   0  0  0  0  0
   97.5280   27.5230  170.3260 C   0  0  0  0  0
   97.1840   28.9810  170.5290 C   0  0  0  0  0
   83.8220   32.9580  159.1270 C   0  0  0  0  0
   84.8690   31.8300  159.1470 C   0  0  0  0  0
   84.2520   30.5520  159.6660 C   0  0  0  0  0
   85.2460   29.3820  159.5440 C   0  0  0  0  0
   85.3800   28.7490  160.9160 C   0  0  0  0  0
   86.0490   27.3870  160.8560 C   0  0  0  0  0
   86.1200   26.9500  162.3140 C   0  0  0  0  0
   87.0170   25.7360  162.4860 C   0  0  0  0  0
   86.9870   25.3580  163.9720 C   0  0  0  0  0
   88.0820   26.1120  164.7700 C   0  0  0  0  0
   88.2840   25.4090  166.1240 C   0  0  0  0  0
   89.4960   26.0010  166.8800 C   0  0  0  0  0
   89.1780   27.4020  167.4070 C   0  0  0  0  0
   90.1960   27.8290  168.4880 C   0  0  0  0  0
   91.6300   27.8990  167.9460 C   0  0  0  0  0
   91.6850   28.6520  166.6900 O   0  0  0  0  0
   92.5640   28.5780  168.9690 C   0  0  0  0  0
   92.1080   29.8950  169.2280 O   0  0  0  0  0
   92.5900   27.8900  170.3230 C   0  0  0  0  0
   93.5900   28.6130  171.2510 C   0  0  0  0  0
   94.8620   28.5180  170.6310 O   0  0  0  0  0
   96.9780   29.6040  169.2640 O   0  0  0  0  0
   98.7680   27.4410  169.6420 O   0  0  0  0  0
   96.1110   28.4510  172.6230 O   0  0  0  0  0
   96.5610   25.1500  173.9490 O   0  0  0  0  0
   98.8270   27.4440  172.2860 O   0  0  0  0  0
   99.6190   26.4700  173.0350 C   0  0  0  0  0
  100.6020   25.7280  172.3180 C   0  0  0  0  0
  100.5590   24.3250  172.3690 C   0  0  0  0  0
  101.5120   23.5500  171.7150 C   0  0  0  0  0
  102.5610   24.1370  170.9910 C   0  0  0  0  0
  103.5540   23.3310  170.3160 C   0  0  0  0  0
  103.3760   23.3810  168.7940 C   0  0  0  0  0
  103.4950   21.8500  170.7400 C   0  0  0  0  0
  104.9760   23.8390  170.6280 C   0  0  0  0  0
  102.6180   25.5440  170.9640 C   0  0  0  0  0
  101.6530   26.3350  171.6220 C   0  0  0  0  0
   93.0040   26.4900  170.2200 N   0  0  0  0  0
   92.6200   25.6330  171.1720 C   0  0  0  0  0
   91.8660   25.9320  172.1040 O   0  0  0  0  0
   93.1630   24.2230  171.0180 C   0  0  0  0  0
   92.0610   23.1740  171.2050 C   0  0  0  0  0
   91.1300   23.0840  169.9970 C   0  0  0  0  0
   90.0240   22.0510  170.3190 C   0  0  0  0  0
   88.9640   21.9540  169.2170 C   0  0  0  0  0
   87.9190   20.8970  169.6770 C   0  0  0  0  0
   86.5510   21.2550  169.1280 C   0  0  0  0  0
   85.4940   20.2040  169.5370 C   0  0  0  0  0
   84.7740   20.6400  170.8120 C   0  0  0  0  0
   83.2690   20.5650  170.6930 C   0  0  0  0  0
   82.6830   19.9840  171.9700 C   0  0  0  0  0
   82.9340   20.8320  173.2120 C   0  0  0  0  0
   82.2640   20.1170  174.4090 C   0  0  0  0  0
   83.2890   19.6890  175.4430 C   0  0  0  0  0
   82.7530   18.5230  176.3070 C   0  0  0  0  0
   83.8240   17.4290  176.3010 C   0  0  0  0  0
   83.4180   16.1800  177.0860 C   0  0  0  0  0
   84.6400   15.2730  177.3000 C   0  0  0  0  0
   85.1550   14.6120  175.9980 C   0  0  0  0  0
   86.5860   15.0550  175.7470 C   0  0  0  0  0
   87.4330   14.0370  174.9720 C   0  0  0  0  0
   87.0020   13.8870  173.5050 C   0  0  0  0  0
   87.0630   15.1950  172.7480 C   0  0  0  0  0
   87.0660   14.8960  171.2520 C   0  0  0  0  0
   86.8190   16.1840  170.4710 C   0  0  0  0  0
   95.7143   30.1581  171.5561 H   0  0  0  0  0
   95.7255   26.9502  174.5422 H   0  0  0  0  0
   97.4855   26.9566  174.3641 H   0  0  0  0  0
   95.6380   26.5004  171.9490 H   0  0  0  0  0
   97.8134   25.7696  171.5954 H   0  0  0  0  0
   96.7403   27.0350  169.7520 H   0  0  0  0  0
   98.0085   29.4689  171.0489 H   0  0  0  0  0
   82.9943   32.6722  158.4779 H   0  0  0  0  0
   83.4513   33.1258  160.1382 H   0  0  0  0  0
   84.2816   33.8720  158.7508 H   0  0  0  0  0
   85.6918   32.1193  159.8008 H   0  0  0  0  0
   85.2327   31.6637  158.1330 H   0  0  0  0  0
   83.3638   30.3239  159.0768 H   0  0  0  0  0
   83.9916   30.6864  160.7159 H   0  0  0  0  0
   86.2142   29.7405  159.1945 H   0  0  0  0  0
   84.8850   28.6502  158.8213 H   0  0  0  0  0
   84.3796   28.6177  161.3283 H   0  0  0  0  0
   85.9966   29.4030  161.5326 H   0  0  0  0  0
   87.0324   27.4288  160.3877 H   0  0  0  0  0
   85.4950   26.6802  160.2382 H   0  0  0  0  0
   85.1154   26.6879  162.6460 H   0  0  0  0  0
   86.5318   27.7706  162.9016 H   0  0  0  0  0
   88.0346   25.9621  162.1676 H   0  0  0  0  0
   86.6643   24.9076  161.8717 H   0  0  0  0  0
   87.1699   24.2871  164.0604 H   0  0  0  0  0
   86.0131   25.6302  164.3787 H   0  0  0  0  0
   87.7742   27.1448  164.9330 H   0  0  0  0  0
   89.0165   26.1071  164.2089 H   0  0  0  0  0
   88.4673   24.3497  165.9442 H   0  0  0  0  0
   87.3894   25.5531  166.7299 H   0  0  0  0  0
   90.3397   26.0675  166.1931 H   0  0  0  0  0
   89.7332   25.3538  167.7244 H   0  0  0  0  0
   88.1814   27.3925  167.8484 H   0  0  0  0  0
   89.2299   28.1082  166.5783 H   0  0  0  0  0
   90.1727   27.0862  169.2854 H   0  0  0  0  0
   89.9189   28.8233  168.8382 H   0  0  0  0  0
   91.9585   26.8753  167.7665 H   0  0  0  0  0
   92.5912   28.6799  166.3744 H   0  0  0  0  0
   93.5567   28.5387  168.5207 H   0  0  0  0  0
   92.6910   30.3149  169.8647 H   0  0  0  0  0
   91.5768   27.9292  170.7231 H   0  0  0  0  0
   93.6043   28.1543  172.2397 H   0  0  0  0  0
   93.3041   29.6551  171.3939 H   0  0  0  0  0
   96.7598   30.5295  169.3961 H   0  0  0  0  0
   98.9974   26.5186  169.5071 H   0  0  0  0  0
   96.6535   24.8366  174.8517 H   0  0  0  0  0
   98.9053   25.7323  173.4018 H   0  0  0  0  0
  100.1714   27.0489  173.7751 H   0  0  0  0  0
   99.7645   23.8342  172.9312 H   0  0  0  0  0
  101.4421   22.4634  171.7662 H   0  0  0  0  0
  102.3875   23.0033  168.5325 H   0  0  0  0  0
  103.4751   24.4110  168.4515 H   0  0  0  0  0
  104.1393   22.7640  168.3198 H   0  0  0  0  0
  103.6707   21.7733  171.8130 H   0  0  0  0  0
  102.5119   21.4440  170.5016 H   0  0  0  0  0
  104.2608   21.2892  170.2042 H   0  0  0  0  0
  105.0734   24.8715  170.2924 H   0  0  0  0  0
  105.1515   23.7868  171.7025 H   0  0  0  0  0
  105.7048   23.2166  170.1089 H   0  0  0  0  0
  103.4271   26.0334  170.4217 H   0  0  0  0  0
  101.7263   27.4220  171.5881 H   0  0  0  0  0
   93.5751   26.1737  169.4363 H   0  0  0  0  0
   93.9264   24.0616  171.7791 H   0  0  0  0  0
   93.5729   24.1183  170.0134 H   0  0  0  0  0
   91.4638   23.4633  172.0697 H   0  0  0  0  0
   92.5388   22.2030  171.3351 H   0  0  0  0  0
   91.6888   22.7735  169.1141 H   0  0  0  0  0
   90.6861   24.0580  169.7912 H   0  0  0  0  0
   89.5257   22.3696  171.2346 H   0  0  0  0  0
   90.4972   21.0737  170.4142 H   0  0  0  0  0
   89.4187   21.6585  168.2715 H   0  0  0  0  0
   88.4873   22.9209  169.0563 H   0  0  0  0  0
   87.8776   20.8811  170.7661 H   0  0  0  0  0
   88.2113   19.9152  169.3047 H   0  0  0  0  0
   86.6092   21.2857  168.0400 H   0  0  0  0  0
   86.2552   22.2227  169.5331 H   0  0  0  0  0
   85.9924   19.2518  169.7189 H   0  0  0  0  0
   84.7639   20.1039  168.7338 H   0  0  0  0  0
   85.0411   21.6787  171.0064 H   0  0  0  0  0
   85.0785   19.9664  171.6131 H   0  0  0  0  0
   83.0043   19.9262  169.8504 H   0  0  0  0  0
   82.8685   21.5663  170.5343 H   0  0  0  0  0
   83.1631   19.0195  172.1355 H   0  0  0  0  0
   81.6033   19.9257  171.8320 H   0  0  0  0  0
   82.5154   21.8300  173.0822 H   0  0  0  0  0
   84.0041   20.9440  173.3863 H   0  0  0  0  0
   81.7534   19.2278  174.0393 H   0  0  0  0  0
   81.5663   20.8098  174.8795 H   0  0  0  0  0
   83.5032   20.5365  176.0941 H   0  0  0  0  0
   84.1887   19.3556  174.9258 H   0  0  0  0  0
   81.8141   18.1445  175.9028 H   0  0  0  0  0
   82.5517   18.8588  177.3243 H   0  0  0  0  0
   84.7165   17.8393  176.7734 H   0  0  0  0  0
   83.9832   17.1296  175.2651 H   0  0  0  0  0
   82.6603   15.6340  176.5240 H   0  0  0  0  0
   83.0198   16.4796  178.0554 H   0  0  0  0  0
   84.3394   14.4730  177.9766 H   0  0  0  0  0
   85.4448   15.8950  177.6918 H   0  0  0  0  0
   84.5259   14.9135  175.1605 H   0  0  0  0  0
   85.1197   13.5273  176.0991 H   0  0  0  0  0
   87.0565   15.1896  176.7210 H   0  0  0  0  0
   86.5408   15.9615  175.1434 H   0  0  0  0  0
   87.3092   13.0674  175.4544 H   0  0  0  0  0
   88.4643   14.3898  174.9798 H   0  0  0  0  0
   85.9695   13.5379  173.4914 H   0  0  0  0  0
   87.6848   13.1870  173.0233 H   0  0  0  0  0
   87.9691   15.7370  173.0186 H   0  0  0  0  0
   86.1987   15.8092  173.0007 H   0  0  0  0  0
   86.2777   14.1783  171.0249 H   0  0  0  0  0
   88.0328   14.4804  170.9680 H   0  0  0  0  0
   85.8526   16.6003  170.7555 H   0  0  0  0  0
   87.6067   16.9022  170.6987 H   0  0  0  0  0
   86.8219   15.9660  169.4030 H   0  0  0  0  0
  1  6  1  0  0  0
 27  1  1  0  0  0
  1 30  1  0  0  0
  3  2  1  0  0  0
  2 31  1  0  0  0
  3  4  1  0  0  0
 30  3  1  0  0  0
  5  4  1  0  0  0
  4 32  1  0  0  0
  6  5  1  0  0  0
  5 29  1  0  0  0
  6 28  1  0  0  0
  8  7  1  0  0  0
  9  8  1  0  0  0
 10  9  1  0  0  0
 11 10  1  0  0  0
 12 11  1  0  0  0
 13 12  1  0  0  0
 14 13  1  0  0  0
 15 14  1  0  0  0
 16 15  1  0  0  0
 17 16  1  0  0  0
 18 17  1  0  0  0
 19 18  1  0  0  0
 20 19  1  0  0  0
 21 20  1  0  0  0
 21 22  1  0  0  0
 23 21  1  0  0  0
 23 24  1  0  0  0
 25 23  1  0  0  0
 26 25  1  0  0  0
 25 44  1  0  0  0
 26 27  1  0  0  0
 32 33  1  0  0  0
 33 34  1  0  0  0
 34 35  4  0  0  0
 34 43  4  0  0  0
 35 36  4  0  0  0
 36 37  4  0  0  0
 37 38  1  0  0  0
 37 42  4  0  0  0
 38 39  1  0  0  0
 38 40  1  0  0  0
 38 41  1  0  0  0
 42 43  4  0  0  0
 44 45  1  0  0  0
 45 46  2  0  0  0
 45 47  1  0  0  0
 47 48  1  0  0  0
 48 49  1  0  0  0
 49 50  1  0  0  0
 50 51  1  0  0  0
 51 52  1  0  0  0
 52 53  1  0  0  0
 53 54  1  0  0  0
 54 55  1  0  0  0
 55 56  1  0  0  0
 56 57  1  0  0  0
 57 58  1  0  0  0
 58 59  1  0  0  0
 59 60  1  0  0  0
 60 61  1  0  0  0
 61 62  1  0  0  0
 62 63  1  0  0  0
 63 64  1  0  0  0
 64 65  1  0  0  0
 65 66  1  0  0  0
 66 67  1  0  0  0
 67 68  1  0  0  0
 68 69  1  0  0  0
 69 70  1  0  0  0
 70 71  1  0  0  0
  1 72  1  0  0  0
  2 73  1  0  0  0
  2 74  1  0  0  0
  3 75  1  0  0  0
  4 76  1  0  0  0
  5 77  1  0  0  0
  6 78  1  0  0  0
  7 79  1  0  0  0
  7 80  1  0  0  0
  7 81  1  0  0  0
  8 82  1  0  0  0
  8 83  1  0  0  0
  9 84  1  0  0  0
  9 85  1  0  0  0
 10 86  1  0  0  0
 10 87  1  0  0  0
 11 88  1  0  0  0
 11 89  1  0  0  0
 12 90  1  0  0  0
 12 91  1  0  0  0
 13 92  1  0  0  0
 13 93  1  0  0  0
 14 94  1  0  0  0
 14 95  1  0  0  0
 15 96  1  0  0  0
 15 97  1  0  0  0
 16 98  1  0  0  0
 16 99  1  0  0  0
 17100  1  0  0  0
 17101  1  0  0  0
 18102  1  0  0  0
 18103  1  0  0  0
 19104  1  0  0  0
 19105  1  0  0  0
 20106  1  0  0  0
 20107  1  0  0  0
 21108  1  0  0  0
 22109  1  0  0  0
 23110  1  0  0  0
 24111  1  0  0  0
 25112  1  0  0  0
 26113  1  0  0  0
 26114  1  0  0  0
 28115  1  0  0  0
 29116  1  0  0  0
 31117  1  0  0  0
 33118  1  0  0  0
 33119  1  0  0  0
 35120  1  0  0  0
 36121  1  0  0  0
 39122  1  0  0  0
 39123  1  0  0  0
 39124  1  0  0  0
 40125  1  0  0  0
 40126  1  0  0  0
 40127  1  0  0  0
 41128  1  0  0  0
 41129  1  0  0  0
 41130  1  0  0  0
 42131  1  0  0  0
 43132  1  0  0  0
 44133  1  0  0  0
 47134  1  0  0  0
 47135  1  0  0  0
 48136  1  0  0  0
 48137  1  0  0  0
 49138  1  0  0  0
 49139  1  0  0  0
 50140  1  0  0  0
 50141  1  0  0  0
 51142  1  0  0  0
 51143  1  0  0  0
 52144  1  0  0  0
 52145  1  0  0  0
 53146  1  0  0  0
 53147  1  0  0  0
 54148  1  0  0  0
 54149  1  0  0  0
 55150  1  0  0  0
 55151  1  0  0  0
 56152  1  0  0  0
 56153  1  0  0  0
 57154  1  0  0  0
 57155  1  0  0  0
 58156  1  0  0  0
 58157  1  0  0  0
 59158  1  0  0  0
 59159  1  0  0  0
 60160  1  0  0  0
 60161  1  0  0  0
 61162  1  0  0  0
 61163  1  0  0  0
 62164  1  0  0  0
 62165  1  0  0  0
 63166  1  0  0  0
 63167  1  0  0  0
 64168  1  0  0  0
 64169  1  0  0  0
 65170  1  0  0  0
 65171  1  0  0  0
 66172  1  0  0  0
 66173  1  0  0  0
 67174  1  0  0  0
 67175  1  0  0  0
 68176  1  0  0  0
 68177  1  0  0  0
 69178  1  0  0  0
 69179  1  0  0  0
 70180  1  0  0  0
 70181  1  0  0  0
 71182  1  0  0  0
 71183  1  0  0  0
 71184  1  0  0  0
M  END
$$$$
