2o1v_ligand
  -I-interpret- 

 42 44  0  0  0  0  0  0  0  0999 V2000
   18.4290   21.1490   48.5960 P   0  0  0  0  0
   17.4630   21.7750   49.5140 O   0  0  0  0  0
   18.1080   21.4990   47.0530 O   0  0  0  0  0
   19.9400   21.6790   48.7780 O   0  0  0  0  0
   19.4480   18.6710   49.5590 P   0  0  0  0  0
   19.1840   17.2610   49.1670 O   0  0  0  0  0
   20.8320   19.2030   49.4990 O   0  0  0  0  0
   18.4150   19.5560   48.6720 O   0  0  0  0  0
   18.7750   18.8750   51.0200 O   0  0  0  0  0
   17.3750   18.5330   51.1060 C   0  0  0  0  0
   16.6520   19.1610   52.3100 C   0  0  0  0  0
   17.0750   18.5060   53.5510 O   0  0  0  0  0
   16.9370   20.6430   52.5460 C   0  0  0  0  0
   16.1390   21.4330   51.6460 O   0  0  0  0  0
   16.4450   20.7710   53.9880 C   0  0  0  0  0
   15.0020   20.7580   54.0500 O   0  0  0  0  0
   16.9800   19.4770   54.6250 C   0  0  0  0  0
   18.3390   19.6820   55.1600 N   0  0  0  0  0
   19.4650   19.1440   54.6860 C   0  0  0  0  0
   20.4970   19.5630   55.4190 N   0  0  0  0  0
   20.0250   20.3780   56.3640 C   0  0  0  0  0
   20.6030   21.1040   57.4060 C   0  0  0  0  0
   21.9160   21.0870   57.6340 N   0  0  0  0  0
   19.8050   21.8340   58.1920 N   0  0  0  0  0
   18.4950   21.8860   58.0010 C   0  0  0  0  0
   17.9140   21.2070   57.0300 N   0  0  0  0  0
   18.6510   20.4480   56.2000 C   0  0  0  0  0
   18.7574   21.0742   46.4879 H   0  0  0  0  0
   20.5128   21.2309   48.1513 H   0  0  0  0  0
   18.2471   17.0740   49.2610 H   0  0  0  0  0
   17.3123   17.4507   51.2190 H   0  0  0  0  0
   16.8930   18.9122   50.2049 H   0  0  0  0  0
   15.5974   19.0326   52.0661 H   0  0  0  0  0
   17.9649   20.9694   52.3882 H   0  0  0  0  0
   16.3184   22.3643   51.7946 H   0  0  0  0  0
   16.7705   21.6937   54.4683 H   0  0  0  0  0
   14.7214   20.8396   54.9644 H   0  0  0  0  0
   16.3251   19.1584   55.4360 H   0  0  0  0  0
   19.5305   18.4681   53.8334 H   0  0  0  0  0
   22.5300   20.5318   57.0380 H   0  0  0  0  0
   22.3069   21.6292   58.4045 H   0  0  0  0  0
   17.8840   22.5029   58.6600 H   0  0  0  0  0
  1  2  2  0  0  0
  1  3  1  0  0  0
  1  4  1  0  0  0
  8  1  1  0  0  0
  5  6  1  0  0  0
  5  7  2  0  0  0
  5  8  1  0  0  0
  5  9  1  0  0  0
  9 10  1  0  0  0
 10 11  1  0  0  0
 11 12  1  0  0  0
 11 13  1  0  0  0
 12 17  1  0  0  0
 13 14  1  0  0  0
 13 15  1  0  0  0
 15 16  1  0  0  0
 15 17  1  0  0  0
 17 18  1  0  0  0
 18 19  4  0  0  0
 18 27  4  0  0  0
 19 20  4  0  0  0
 20 21  4  0  0  0
 21 22  4  0  0  0
 21 27  4  0  0  0
 22 23  1  0  0  0
 22 24  4  0  0  0
 24 25  4  0  0  0
 25 26  4  0  0  0
 26 27  4  0  0  0
  3 28  1  0  0  0
  4 29  1  0  0  0
  6 30  1  0  0  0
 10 31  1  0  0  0
 10 32  1  0  0  0
 11 33  1  0  0  0
 13 34  1  0  0  0
 14 35  1  0  0  0
 15 36  1  0  0  0
 16 37  1  0  0  0
 17 38  1  0  0  0
 19 39  1  0  0  0
 23 40  1  0  0  0
 23 41  1  0  0  0
 25 42  1  0  0  0
M  END
$$$$
