### 
### Created by X-TOOL on Mon Sep 10 21:12:56 2018
### 

@<TRIPOS>MOLECULE
2o1v_ligand
   39    41     1     0     0
SMALL
GAST_HUCK


@<TRIPOS>ATOM
      1 PB         18.4290   21.1490   48.5960 P.3       1 ADP         0.2069
      2 O1B        17.4630   21.7750   49.5140 O.co2     1 ADP        -0.5891
      3 O2B        18.1080   21.4990   47.0530 O.co2     1 ADP        -0.5891
      4 O3B        19.9400   21.6790   48.7780 O.co2     1 ADP        -0.5891
      5 PA         19.4480   18.6710   49.5590 P.3       1 ADP         0.3276
      6 O1A        19.1840   17.2610   49.1670 O.co2     1 ADP        -0.5556
      7 O2A        20.8320   19.2030   49.4990 O.co2     1 ADP        -0.5556
      8 O3A        18.4150   19.5560   48.6720 O.3       1 ADP        -0.1548
      9 O5'        18.7750   18.8750   51.0200 O.3       1 ADP        -0.2436
     10 C5'        17.3750   18.5330   51.1060 C.3       1 ADP         0.1132
     11 C4'        16.6520   19.1610   52.3100 C.3       1 ADP         0.1189
     12 O4'        17.0750   18.5060   53.5510 O.3       1 ADP        -0.3364
     13 C3'        16.9370   20.6430   52.5460 C.3       1 ADP         0.1149
     14 O3'        16.1390   21.4330   51.6460 O.3       1 ADP        -0.3864
     15 C2'        16.4450   20.7710   53.9880 C.3       1 ADP         0.1385
     16 O2'        15.0020   20.7580   54.0500 O.3       1 ADP        -0.3836
     17 C1'        16.9800   19.4770   54.6250 C.3       1 ADP         0.2010
     18 N9         18.3390   19.6820   55.1600 N.pl3     1 ADP        -0.1919
     19 C8         19.4650   19.1440   54.6860 C.2       1 ADP         0.1123
     20 N7         20.4970   19.5630   55.4190 N.2       1 ADP        -0.2958
     21 C5         20.0250   20.3780   56.3640 C.ar      1 ADP         0.1045
     22 C6         20.6030   21.1040   57.4060 C.ar      1 ADP         0.1298
     23 N6         21.9160   21.0870   57.6340 N.pl3     1 ADP        -0.3152
     24 N1         19.8050   21.8340   58.1920 N.ar      1 ADP        -0.2698
     25 C2         18.4950   21.8860   58.0010 C.ar      1 ADP         0.0533
     26 N3         17.9140   21.2070   57.0300 N.ar      1 ADP        -0.2714
     27 C4         18.6510   20.4480   56.2000 C.ar      1 ADP         0.1613
     28 H1         17.2899   17.4390   51.1832 H         1 ADP         0.0648
     29 H2         16.8778   18.8755   50.1865 H         1 ADP         0.0648
     30 H3         15.5706   19.0248   52.1620 H         1 ADP         0.0651
     31 H4         18.0023   20.8963   52.4411 H         1 ADP         0.0648
     32 H5         16.3568   21.2065   50.7495 H         1 ADP         0.2100
     33 H6         16.8429   21.6725   54.4769 H         1 ADP         0.0676
     34 H7         14.6579   21.4860   53.5458 H         1 ADP         0.2101
     35 H8         16.3043   19.1283   55.4199 H         1 ADP         0.0996
     36 H9         19.5305   18.4687   53.8342 H         1 ADP         0.1349
     37 H10        22.3107   21.6345   58.4120 H         1 ADP         0.1820
     38 H11        22.5360   20.5263   57.0322 H         1 ADP         0.1820
     39 H12        17.8874   22.4995   58.6564 H         1 ADP         0.0996
@<TRIPOS>BOND
     1    1    2 ar 
     2    1    3 ar 
     3    1    4 ar 
     4    8    1 1  
     5    5    6 ar 
     6    5    7 ar 
     7    5    8 1  
     8    5    9 1  
     9    9   10 1  
    10   10   11 1  
    11   11   12 1  
    12   11   13 1  
    13   12   17 1  
    14   13   14 1  
    15   13   15 1  
    16   15   16 1  
    17   15   17 1  
    18   17   18 1  
    19   18   19 1  
    20   18   27 1  
    21   19   20 2  
    22   20   21 1  
    23   21   22 ar 
    24   21   27 ar 
    25   22   23 1  
    26   22   24 ar 
    27   24   25 ar 
    28   25   26 ar 
    29   26   27 ar 
    30   10   28 1  
    31   10   29 1  
    32   11   30 1  
    33   13   31 1  
    34   14   32 1  
    35   15   33 1  
    36   16   34 1  
    37   17   35 1  
    38   19   36 1  
    39   23   37 1  
    40   23   38 1  
    41   25   39 1  
@<TRIPOS>SUBSTRUCTURE
     1 ADP         1

