### 
### Created by X-TOOL on Mon Sep 10 21:13:15 2018
### 

@<TRIPOS>MOLECULE
4fyh_ligand
   43    46     1     0     0
SMALL
GAST_HUCK


@<TRIPOS>ATOM
      1 O2         15.7200   38.8590    5.5750 O.co2     1 TR5        -0.5537
      2 PB         17.1070   39.3840    6.1620 P.3       1 TR5         0.2008
      3 O3         16.9360   39.7620    7.5780 O.co2     1 TR5        -0.5537
      4 O1         18.1560   38.4070    5.7950 O.co2     1 TR5        -0.5537
      5 O5'        17.3650   40.7230    5.3000 O.3       1 TR5        -0.2734
      6 C5'        17.1060   40.7440    3.8940 C.3       1 TR5         0.1072
      7 C4'        17.4030   42.1410    3.3590 C.3       1 TR5         0.1184
      8 O4'        18.6580   42.5440    3.9070 O.3       1 TR5        -0.3346
      9 C3'        17.5460   42.0880    1.8440 C.3       1 TR5         0.1151
     10 O3'        16.6640   43.0520    1.2350 O.3       1 TR5        -0.3864
     11 C2'        19.0300   42.3670    1.5400 C.3       1 TR5         0.1408
     12 O2'        19.1900   43.5690    0.7630 O.3       1 TR5        -0.3834
     13 C1'        19.7330   42.4580    2.9290 C.3       1 TR5         0.2120
     14 N9         20.5310   41.2090    3.1990 N.pl3     1 TR5        -0.1651
     15 C8         20.3040   40.2940    4.1570 C.2       1 TR5         0.1086
     16 C7         21.2110   39.3190    4.0410 C.2       1 TR5         0.1038
     17 C5         21.9750   39.6520    3.0140 C.2       1 TR5         0.1247
     18 C4         21.5850   40.8060    2.4810 C.2       1 TR5         0.2047
     19 N3         22.2360   41.3230    1.4180 N.2       1 TR5        -0.1896
     20 C2         23.3990   40.6120    0.8210 C.2       1 TR5         0.1696
     21 N1         23.7130   39.3300    1.5320 N.pl3     1 TR5        -0.1916
     22 C6         22.9940   38.9060    2.5910 C.2       1 TR5         0.1916
     23 N61        23.2630   37.7530    3.2520 N.2       1 TR5        -0.2796
     24 C62        24.3890   36.8780    2.8340 C.3       1 TR5         0.0079
     25 N71        22.5210   37.3980    4.2750 N.2       1 TR5        -0.2120
     26 C72        21.4860   38.1690    4.6830 C.2       1 TR5         0.1553
     27 N73        20.7130   37.8420    5.7240 N.pl3     1 TR5        -0.3037
     28 H1         16.0509   40.4941    3.7089 H         1 TR5         0.0639
     29 H2         17.7508   40.0100    3.3885 H         1 TR5         0.0639
     30 H3         16.6057   42.8428    3.6452 H         1 TR5         0.0650
     31 H4         17.2803   41.0858    1.4767 H         1 TR5         0.0648
     32 H5         16.8883   43.9227    1.5415 H         1 TR5         0.2100
     33 H6         19.4547   41.5279    0.9694 H         1 TR5         0.0678
     34 H7         18.8368   44.3067    1.2465 H         1 TR5         0.2101
     35 H8         20.3854   43.3422    2.9783 H         1 TR5         0.1025
     36 H9         19.5126   40.3394    4.9037 H         1 TR5         0.1431
     37 H10        23.9594   40.9816   -0.0365 H         1 TR5         0.1738
     38 H11        24.5017   38.7558    1.2016 H         1 TR5         0.2623
     39 H12        24.4359   36.0000    3.4949 H         1 TR5         0.0391
     40 H13        25.3332   37.4383    2.9011 H         1 TR5         0.0391
     41 H14        24.2314   36.5480    1.7966 H         1 TR5         0.0391
     42 H15        20.8898   36.9700    6.2429 H         1 TR5         0.1878
     43 H16        19.9408   38.4622    6.0070 H         1 TR5         0.1878
@<TRIPOS>BOND
     1    1    2 ar 
     2    2    3 ar 
     3    2    4 ar 
     4    2    5 1  
     5    5    6 1  
     6    6    7 1  
     7    7    8 1  
     8    7    9 1  
     9    8   13 1  
    10    9   10 1  
    11    9   11 1  
    12   11   12 1  
    13   11   13 1  
    14   13   14 1  
    15   14   15 1  
    16   14   18 1  
    17   15   16 2  
    18   16   17 1  
    19   16   26 1  
    20   17   18 2  
    21   17   22 1  
    22   18   19 1  
    23   19   20 2  
    24   20   21 1  
    25   21   22 1  
    26   22   23 2  
    27   23   24 1  
    28   23   25 1  
    29   25   26 2  
    30   26   27 1  
    31    6   28 1  
    32    6   29 1  
    33    7   30 1  
    34    9   31 1  
    35   10   32 1  
    36   11   33 1  
    37   12   34 1  
    38   13   35 1  
    39   15   36 1  
    40   20   37 1  
    41   21   38 1  
    42   24   39 1  
    43   24   40 1  
    44   24   41 1  
    45   27   42 1  
    46   27   43 1  
@<TRIPOS>SUBSTRUCTURE
     1 TR5         1

