4fyh_ligand
  -I-interpret- 

 45 48  0  0  0  0  0  0  0  0999 V2000
   15.7200   38.8590    5.5750 O   0  0  0  0  0
   17.1070   39.3840    6.1620 P   0  0  0  0  0
   16.9360   39.7620    7.5780 O   0  0  0  0  0
   18.1560   38.4070    5.7950 O   0  0  0  0  0
   17.3650   40.7230    5.3000 O   0  0  0  0  0
   17.1060   40.7440    3.8940 C   0  0  0  0  0
   17.4030   42.1410    3.3590 C   0  0  0  0  0
   18.6580   42.5440    3.9070 O   0  0  0  0  0
   17.5460   42.0880    1.8440 C   0  0  0  0  0
   16.6640   43.0520    1.2350 O   0  0  0  0  0
   19.0300   42.3670    1.5400 C   0  0  0  0  0
   19.1900   43.5690    0.7630 O   0  0  0  0  0
   19.7330   42.4580    2.9290 C   0  0  0  0  0
   20.5310   41.2090    3.1990 N   0  0  0  0  0
   20.3040   40.2940    4.1570 C   0  0  0  0  0
   21.2110   39.3190    4.0410 C   0  0  0  0  0
   21.9750   39.6520    3.0140 C   0  0  0  0  0
   21.5850   40.8060    2.4810 C   0  0  0  0  0
   22.2360   41.3230    1.4180 N   0  0  0  0  0
   23.3990   40.6120    0.8210 C   0  0  0  0  0
   23.7130   39.3300    1.5320 N   0  0  0  0  0
   22.9940   38.9060    2.5910 C   0  0  0  0  0
   23.2630   37.7530    3.2520 N   0  3  0  0  0
   24.3890   36.8780    2.8340 C   0  0  0  0  0
   22.5210   37.3980    4.2750 N   0  0  0  0  0
   21.4860   38.1690    4.6830 C   0  0  0  0  0
   20.7130   37.8420    5.7240 N   0  0  0  0  0
   15.8357   38.6143    4.6540 H   0  0  0  0  0
   18.1422   38.2659    4.8455 H   0  0  0  0  0
   16.0621   40.4917    3.7074 H   0  0  0  0  0
   17.7401   40.0139    3.3911 H   0  0  0  0  0
   16.6015   42.8294    3.6270 H   0  0  0  0  0
   17.2637   41.1187    1.4330 H   0  0  0  0  0
   16.7593   43.0131    0.2805 H   0  0  0  0  0
   19.4747   41.5787    0.9325 H   0  0  0  0  0
   20.1230   43.7153    0.5904 H   0  0  0  0  0
   20.4115   43.3101    2.9699 H   0  0  0  0  0
   19.5119   40.3395    4.9044 H   0  0  0  0  0
   23.9599   40.9819   -0.0373 H   0  0  0  0  0
   24.4940   38.7614    1.2048 H   0  0  0  0  0
   24.2316   36.5517    1.8059 H   0  0  0  0  0
   25.3240   37.4343    2.9009 H   0  0  0  0  0
   24.4344   36.0084    3.4896 H   0  0  0  0  0
   19.9483   38.4561    6.0042 H   0  0  0  0  0
   20.8880   36.9784    6.2378 H   0  0  0  0  0
  1  2  1  0  0  0
  2  3  2  0  0  0
  2  4  1  0  0  0
  2  5  1  0  0  0
  5  6  1  0  0  0
  6  7  1  0  0  0
  7  8  1  0  0  0
  7  9  1  0  0  0
  8 13  1  0  0  0
  9 10  1  0  0  0
  9 11  1  0  0  0
 11 12  1  0  0  0
 11 13  1  0  0  0
 13 14  1  0  0  0
 14 15  4  0  0  0
 14 18  4  0  0  0
 15 16  4  0  0  0
 16 17  4  0  0  0
 16 26  4  0  0  0
 17 18  4  0  0  0
 17 22  4  0  0  0
 18 19  1  0  0  0
 19 20  2  0  0  0
 20 21  1  0  0  0
 21 22  1  0  0  0
 22 23  4  0  0  0
 23 24  1  0  0  0
 23 25  4  0  0  0
 25 26  4  0  0  0
 26 27  1  0  0  0
  1 28  1  0  0  0
  4 29  1  0  0  0
  6 30  1  0  0  0
  6 31  1  0  0  0
  7 32  1  0  0  0
  9 33  1  0  0  0
 10 34  1  0  0  0
 11 35  1  0  0  0
 12 36  1  0  0  0
 13 37  1  0  0  0
 15 38  1  0  0  0
 20 39  1  0  0  0
 21 40  1  0  0  0
 24 41  1  0  0  0
 24 42  1  0  0  0
 24 43  1  0  0  0
 27 44  1  0  0  0
 27 45  1  0  0  0
M  END
$$$$
