5vqx_ligand
  -I-interpret- 

 60 63  0  0  0  0  0  0  0  0999 V2000
  -30.2290  -37.8020   40.3330 C   0  0  0  0  0
  -31.5370  -37.2010   39.8120 C   0  0  0  0  0
  -33.7640  -37.2980   38.8070 C   0  0  0  0  0
  -35.9530  -43.6170   43.3580 N   0  0  0  0  0
  -32.2780  -43.7010   38.6100 C   0  0  0  0  0
  -34.0280  -39.7370   41.1090 C   0  0  0  0  0
  -34.7320  -40.6020   41.9650 C   0  0  0  0  0
  -32.5450  -37.9560   39.2930 N   0  0  0  0  0
  -35.3780  -42.8970   42.6580 C   0  0  0  0  0
  -34.6540  -41.9940   41.7780 C   0  0  0  0  0
  -27.6360  -41.6460   35.3240 C   0  0  0  0  0
  -29.0240  -41.8300   35.5320 C   0  0  0  0  0
  -29.4970  -42.4370   33.2450 C   0  0  0  0  0
  -26.8020  -41.3370   36.4160 C   0  0  0  0  0
  -27.3460  -41.2110   37.7090 C   0  0  0  0  0
  -28.7270  -41.3920   37.9170 C   0  0  0  0  0
  -29.5620  -41.6980   36.8230 C   0  0  0  0  0
  -30.6030  -43.2660   32.5750 C   0  0  0  0  0
  -30.0800  -45.5950   33.1120 C   0  0  0  0  0
  -31.3710  -46.8210   34.8270 C   0  0  0  0  0
  -32.1600  -45.6120   35.0220 C   0  0  0  0  0
  -31.8930  -44.5050   34.2910 C   0  0  0  0  0
  -31.6560  -41.3340   37.9580 C   0  0  0  0  0
  -29.9380  -42.1320   34.5530 O   0  0  0  0  0
  -30.9150  -41.8940   36.9460 O   0  0  0  0  0
  -30.8830  -44.4560   33.3450 N   0  0  0  0  0
  -32.3690  -42.1930   38.8190 C   0  0  0  0  0
  -30.3700  -46.7210   33.8670 N   0  0  0  0  0
  -33.1550  -41.6500   39.8640 C   0  0  0  0  0
  -33.8690  -42.5120   40.7330 C   0  0  0  0  0
  -31.6340  -35.9760   39.8810 O   0  0  0  0  0
  -33.2320  -40.2410   40.0480 C   0  0  0  0  0
  -32.5080  -39.3790   39.1750 C   0  0  0  0  0
  -31.7390  -39.9380   38.1330 C   0  0  0  0  0
  -31.5310  -47.8750   35.4330 O   0  0  0  0  0
  -29.1630  -45.6370   32.2950 O   0  0  0  0  0
  -29.3926  -37.3992   39.7617 H   0  0  0  0  0
  -30.1076  -37.5473   41.3859 H   0  0  0  0  0
  -30.2587  -38.8858   40.2211 H   0  0  0  0  0
  -33.8955  -37.5166   37.7473 H   0  0  0  0  0
  -34.6232  -37.6697   39.3653 H   0  0  0  0  0
  -33.6752  -36.2209   38.9489 H   0  0  0  0  0
  -32.6427  -43.9511   37.6137 H   0  0  0  0  0
  -31.2398  -44.0182   38.7085 H   0  0  0  0  0
  -32.8867  -44.2077   39.3589 H   0  0  0  0  0
  -34.0949  -38.6600   41.2631 H   0  0  0  0  0
  -35.3383  -40.1939   42.7737 H   0  0  0  0  0
  -27.2146  -41.7430   34.3234 H   0  0  0  0  0
  -29.3067  -41.5238   32.6812 H   0  0  0  0  0
  -28.5624  -42.9971   33.2757 H   0  0  0  0  0
  -25.7326  -41.1950   36.2601 H   0  0  0  0  0
  -26.6962  -40.9727   38.5511 H   0  0  0  0  0
  -29.1479  -41.2961   38.9179 H   0  0  0  0  0
  -30.2706  -43.5595   31.5793 H   0  0  0  0  0
  -31.5090  -42.6630   32.5144 H   0  0  0  0  0
  -32.9652  -45.5991   35.7565 H   0  0  0  0  0
  -32.4989  -43.6137   34.4538 H   0  0  0  0  0
  -29.7983  -47.5498   33.7038 H   0  0  0  0  0
  -33.8088  -43.5908   40.5894 H   0  0  0  0  0
  -31.2000  -39.2794   37.4519 H   0  0  0  0  0
  2  1  1  0  0  0
  8  2  1  0  0  0
  2 31  2  0  0  0
  8  3  1  0  0  0
  9  4  3  0  0  0
 27  5  1  0  0  0
  6  7  4  0  0  0
 32  6  4  0  0  0
  7 10  4  0  0  0
 33  8  1  0  0  0
 10  9  1  0  0  0
 30 10  4  0  0  0
 12 11  4  0  0  0
 11 14  4  0  0  0
 17 12  4  0  0  0
 12 24  1  0  0  0
 13 18  1  0  0  0
 24 13  1  0  0  0
 15 14  4  0  0  0
 16 15  4  0  0  0
 17 16  4  0  0  0
 25 17  1  0  0  0
 18 26  1  0  0  0
 26 19  1  0  0  0
 19 28  1  0  0  0
 19 36  2  0  0  0
 21 20  1  0  0  0
 28 20  1  0  0  0
 20 35  2  0  0  0
 22 21  2  0  0  0
 26 22  1  0  0  0
 23 25  1  0  0  0
 27 23  4  0  0  0
 23 34  4  0  0  0
 29 27  4  0  0  0
 29 30  4  0  0  0
 32 29  4  0  0  0
 32 33  4  0  0  0
 33 34  4  0  0  0
  1 37  1  0  0  0
  1 38  1  0  0  0
  1 39  1  0  0  0
  3 40  1  0  0  0
  3 41  1  0  0  0
  3 42  1  0  0  0
  5 43  1  0  0  0
  5 44  1  0  0  0
  5 45  1  0  0  0
  6 46  1  0  0  0
  7 47  1  0  0  0
 11 48  1  0  0  0
 13 49  1  0  0  0
 13 50  1  0  0  0
 14 51  1  0  0  0
 15 52  1  0  0  0
 16 53  1  0  0  0
 18 54  1  0  0  0
 18 55  1  0  0  0
 21 56  1  0  0  0
 22 57  1  0  0  0
 28 58  1  0  0  0
 30 59  1  0  0  0
 34 60  1  0  0  0
M  END
$$$$
