3t2c_ligand
  -I-interpret- 

 16 15  0  0  0  0  0  0  0  0999 V2000
  -60.7510   28.7310   19.4270 P   0  0  0  0  0
  -61.5690   28.2550   20.6050 O   0  0  0  0  0
  -59.8980   27.5850   19.0020 O   0  0  0  0  0
  -59.9230   29.9540   19.5420 O   0  0  0  0  0
  -61.7640   29.3030   18.2740 O   0  0  0  0  0
  -62.8830   28.5340   17.8000 C   0  0  0  0  0
  -63.1390   28.9800   16.3900 C   0  0  0  0  0
  -64.3640   29.7100   16.3350 C   0  0  0  0  0
  -64.6720   30.3160   15.1620 O   0  0  0  0  0
  -62.0423   27.4557   20.3625 H   0  0  0  0  0
  -60.4386   26.7950   18.9288 H   0  0  0  0  0
  -63.7607   28.6950   18.4260 H   0  0  0  0  0
  -62.6675   27.4662   17.8388 H   0  0  0  0  0
  -62.4891   28.7774   15.5387 H   0  0  0  0  0
  -65.0242   29.7775   17.1997 H   0  0  0  0  0
  -65.5126   30.7713   15.2494 H   0  0  0  0  0
  1  2  1  0  0  0
  1  3  1  0  0  0
  1  4  2  0  0  0
  1  5  1  0  0  0
  5  6  1  0  0  0
  6  7  1  0  0  0
  7  8  2  0  0  0
  8  9  1  0  0  0
  2 10  1  0  0  0
  3 11  1  0  0  0
  6 12  1  0  0  0
  6 13  1  0  0  0
  7 14  1  0  0  0
  8 15  1  0  0  0
  9 16  1  0  0  0
M  END
$$$$
