### 
### Created by X-TOOL on Mon Sep 10 21:13:05 2018
### 

@<TRIPOS>MOLECULE
3t2c_ligand
   14    13     1     0     0
SMALL
GAST_HUCK


@<TRIPOS>ATOM
      1 P         -60.7510   28.7310   19.4270 P.3       1 13P         0.2029
      2 O1P       -61.5690   28.2550   20.6050 O.co2     1 13P        -0.5536
      3 O2P       -59.8980   27.5850   19.0020 O.co2     1 13P        -0.5536
      4 O3P       -59.9230   29.9540   19.5420 O.co2     1 13P        -0.5536
      5 O1        -61.7640   29.3030   18.2740 O.3       1 13P        -0.2700
      6 C1        -62.8830   28.5340   17.8000 C.3       1 13P         0.0910
      7 C2        -63.1390   28.9800   16.3900 C.2       1 13P        -0.0497
      8 C3        -64.3640   29.7100   16.3350 C.2       1 13P         0.0338
      9 O3        -64.6720   30.3160   15.1620 O.3       1 13P        -0.3528
     10 H         -63.7607   28.6950   18.4260 H         1 13P         0.0705
     11 H         -62.6675   27.4662   17.8388 H         1 13P         0.0705
     12 H         -62.4891   28.7774   15.5387 H         1 13P         0.0360
     13 H         -65.0242   29.7775   17.1997 H         1 13P         0.0848
     14 H         -65.5126   30.7713   15.2494 H         1 13P         0.2439
@<TRIPOS>BOND
     1    1    2 ar 
     2    1    3 ar 
     3    1    4 ar 
     4    1    5 1  
     5    5    6 1  
     6    6    7 1  
     7    7    8 2  
     8    8    9 1  
     9    6   10 1  
    10    6   11 1  
    11    7   12 1  
    12    8   13 1  
    13    9   14 1  
@<TRIPOS>SUBSTRUCTURE
     1 13P         1

