4iu0_ligand

Created by X-TOOL on Fri Nov 18 17:24:21 2016
 31 30  0  0  0  0  0  0  0  0999 V2000
   13.0110  -21.4600    6.7250  N 0  3  0  4  0  4
   12.8400  -21.5700    8.1840  C 0  0  0  2  0  4
   13.1990  -22.9740    8.6490  C 0  5  0  1  0  3
   13.4870  -23.8350    7.8410  O 0  0  0  1  0  1
   13.2050  -23.2640    9.9570  O 0  0  0  1  0  1
   11.4010  -21.1860    8.6050  C 0  0  0  3  0  4
   10.3420  -22.0790    7.9180  C 0  0  0  3  0  4
    8.9320  -21.6390    8.3360  C 0  0  0  3  0  4
    7.9010  -22.7100    7.9230  C 0  0  0  4  0  5
    6.4790  -22.0460    7.5370  B 0  0  0  1  0  4
    5.5300  -23.0340    7.4370  O 0  0  0  3  0  3
    6.5890  -21.4030    6.3280  O 0  0  0  3  0  3
    6.0850  -21.1420    8.5000  O 0  0  0  2  0  2
   12.7708  -20.5272    6.4280  H 0  0  0  1  0  1
   12.4087  -22.1246    6.2650  H 0  0  0  1  0  1
   13.9705  -21.6528    6.4836  H 0  0  0  1  0  1
   13.5328  -20.8636    8.6646  H 0  0  0  1  0  1
   11.2168  -20.1378    8.3269  H 0  0  0  1  0  1
   11.3075  -21.2980    9.6953  H 0  0  0  1  0  1
   10.4999  -23.1260    8.2159  H 0  0  0  1  0  1
   10.4428  -21.9892    6.8263  H 0  0  0  1  0  1
    8.6861  -20.6872    7.8425  H 0  0  0  1  0  1
    8.9007  -21.5050    9.4273  H 0  0  0  1  0  1
    7.8361  -22.7526    6.8258  H 0  0  0  1  0  1
    6.9162  -22.4505    8.3388  H 0  0  0  1  0  1
    8.2157  -23.6904    8.3100  H 0  0  0  1  0  1
    4.6945  -22.6466    7.2036  H 0  0  0  1  0  1
    4.6946  -22.6466    7.2036  H 0  0  0  1  0  1
    6.8470  -22.0278    5.6606  H 0  0  0  1  0  1
    6.8470  -22.0279    5.6606  H 0  0  0  1  0  1
    5.3689  -21.1465    7.8021  H 0  0  0  1  0  1
  1  2  1  0  0  2
  2  3  1  0  0  2
  2  6  1  0  0  2
  3  4  2  0  0  2
  3  5  2  0  0  2
  6  7  1  0  0  2
  7  8  1  0  0  2
  8  9  1  0  0  2
  9 10  1  0  0  2
 10 11  1  0  0  2
 10 12  1  0  0  2
 13 10  2  0  0  2
  1 14  1  0  0  2
  1 15  1  0  0  2
  1 16  1  0  0  2
  2 17  1  0  0  2
  6 18  1  0  0  2
  6 19  1  0  0  2
  7 20  1  0  0  2
  7 21  1  0  0  2
  8 22  1  0  0  2
  8 23  1  0  0  2
  9 24  1  0  0  2
  9 25  1  0  0  2
  9 26  1  0  0  2
 11 27  1  0  0  2
 11 28  1  0  0  2
 12 29  1  0  0  2
 12 30  1  0  0  2
 13 31  1  0  0  2
M  END
> <MOLECULAR_FORMULA>
C6H18NO5B

> <MOLECULAR_WEIGHT>
194.9

> <NUM_HB_ATOMS>
5  

> <NUM_ROTOR>
5  

> <XLOGP2>
-3.23

$$$$
