#	Name:			4iu0_ligand
#	Creating user name:	wangrx
#	Creation time:		Wed Aug  4 17:42:06 2021

#	Modifying user name:	wangrx
#	Modification time:	Wed Aug  4 17:42:47 2021

@<TRIPOS>MOLECULE
4iu0_ligand
   30    29     1     0     0
SMALL
GAST_HUCK


@<TRIPOS>ATOM
      1 N          13.0110  -21.4600    6.7250 N.4       1 ABH         0.2327 
      2 CA         12.8400  -21.5700    8.1840 C.3       1 ABH         0.0282 
      3 C          13.1990  -22.9740    8.6490 C.2       1 ABH         0.0844 
      4 O          13.4870  -23.8350    7.8410 O.co2     1 ABH        -0.5643 
      5 OT         13.2050  -23.2640    9.9570 O.co2     1 ABH        -0.5643 
      6 CB         11.4010  -21.1860    8.6050 C.3       1 ABH         0.0001 
      7 CG         10.3420  -22.0790    7.9180 C.3       1 ABH        -0.0736 
      8 CD          8.9320  -21.6390    8.3360 C.3       1 ABH        -0.1824 
      9 CE          7.9010  -22.7100    7.9230 C.3       1 ABH        -0.3457 
     10 B           6.4790  -22.0460    7.5370 B         1 ABH         3.0000 
     11 O2          5.5300  -23.0340    7.4370 O.3       1 ABH        -0.4105 
     12 O1          6.5890  -21.4030    6.3280 O.3       1 ABH        -0.4105 
     13 O3          6.0850  -21.1420    8.5000 O.3       1 ABH        -0.8710 
     14 H1         12.7708  -20.5272    6.4280 H         1 ABH         0.2010 
     15 H2         12.4087  -22.1246    6.2650 H         1 ABH         0.2010 
     16 H3         13.9705  -21.6528    6.4836 H         1 ABH         0.2010 
     17 H4         13.5328  -20.8636    8.6646 H         1 ABH         0.1024 
     18 H5         11.2168  -20.1378    8.3269 H         1 ABH         0.0338 
     19 H6         11.3075  -21.2980    9.6953 H         1 ABH         0.0338 
     20 H7         10.4999  -23.1260    8.2159 H         1 ABH         0.0244 
     21 H8         10.4428  -21.9892    6.8263 H         1 ABH         0.0244 
     22 H9          8.6861  -20.6872    7.8425 H         1 ABH        -0.0084 
     23 H10         8.9007  -21.5050    9.4273 H         1 ABH        -0.0084 
     24 H11         7.8361  -22.7526    6.8258 H         1 ABH        -0.2101 
     25 H13         8.2157  -23.6904    8.3100 H         1 ABH        -0.2101 
     26 H14         4.6945  -22.6466    7.2036 H         1 ABH         0.2052 
     27 H15         4.6946  -22.6466    7.2036 H         1 ABH         0.2052 
     28 H16         6.8470  -22.0278    5.6606 H         1 ABH         0.2052 
     29 H17         6.8470  -22.0279    5.6606 H         1 ABH         0.2052 
     30 H18         5.3689  -21.1465    7.8021 H         1 ABH        -0.1290 
@<TRIPOS>BOND
     1    1    2 1    
     2    2    3 1    
     3    2    6 1    
     4    3    4 ar   
     5    3    5 ar   
     6    6    7 1    
     7    7    8 1    
     8    8    9 1    
     9    9   10 1    
    10   10   11 1    
    11   10   12 1    
    12   10   13 1    
    13    1   14 1    
    14    1   15 1    
    15    1   16 1    
    16    2   17 1    
    17    6   18 1    
    18    6   19 1    
    19    7   20 1    
    20    7   21 1    
    21    8   22 1    
    22    8   23 1    
    23    9   24 1    
    24    9   25 1    
    25   11   26 1    
    26   11   27 1    
    27   12   28 1    
    28   12   29 1    
    29   13   30 1    
@<TRIPOS>SUBSTRUCTURE
     1 ABH         1 PERM              0 ****  ****    0 ROOT 
