6do5_ligand
  -I-interpret- 

 73 72  0  0  0  0  0  0  0  0999 V2000
  226.9250    3.7250   96.2310 N   0  3  0  0  0
  225.6480    3.6190   95.5670 C   0  0  0  0  0
  224.4740    3.8690   96.5160 C   0  0  0  0  0
  224.2050    5.0050   96.8910 O   0  0  0  0  0
  225.4730    2.2670   94.8080 C   0  0  0  0  0
  223.7850    2.7950   96.8850 N   0  0  0  0  0
  222.7240    2.8340   97.8660 C   0  0  0  0  0
  223.2640    2.7790   99.2730 C   0  0  0  0  0
  222.5420    2.8870  100.2140 O   0  0  0  0  0
  224.5720    2.6170   99.3610 N   0  0  0  0  0
  225.3200    2.5050  100.5980 C   0  0  0  0  0
  225.3320    3.7570  101.4190 C   0  0  0  0  0
  225.3550    3.7110  102.6130 O   0  0  0  0  0
  226.7510    2.1500  100.2890 C   0  0  0  0  0
  227.0820    1.1030   99.2720 C   0  0  0  0  0
  228.5500    0.7880   99.2550 C   0  0  0  0  0
  226.2660   -0.1160   99.5320 C   0  0  0  0  0
  225.3570    4.8770  100.7410 N   0  0  0  0  0
  225.3960    6.1750  101.3420 C   0  0  0  0  0
  224.2500    6.5170  102.3020 C   0  0  0  0  0
  223.1400    6.1810  102.0650 O   0  0  0  0  0
  225.4330    7.1950  100.2200 C   0  0  0  0  0
  226.3960    8.3410  100.4090 C   0  0  0  0  0
  227.8190    7.8550  100.4780 C   0  0  0  0  0
  226.2100    9.3730   99.3300 C   0  0  0  0  0
  224.5560    7.2190  103.3830 N   0  0  0  0  0
  223.5400    7.7080  104.2840 C   0  0  0  0  0
  223.0870    6.7840  105.3850 C   0  0  0  0  0
  222.3430    7.1600  106.1980 O   0  0  0  0  0
  223.5950    5.5780  105.3650 N   0  0  0  0  0
  223.5440    4.6740  106.4620 C   0  0  0  0  0
  224.7980    4.6650  107.3180 C   0  0  0  0  0
  225.8270    5.3030  106.9370 O   0  0  0  0  0
  224.6820    3.9720  108.3580 O   0  0  0  0  0
  226.9848    4.6242   96.7087 H   0  0  0  0  0
  227.0169    2.9705   96.9112 H   0  0  0  0  0
  227.6727    3.6550   95.5407 H   0  0  0  0  0
  225.6412    4.4120   94.8191 H   0  0  0  0  0
  225.4246    1.4508   95.5288 H   0  0  0  0  0
  224.5516    2.2949   94.2264 H   0  0  0  0  0
  226.3210    2.1141   94.1405 H   0  0  0  0  0
  224.0158    1.8992   96.4553 H   0  0  0  0  0
  222.0804    1.9681   97.7108 H   0  0  0  0  0
  222.1773    3.7690   97.7440 H   0  0  0  0  0
  225.0981    2.5667   98.4886 H   0  0  0  0  0
  224.8162    1.7326  101.1791 H   0  0  0  0  0
  227.1298    1.7391  101.2248 H   0  0  0  0  0
  227.1666    3.0665   99.8702 H   0  0  0  0  0
  226.8368    1.4887   98.2825 H   0  0  0  0  0
  229.1112    1.6907   99.0135 H   0  0  0  0  0
  228.8531    0.4217  100.2359 H   0  0  0  0  0
  228.7476    0.0237   98.5034 H   0  0  0  0  0
  226.4880   -0.4943  100.5299 H   0  0  0  0  0
  225.2076    0.1357   99.4646 H   0  0  0  0  0
  226.5075   -0.8781   98.7911 H   0  0  0  0  0
  225.3481    4.8207   99.7226 H   0  0  0  0  0
  226.2841    6.1888  101.9739 H   0  0  0  0  0
  224.4367    7.6342  100.1692 H   0  0  0  0  0
  225.7602    6.6608   99.3280 H   0  0  0  0  0
  226.1759    8.8167  101.3647 H   0  0  0  0  0
  227.9269    7.1688  101.3180 H   0  0  0  0  0
  228.0708    7.3393   99.5513 H   0  0  0  0  0
  228.4861    8.7062  100.6145 H   0  0  0  0  0
  226.3907    8.9161   98.3570 H   0  0  0  0  0
  225.1908    9.7576   99.3686 H   0  0  0  0  0
  226.9142   10.1903   99.4855 H   0  0  0  0  0
  225.5358    7.4193  103.5839 H   0  0  0  0  0
  222.6592    7.8842  103.6666 H   0  0  0  0  0
  223.9812    8.5694  104.7855 H   0  0  0  0  0
  224.0560    5.2671  104.5099 H   0  0  0  0  0
  223.4290    3.6720  106.0486 H   0  0  0  0  0
  222.7197    4.9897  107.1015 H   0  0  0  0  0
  225.6380    5.7465  106.1068 H   0  0  0  0  0
  1  2  1  0  0  0
  2  3  1  0  0  0
  2  5  1  0  0  0
  3  4  2  0  0  0
  3  6  1  0  0  0
  6  7  1  0  0  0
  7  8  1  0  0  0
  8  9  2  0  0  0
  8 10  1  0  0  0
 10 11  1  0  0  0
 11 12  1  0  0  0
 11 14  1  0  0  0
 12 13  2  0  0  0
 12 18  1  0  0  0
 14 15  1  0  0  0
 15 16  1  0  0  0
 15 17  1  0  0  0
 18 19  1  0  0  0
 19 20  1  0  0  0
 19 22  1  0  0  0
 20 21  2  0  0  0
 20 26  1  0  0  0
 22 23  1  0  0  0
 23 24  1  0  0  0
 23 25  1  0  0  0
 26 27  1  0  0  0
 27 28  1  0  0  0
 28 29  2  0  0  0
 28 30  1  0  0  0
 30 31  1  0  0  0
 31 32  1  0  0  0
 32 33  1  0  0  0
 32 34  2  0  0  0
  1 35  1  0  0  0
  1 36  1  0  0  0
  1 37  1  0  0  0
  2 38  1  0  0  0
  5 39  1  0  0  0
  5 40  1  0  0  0
  5 41  1  0  0  0
  6 42  1  0  0  0
  7 43  1  0  0  0
  7 44  1  0  0  0
 10 45  1  0  0  0
 11 46  1  0  0  0
 14 47  1  0  0  0
 14 48  1  0  0  0
 15 49  1  0  0  0
 16 50  1  0  0  0
 16 51  1  0  0  0
 16 52  1  0  0  0
 17 53  1  0  0  0
 17 54  1  0  0  0
 17 55  1  0  0  0
 18 56  1  0  0  0
 19 57  1  0  0  0
 22 58  1  0  0  0
 22 59  1  0  0  0
 23 60  1  0  0  0
 24 61  1  0  0  0
 24 62  1  0  0  0
 24 63  1  0  0  0
 25 64  1  0  0  0
 25 65  1  0  0  0
 25 66  1  0  0  0
 26 67  1  0  0  0
 27 68  1  0  0  0
 27 69  1  0  0  0
 30 70  1  0  0  0
 31 71  1  0  0  0
 31 72  1  0  0  0
 33 73  1  0  0  0
M  END
$$$$
