1mmp_ligand
  -I-interpret- 

 67 69  0  0  0  0  0  0  0  0999 V2000
   11.5580   44.7910   66.3890 C   0  0  0  0  0
   11.9450   44.4720   65.1460 O   0  0  0  0  0
   12.2690   45.6630   66.8920 O   0  0  0  0  0
   10.3330   44.2360   67.0360 C   0  0  0  0  0
    9.3130   45.3600   67.1760 C   0  0  0  0  0
    8.3840   44.9480   68.3140 C   0  0  0  0  0
    7.6430   43.9600   68.2230 O   0  0  0  0  0
    8.4420   45.6720   69.4300 N   0  0  0  0  0
    7.6250   45.3850   70.6030 C   0  0  0  0  0
    6.2760   46.0300   70.5310 C   0  0  0  0  0
    6.1860   47.2190   70.2100 O   0  0  0  0  0
    5.2370   45.2760   70.8750 N   0  0  0  0  0
    3.8440   45.7640   70.9240 C   0  0  0  0  0
    3.0340   44.7920   71.8460 C   0  0  0  0  0
    3.5640   44.6450   73.2990 C   0  0  0  0  0
    3.4420   45.9070   74.1870 C   0  0  0  0  0
    3.9970   45.6940   75.6130 C   0  0  0  0  0
    5.3930   46.2940   75.9250 C   0  0  0  0  0
    6.3890   45.7520   74.9850 N   0  0  0  0  0
    8.5260   45.5910   65.8840 C   0  0  0  0  0
    7.4860   46.7310   65.9280 C   0  0  0  0  0
    8.1430   48.1020   66.1570 C   0  0  0  0  0
    6.7010   46.6780   64.6190 C   0  0  0  0  0
    8.3830   45.8870   71.8460 C   0  0  0  0  0
    7.6940   45.5410   73.1080 C   0  0  0  0  0
    6.8560   46.3740   73.8590 C   0  0  0  0  0
    7.7320   44.3310   73.8390 C   0  0  0  0  0
    6.9140   44.4990   74.9990 C   0  0  0  0  0
    8.3880   43.1240   73.6100 C   0  0  0  0  0
    6.7590   43.4620   75.9200 C   0  0  0  0  0
    8.2290   42.1010   74.5370 C   0  0  0  0  0
    7.4220   42.2710   75.6800 C   0  0  0  0  0
   11.3647   43.7920   64.7960 H   0  0  0  0  0
   10.5798   43.8314   68.0176 H   0  0  0  0  0
    9.9209   43.4315   66.4269 H   0  0  0  0  0
    9.8139   46.3051   67.3859 H   0  0  0  0  0
    9.0862   46.4620   69.4658 H   0  0  0  0  0
    7.4543   44.3097   70.6543 H   0  0  0  0  0
    5.4123   44.3015   71.1199 H   0  0  0  0  0
    3.4133   45.7857   69.9229 H   0  0  0  0  0
    3.8105   46.7792   71.3193 H   0  0  0  0  0
    3.1034   43.8042   71.3903 H   0  0  0  0  0
    2.0288   45.2061   71.9242 H   0  0  0  0  0
    4.6285   44.4247   73.2191 H   0  0  0  0  0
    2.9572   43.8735   73.7730 H   0  0  0  0  0
    2.3834   46.1516   74.2746 H   0  0  0  0  0
    4.0231   46.7014   73.7186 H   0  0  0  0  0
    4.1042   44.6158   75.7317 H   0  0  0  0  0
    3.3004   46.2003   76.2812 H   0  0  0  0  0
    5.6787   46.0325   76.9439 H   0  0  0  0  0
    5.3512   47.3782   75.8210 H   0  0  0  0  0
    7.9699   44.6732   65.6932 H   0  0  0  0  0
    9.2559   45.8684   65.1235 H   0  0  0  0  0
    6.8120   46.5949   66.7738 H   0  0  0  0  0
    8.6789   48.0927   67.1061 H   0  0  0  0  0
    8.8413   48.3088   65.3460 H   0  0  0  0  0
    7.3730   48.8731   66.1806 H   0  0  0  0  0
    7.3847   46.8144   63.7811 H   0  0  0  0  0
    6.2064   45.7105   64.5323 H   0  0  0  0  0
    5.9536   47.4714   64.6127 H   0  0  0  0  0
    8.4469   46.9734   71.7848 H   0  0  0  0  0
    9.3635   45.4109   71.8568 H   0  0  0  0  0
    6.6051   47.3973   73.5798 H   0  0  0  0  0
    9.0104   42.9853   72.7260 H   0  0  0  0  0
    6.1332   43.5865   76.8037 H   0  0  0  0  0
    8.7374   41.1502   74.3773 H   0  0  0  0  0
    7.3181   41.4490   76.3883 H   0  0  0  0  0
  4  1  1  0  0  0
  1  3  2  0  0  0
  1  2  1  0  0  0
  5  4  1  0  0  0
 20  5  1  0  0  0
  5  6  1  0  0  0
  6  8  1  0  0  0
  6  7  2  0  0  0
  8  9  1  0  0  0
  9 24  1  0  0  0
  9 10  1  0  0  0
 10 12  1  0  0  0
 10 11  2  0  0  0
 12 13  1  0  0  0
 13 14  1  0  0  0
 14 15  1  0  0  0
 15 16  1  0  0  0
 16 17  1  0  0  0
 18 17  1  0  0  0
 19 18  1  0  0  0
 28 19  4  0  0  0
 26 19  4  0  0  0
 25 26  4  0  0  0
 25 27  4  0  0  0
 24 25  1  0  0  0
 27 29  4  0  0  0
 27 28  4  0  0  0
 28 30  4  0  0  0
 30 32  4  0  0  0
 31 32  4  0  0  0
 29 31  4  0  0  0
 21 20  1  0  0  0
 21 23  1  0  0  0
 21 22  1  0  0  0
  2 33  1  0  0  0
  4 34  1  0  0  0
  4 35  1  0  0  0
  5 36  1  0  0  0
  8 37  1  0  0  0
  9 38  1  0  0  0
 12 39  1  0  0  0
 13 40  1  0  0  0
 13 41  1  0  0  0
 14 42  1  0  0  0
 14 43  1  0  0  0
 15 44  1  0  0  0
 15 45  1  0  0  0
 16 46  1  0  0  0
 16 47  1  0  0  0
 17 48  1  0  0  0
 17 49  1  0  0  0
 18 50  1  0  0  0
 18 51  1  0  0  0
 20 52  1  0  0  0
 20 53  1  0  0  0
 21 54  1  0  0  0
 22 55  1  0  0  0
 22 56  1  0  0  0
 22 57  1  0  0  0
 23 58  1  0  0  0
 23 59  1  0  0  0
 23 60  1  0  0  0
 24 61  1  0  0  0
 24 62  1  0  0  0
 26 63  1  0  0  0
 29 64  1  0  0  0
 30 65  1  0  0  0
 31 66  1  0  0  0
 32 67  1  0  0  0
M  END
$$$$
