6dar_ligand
  -I-interpret- 

 57 61  0  0  0  0  0  0  0  0999 V2000
   20.7250   27.5150    5.2660 O   0  0  0  0  0
   21.5680   28.3710    5.5450 C   0  0  0  0  0
   22.0240   29.2600    4.4140 C   0  0  0  0  0
   21.7100   30.6370    4.4080 C   0  0  0  0  0
   22.1220   31.4620    3.3460 C   0  0  0  0  0
   22.8220   30.9120    2.2590 C   0  0  0  0  0
   23.1280   29.5290    2.2280 C   0  0  0  0  0
   23.8070   28.9460    1.1800 O   0  0  0  0  0
   24.0560   27.5480    1.1580 C   0  0  0  0  0
   22.7320   28.7140    3.3160 C   0  0  0  0  0
   22.0440   28.5250    6.8220 N   0  0  0  0  0
   23.0570   29.5420    7.1670 C   0  0  0  0  0
   23.1860   29.9270    8.6290 C   0  0  0  0  0
   22.2820   30.9400    9.2920 C   0  0  0  0  0
   23.7180   31.2930    8.9970 C   0  0  0  0  0
   21.5980   27.6740    7.9400 C   0  0  0  0  0
   22.4170   26.3990    8.0150 C   0  0  0  0  0
   23.4360   26.2800    8.9770 C   0  0  0  0  0
   24.2100   25.1100    9.0360 C   0  0  0  0  0
   23.9730   24.0550    8.1280 C   0  0  0  0  0
   22.9660   24.1600    7.1430 C   0  0  0  0  0
   22.7720   23.0920    6.1360 C   0  0  0  0  0
   23.7610   22.2940    5.6050 C   0  0  0  0  0
   23.1190   21.4990    4.6950 N   0  0  0  0  0
   23.5030   20.4380    3.7780 C   0  0  0  0  0
   22.1560   20.0390    3.1050 C   0  0  0  0  0
   21.0650   20.9960    3.6520 C   0  0  0  0  0
   21.8340   21.7870    4.6350 C   0  0  0  0  0
   21.5830   22.7660    5.5130 N   0  0  0  0  0
   22.2000   25.3500    7.0930 C   0  0  0  0  0
   21.1427   31.0646    5.2347 H   0  0  0  0  0
   21.8981   32.5286    3.3663 H   0  0  0  0  0
   23.1317   31.5536    1.4341 H   0  0  0  0  0
   24.6487   27.2720    2.0301 H   0  0  0  0  0
   23.1077   27.0110    1.1769 H   0  0  0  0  0
   24.6021   27.2918    0.2501 H   0  0  0  0  0
   22.9755   27.6516    3.3082 H   0  0  0  0  0
   22.7516   30.4507    6.6482 H   0  0  0  0  0
   24.0176   29.1076    6.8902 H   0  0  0  0  0
   23.4458   28.8916    8.8495 H   0  0  0  0  0
   21.5842   30.9884   10.1279 H   0  0  0  0  0
   21.2897   31.3672    9.1476 H   0  0  0  0  0
   24.2817   32.1025    8.5331 H   0  0  0  0  0
   24.5760   31.7238    9.5130 H   0  0  0  0  0
   20.5527   27.4088    7.7815 H   0  0  0  0  0
   21.7251   28.2260    8.8713 H   0  0  0  0  0
   23.6246   27.0950    9.6758 H   0  0  0  0  0
   24.9962   25.0159    9.7851 H   0  0  0  0  0
   24.5747   23.1481    8.1879 H   0  0  0  0  0
   24.8220   22.2954    5.8548 H   0  0  0  0  0
   23.9831   19.6003    4.2838 H   0  0  0  0  0
   24.2533   20.7595    3.0557 H   0  0  0  0  0
   21.9060   19.0030    3.3338 H   0  0  0  0  0
   22.2302   20.1232    2.0208 H   0  0  0  0  0
   20.2071   20.4795    4.0825 H   0  0  0  0  0
   20.5889   21.6016    2.8808 H   0  0  0  0  0
   21.4293   25.4589    6.3299 H   0  0  0  0  0
  1  2  2  0  0  0
  2  3  1  0  0  0
  2 11  1  0  0  0
  3  4  4  0  0  0
  3 10  4  0  0  0
  4  5  4  0  0  0
  5  6  4  0  0  0
  6  7  4  0  0  0
  7  8  1  0  0  0
  7 10  4  0  0  0
  8  9  1  0  0  0
 11 12  1  0  0  0
 11 16  1  0  0  0
 12 13  1  0  0  0
 13 14  1  0  0  0
 13 15  1  0  0  0
 14 15  1  0  0  0
 16 17  1  0  0  0
 17 18  4  0  0  0
 17 30  4  0  0  0
 18 19  4  0  0  0
 19 20  4  0  0  0
 20 21  4  0  0  0
 21 22  1  0  0  0
 21 30  4  0  0  0
 22 23  4  0  0  0
 22 29  4  0  0  0
 23 24  4  0  0  0
 24 25  1  0  0  0
 24 28  4  0  0  0
 25 26  1  0  0  0
 26 27  1  0  0  0
 27 28  1  0  0  0
 28 29  4  0  0  0
  4 31  1  0  0  0
  5 32  1  0  0  0
  6 33  1  0  0  0
  9 34  1  0  0  0
  9 35  1  0  0  0
  9 36  1  0  0  0
 10 37  1  0  0  0
 12 38  1  0  0  0
 12 39  1  0  0  0
 13 40  1  0  0  0
 14 41  1  0  0  0
 14 42  1  0  0  0
 15 43  1  0  0  0
 15 44  1  0  0  0
 16 45  1  0  0  0
 16 46  1  0  0  0
 18 47  1  0  0  0
 19 48  1  0  0  0
 20 49  1  0  0  0
 23 50  1  0  0  0
 25 51  1  0  0  0
 25 52  1  0  0  0
 26 53  1  0  0  0
 26 54  1  0  0  0
 27 55  1  0  0  0
 27 56  1  0  0  0
 30 57  1  0  0  0
M  END
$$$$
