3iod_ligand
  -I-interpret- 

 48 51  0  0  0  0  0  0  0  0999 V2000
   13.6310    9.6270   -5.3630 N   0  0  0  0  0
   12.6520    9.2610   -4.5340 C   0  0  0  0  0
   12.8010    9.3450   -3.2120 N   0  0  0  0  0
   13.9500    9.8100   -2.6760 C   0  0  0  0  0
   14.9890   10.1950   -3.5110 C   0  0  0  0  0
   14.8110   10.0890   -4.8880 C   0  0  0  0  0
   15.7930   10.4420   -5.7170 N   0  0  0  0  0
   15.9900   10.6010   -2.7380 N   0  0  0  0  0
   15.6040   10.4840   -1.4690 C   0  0  0  0  0
   14.3690   10.0060   -1.4260 N   0  0  0  0  0
   12.3660   11.3070    9.5930 O   0  0  0  0  0
   12.3780    8.2680    1.8090 O   0  0  0  0  0
   14.3360    7.3640    0.0590 O   0  0  0  0  0
   14.3480   11.6690   10.9750 O   0  0  0  0  0
   16.2320    8.6210    8.9000 C   0  0  0  0  0
   15.7980    8.1810    7.6620 C   0  0  0  0  0
   15.5430    9.5720    9.6530 C   0  0  0  0  0
   13.9080    9.6810    7.9210 C   0  0  0  0  0
   14.1270    8.2690    5.8430 C   0  0  0  0  0
   14.9040   10.8970    2.7670 C   0  0  0  0  0
   13.5520   10.8670    0.6930 O   0  0  0  0  0
   13.2930    9.6780    5.0760 S   0  0  0  0  0
   14.7520   11.0280    4.5880 S   0  0  0  0  0
   14.6180    8.7210    7.1910 C   0  0  0  0  0
   14.3710   10.1080    9.1640 C   0  0  0  0  0
   13.6980    8.8130    1.9370 C   0  0  0  0  0
   14.4230    8.6940    0.6060 C   0  0  0  0  0
   13.6230   10.3440    2.0750 C   0  0  0  0  0
   13.6160    9.7180   -0.2050 C   0  0  0  0  0
   13.7140   11.0110    9.8960 N   0  0  0  0  0
   11.7142    8.8869   -4.9447 H   0  0  0  0  0
   15.6611   10.3658   -6.7256 H   0  0  0  0  0
   16.6765   10.7884   -5.3429 H   0  0  0  0  0
   16.2100   10.7415   -0.6003 H   0  0  0  0  0
   11.9193    8.3427    2.6490 H   0  0  0  0  0
   14.8049    7.3322   -0.7781 H   0  0  0  0  0
   17.1545    8.2055    9.3055 H   0  0  0  0  0
   16.3598    7.4447    7.0873 H   0  0  0  0  0
   15.9289    9.8892   10.6218 H   0  0  0  0  0
   12.9864   10.0976    7.5144 H   0  0  0  0  0
   14.9594    7.9331    5.2246 H   0  0  0  0  0
   13.4416    7.4279    5.9469 H   0  0  0  0  0
   15.7167   10.2022    2.5552 H   0  0  0  0  0
   15.0782   11.9009    2.3797 H   0  0  0  0  0
   14.1695    8.2994    2.7749 H   0  0  0  0  0
   15.4975    8.8739    0.6387 H   0  0  0  0  0
   12.7657   10.6420    2.6785 H   0  0  0  0  0
   12.6199    9.4010   -0.5138 H   0  0  0  0  0
  2  1  4  0  0  0
  6  1  4  0  0  0
  3  2  4  0  0  0
  4  3  4  0  0  0
  4  5  4  0  0  0
 10  4  4  0  0  0
  5  6  4  0  0  0
  8  5  4  0  0  0
  6  7  1  0  0  0
  9  8  4  0  0  0
 10  9  4  0  0  0
 29 10  1  0  0  0
 30 11  2  0  0  0
 26 12  1  0  0  0
 27 13  1  0  0  0
 30 14  2  0  0  0
 16 15  4  0  0  0
 15 17  4  0  0  0
 24 16  4  0  0  0
 25 17  4  0  0  0
 24 18  4  0  0  0
 18 25  4  0  0  0
 22 19  1  0  0  0
 19 24  1  0  0  0
 20 23  1  0  0  0
 28 20  1  0  0  0
 28 21  1  0  0  0
 21 29  1  0  0  0
 23 22  1  0  0  0
 25 30  1  0  0  0
 26 27  1  0  0  0
 26 28  1  0  0  0
 27 29  1  0  0  0
  2 31  1  0  0  0
  7 32  1  0  0  0
  7 33  1  0  0  0
  9 34  1  0  0  0
 12 35  1  0  0  0
 13 36  1  0  0  0
 15 37  1  0  0  0
 16 38  1  0  0  0
 17 39  1  0  0  0
 18 40  1  0  0  0
 19 41  1  0  0  0
 19 42  1  0  0  0
 20 43  1  0  0  0
 20 44  1  0  0  0
 26 45  1  0  0  0
 27 46  1  0  0  0
 28 47  1  0  0  0
 29 48  1  0  0  0
M  END
$$$$
