3uzp_ligand
  -I-interpret- 

 45 48  0  0  0  0  0  0  0  0999 V2000
    4.2350    2.7510   18.7610 C   0  0  0  0  0
    3.6650    3.8490   19.3530 N   0  0  0  0  0
    4.4660    4.1520   20.4120 C   0  0  0  0  0
    5.5410    3.3780   20.6080 N   0  0  0  0  0
    5.4780    2.4730   19.5950 C   0  0  0  0  0
    3.8380    0.5620   17.3830 C   0  0  0  0  0
    3.2220   -0.1050   16.2870 C   0  0  0  0  0
    2.4410    0.5960   15.4070 N   0  0  0  0  0
    2.2390    1.9590   15.5630 C   0  0  0  0  0
    2.8200    2.6520   16.6030 N   0  0  0  0  0
    3.6460    1.9910   17.5690 C   0  0  0  0  0
    1.3910    2.6110   14.6780 N   0  0  0  0  0
    1.6820    5.1370   20.1410 C   0  0  0  0  0
    2.4880    4.5850   18.9700 C   0  0  0  0  0
    2.8850    5.6790   17.9820 C   0  0  0  0  0
    1.7040    6.5010   17.5040 C   0  0  0  0  0
    0.8640    7.0540   18.6800 C   0  0  0  0  0
    0.4980    5.9860   19.7310 C   0  0  0  0  0
    8.1890    0.4310   17.6950 C   0  0  0  0  0
    8.6690   -0.4200   18.7430 C   0  0  0  0  0
    8.1340   -0.3660   20.1180 C   0  0  0  0  0
    7.0790    0.5840   20.4270 C   0  0  0  0  0
    6.5790    1.4530   19.3820 C   0  0  0  0  0
    7.1410    1.3710   18.0190 C   0  0  0  0  0
    9.6400   -1.2630   18.3980 F   0  0  0  0  0
    4.2414    4.9896   21.0724 H   0  0  0  0  0
    4.4550    0.0003   18.0844 H   0  0  0  0  0
    3.3721   -1.1756   16.1477 H   0  0  0  0  0
    0.9317    2.0878   13.9325 H   0  0  0  0  0
    1.2272    3.6133   14.7733 H   0  0  0  0  0
    2.3502    5.7740   20.7205 H   0  0  0  0  0
    1.2904    4.2831   20.6938 H   0  0  0  0  0
    1.8075    3.8814   18.4906 H   0  0  0  0  0
    3.3279    5.1957   17.1112 H   0  0  0  0  0
    3.5745    6.3524   18.4910 H   0  0  0  0  0
    1.0630    5.8565   16.9024 H   0  0  0  0  0
    2.0877    7.3469   16.9335 H   0  0  0  0  0
   -0.0679    7.4376   18.2648 H   0  0  0  0  0
    1.4629    7.8146   19.1809 H   0  0  0  0  0
    0.1340    6.5025   20.6192 H   0  0  0  0  0
   -0.2493    5.3262   19.2903 H   0  0  0  0  0
    8.6006    0.3712   16.6875 H   0  0  0  0  0
    8.5247   -1.0290   20.8899 H   0  0  0  0  0
    6.6681    0.6420   21.4349 H   0  0  0  0  0
    6.7576    2.0326   17.2422 H   0  0  0  0  0
  1  2  4  0  0  0
  5  1  4  0  0  0
  1 11  1  0  0  0
  3  2  4  0  0  0
  2 14  1  0  0  0
  4  3  4  0  0  0
  5  4  4  0  0  0
 23  5  1  0  0  0
  6  7  4  0  0  0
 11  6  4  0  0  0
  7  8  4  0  0  0
  9  8  4  0  0  0
 10  9  4  0  0  0
  9 12  1  0  0  0
 11 10  4  0  0  0
 14 13  1  0  0  0
 13 18  1  0  0  0
 14 15  1  0  0  0
 15 16  1  0  0  0
 16 17  1  0  0  0
 18 17  1  0  0  0
 20 19  4  0  0  0
 19 24  4  0  0  0
 21 20  4  0  0  0
 20 25  1  0  0  0
 22 21  4  0  0  0
 22 23  4  0  0  0
 23 24  4  0  0  0
  3 26  1  0  0  0
  6 27  1  0  0  0
  7 28  1  0  0  0
 12 29  1  0  0  0
 12 30  1  0  0  0
 13 31  1  0  0  0
 13 32  1  0  0  0
 14 33  1  0  0  0
 15 34  1  0  0  0
 15 35  1  0  0  0
 16 36  1  0  0  0
 16 37  1  0  0  0
 17 38  1  0  0  0
 17 39  1  0  0  0
 18 40  1  0  0  0
 18 41  1  0  0  0
 19 42  1  0  0  0
 21 43  1  0  0  0
 22 44  1  0  0  0
 24 45  1  0  0  0
M  END
$$$$
