6c3l_ligand
  -I-interpret- 

 81 86  0  0  0  0  0  0  0  0999 V2000
  -20.7010    3.7010    2.1500 N   0  0  0  0  0
  -21.7120    4.5020    1.4540 C   0  0  0  0  0
  -21.0100    5.8080    1.0720 C   0  0  0  0  0
  -20.0090    6.1840    1.6800 O   0  0  0  0  0
  -14.7930    6.5360    6.4400 C   0  0  0  0  0
  -12.0360   -1.3820    1.7000 C   0  0  0  0  0
  -11.8450   -1.1850    0.3410 C   0  0  0  0  0
  -18.1510    0.7750    1.0810 C   0  0  0  0  0
  -12.9380   -0.5650    2.3700 C   0  0  0  0  0
  -12.5700   -0.1790   -0.2880 C   0  0  0  0  0
  -18.2510    1.3220    2.3520 C   0  0  0  0  0
  -14.8860    2.0220    1.1090 C   0  0  0  0  0
  -19.8770    2.2630    0.3770 C   0  0  0  0  0
  -20.3880    3.8450    3.4350 C   0  0  0  0  0
  -15.4040    1.3870   -2.1720 C   0  0  0  0  0
  -20.8960    7.8920   -1.8570 C   0  0  0  0  0
  -22.6390    6.3450   -2.1680 C   0  0  0  0  0
  -14.3410    2.1510   -1.3670 C   0  0  0  0  0
  -20.8640    7.7370   -0.3600 C   0  0  0  0  0
  -22.7200    6.0020   -0.6870 C   0  0  0  0  0
  -16.5110    4.9840    7.1140 C   0  0  0  0  0
  -16.2850    5.5970    4.8080 C   0  0  0  0  0
  -17.3210    3.7590    6.7120 C   0  0  0  0  0
  -17.0740    4.3680    4.4020 C   0  0  0  0  0
  -18.7610    2.7810    5.0450 C   0  0  0  0  0
  -17.7890    0.7760   -1.9020 C   0  0  0  0  0
  -18.9680    1.2590    0.0660 C   0  0  0  0  0
  -14.2170    1.5790    0.0520 C   0  0  0  0  0
  -19.4270    2.9700    3.6830 C   0  0  0  0  0
  -13.6040    0.3870    1.7170 C   0  0  0  0  0
  -13.4210    0.5760    0.4070 C   0  0  0  0  0
  -19.1340    2.2890    2.5830 C   0  0  0  0  0
  -19.9310    2.7530    1.6160 C   0  0  0  0  0
  -16.6670    1.3420   -1.4200 N   0  0  0  0  0
  -18.9250    0.7520   -1.1740 N   0  0  0  0  0
  -14.5030    1.2770    2.1430 N   0  0  0  0  0
  -15.5520    5.3380    6.0550 N   0  3  0  0  0
  -18.0390    4.0000    5.4490 N   0  3  0  0  0
  -21.5220    6.4800    0.0390 N   0  0  0  0  0
  -22.2410    7.7160   -2.3350 O   0  0  0  0  0
  -17.8010    0.0860   -3.4600 S   0  0  0  0  0
  -22.5799    4.6862    2.0871 H   0  0  0  0  0
  -22.0957    3.9837    0.5752 H   0  0  0  0  0
  -15.4814    7.3673    6.5922 H   0  0  0  0  0
  -14.2495    6.3388    7.3640 H   0  0  0  0  0
  -14.0872    6.7874    5.6483 H   0  0  0  0  0
  -11.4900   -2.1614    2.2315 H   0  0  0  0  0
  -11.1442   -1.8031   -0.2202 H   0  0  0  0  0
  -17.4393   -0.0258    0.8805 H   0  0  0  0  0
  -13.1024   -0.7037    3.4386 H   0  0  0  0  0
  -12.4417   -0.0065   -1.3566 H   0  0  0  0  0
  -17.6097    0.9613    3.1562 H   0  0  0  0  0
  -15.6088    2.8377    1.1268 H   0  0  0  0  0
  -20.5458    2.6500   -0.3918 H   0  0  0  0  0
  -20.8341    4.5442    4.1423 H   0  0  0  0  0
  -15.0563    0.3695   -2.3508 H   0  0  0  0  0
  -15.5696    1.8959   -3.1216 H   0  0  0  0  0
  -20.2502    7.1407   -2.3115 H   0  0  0  0  0
  -20.5456    8.8890   -2.1242 H   0  0  0  0  0
  -23.6182    6.1982   -2.6238 H   0  0  0  0  0
  -21.9037    5.6977   -2.6459 H   0  0  0  0  0
  -14.6364    3.1980   -1.2995 H   0  0  0  0  0
  -13.3797    2.0520   -1.8712 H   0  0  0  0  0
  -21.3918    8.5748    0.0956 H   0  0  0  0  0
  -19.8264    7.7166   -0.0267 H   0  0  0  0  0
  -22.7805    4.9186   -0.5834 H   0  0  0  0  0
  -23.5997    6.4878   -0.2648 H   0  0  0  0  0
  -15.9620    4.7610    8.0289 H   0  0  0  0  0
  -17.1903    5.8218    7.2712 H   0  0  0  0  0
  -16.9728    6.4281    4.9636 H   0  0  0  0  0
  -15.5735    5.8417    4.0193 H   0  0  0  0  0
  -18.0484    3.5454    7.4952 H   0  0  0  0  0
  -16.6420    2.9172    6.5758 H   0  0  0  0  0
  -16.3824    3.5387    4.2532 H   0  0  0  0  0
  -17.6177    4.5863    3.4829 H   0  0  0  0  0
  -18.0497    1.9579    4.9768 H   0  0  0  0  0
  -19.5314    2.5674    5.7859 H   0  0  0  0  0
  -16.6940    1.7592   -0.4896 H   0  0  0  0  0
  -19.7674    0.3400   -1.5752 H   0  0  0  0  0
  -14.9000    4.5656    5.9183 H   0  0  0  0  0
  -18.7082    4.7585    5.5806 H   0  0  0  0  0
  1  2  1  0  0  0
  1 14  4  0  0  0
 33  1  4  0  0  0
  2  3  1  0  0  0
  3  4  2  0  0  0
  3 39  1  0  0  0
 37  5  1  0  0  0
  7  6  4  0  0  0
  6  9  4  0  0  0
 10  7  4  0  0  0
  8 11  4  0  0  0
 27  8  4  0  0  0
  9 30  4  0  0  0
 31 10  4  0  0  0
 11 32  4  0  0  0
 28 12  4  0  0  0
 12 36  4  0  0  0
 27 13  4  0  0  0
 13 33  4  0  0  0
 14 29  4  0  0  0
 18 15  1  0  0  0
 15 34  1  0  0  0
 19 16  1  0  0  0
 16 40  1  0  0  0
 20 17  1  0  0  0
 17 40  1  0  0  0
 28 18  1  0  0  0
 39 19  1  0  0  0
 39 20  1  0  0  0
 23 21  1  0  0  0
 21 37  1  0  0  0
 24 22  1  0  0  0
 22 37  1  0  0  0
 38 23  1  0  0  0
 38 24  1  0  0  0
 29 25  1  0  0  0
 25 38  1  0  0  0
 34 26  1  0  0  0
 26 35  1  0  0  0
 26 41  2  0  0  0
 35 27  1  0  0  0
 28 31  4  0  0  0
 29 32  4  0  0  0
 30 31  4  0  0  0
 30 36  4  0  0  0
 32 33  4  0  0  0
  2 42  1  0  0  0
  2 43  1  0  0  0
  5 44  1  0  0  0
  5 45  1  0  0  0
  5 46  1  0  0  0
  6 47  1  0  0  0
  7 48  1  0  0  0
  8 49  1  0  0  0
  9 50  1  0  0  0
 10 51  1  0  0  0
 11 52  1  0  0  0
 12 53  1  0  0  0
 13 54  1  0  0  0
 14 55  1  0  0  0
 15 56  1  0  0  0
 15 57  1  0  0  0
 16 58  1  0  0  0
 16 59  1  0  0  0
 17 60  1  0  0  0
 17 61  1  0  0  0
 18 62  1  0  0  0
 18 63  1  0  0  0
 19 64  1  0  0  0
 19 65  1  0  0  0
 20 66  1  0  0  0
 20 67  1  0  0  0
 21 68  1  0  0  0
 21 69  1  0  0  0
 22 70  1  0  0  0
 22 71  1  0  0  0
 23 72  1  0  0  0
 23 73  1  0  0  0
 24 74  1  0  0  0
 24 75  1  0  0  0
 25 76  1  0  0  0
 25 77  1  0  0  0
 34 78  1  0  0  0
 35 79  1  0  0  0
 37 80  1  0  0  0
 38 81  1  0  0  0
M  END
$$$$
