6lpr_ligand
  -I-interpret- 

 58 58  0  0  0  0  0  0  0  0999 V2000
   13.5780   42.0430   18.4200 N   0  3  0  0  0
   14.1690   40.6990   18.3580 C   0  0  0  0  0
   13.2970   39.4770   18.6320 C   0  0  0  0  0
   12.5400   39.4140   19.6290 O   0  0  0  0  0
   15.3240   40.4650   19.3150 C   0  0  0  0  0
   13.4670   38.5180   17.7330 N   0  0  0  0  0
   12.6800   37.2760   17.9110 C   0  0  0  0  0
   13.6420   36.1620   17.5290 C   0  0  0  0  0
   14.5400   36.4300   16.7330 O   0  0  0  0  0
   11.4900   37.3110   16.9680 C   0  0  0  0  0
   13.3560   35.0200   18.1060 N   0  0  0  0  0
   14.1460   33.8120   17.7590 C   0  0  0  0  0
   13.8460   33.4360   16.2940 C   0  0  0  0  0
   12.6630   33.6360   15.8880 O   0  0  0  0  0
   13.5210   32.7550   18.6780 C   0  0  0  0  0
   12.8180   33.5360   19.7640 C   0  0  0  0  0
   12.2210   34.7250   19.0040 C   0  0  0  0  0
   14.8030   32.9010   15.5620 N   0  0  0  0  0
   14.5770   32.4300   14.1770 C   0  0  0  0  0
   15.4350   33.2780   13.2290 C   0  0  0  0  0
   15.0690   34.7400   13.1740 C   0  0  0  0  0
   16.1110   35.4320   12.2800 C   0  0  0  0  0
   15.9840   36.9560   12.2520 C   0  0  0  0  0
   14.8880   30.8970   14.0750 B   0  0  0  0  0
   14.9350   30.3530   12.7090 O   0  0  0  0  0
   14.0040   30.0840   15.0000 O   0  0  0  0  0
   12.8143   42.1087   17.7471 H   0  0  0  0  0
   13.2201   42.2127   19.3599 H   0  0  0  0  0
   14.2909   42.7373   18.1959 H   0  0  0  0  0
   14.4328   40.7490   17.3016 H   0  0  0  0  0
   14.9454   40.4245   20.3363 H   0  0  0  0  0
   15.8122   39.5219   19.0695 H   0  0  0  0  0
   16.0407   41.2812   19.2239 H   0  0  0  0  0
   14.1127   38.6306   16.9514 H   0  0  0  0  0
   12.2926   37.1446   18.9213 H   0  0  0  0  0
   11.8397   37.4827   15.9500 H   0  0  0  0  0
   10.9616   36.3588   17.0163 H   0  0  0  0  0
   10.8176   38.1165   17.2633 H   0  0  0  0  0
   15.2243   33.9254   17.8704 H   0  0  0  0  0
   14.2756   32.0851   19.0901 H   0  0  0  0  0
   12.8293   32.1104   18.1356 H   0  0  0  0  0
   13.4899   33.8422   20.5658 H   0  0  0  0  0
   12.0637   32.9473   20.2862 H   0  0  0  0  0
   11.2770   34.5202   18.4991 H   0  0  0  0  0
   11.9028   35.5579   19.6310 H   0  0  0  0  0
   15.7351   32.8080   15.9656 H   0  0  0  0  0
   13.5334   32.5527   13.8873 H   0  0  0  0  0
   15.2849   32.8781   12.2262 H   0  0  0  0  0
   16.4592   33.2237   13.5981 H   0  0  0  0  0
   15.0690   35.1751   14.1734 H   0  0  0  0  0
   14.0657   34.8710   12.7686 H   0  0  0  0  0
   15.9560   35.0737   11.2623 H   0  0  0  0  0
   17.0952   35.1948   12.6839 H   0  0  0  0  0
   14.9989   37.2303   11.8746 H   0  0  0  0  0
   16.1101   37.3484   13.2611 H   0  0  0  0  0
   16.7528   37.3715   11.6005 H   0  0  0  0  0
   15.1303   29.4138   12.7463 H   0  0  0  0  0
   14.2210   29.1530   14.9118 H   0  0  0  0  0
  1  2  1  0  0  0
  2  3  1  0  0  0
  2  5  1  0  0  0
  3  4  2  0  0  0
  3  6  1  0  0  0
  6  7  1  0  0  0
  7  8  1  0  0  0
  7 10  1  0  0  0
  8  9  2  0  0  0
  8 11  1  0  0  0
 11 12  1  0  0  0
 11 17  1  0  0  0
 12 13  1  0  0  0
 12 15  1  0  0  0
 13 14  2  0  0  0
 13 18  1  0  0  0
 15 16  1  0  0  0
 16 17  1  0  0  0
 18 19  1  0  0  0
 19 20  1  0  0  0
 19 24  1  0  0  0
 20 21  1  0  0  0
 21 22  1  0  0  0
 22 23  1  0  0  0
 24 25  1  0  0  0
 24 26  1  0  0  0
  1 27  1  0  0  0
  1 28  1  0  0  0
  1 29  1  0  0  0
  2 30  1  0  0  0
  5 31  1  0  0  0
  5 32  1  0  0  0
  5 33  1  0  0  0
  6 34  1  0  0  0
  7 35  1  0  0  0
 10 36  1  0  0  0
 10 37  1  0  0  0
 10 38  1  0  0  0
 12 39  1  0  0  0
 15 40  1  0  0  0
 15 41  1  0  0  0
 16 42  1  0  0  0
 16 43  1  0  0  0
 17 44  1  0  0  0
 17 45  1  0  0  0
 18 46  1  0  0  0
 19 47  1  0  0  0
 20 48  1  0  0  0
 20 49  1  0  0  0
 21 50  1  0  0  0
 21 51  1  0  0  0
 22 52  1  0  0  0
 22 53  1  0  0  0
 23 54  1  0  0  0
 23 55  1  0  0  0
 23 56  1  0  0  0
 25 57  1  0  0  0
 26 58  1  0  0  0
M  END
$$$$
