### 
### Created by X-TOOL on Mon Sep 10 21:12:44 2018
### 

@<TRIPOS>MOLECULE
6lpr_ligand
   58    58     1     0     0
SMALL
GAST_HUCK


@<TRIPOS>ATOM
      1 N          13.5780   42.0430   18.4200 N.4       1 ALA         0.2377
      2 CA         14.1690   40.6990   18.3580 C.3       1 ALA         0.0621
      3 C          13.2970   39.4770   18.6320 C.2       1 ALA         0.2264
      4 O          12.5400   39.4140   19.6290 O.2       1 ALA        -0.3907
      5 CB         15.3240   40.4650   19.3150 C.3       1 ALA        -0.0040
      6 N          13.4670   38.5180   17.7330 N.am      1 ALA        -0.2613
      7 CA         12.6800   37.2760   17.9110 C.3       1 ALA         0.1285
      8 C          13.6420   36.1620   17.5290 C.2       1 ALA         0.2061
      9 O          14.5400   36.4300   16.7330 O.2       1 ALA        -0.3942
     10 CB         11.4900   37.3110   16.9680 C.3       1 ALA        -0.0244
     11 N          13.3560   35.0200   18.1060 N.am      1 PRO        -0.2498
     12 CA         14.1460   33.8120   17.7590 C.3       1 PRO         0.1336
     13 C          13.8460   33.4360   16.2940 C.2       1 PRO         0.2010
     14 O          12.6630   33.6360   15.8880 O.2       1 PRO        -0.3946
     15 CB         13.5210   32.7550   18.6780 C.3       1 PRO        -0.0104
     16 CG         12.8180   33.5360   19.7640 C.3       1 PRO        -0.0281
     17 CD         12.2210   34.7250   19.0040 C.3       1 PRO         0.0369
     18 N          14.8030   32.9010   15.5620 N.am      1 BNO        -0.2918
     19 CA         14.5770   32.4300   14.1770 C.3       1 BNO         0.0532
     20 CB         15.4350   33.2780   13.2290 C.3       1 BNO        -0.0388
     21 CG         15.0690   34.7400   13.1740 C.3       1 BNO        -0.0524
     22 CD         16.1110   35.4320   12.2800 C.3       1 BNO        -0.0559
     23 CE         15.9840   36.9560   12.2520 C.3       1 BNO        -0.0653
     24 B          14.8880   30.8970   14.0750 B         1 BNO         0.7163
     25 O1         14.9350   30.3530   12.7090 O.3       1 BNO        -0.4967
     26 O2         14.0040   30.0840   15.0000 O.3       1 BNO        -0.4967
     27 H1         14.2856   42.7310   18.2149 H         1 ALA         0.2015
     28 H2         13.2091   42.2056   19.3439 H         1 ALA         0.2015
     29 H3         12.8340   42.1144   17.7437 H         1 ALA         0.2015
     30 H4         14.5482   40.6061   17.3296 H         1 ALA         0.1095
     31 H5         15.6971   39.4372   19.1950 H         1 ALA         0.0310
     32 H6         14.9788   40.6113   20.3491 H         1 ALA         0.0310
     33 H7         16.1331   41.1768   19.0943 H         1 ALA         0.0310
     34 H8         14.1000   38.6284   16.9668 H         1 ALA         0.1884
     35 H9         12.3369   37.1623   18.9499 H         1 ALA         0.0797
     36 H10        10.8973   36.3926   17.0913 H         1 ALA         0.0277
     37 H11        11.8468   37.3805   15.9298 H         1 ALA         0.0277
     38 H12        10.8640   38.1852   17.1999 H         1 ALA         0.0277
     39 H13        15.2249   33.9421   17.9293 H         1 PRO         0.0802
     40 H14        14.3007   32.1106   19.1101 H         1 PRO         0.0313
     41 H15        12.8016   32.1369   18.1208 H         1 PRO         0.0313
     42 H16        13.5299   33.8747   20.5311 H         1 PRO         0.0287
     43 H17        12.0289   32.9329   20.2368 H         1 PRO         0.0287
     44 H18        11.3156   34.4448   18.4457 H         1 PRO         0.0524
     45 H19        11.9935   35.5689   19.6719 H         1 PRO         0.0524
     46 H20        15.7169   32.8098   15.9577 H         1 BNO         0.1840
     47 H21        13.5192   32.5816   13.9161 H         1 BNO         0.0431
     48 H22        15.3353   32.8630   12.2152 H         1 BNO         0.0275
     49 H23        16.4825   33.2006   13.5556 H         1 BNO         0.0275
     50 H24        15.0915   35.1732   14.1848 H         1 BNO         0.0265
     51 H25        14.0633   34.8616   12.7453 H         1 BNO         0.0265
     52 H26        15.9927   35.0550   11.2534 H         1 BNO         0.0263
     53 H27        17.1135   35.1741   12.6520 H         1 BNO         0.0263
     54 H28        16.7594   37.3765   11.5948 H         1 BNO         0.0230
     55 H29        16.1111   37.3533   13.2698 H         1 BNO         0.0230
     56 H30        14.9902   37.2342   11.8712 H         1 BNO         0.0230
     57 H31        15.2767   29.4669   12.7338 H         1 BNO         0.1667
     58 H32        14.0082   30.4757   15.8654 H         1 BNO         0.1667
@<TRIPOS>BOND
     1    1    2 1  
     2    2    3 1  
     3    2    5 1  
     4    3    4 2  
     5    3    6 am 
     6    6    7 1  
     7    7    8 1  
     8    7   10 1  
     9    8    9 2  
    10    8   11 am 
    11   11   12 1  
    12   11   17 1  
    13   12   13 1  
    14   12   15 1  
    15   13   14 2  
    16   13   18 am 
    17   15   16 1  
    18   16   17 1  
    19   18   19 1  
    20   19   20 1  
    21   19   24 1  
    22   20   21 1  
    23   21   22 1  
    24   22   23 1  
    25   24   25 1  
    26   24   26 1  
    27    1   27 1  
    28    1   28 1  
    29    1   29 1  
    30    2   30 1  
    31    5   31 1  
    32    5   32 1  
    33    5   33 1  
    34    6   34 1  
    35    7   35 1  
    36   10   36 1  
    37   10   37 1  
    38   10   38 1  
    39   12   39 1  
    40   15   40 1  
    41   15   41 1  
    42   16   42 1  
    43   16   43 1  
    44   17   44 1  
    45   17   45 1  
    46   18   46 1  
    47   19   47 1  
    48   20   48 1  
    49   20   49 1  
    50   21   50 1  
    51   21   51 1  
    52   22   52 1  
    53   22   53 1  
    54   23   54 1  
    55   23   55 1  
    56   23   56 1  
    57   25   57 1  
    58   26   58 1  
@<TRIPOS>SUBSTRUCTURE
     1 ALA         1

