3li2_ligand
  -I-interpret- 

 57 56  0  0  0  0  0  0  0  0999 V2000
   -5.7660   -6.1230    6.2080 C   0  0  0  0  0
   -6.2550   -4.6840    6.0100 C   0  0  0  0  0
   -5.2690   -3.7530    5.2810 C   0  0  0  0  0
   -5.7430   -2.2850    5.3810 C   0  0  0  0  0
   -4.6520   -1.2290    5.3970 C   0  0  0  0  0
   -4.1530   -0.8280    6.5800 N   0  0  0  0  0
   -2.9730    0.0370    6.6520 C   0  0  0  0  0
   -1.8110   -0.6300    7.3890 C   0  0  0  0  0
   -1.2030   -1.7190    6.4930 C   0  0  0  0  0
    0.1630   -2.1400    6.9750 C   0  0  0  0  0
    0.3450   -3.5760    6.8520 N   0  0  0  0  0
    1.4440   -4.1660    6.4050 C   0  0  0  0  0
    1.2690   -5.6250    5.9920 C   0  0  0  0  0
   -0.0460   -5.9040    5.2400 C   0  0  0  0  0
   -0.0290   -7.4020    4.8650 C   0  0  0  0  0
   -1.2700   -7.9720    4.1950 C   0  0  0  0  0
   -6.5890   -6.9590    6.6130 O   0  0  0  0  0
   -4.5920   -6.4660    5.9730 O   0  0  0  0  0
   -3.9900   -3.8940    5.8680 O   0  0  0  0  0
   -5.0760   -4.1890    3.8530 C   0  0  0  0  0
   -5.9990   -3.9990    3.0150 O   0  0  0  0  0
   -3.9710   -4.7190    3.5630 O   0  0  0  0  0
   -4.2720   -0.7690    4.3250 O   0  0  0  0  0
   -3.2880    1.4180    7.2220 C   0  0  0  0  0
   -2.5810    1.8940    8.1580 O   0  0  0  0  0
   -4.2540    2.0550    6.7100 O   0  0  0  0  0
    2.5550   -3.6270    6.3710 O   0  0  0  0  0
   -0.2380   -4.9700    4.0540 C   0  0  0  0  0
   -1.2000   -5.6310    6.0410 O   0  0  0  0  0
   -1.3780   -4.5120    3.8530 O   0  0  0  0  0
    0.6900   -4.6500    3.2900 O   0  0  0  0  0
   -2.2860   -7.2570    3.9790 O   0  0  0  0  0
   -1.2310   -9.1850    3.8560 O   0  0  0  0  0
   -6.4056   -4.2643    7.0046 H   0  0  0  0  0
   -7.1502   -4.7394    5.3907 H   0  0  0  0  0
   -6.2656   -2.1977    6.3335 H   0  0  0  0  0
   -6.3377   -2.0952    4.4875 H   0  0  0  0  0
   -4.6045   -1.1318    7.4427 H   0  0  0  0  0
   -2.6512    0.1931    5.6224 H   0  0  0  0  0
   -2.1736   -1.0779    8.3142 H   0  0  0  0  0
   -1.0516    0.1154    7.6251 H   0  0  0  0  0
   -1.1026   -1.3175    5.4846 H   0  0  0  0  0
   -1.8589   -2.5892    6.5171 H   0  0  0  0  0
    0.2606   -1.8660    8.0255 H   0  0  0  0  0
    0.9159   -1.6407    6.3651 H   0  0  0  0  0
   -0.4318   -4.1753    7.1308 H   0  0  0  0  0
    1.2551   -6.2218    6.9040 H   0  0  0  0  0
    2.0884   -5.8726    5.3172 H   0  0  0  0  0
    0.0685   -7.9396    5.8082 H   0  0  0  0  0
    0.7748   -7.5133    4.1372 H   0  0  0  0  0
   -4.0918   -5.7045    5.6703 H   0  0  0  0  0
   -4.0319   -3.6318    6.7906 H   0  0  0  0  0
   -6.7462   -3.5842    3.4522 H   0  0  0  0  0
   -1.9052    1.2575    8.4025 H   0  0  0  0  0
   -1.9926   -5.8186    5.5328 H   0  0  0  0  0
   -1.9793   -4.8487    4.5213 H   0  0  0  0  0
   -2.1262   -6.3687    4.3061 H   0  0  0  0  0
  1  2  1  0  0  0
  1 17  2  0  0  0
  1 18  1  0  0  0
  2  3  1  0  0  0
  3  4  1  0  0  0
  3 19  1  0  0  0
  3 20  1  0  0  0
  4  5  1  0  0  0
  5  6  1  0  0  0
  5 23  2  0  0  0
  6  7  1  0  0  0
  7  8  1  0  0  0
  7 24  1  0  0  0
  8  9  1  0  0  0
  9 10  1  0  0  0
 10 11  1  0  0  0
 11 12  1  0  0  0
 12 13  1  0  0  0
 12 27  2  0  0  0
 13 14  1  0  0  0
 14 15  1  0  0  0
 14 28  1  0  0  0
 14 29  1  0  0  0
 15 16  1  0  0  0
 16 32  1  0  0  0
 16 33  2  0  0  0
 20 21  1  0  0  0
 20 22  2  0  0  0
 24 25  1  0  0  0
 24 26  2  0  0  0
 28 30  1  0  0  0
 28 31  2  0  0  0
  2 34  1  0  0  0
  2 35  1  0  0  0
  4 36  1  0  0  0
  4 37  1  0  0  0
  6 38  1  0  0  0
  7 39  1  0  0  0
  8 40  1  0  0  0
  8 41  1  0  0  0
  9 42  1  0  0  0
  9 43  1  0  0  0
 10 44  1  0  0  0
 10 45  1  0  0  0
 11 46  1  0  0  0
 13 47  1  0  0  0
 13 48  1  0  0  0
 15 49  1  0  0  0
 15 50  1  0  0  0
 18 51  1  0  0  0
 19 52  1  0  0  0
 21 53  1  0  0  0
 25 54  1  0  0  0
 29 55  1  0  0  0
 30 56  1  0  0  0
 32 57  1  0  0  0
M  END
$$$$
