6qxd_ligand
  -I-interpret- 

 46 48  0  0  0  0  0  0  0  0999 V2000
   24.4640   17.8730   96.3160 C   0  0  0  0  0
   23.5600   16.7800   96.1570 C   0  0  0  0  0
   25.8140   17.6700   96.2130 C   0  0  0  0  0
   24.0740   15.4790   95.9010 C   0  0  0  0  0
   26.3250   16.3590   95.9470 C   0  0  0  0  0
   25.4250   15.2670   95.7900 C   0  0  0  0  0
   26.7680   18.8860   96.3920 C   0  0  0  0  0
   27.8190   18.6310   95.7440 N   0  3  0  0  0
   29.4480   19.5000   94.3320 C   0  0  0  0  0
   28.2800   19.7900   95.2400 C   0  0  0  0  0
   30.4320   18.8680   95.2030 N   0  0  0  0  0
   30.0620   17.7290   96.0260 C   0  0  0  0  0
   28.6320   17.9210   96.5430 C   0  0  0  0  0
   31.8020   19.4240   95.1970 C   0  0  0  0  0
   32.9930   18.9660   96.1010 C   0  0  0  0  0
   33.7730   18.4280   98.3400 C   0  0  0  0  0
   32.7500   18.7750   97.4720 C   0  0  0  0  0
   35.0550   18.2840   97.8640 C   0  0  0  0  0
   35.3280   18.4960   96.4970 C   0  0  0  0  0
   34.2910   18.8500   95.6130 C   0  0  0  0  0
   31.9940   20.3740   94.5000 O   0  0  0  0  0
   36.0590   17.9310   98.8900 N   0  0  0  0  0
   35.6630   18.0450  100.2360 O   0  0  0  0  0
   37.1660   17.5960   98.6280 O   0  0  0  0  0
   31.4810   18.9070   98.0420 N   0  0  0  0  0
   30.9610   17.8420   98.7550 O   0  0  0  0  0
   23.2200   14.4810   95.7630 F   0  0  0  0  0
   30.9060   19.8970   97.9490 O   0  0  0  0  0
   24.0785   18.8720   96.5200 H   0  0  0  0  0
   22.4845   16.9411   96.2312 H   0  0  0  0  0
   27.3999   16.1976   95.8650 H   0  0  0  0  0
   25.8074   14.2675   95.5827 H   0  0  0  0  0
   26.9950   19.0451   97.4462 H   0  0  0  0  0
   26.3007   19.7992   96.0235 H   0  0  0  0  0
   27.6915   18.0350   94.9261 H   0  0  0  0  0
   29.8363   20.4031   93.8611 H   0  0  0  0  0
   29.1687   18.8596   93.4953 H   0  0  0  0  0
   28.5991   20.4431   96.0523 H   0  0  0  0  0
   27.4900   20.2857   94.6759 H   0  0  0  0  0
   30.7476   17.6504   96.8697 H   0  0  0  0  0
   30.1158   16.8167   95.4319 H   0  0  0  0  0
   28.1952   16.9257   96.6248 H   0  0  0  0  0
   28.7117   18.4766   97.4774 H   0  0  0  0  0
   33.5619   18.2696   99.3976 H   0  0  0  0  0
   36.3459   18.3854   96.1232 H   0  0  0  0  0
   34.5023   19.0310   94.5591 H   0  0  0  0  0
  1  2  4  0  0  0
  1  3  4  0  0  0
  2  4  4  0  0  0
  3  5  4  0  0  0
  3  7  1  0  0  0
  4  6  4  0  0  0
  4 27  1  0  0  0
  5  6  4  0  0  0
  7  8  1  0  0  0
  8 10  1  0  0  0
  8 13  1  0  0  0
 10  9  1  0  0  0
  9 11  1  0  0  0
 11 12  1  0  0  0
 11 14  1  0  0  0
 12 13  1  0  0  0
 14 15  1  0  0  0
 14 21  2  0  0  0
 15 17  4  0  0  0
 15 20  4  0  0  0
 17 16  4  0  0  0
 16 18  4  0  0  0
 17 25  1  0  0  0
 18 19  4  0  0  0
 18 22  1  0  0  0
 19 20  4  0  0  0
 22 23  2  0  0  0
 22 24  2  0  0  0
 25 26  2  0  0  0
 25 28  2  0  0  0
  1 29  1  0  0  0
  2 30  1  0  0  0
  5 31  1  0  0  0
  6 32  1  0  0  0
  7 33  1  0  0  0
  7 34  1  0  0  0
  8 35  1  0  0  0
  9 36  1  0  0  0
  9 37  1  0  0  0
 10 38  1  0  0  0
 10 39  1  0  0  0
 12 40  1  0  0  0
 12 41  1  0  0  0
 13 42  1  0  0  0
 13 43  1  0  0  0
 16 44  1  0  0  0
 19 45  1  0  0  0
 20 46  1  0  0  0
M  END
$$$$
