5kh7_ligand
  -I-interpret- 

 29 30  0  0  0  0  0  0  0  0999 V2000
   -0.4660    6.7040    3.3900 C   0  0  0  0  0
   -0.4940    3.7950    6.4190 C   0  0  0  0  0
   -0.5810    1.9050    8.4830 C   0  0  0  0  0
    0.6610    3.2990    6.8090 N   0  0  0  0  0
   -1.7660    2.4990    8.0060 C   0  0  0  0  0
   -1.7430    3.3960    7.0150 C   0  0  0  0  0
    0.6070    2.3550    7.8360 N   0  0  0  0  0
    1.8850    1.8470    8.3480 C   0  0  0  0  0
    3.1020    2.3260    7.5920 C   0  0  0  0  0
    3.5890    3.7000    7.9660 C   0  0  0  0  0
    4.3290    4.2910    7.2360 O   0  0  0  0  0
    3.1270    4.2010    9.0770 O   0  0  0  0  0
   -0.5130    1.0860    9.3710 O   0  0  0  0  0
   -0.4370    4.8340    5.3730 C   0  0  0  0  0
    0.6040    4.8840    4.4570 C   0  0  0  0  0
   -1.4600    5.7630    5.2270 C   0  0  0  0  0
   -1.4950    6.6720    4.2480 N   0  0  0  0  0
    0.6040    5.8450    3.4640 C   0  0  0  0  0
   -0.4784    7.4484    2.5939 H   0  0  0  0  0
   -2.7204    2.2218    8.4537 H   0  0  0  0  0
   -2.6766    3.8287    6.6553 H   0  0  0  0  0
    1.8574    0.7617    8.2505 H   0  0  0  0  0
    1.9838    2.2093    9.3713 H   0  0  0  0  0
    2.8198    2.3696    6.5401 H   0  0  0  0  0
    3.9096    1.6329    7.8276 H   0  0  0  0  0
    2.5544    3.5587    9.5026 H   0  0  0  0  0
    1.4213    4.1657    4.5206 H   0  0  0  0  0
   -2.2767    5.7496    5.9488 H   0  0  0  0  0
    1.4311    5.9197    2.7580 H   0  0  0  0  0
  1 17  4  0  0  0
 18  1  4  0  0  0
  2  4  2  0  0  0
  2  6  1  0  0  0
 14  2  1  0  0  0
  5  3  1  0  0  0
  7  3  1  0  0  0
  3 13  2  0  0  0
  4  7  1  0  0  0
  6  5  2  0  0  0
  7  8  1  0  0  0
  8  9  1  0  0  0
  9 10  1  0  0  0
 10 11  2  0  0  0
 10 12  1  0  0  0
 15 14  4  0  0  0
 14 16  4  0  0  0
 15 18  4  0  0  0
 16 17  4  0  0  0
  1 19  1  0  0  0
  5 20  1  0  0  0
  6 21  1  0  0  0
  8 22  1  0  0  0
  8 23  1  0  0  0
  9 24  1  0  0  0
  9 25  1  0  0  0
 12 26  1  0  0  0
 15 27  1  0  0  0
 16 28  1  0  0  0
 18 29  1  0  0  0
M  END
$$$$
