### 
### Created by X-TOOL on Mon Sep 10 21:13:12 2018
### 

@<TRIPOS>MOLECULE
2lnw_ligand
  140   141     1     0     0
SMALL
GAST_HUCK


@<TRIPOS>ATOM
      1 N          21.2470   -6.7660   -0.5490 N.4       1 GLU         0.2380
      2 CA         20.9210   -6.2240    0.8020 C.3       1 GLU         0.0665
      3 C          20.4660   -4.7620    0.7290 C.2       1 GLU         0.2268
      4 O          20.8820   -3.9310    1.5380 O.2       1 GLU        -0.3907
      5 CB         22.1660   -6.3490    1.6890 C.3       1 GLU         0.0194
      6 CG         22.3170   -7.7120    2.3470 C.3       1 GLU         0.0075
      7 CD         21.6680   -7.7720    3.7150 C.2       1 GLU         0.0351
      8 OE1        22.3520   -7.4540    4.7100 O.co2     1 GLU        -0.5690
      9 OE2        20.4750   -8.1310    3.7910 O.co2     1 GLU        -0.5690
     10 N          19.6070   -4.4550   -0.2460 N.am      1 GLU        -0.2609
     11 CA         19.0960   -3.0950   -0.4240 C.3       1 GLU         0.1328
     12 C          17.6390   -3.1170   -0.8870 C.2       1 GLU         0.2065
     13 O          17.2200   -4.0380   -1.5920 O.2       1 GLU        -0.3942
     14 CB         19.9530   -2.3310   -1.4380 C.3       1 GLU        -0.0008
     15 CG         21.2650   -1.8180   -0.8680 C.3       1 GLU         0.0044
     16 CD         22.2600   -1.4340   -1.9470 C.2       1 GLU         0.0350
     17 OE1        22.5830   -2.2960   -2.7910 O.co2     1 GLU        -0.5690
     18 OE2        22.7140   -0.2710   -1.9480 O.co2     1 GLU        -0.5690
     19 N          16.8440   -2.1010   -0.4930 N.am      1 PRO        -0.2498
     20 CA         15.4240   -2.0060   -0.8650 C.3       1 PRO         0.1338
     21 C          15.2210   -1.6610   -2.3400 C.2       1 PRO         0.2041
     22 O          15.5640   -0.5640   -2.7830 O.2       1 PRO        -0.3944
     23 CB         14.9000   -0.8780    0.0270 C.3       1 PRO        -0.0104
     24 CG         16.0940   -0.0300    0.3070 C.3       1 PRO        -0.0281
     25 CD         17.2690   -0.9680    0.3550 C.3       1 PRO         0.0369
     26 N          14.6550   -2.6010   -3.0950 N.am      1 VAL        -0.2635
     27 CA         14.4040   -2.3900   -4.5170 C.3       1 VAL         0.1333
     28 C          13.0330   -1.7480   -4.7390 C.2       1 VAL         0.2044
     29 O          12.9460   -0.5620   -5.0680 O.2       1 VAL        -0.3944
     30 CB         14.4910   -3.7070   -5.3180 C.3       1 VAL        -0.0063
     31 CG1        14.4180   -3.4270   -6.8120 C.3       1 VAL        -0.0584
     32 CG2        15.7680   -4.4630   -4.9710 C.3       1 VAL        -0.0584
     33 N          11.9670   -2.5300   -4.5520 N.am      1 PTR        -0.2607
     34 CA         10.6010   -2.0320   -4.7290 C.3       1 PTR         0.1468
     35 C          10.3870   -1.5080   -6.1530 C.2       1 PTR         0.2074
     36 O          11.2880   -1.5820   -6.9900 O.2       1 PTR        -0.3941
     37 CB         10.3040   -0.9310   -3.7030 C.3       1 PTR         0.0400
     38 CG         10.0660   -1.4530   -2.3020 C.ar      1 PTR        -0.0004
     39 CD1        11.1130   -1.9360   -1.5240 C.ar      1 PTR        -0.0239
     40 CD2         8.7890   -1.4630   -1.7600 C.ar      1 PTR        -0.0239
     41 CE1        10.8900   -2.4150   -0.2460 C.ar      1 PTR         0.0115
     42 CE2         8.5590   -1.9380   -0.4840 C.ar      1 PTR         0.0115
     43 CZ          9.6110   -2.4130    0.2690 C.ar      1 PTR         0.1728
     44 OH          9.3850   -2.8840    1.5240 O.3       1 PTR        -0.2040
     45 P           8.7180   -4.3120    1.8590 P.3       1 PTR         0.1348
     46 O1P         8.5520   -4.4720    3.4520 O.co2     1 PTR        -0.6653
     47 O2P         9.6590   -5.4910    1.2950 O.co2     1 PTR        -0.6653
     48 O3P         7.3880   -4.3960    1.2160 O.co2     1 PTR        -0.6653
     49 N           9.1880   -0.9840   -6.4250 N.am      1 GLU        -0.2634
     50 CA          8.8660   -0.4520   -7.7520 C.3       1 GLU         0.1325
     51 C           9.5410    0.9040   -7.9700 C.2       1 GLU         0.2040
     52 O          10.3380    1.0680   -8.8950 O.2       1 GLU        -0.3944
     53 CB          7.3480   -0.3160   -7.9240 C.3       1 GLU        -0.0008
     54 CG          6.7210   -1.4310   -8.7480 C.3       1 GLU         0.0044
     55 CD          7.0230   -1.3080  -10.2290 C.2       1 GLU         0.0350
     56 OE1         6.2980   -0.5650  -10.9240 O.co2     1 GLU        -0.5690
     57 OE2         7.9840   -1.9560  -10.6940 O.co2     1 GLU        -0.5690
     58 N           9.2150    1.8660   -7.1040 N.am      1 GLU        -0.2636
     59 CA          9.7810    3.2180   -7.1770 C.3       1 GLU         0.1325
     60 C           9.3260    3.9540   -8.4350 C.2       1 GLU         0.2040
     61 O           9.0580    3.3360   -9.4660 O.2       1 GLU        -0.3944
     62 CB         11.3100    3.1620   -7.1370 C.3       1 GLU        -0.0008
     63 CG         11.9540    4.4580   -6.6690 C.3       1 GLU         0.0044
     64 CD         13.4540    4.4710   -6.8770 C.2       1 GLU         0.0350
     65 OE1        14.1460    3.6400   -6.2510 O.co2     1 GLU        -0.5690
     66 OE2        13.9360    5.3100   -7.6650 O.co2     1 GLU        -0.5690
     67 N           9.2440    5.2840   -8.3410 N.am      1 VAL        -0.2635
     68 CA          8.8240    6.1090   -9.4730 C.3       1 VAL         0.1332
     69 C           9.7770    5.9460  -10.6600 C.2       1 VAL         0.2034
     70 O           9.3350    5.8640  -11.8080 O.2       1 VAL        -0.3944
     71 CB          8.7180    7.6050   -9.0900 C.3       1 VAL        -0.0063
     72 CG1         7.6110    7.8120   -8.0680 C.3       1 VAL        -0.0584
     73 CG2        10.0450    8.1450   -8.5620 C.3       1 VAL        -0.0584
     74 N          11.0810    5.8870  -10.3750 N.am      1 GLY        -0.2722
     75 CA         12.0720    5.7220  -11.4300 C.3       1 GLY         0.0833
     76 C          12.3730    7.0110  -12.1780 C.2       1 GLY         0.0570
     77 O          11.6270    7.9980  -12.0030 O.co2     1 GLY        -0.5669
     78 OXT        13.3590    7.0310  -12.9430 O.co2     1 GLY        -0.5669
     79 H          20.4275   -6.6897   -1.1515 H         1 GLU         0.2015
     80 H          22.0172   -6.2320   -0.9515 H         1 GLU         0.2015
     81 H          21.5184   -7.7456   -0.4646 H         1 GLU         0.2015
     82 H          20.0953   -6.7969    1.2241 H         1 GLU         0.1099
     83 H          22.0722   -5.6118    2.4864 H         1 GLU         0.0363
     84 H          23.0364   -6.1983    1.0504 H         1 GLU         0.0363
     85 H          23.3818   -7.9089    2.4714 H         1 GLU         0.0434
     86 H          21.8272   -8.4486    1.7102 H         1 GLU         0.0434
     87 H          19.2984   -5.1883   -0.8843 H         1 GLU         0.1885
     88 H          19.1466   -2.5870    0.5391 H         1 GLU         0.0801
     89 H          19.3778   -1.4637   -1.7620 H         1 GLU         0.0330
     90 H          20.1970   -3.0226   -2.2444 H         1 GLU         0.0330
     91 H          21.7073   -2.6171   -0.2731 H         1 GLU         0.0433
     92 H          21.0489   -0.9268   -0.2788 H         1 GLU         0.0433
     93 H          14.9060   -2.9552   -0.7282 H         1 PRO         0.0802
     94 H          14.4493   -1.2603    0.9429 H         1 PRO         0.0313
     95 H          14.1047   -0.3123   -0.4583 H         1 PRO         0.0313
     96 H          15.9821    0.5100    1.2472 H         1 PRO         0.0287
     97 H          16.2273    0.7296   -0.4633 H         1 PRO         0.0287
     98 H          18.1884   -0.5030   -0.0007 H         1 PRO         0.0524
     99 H          17.5145   -1.2769    1.3711 H         1 PRO         0.0524
    100 H          14.3907   -3.4894   -2.6692 H         1 VAL         0.1883
    101 H          15.1814   -1.7170   -4.8786 H         1 VAL         0.0802
    102 H          13.6416   -4.3334   -5.0456 H         1 VAL         0.0343
    103 H          13.4739   -2.9333   -7.0421 H         1 VAL         0.0234
    104 H          15.2471   -2.7808   -7.1002 H         1 VAL         0.0234
    105 H          14.4809   -4.3671   -7.3600 H         1 VAL         0.0234
    106 H          16.6321   -3.8443   -5.2129 H         1 VAL         0.0234
    107 H          15.7729   -4.6958   -3.9062 H         1 VAL         0.0234
    108 H          15.8091   -5.3877   -5.5466 H         1 VAL         0.0234
    109 H          12.1080   -3.5023   -4.2780 H         1 PTR         0.1886
    110 H           9.9111   -2.8604   -4.5683 H         1 PTR         0.0840
    111 H           9.3923   -0.4257   -4.0218 H         1 PTR         0.0584
    112 H          11.1760   -0.2781   -3.6638 H         1 PTR         0.0584
    113 H          12.1253   -1.9370   -1.9281 H         1 PTR         0.0703
    114 H           7.9530   -1.0896   -2.3514 H         1 PTR         0.0703
    115 H          11.7206   -2.7920    0.3508 H         1 PTR         0.0736
    116 H           7.5491   -1.9373   -0.0738 H         1 PTR         0.0736
    117 H           8.4800   -0.9536   -5.6913 H         1 GLU         0.1883
    118 H           9.2426   -1.1525   -8.4973 H         1 GLU         0.0801
    119 H           7.1631    0.6205   -8.4503 H         1 GLU         0.0330
    120 H           6.9032   -0.3571   -6.9297 H         1 GLU         0.0330
    121 H           5.6399   -1.3721   -8.6217 H         1 GLU         0.0433
    122 H           7.1358   -2.3770   -8.4001 H         1 GLU         0.0433
    123 H           8.5469    1.6533   -6.3632 H         1 GLU         0.1883
    124 H           9.4158    3.7692   -6.3105 H         1 GLU         0.0801
    125 H          11.6570    2.9725   -8.1527 H         1 GLU         0.0330
    126 H          11.5903    2.3829   -6.4282 H         1 GLU         0.0330
    127 H          11.7625    4.5612   -5.6009 H         1 GLU         0.0433
    128 H          11.5274    5.2742   -7.2520 H         1 GLU         0.0433
    129 H           9.4803    5.7355   -7.4574 H         1 VAL         0.1883
    130 H           7.8328    5.7604   -9.7631 H         1 VAL         0.0802
    131 H           8.4722    8.1638   -9.9930 H         1 VAL         0.0343
    132 H           6.6615    7.4847   -8.4915 H         1 VAL         0.0234
    133 H           7.8310    7.2300   -7.1730 H         1 VAL         0.0234
    134 H           7.5499    8.8692   -7.8096 H         1 VAL         0.0234
    135 H          10.3380    7.5821   -7.6758 H         1 VAL         0.0234
    136 H          10.8105    8.0393   -9.3307 H         1 VAL         0.0234
    137 H           9.9305    9.1978   -8.3039 H         1 VAL         0.0234
    138 H          11.3871    5.9585   -9.4046 H         1 GLY         0.1873
    139 H          11.6713    5.0087  -12.1502 H         1 GLY         0.0689
    140 H          12.9984    5.3878  -10.9629 H         1 GLY         0.0689
@<TRIPOS>BOND
     1    1    2 1  
     2    2    3 1  
     3    2    5 1  
     4    3    4 2  
     5    3   10 am 
     6    5    6 1  
     7    6    7 1  
     8    7    8 ar 
     9    7    9 ar 
    10   10   11 1  
    11   11   12 1  
    12   11   14 1  
    13   12   13 2  
    14   12   19 am 
    15   14   15 1  
    16   15   16 1  
    17   16   17 ar 
    18   16   18 ar 
    19   19   20 1  
    20   19   25 1  
    21   20   21 1  
    22   20   23 1  
    23   21   22 2  
    24   21   26 am 
    25   23   24 1  
    26   24   25 1  
    27   26   27 1  
    28   27   28 1  
    29   27   30 1  
    30   28   29 2  
    31   28   33 am 
    32   30   31 1  
    33   30   32 1  
    34   33   34 1  
    35   34   35 1  
    36   34   37 1  
    37   35   36 2  
    38   35   49 am 
    39   37   38 1  
    40   38   39 ar 
    41   38   40 ar 
    42   39   41 ar 
    43   40   42 ar 
    44   41   43 ar 
    45   42   43 ar 
    46   43   44 1  
    47   44   45 1  
    48   45   46 ar 
    49   45   47 ar 
    50   45   48 ar 
    51   49   50 1  
    52   50   51 1  
    53   50   53 1  
    54   51   52 2  
    55   51   58 am 
    56   53   54 1  
    57   54   55 1  
    58   55   56 ar 
    59   55   57 ar 
    60   58   59 1  
    61   59   60 1  
    62   59   62 1  
    63   60   61 2  
    64   60   67 am 
    65   62   63 1  
    66   63   64 1  
    67   64   65 ar 
    68   64   66 ar 
    69   67   68 1  
    70   68   69 1  
    71   68   71 1  
    72   69   70 2  
    73   69   74 am 
    74   71   72 1  
    75   71   73 1  
    76   74   75 1  
    77   75   76 1  
    78   76   77 ar 
    79   76   78 ar 
    80    1   79 1  
    81    1   80 1  
    82    1   81 1  
    83    2   82 1  
    84    5   83 1  
    85    5   84 1  
    86    6   85 1  
    87    6   86 1  
    88   10   87 1  
    89   11   88 1  
    90   14   89 1  
    91   14   90 1  
    92   15   91 1  
    93   15   92 1  
    94   20   93 1  
    95   23   94 1  
    96   23   95 1  
    97   24   96 1  
    98   24   97 1  
    99   25   98 1  
   100   25   99 1  
   101   26  100 1  
   102   27  101 1  
   103   30  102 1  
   104   31  103 1  
   105   31  104 1  
   106   31  105 1  
   107   32  106 1  
   108   32  107 1  
   109   32  108 1  
   110   33  109 1  
   111   34  110 1  
   112   37  111 1  
   113   37  112 1  
   114   39  113 1  
   115   40  114 1  
   116   41  115 1  
   117   42  116 1  
   118   49  117 1  
   119   50  118 1  
   120   53  119 1  
   121   53  120 1  
   122   54  121 1  
   123   54  122 1  
   124   58  123 1  
   125   59  124 1  
   126   62  125 1  
   127   62  126 1  
   128   63  127 1  
   129   63  128 1  
   130   67  129 1  
   131   68  130 1  
   132   71  131 1  
   133   72  132 1  
   134   72  133 1  
   135   72  134 1  
   136   73  135 1  
   137   73  136 1  
   138   73  137 1  
   139   74  138 1  
   140   75  139 1  
   141   75  140 1  
@<TRIPOS>SUBSTRUCTURE
     1 GLU         1

