2lnw_ligand
  -I-interpret- 

147148  0  0  0  0  0  0  0  0999 V2000
   21.2470   -6.7660   -0.5490 N   0  3  0  0  0
   20.9210   -6.2240    0.8020 C   0  0  0  0  0
   20.4660   -4.7620    0.7290 C   0  0  0  0  0
   20.8820   -3.9310    1.5380 O   0  0  0  0  0
   22.1660   -6.3490    1.6890 C   0  0  0  0  0
   22.3170   -7.7120    2.3470 C   0  0  0  0  0
   21.6680   -7.7720    3.7150 C   0  0  0  0  0
   22.3520   -7.4540    4.7100 O   0  0  0  0  0
   20.4750   -8.1310    3.7910 O   0  0  0  0  0
   19.6070   -4.4550   -0.2460 N   0  0  0  0  0
   19.0960   -3.0950   -0.4240 C   0  0  0  0  0
   17.6390   -3.1170   -0.8870 C   0  0  0  0  0
   17.2200   -4.0380   -1.5920 O   0  0  0  0  0
   19.9530   -2.3310   -1.4380 C   0  0  0  0  0
   21.2650   -1.8180   -0.8680 C   0  0  0  0  0
   22.2600   -1.4340   -1.9470 C   0  0  0  0  0
   22.5830   -2.2960   -2.7910 O   0  0  0  0  0
   22.7140   -0.2710   -1.9480 O   0  0  0  0  0
   16.8440   -2.1010   -0.4930 N   0  0  0  0  0
   15.4240   -2.0060   -0.8650 C   0  0  0  0  0
   15.2210   -1.6610   -2.3400 C   0  0  0  0  0
   15.5640   -0.5640   -2.7830 O   0  0  0  0  0
   14.9000   -0.8780    0.0270 C   0  0  0  0  0
   16.0940   -0.0300    0.3070 C   0  0  0  0  0
   17.2690   -0.9680    0.3550 C   0  0  0  0  0
   14.6550   -2.6010   -3.0950 N   0  0  0  0  0
   14.4040   -2.3900   -4.5170 C   0  0  0  0  0
   13.0330   -1.7480   -4.7390 C   0  0  0  0  0
   12.9460   -0.5620   -5.0680 O   0  0  0  0  0
   14.4910   -3.7070   -5.3180 C   0  0  0  0  0
   14.4180   -3.4270   -6.8120 C   0  0  0  0  0
   15.7680   -4.4630   -4.9710 C   0  0  0  0  0
   11.9670   -2.5300   -4.5520 N   0  0  0  0  0
   10.6010   -2.0320   -4.7290 C   0  0  0  0  0
   10.3870   -1.5080   -6.1530 C   0  0  0  0  0
   11.2880   -1.5820   -6.9900 O   0  0  0  0  0
   10.3040   -0.9310   -3.7030 C   0  0  0  0  0
   10.0660   -1.4530   -2.3020 C   0  0  0  0  0
   11.1130   -1.9360   -1.5240 C   0  0  0  0  0
    8.7890   -1.4630   -1.7600 C   0  0  0  0  0
   10.8900   -2.4150   -0.2460 C   0  0  0  0  0
    8.5590   -1.9380   -0.4840 C   0  0  0  0  0
    9.6110   -2.4130    0.2690 C   0  0  0  0  0
    9.3850   -2.8840    1.5240 O   0  0  0  0  0
    8.7180   -4.3120    1.8590 P   0  0  0  0  0
    8.5520   -4.4720    3.4520 O   0  0  0  0  0
    9.6590   -5.4910    1.2950 O   0  0  0  0  0
    7.3880   -4.3960    1.2160 O   0  0  0  0  0
    9.1880   -0.9840   -6.4250 N   0  0  0  0  0
    8.8660   -0.4520   -7.7520 C   0  0  0  0  0
    9.5410    0.9040   -7.9700 C   0  0  0  0  0
   10.3380    1.0680   -8.8950 O   0  0  0  0  0
    7.3480   -0.3160   -7.9240 C   0  0  0  0  0
    6.7210   -1.4310   -8.7480 C   0  0  0  0  0
    7.0230   -1.3080  -10.2290 C   0  0  0  0  0
    6.2980   -0.5650  -10.9240 O   0  0  0  0  0
    7.9840   -1.9560  -10.6940 O   0  0  0  0  0
    9.2150    1.8660   -7.1040 N   0  0  0  0  0
    9.7810    3.2180   -7.1770 C   0  0  0  0  0
    9.3260    3.9540   -8.4350 C   0  0  0  0  0
    9.0580    3.3360   -9.4660 O   0  0  0  0  0
   11.3100    3.1620   -7.1370 C   0  0  0  0  0
   11.9540    4.4580   -6.6690 C   0  0  0  0  0
   13.4540    4.4710   -6.8770 C   0  0  0  0  0
   14.1460    3.6400   -6.2510 O   0  0  0  0  0
   13.9360    5.3100   -7.6650 O   0  0  0  0  0
    9.2440    5.2840   -8.3410 N   0  0  0  0  0
    8.8240    6.1090   -9.4730 C   0  0  0  0  0
    9.7770    5.9460  -10.6600 C   0  0  0  0  0
    9.3350    5.8640  -11.8080 O   0  0  0  0  0
    8.7180    7.6050   -9.0900 C   0  0  0  0  0
    7.6110    7.8120   -8.0680 C   0  0  0  0  0
   10.0450    8.1450   -8.5620 C   0  0  0  0  0
   11.0810    5.8870  -10.3750 N   0  0  0  0  0
   12.0720    5.7220  -11.4300 C   0  0  0  0  0
   12.3730    7.0110  -12.1780 C   0  0  0  0  0
   11.6270    7.9980  -12.0030 O   0  0  0  0  0
   13.3590    7.0310  -12.9430 O   0  0  0  0  0
   20.4275   -6.6897   -1.1515 H   0  0  0  0  0
   22.0172   -6.2320   -0.9515 H   0  0  0  0  0
   21.5184   -7.7456   -0.4646 H   0  0  0  0  0
   20.0953   -6.7969    1.2241 H   0  0  0  0  0
   22.0722   -5.6118    2.4864 H   0  0  0  0  0
   23.0364   -6.1983    1.0504 H   0  0  0  0  0
   23.3818   -7.9089    2.4714 H   0  0  0  0  0
   21.8272   -8.4486    1.7102 H   0  0  0  0  0
   23.2364   -7.2126    4.4250 H   0  0  0  0  0
   19.2984   -5.1883   -0.8843 H   0  0  0  0  0
   19.1466   -2.5870    0.5391 H   0  0  0  0  0
   19.3778   -1.4637   -1.7620 H   0  0  0  0  0
   20.1970   -3.0226   -2.2444 H   0  0  0  0  0
   21.7073   -2.6171   -0.2731 H   0  0  0  0  0
   21.0489   -0.9268   -0.2788 H   0  0  0  0  0
   22.1181   -3.1149   -2.6043 H   0  0  0  0  0
   14.9060   -2.9552   -0.7282 H   0  0  0  0  0
   14.4493   -1.2603    0.9429 H   0  0  0  0  0
   14.1047   -0.3123   -0.4583 H   0  0  0  0  0
   15.9821    0.5100    1.2472 H   0  0  0  0  0
   16.2273    0.7296   -0.4633 H   0  0  0  0  0
   18.1884   -0.5030   -0.0007 H   0  0  0  0  0
   17.5145   -1.2769    1.3711 H   0  0  0  0  0
   14.3907   -3.4894   -2.6692 H   0  0  0  0  0
   15.1814   -1.7170   -4.8786 H   0  0  0  0  0
   13.6416   -4.3334   -5.0456 H   0  0  0  0  0
   13.4739   -2.9333   -7.0421 H   0  0  0  0  0
   15.2471   -2.7808   -7.1002 H   0  0  0  0  0
   14.4809   -4.3671   -7.3600 H   0  0  0  0  0
   16.6321   -3.8443   -5.2129 H   0  0  0  0  0
   15.7729   -4.6958   -3.9062 H   0  0  0  0  0
   15.8091   -5.3877   -5.5466 H   0  0  0  0  0
   12.1080   -3.5023   -4.2780 H   0  0  0  0  0
    9.9111   -2.8604   -4.5683 H   0  0  0  0  0
    9.3923   -0.4257   -4.0218 H   0  0  0  0  0
   11.1760   -0.2781   -3.6638 H   0  0  0  0  0
   12.1253   -1.9370   -1.9281 H   0  0  0  0  0
    7.9530   -1.0896   -2.3514 H   0  0  0  0  0
   11.7206   -2.7920    0.3508 H   0  0  0  0  0
    7.5491   -1.9373   -0.0738 H   0  0  0  0  0
    9.4147   -4.4176    3.8696 H   0  0  0  0  0
   10.5221   -5.4371    1.7118 H   0  0  0  0  0
    8.4800   -0.9536   -5.6913 H   0  0  0  0  0
    9.2426   -1.1525   -8.4973 H   0  0  0  0  0
    7.1631    0.6205   -8.4503 H   0  0  0  0  0
    6.9032   -0.3571   -6.9297 H   0  0  0  0  0
    5.6399   -1.3721   -8.6217 H   0  0  0  0  0
    7.1358   -2.3770   -8.4001 H   0  0  0  0  0
    5.6242   -0.1665  -10.3683 H   0  0  0  0  0
    8.5469    1.6533   -6.3632 H   0  0  0  0  0
    9.4158    3.7692   -6.3105 H   0  0  0  0  0
   11.6570    2.9725   -8.1527 H   0  0  0  0  0
   11.5903    2.3829   -6.4282 H   0  0  0  0  0
   11.7625    4.5612   -5.6009 H   0  0  0  0  0
   11.5274    5.2742   -7.2520 H   0  0  0  0  0
   13.5740    3.0954   -5.7052 H   0  0  0  0  0
    9.4803    5.7355   -7.4574 H   0  0  0  0  0
    7.8328    5.7604   -9.7631 H   0  0  0  0  0
    8.4722    8.1638   -9.9930 H   0  0  0  0  0
    6.6615    7.4847   -8.4915 H   0  0  0  0  0
    7.8310    7.2300   -7.1730 H   0  0  0  0  0
    7.5499    8.8692   -7.8096 H   0  0  0  0  0
   10.3380    7.5821   -7.6758 H   0  0  0  0  0
   10.8105    8.0393   -9.3307 H   0  0  0  0  0
    9.9305    9.1978   -8.3039 H   0  0  0  0  0
   11.3871    5.9585   -9.4046 H   0  0  0  0  0
   11.6713    5.0087  -12.1502 H   0  0  0  0  0
   12.9984    5.3878  -10.9629 H   0  0  0  0  0
   10.9348    7.7679  -11.3789 H   0  0  0  0  0
  1  2  1  0  0  0
  2  3  1  0  0  0
  2  5  1  0  0  0
  3  4  2  0  0  0
  3 10  1  0  0  0
  5  6  1  0  0  0
  6  7  1  0  0  0
  7  8  1  0  0  0
  7  9  2  0  0  0
 10 11  1  0  0  0
 11 12  1  0  0  0
 11 14  1  0  0  0
 12 13  2  0  0  0
 12 19  1  0  0  0
 14 15  1  0  0  0
 15 16  1  0  0  0
 16 17  1  0  0  0
 16 18  2  0  0  0
 19 20  1  0  0  0
 19 25  1  0  0  0
 20 21  1  0  0  0
 20 23  1  0  0  0
 21 22  2  0  0  0
 21 26  1  0  0  0
 23 24  1  0  0  0
 24 25  1  0  0  0
 26 27  1  0  0  0
 27 28  1  0  0  0
 27 30  1  0  0  0
 28 29  2  0  0  0
 28 33  1  0  0  0
 30 31  1  0  0  0
 30 32  1  0  0  0
 33 34  1  0  0  0
 34 35  1  0  0  0
 34 37  1  0  0  0
 35 36  2  0  0  0
 35 49  1  0  0  0
 37 38  1  0  0  0
 38 39  4  0  0  0
 38 40  4  0  0  0
 39 41  4  0  0  0
 40 42  4  0  0  0
 41 43  4  0  0  0
 42 43  4  0  0  0
 43 44  1  0  0  0
 44 45  1  0  0  0
 45 46  1  0  0  0
 45 47  1  0  0  0
 45 48  2  0  0  0
 49 50  1  0  0  0
 50 51  1  0  0  0
 50 53  1  0  0  0
 51 52  2  0  0  0
 51 58  1  0  0  0
 53 54  1  0  0  0
 54 55  1  0  0  0
 55 56  1  0  0  0
 55 57  2  0  0  0
 58 59  1  0  0  0
 59 60  1  0  0  0
 59 62  1  0  0  0
 60 61  2  0  0  0
 60 67  1  0  0  0
 62 63  1  0  0  0
 63 64  1  0  0  0
 64 65  1  0  0  0
 64 66  2  0  0  0
 67 68  1  0  0  0
 68 69  1  0  0  0
 68 71  1  0  0  0
 69 70  2  0  0  0
 69 74  1  0  0  0
 71 72  1  0  0  0
 71 73  1  0  0  0
 74 75  1  0  0  0
 75 76  1  0  0  0
 76 77  1  0  0  0
 76 78  2  0  0  0
  1 79  1  0  0  0
  1 80  1  0  0  0
  1 81  1  0  0  0
  2 82  1  0  0  0
  5 83  1  0  0  0
  5 84  1  0  0  0
  6 85  1  0  0  0
  6 86  1  0  0  0
  8 87  1  0  0  0
 10 88  1  0  0  0
 11 89  1  0  0  0
 14 90  1  0  0  0
 14 91  1  0  0  0
 15 92  1  0  0  0
 15 93  1  0  0  0
 17 94  1  0  0  0
 20 95  1  0  0  0
 23 96  1  0  0  0
 23 97  1  0  0  0
 24 98  1  0  0  0
 24 99  1  0  0  0
 25100  1  0  0  0
 25101  1  0  0  0
 26102  1  0  0  0
 27103  1  0  0  0
 30104  1  0  0  0
 31105  1  0  0  0
 31106  1  0  0  0
 31107  1  0  0  0
 32108  1  0  0  0
 32109  1  0  0  0
 32110  1  0  0  0
 33111  1  0  0  0
 34112  1  0  0  0
 37113  1  0  0  0
 37114  1  0  0  0
 39115  1  0  0  0
 40116  1  0  0  0
 41117  1  0  0  0
 42118  1  0  0  0
 46119  1  0  0  0
 47120  1  0  0  0
 49121  1  0  0  0
 50122  1  0  0  0
 53123  1  0  0  0
 53124  1  0  0  0
 54125  1  0  0  0
 54126  1  0  0  0
 56127  1  0  0  0
 58128  1  0  0  0
 59129  1  0  0  0
 62130  1  0  0  0
 62131  1  0  0  0
 63132  1  0  0  0
 63133  1  0  0  0
 65134  1  0  0  0
 67135  1  0  0  0
 68136  1  0  0  0
 71137  1  0  0  0
 72138  1  0  0  0
 72139  1  0  0  0
 72140  1  0  0  0
 73141  1  0  0  0
 73142  1  0  0  0
 73143  1  0  0  0
 74144  1  0  0  0
 75145  1  0  0  0
 75146  1  0  0  0
 77147  1  0  0  0
M  END
$$$$
