### 
### Created by X-TOOL on Mon Aug  2 16:12:52 2021
### 

@<TRIPOS>MOLECULE
6d1d_ligand
   29    30     1     0     0
SMALL
GAST_HUCK


@<TRIPOS>ATOM
      1 C01        14.4340   15.1440    0.7060 C.3       1 GTV        -0.0322
      2 C02        14.3730   14.2220    1.9210 C.ar      1 GTV        -0.0542
      3 C03        14.9880   13.0150    1.8330 C.ar      1 GTV        -0.0618
      4 C04        14.9760   12.1220    2.8720 C.ar      1 GTV        -0.0400
      5 C05        15.7230   10.8460    2.5020 C.3       1 GTV        -0.0303
      6 C06        14.2930   12.4450    4.0740 C.ar      1 GTV         0.0312
      7 C07        14.1720   11.5960    5.2180 C.2       1 GTV        -0.0129
      8 C08        14.5920   10.1260    5.2010 C.3       1 GTV         0.0582
      9 C13        13.4520   12.0280    6.2810 C.2       1 GTV         0.0067
     10 C14        12.9760   13.3230    6.3380 C.2       1 GTV         0.2434
     11 C17        13.7040   13.6540    4.1530 C.ar      1 GTV         0.1312
     12 C18        13.7360   14.5610    3.0710 C.ar      1 GTV        -0.0257
     13 O10        12.1410    9.0620    5.4650 O.co2     1 GTV        -0.5604
     14 O11        13.7030    7.6810    4.3440 O.co2     1 GTV        -0.5604
     15 O12        12.6200    9.6200    3.2670 O.co2     1 GTV        -0.5604
     16 O15        12.4330   13.6900    7.2800 O.2       1 GTV        -0.3890
     17 O16        13.0850   14.0210    5.2520 O.3       1 GTV        -0.2177
     18 P09        13.1820    9.0600    4.5480 P.3       1 GTV         0.0732
     19 H1         15.0010   14.6531   -0.0987 H         1 GTV         0.0401
     20 H2         14.9318   16.0846    0.9841 H         1 GTV         0.0401
     21 H3         13.4132   15.3586    0.3569 H         1 GTV         0.0401
     22 H4         15.5024   12.7506    0.9161 H         1 GTV         0.0434
     23 H5         16.1321   10.9423    1.4854 H         1 GTV         0.0406
     24 H6         15.0308    9.9919    2.5392 H         1 GTV         0.0406
     25 H7         16.5453   10.6829    3.2142 H         1 GTV         0.0406
     26 H8         14.8459    9.8079    6.2229 H         1 GTV         0.0656
     27 H9         15.4708   10.0058    4.5505 H         1 GTV         0.0656
     28 H10        13.2455   11.3439    7.1028 H         1 GTV         0.0396
     29 H11        13.2523   15.5271    3.1586 H         1 GTV         0.0449
@<TRIPOS>BOND
     1    1    2 1  
     2    2    3 ar 
     3    2   12 ar 
     4    3    4 ar 
     5    4    5 1  
     6    4    6 ar 
     7    6    7 1  
     8    6   11 ar 
     9    7    8 1  
    10    7    9 2  
    11    8   18 1  
    12    9   10 1  
    13   10   16 2  
    14   10   17 1  
    15   11   12 ar 
    16   11   17 1  
    17   18   13 ar 
    18   18   14 ar 
    19   18   15 ar 
    20    1   19 1  
    21    1   20 1  
    22    1   21 1  
    23    3   22 1  
    24    5   23 1  
    25    5   24 1  
    26    5   25 1  
    27    8   26 1  
    28    8   27 1  
    29    9   28 1  
    30   12   29 1  
@<TRIPOS>SUBSTRUCTURE
     1 GTV         1

