6d1d_ligand
  -I-interpret- 

 31 32  0  0  0  0  0  0  0  0999 V2000
   14.4340   15.1440    0.7060 C   0  0  0  0  0
   14.3730   14.2220    1.9210 C   0  0  0  0  0
   14.9880   13.0150    1.8330 C   0  0  0  0  0
   14.9760   12.1220    2.8720 C   0  0  0  0  0
   15.7230   10.8460    2.5020 C   0  0  0  0  0
   14.2930   12.4450    4.0740 C   0  0  0  0  0
   14.1720   11.5960    5.2180 C   0  0  0  0  0
   14.5920   10.1260    5.2010 C   0  0  0  0  0
   13.4520   12.0280    6.2810 C   0  0  0  0  0
   12.9760   13.3230    6.3380 C   0  0  0  0  0
   13.7040   13.6540    4.1530 C   0  0  0  0  0
   13.7360   14.5610    3.0710 C   0  0  0  0  0
   12.1410    9.0620    5.4650 O   0  0  0  0  0
   13.7030    7.6810    4.3440 O   0  0  0  0  0
   12.6200    9.6200    3.2670 O   0  0  0  0  0
   12.4330   13.6900    7.2800 O   0  0  0  0  0
   13.0850   14.0210    5.2520 O   0  0  0  0  0
   13.1820    9.0600    4.5480 P   0  0  0  0  0
   15.4749   15.3704    0.4752 H   0  0  0  0  0
   13.9706   14.6493   -0.1476 H   0  0  0  0  0
   13.8999   16.0684    0.9258 H   0  0  0  0  0
   15.5052   12.7492    0.9111 H   0  0  0  0  0
   15.2456   10.3847    1.6375 H   0  0  0  0  0
   16.7577   11.0893    2.2605 H   0  0  0  0  0
   15.6981   10.1547    3.3443 H   0  0  0  0  0
   14.8389    9.8119    6.2152 H   0  0  0  0  0
   15.4602   10.0087    4.5524 H   0  0  0  0  0
   13.2453   11.3433    7.1035 H   0  0  0  0  0
   13.2496   15.5325    3.1591 H   0  0  0  0  0
   14.4211    7.7024    3.7072 H   0  0  0  0  0
   13.3083    9.6384    2.5980 H   0  0  0  0  0
  1  2  1  0  0  0
  2  3  4  0  0  0
  2 12  4  0  0  0
  3  4  4  0  0  0
  4  5  1  0  0  0
  4  6  4  0  0  0
  6  7  1  0  0  0
  6 11  4  0  0  0
  7  8  1  0  0  0
  7  9  2  0  0  0
  8 18  1  0  0  0
  9 10  1  0  0  0
 10 16  2  0  0  0
 10 17  1  0  0  0
 11 12  4  0  0  0
 11 17  1  0  0  0
 18 13  2  0  0  0
 18 14  1  0  0  0
 18 15  1  0  0  0
  1 19  1  0  0  0
  1 20  1  0  0  0
  1 21  1  0  0  0
  3 22  1  0  0  0
  5 23  1  0  0  0
  5 24  1  0  0  0
  5 25  1  0  0  0
  8 26  1  0  0  0
  8 27  1  0  0  0
  9 28  1  0  0  0
 12 29  1  0  0  0
 14 30  1  0  0  0
 15 31  1  0  0  0
M  END
$$$$
