3gww_ligand
  -I-interpret- 

 41 42  0  0  0  0  0  0  0  0999 V2000
   28.6310   24.0470   19.2590 F   0  0  0  0  0
   27.8130   24.5380   20.1680 C   0  0  0  0  0
   26.6790   24.9030   19.5960 F   0  0  0  0  0
   28.3760   25.5930   20.7270 F   0  0  0  0  0
   27.5440   23.4780   21.1970 C   0  0  0  0  0
   27.9580   23.6640   22.5170 C   0  0  0  0  0
   27.7110   22.6790   23.4710 C   0  0  0  0  0
   27.0500   21.5070   23.1090 C   0  0  0  0  0
   26.6370   21.3170   21.7840 C   0  0  0  0  0
   26.8840   22.3020   20.8290 C   0  0  0  0  0
   26.8260   20.5660   24.0840 O   0  0  0  0  0
   26.0580   19.3770   23.8770 C   0  0  0  0  0
   26.4320   18.3540   24.9520 C   0  0  0  0  0
   27.9530   18.2080   25.0380 C   0  0  0  0  0
   28.4010   16.8520   25.3040 N   0  3  0  0  0
   28.9220   16.0250   24.2290 C   0  0  0  0  0
   24.5980   19.6850   23.8680 C   0  0  0  0  0
   23.7960   19.1640   22.8490 C   0  0  0  0  0
   22.4280   19.4410   22.8160 C   0  0  0  0  0
   21.8540   20.2480   23.7990 C   0  0  0  0  0
   22.6510   20.7740   24.8160 C   0  0  0  0  0
   24.0190   20.4980   24.8500 C   0  0  0  0  0
   28.4749   24.5805   22.8017 H   0  0  0  0  0
   28.0351   22.8254   24.5014 H   0  0  0  0  0
   26.1225   20.3990   21.4998 H   0  0  0  0  0
   26.5632   22.1555   19.7976 H   0  0  0  0  0
   26.2868   18.9487   22.9011 H   0  0  0  0  0
   25.9955   17.3893   24.6932 H   0  0  0  0  0
   26.0516   18.6940   25.9152 H   0  0  0  0  0
   28.2916   18.8294   25.8671 H   0  0  0  0  0
   28.3616   18.5001   24.0706 H   0  0  0  0  0
   27.5594   16.3646   25.6113 H   0  0  0  0  0
   29.1915   16.9679   25.9382 H   0  0  0  0  0
   28.1555   15.9001   23.4642 H   0  0  0  0  0
   29.7970   16.5070   23.7929 H   0  0  0  0  0
   29.2030   15.0496   24.6262 H   0  0  0  0  0
   24.2410   18.5379   22.0757 H   0  0  0  0  0
   21.8076   19.0264   22.0214 H   0  0  0  0  0
   20.7865   20.4667   23.7724 H   0  0  0  0  0
   22.2042   21.4024   25.5864 H   0  0  0  0  0
   24.6382   20.9166   25.6433 H   0  0  0  0  0
  1  2  1  0  0  0
  2  3  1  0  0  0
  2  4  1  0  0  0
  2  5  1  0  0  0
  5  6  4  0  0  0
  5 10  4  0  0  0
  6  7  4  0  0  0
  7  8  4  0  0  0
  8  9  4  0  0  0
  8 11  1  0  0  0
  9 10  4  0  0  0
 11 12  1  0  0  0
 12 13  1  0  0  0
 12 17  1  0  0  0
 13 14  1  0  0  0
 14 15  1  0  0  0
 15 16  1  0  0  0
 17 18  4  0  0  0
 17 22  4  0  0  0
 18 19  4  0  0  0
 19 20  4  0  0  0
 20 21  4  0  0  0
 21 22  4  0  0  0
  6 23  1  0  0  0
  7 24  1  0  0  0
  9 25  1  0  0  0
 10 26  1  0  0  0
 12 27  1  0  0  0
 13 28  1  0  0  0
 13 29  1  0  0  0
 14 30  1  0  0  0
 14 31  1  0  0  0
 15 32  1  0  0  0
 15 33  1  0  0  0
 16 34  1  0  0  0
 16 35  1  0  0  0
 16 36  1  0  0  0
 18 37  1  0  0  0
 19 38  1  0  0  0
 20 39  1  0  0  0
 21 40  1  0  0  0
 22 41  1  0  0  0
M  END
$$$$
