6ega_ligand
  -I-interpret- 

 70 75  0  0  0  0  0  0  0  0999 V2000
    0.5020   25.9260   26.2060 C   0  0  0  0  0
    1.3910   26.7930   25.5760 C   0  0  0  0  0
   -0.5030   26.4160   27.0380 C   0  0  0  0  0
    5.2230   28.6760   23.4760 C   0  0  0  0  0
    6.2160   29.3650   22.8060 C   0  0  0  0  0
   -1.2740   29.2410   29.0640 C   0  0  0  0  0
   -2.3010   29.7720   29.8350 C   0  0  0  0  0
    0.2690   28.6460   26.6150 C   0  0  0  0  0
    4.1820   30.7650   23.9970 C   0  0  0  0  0
    6.6070   30.8450   18.2700 C   0  0  0  0  0
    8.3880   32.3980   18.6340 C   0  0  0  0  0
  -10.5180   28.7610   30.5280 C   0  0  0  0  0
  -10.7180   30.0310   29.7180 C   0  0  0  0  0
    6.6290   30.4830   19.7590 C   0  0  0  0  0
    8.4010   32.0390   20.1020 C   0  0  0  0  0
    7.2640   31.3420   22.0100 C   0  0  0  0  0
   -4.6780   29.8720   30.2800 N   0  0  0  0  0
   -2.8890   28.0310   27.8720 N   0  0  0  0  0
    7.9490   31.2510   17.8240 N   0  3  0  0  0
    3.2720   28.6070   24.7130 N   0  0  0  0  0
   -7.0300   29.6650   30.3660 N   0  0  0  0  0
    1.7310   30.2560   25.1360 O   0  0  0  0  0
   -8.3200   29.0080   28.5700 O   0  0  0  0  0
    2.1080   29.0910   25.1920 C   0  0  0  0  0
   -8.1970   29.4680   29.7050 C   0  0  0  0  0
    4.1890   29.3670   24.0850 C   0  0  0  0  0
    1.2680   28.1610   25.7900 C   0  0  0  0  0
   -0.6130   27.7870   27.2510 C   0  0  0  0  0
    6.2010   30.7550   22.7000 C   0  0  0  0  0
   -1.6010   28.3390   28.0640 C   0  0  0  0  0
   -5.8340   29.3710   29.8320 C   0  0  0  0  0
    5.1720   31.4800   23.3210 C   0  0  0  0  0
   -3.5760   29.4400   29.6220 C   0  0  0  0  0
   -3.8570   28.5670   28.6330 C   0  0  0  0  0
   -9.4450   29.8340   30.5170 C   0  0  0  0  0
    5.0600   32.8920   23.2980 C   0  0  0  0  0
    7.0700   31.6320   20.5750 N   0  3  0  0  0
   -5.4940   28.3470   28.6020 S   0  0  0  0  0
    6.2280   33.5100   23.6270 F   0  0  0  0  0
    4.6860   33.3010   22.1230 F   0  0  0  0  0
    4.1270   33.2630   24.2070 F   0  0  0  0  0
    0.5932   24.8516   26.0466 H   0  0  0  0  0
    2.1729   26.4042   24.9237 H   0  0  0  0  0
   -1.1992   25.7292   27.5193 H   0  0  0  0  0
    5.2537   27.5875   23.5251 H   0  0  0  0  0
    7.0327   28.8068   22.3482 H   0  0  0  0  0
   -0.2372   29.5268   29.2413 H   0  0  0  0  0
   -2.0598   30.4756   30.6318 H   0  0  0  0  0
    0.1741   29.7211   26.7672 H   0  0  0  0  0
    3.3720   31.3159   24.4750 H   0  0  0  0  0
    5.9147   31.6725   18.1149 H   0  0  0  0  0
    6.2894   29.9742   17.6965 H   0  0  0  0  0
    9.3963   32.6793   18.3304 H   0  0  0  0  0
    7.6955   33.2254   18.4790 H   0  0  0  0  0
  -10.5984   27.6825   30.3922 H   0  0  0  0  0
  -11.0649   28.1578   31.2527 H   0  0  0  0  0
  -11.4811   30.7954   29.5711 H   0  0  0  0  0
  -11.0138   30.3193   28.7093 H   0  0  0  0  0
    7.3264   29.6588   19.9088 H   0  0  0  0  0
    5.6217   30.2016   20.0659 H   0  0  0  0  0
    8.7121   32.9175   20.6673 H   0  0  0  0  0
    9.0862   31.2034   20.2448 H   0  0  0  0  0
    8.0778   30.6182   22.0551 H   0  0  0  0  0
    7.4230   32.3098   22.4855 H   0  0  0  0  0
    7.9223   31.5126   16.8385 H   0  0  0  0  0
    8.6017   30.4756   17.9387 H   0  0  0  0  0
    3.4680   27.6132   24.8327 H   0  0  0  0  0
   -7.0620   30.0530   31.3088 H   0  0  0  0  0
   -8.9187   30.4198   31.2706 H   0  0  0  0  0
    6.3321   32.3294   20.4777 H   0  0  0  0  0
  1  2  4  0  0  0
  3  1  4  0  0  0
 27  2  4  0  0  0
 28  3  4  0  0  0
  4  5  4  0  0  0
 26  4  4  0  0  0
  5 29  4  0  0  0
  6  7  4  0  0  0
 30  6  4  0  0  0
  7 33  4  0  0  0
  8 27  4  0  0  0
 28  8  4  0  0  0
 26  9  4  0  0  0
  9 32  4  0  0  0
 14 10  1  0  0  0
 10 19  1  0  0  0
 15 11  1  0  0  0
 11 19  1  0  0  0
 13 12  1  0  0  0
 35 12  1  0  0  0
 35 13  1  0  0  0
 37 14  1  0  0  0
 37 15  1  0  0  0
 29 16  1  0  0  0
 16 37  1  0  0  0
 17 31  4  0  0  0
 33 17  4  0  0  0
 30 18  4  0  0  0
 18 34  4  0  0  0
 24 20  1  0  0  0
 20 26  1  0  0  0
 21 25  1  0  0  0
 31 21  1  0  0  0
 24 22  2  0  0  0
 25 23  2  0  0  0
 27 24  1  0  0  0
 25 35  1  0  0  0
 28 30  1  0  0  0
 29 32  4  0  0  0
 31 38  4  0  0  0
 32 36  1  0  0  0
 33 34  4  0  0  0
 34 38  4  0  0  0
 36 39  1  0  0  0
 36 40  1  0  0  0
 36 41  1  0  0  0
  1 42  1  0  0  0
  2 43  1  0  0  0
  3 44  1  0  0  0
  4 45  1  0  0  0
  5 46  1  0  0  0
  6 47  1  0  0  0
  7 48  1  0  0  0
  8 49  1  0  0  0
  9 50  1  0  0  0
 10 51  1  0  0  0
 10 52  1  0  0  0
 11 53  1  0  0  0
 11 54  1  0  0  0
 12 55  1  0  0  0
 12 56  1  0  0  0
 13 57  1  0  0  0
 13 58  1  0  0  0
 14 59  1  0  0  0
 14 60  1  0  0  0
 15 61  1  0  0  0
 15 62  1  0  0  0
 16 63  1  0  0  0
 16 64  1  0  0  0
 19 65  1  0  0  0
 19 66  1  0  0  0
 20 67  1  0  0  0
 21 68  1  0  0  0
 35 69  1  0  0  0
 37 70  1  0  0  0
M  END
$$$$
