### 
### Created by X-TOOL on Mon Sep 10 21:13:09 2018
### 

@<TRIPOS>MOLECULE
3u4i_ligand
   57    61     1     0     0
SMALL
GAST_HUCK


@<TRIPOS>ATOM
      1 N1          1.9950    0.7100    1.2480 N.pl3     1 CVR        -0.1065
      2 C2          3.3290    0.8710    1.0810 C.2       1 CVR         0.2235
      3 N3          4.2870    0.1430    1.6860 N.2       1 CVR        -0.1571
      4 C4          3.9730   -0.8520    2.5550 C.2       1 CVR         0.1629
      5 C5          2.5440   -1.1190    2.8240 C.2       1 CVR         0.2090
      6 C6          1.5310   -0.2930    2.1300 C.2       1 CVR         0.2945
      7 N6          0.2180   -0.5090    2.3500 N.pl3     1 CVR        -0.2453
      8 N7          2.5060   -2.1310    3.7030 N.2       1 CVR        -0.2394
      9 C8          3.7870   -2.4870    3.9780 C.2       1 CVR         0.0725
     10 N9          4.6690   -1.7260    3.3000 N.2       1 CVR        -0.2958
     11 PA          6.4910    2.9060    4.3940 P.3       1 CVR         0.2972
     12 PB          3.9160    3.9960    3.7750 P.3       1 CVR         0.2971
     13 C1'         6.1520   -1.8850    3.4040 C.3       1 CVR         0.1414
     14 O1A         6.1650    3.3670    5.7940 O.co2     1 CVR        -0.6127
     15 O1B         3.4730    3.7610    5.2050 O.co2     1 CVR        -0.6127
     16 C1D         1.1640    1.5630    0.5350 C.3       1 CVR         0.1317
     17 C2'         6.9590   -1.1490    2.3840 C.3       1 CVR         0.1193
     18 O2'         7.1760   -1.8920    1.3100 O.3       1 CVR        -0.3857
     19 O2A         7.6670    3.5140    3.6800 O.co2     1 CVR        -0.6127
     20 O2B         4.1990    5.4130    3.2770 O.co2     1 CVR        -0.6127
     21 C2D        -0.1800    2.0440    1.0370 C.3       1 CVR         0.1162
     22 O2D        -1.1360    2.0370   -0.0290 O.3       1 CVR        -0.3858
     23 C3'         8.0930   -0.7790    2.9400 C.3       1 CVR         0.1129
     24 O3'         9.0710   -1.6200    2.6140 O.3       1 CVR        -0.3864
     25 O3A         5.1700    3.0290    3.4600 O.3       1 CVR        -0.1319
     26 C3D         0.0410    3.5120    1.3880 C.3       1 CVR         0.0896
     27 O3D        -0.9830    4.3540    0.8300 O.3       1 CVR        -0.3888
     28 C4'         7.9310   -0.7410    4.4230 C.3       1 CVR         0.1168
     29 O4'         6.6600   -1.3760    4.6510 O.3       1 CVR        -0.3544
     30 C4D         1.3610    3.8930    0.7400 C.3       1 CVR         0.0193
     31 C4X         1.8040    2.6260    0.0550 C.3       1 CVR        -0.0073
     32 C5'         7.9140    0.7090    4.9010 C.3       1 CVR         0.1127
     33 O5'         6.7030    1.3090    4.4420 O.3       1 CVR        -0.2476
     34 C5D         2.3900    4.3990    1.7450 C.3       1 CVR         0.0894
     35 O5D         2.7630    3.4680    2.7700 O.3       1 CVR        -0.2500
     36 H1          3.6549    1.6556    0.3998 H         1 CVR         0.2055
     37 H2         -0.0801   -1.2499    3.0004 H         1 CVR         0.2222
     38 H3         -0.4866    0.0670    1.8676 H         1 CVR         0.2222
     39 H4          4.0670   -3.2875    4.6612 H         1 CVR         0.1161
     40 H5          6.3712   -2.9600    3.3244 H         1 CVR         0.0744
     41 H6          0.9033    0.9546   -0.3435 H         1 CVR         0.0734
     42 H7          6.4048   -0.2505    2.0751 H         1 CVR         0.0655
     43 H8          7.6899   -1.3973    0.6826 H         1 CVR         0.2100
     44 H9         -0.5295    1.4519    1.8956 H         1 CVR         0.0654
     45 H10        -1.9749    2.3405    0.2975 H         1 CVR         0.2100
     46 H11         8.3549    0.2272    2.5810 H         1 CVR         0.0647
     47 H12         9.1787   -1.6281    1.6702 H         1 CVR         0.2100
     48 H13         0.0813    3.6432    2.4794 H         1 CVR         0.0624
     49 H14        -0.9804    4.2691   -0.1162 H         1 CVR         0.2099
     50 H15         8.7405   -1.2900    4.9263 H         1 CVR         0.0650
     51 H16         1.1948    4.6836   -0.0066 H         1 CVR         0.0354
     52 H17         1.5978    2.7112   -1.0221 H         1 CVR         0.0303
     53 H18         2.8846    2.4938    0.2122 H         1 CVR         0.0303
     54 H19         8.7785    1.2489    4.4874 H         1 CVR         0.0648
     55 H20         7.9534    0.7406    5.9998 H         1 CVR         0.0648
     56 H21         1.9749    5.2926    2.2340 H         1 CVR         0.0624
     57 H22         3.2991    4.6736    1.1899 H         1 CVR         0.0624
@<TRIPOS>BOND
     1    2    1 1  
     2    6    1 1  
     3    1   16 1  
     4    3    2 2  
     5    4    3 1  
     6    4    5 1  
     7   10    4 2  
     8    5    6 2  
     9    8    5 1  
    10    6    7 1  
    11    9    8 2  
    12   10    9 1  
    13   13   10 1  
    14   11   14 ar 
    15   11   19 ar 
    16   11   25 1  
    17   33   11 1  
    18   12   15 ar 
    19   12   20 ar 
    20   25   12 1  
    21   12   35 1  
    22   13   17 1  
    23   29   13 1  
    24   16   21 1  
    25   16   31 1  
    26   17   18 1  
    27   23   17 1  
    28   21   22 1  
    29   21   26 1  
    30   23   24 1  
    31   28   23 1  
    32   26   27 1  
    33   30   26 1  
    34   28   29 1  
    35   32   28 1  
    36   31   30 1  
    37   30   34 1  
    38   32   33 1  
    39   34   35 1  
    40    2   36 1  
    41    7   37 1  
    42    7   38 1  
    43    9   39 1  
    44   13   40 1  
    45   16   41 1  
    46   17   42 1  
    47   18   43 1  
    48   21   44 1  
    49   22   45 1  
    50   23   46 1  
    51   24   47 1  
    52   26   48 1  
    53   27   49 1  
    54   28   50 1  
    55   30   51 1  
    56   31   52 1  
    57   31   53 1  
    58   32   54 1  
    59   32   55 1  
    60   34   56 1  
    61   34   57 1  
@<TRIPOS>SUBSTRUCTURE
     1 CVR         1

