3u4i_ligand
  -I-interpret- 

 59 63  0  0  0  0  0  0  0  0999 V2000
    1.9950    0.7100    1.2480 N   0  0  0  0  0
    3.3290    0.8710    1.0810 C   0  0  0  0  0
    4.2870    0.1430    1.6860 N   0  0  0  0  0
    3.9730   -0.8520    2.5550 C   0  0  0  0  0
    2.5440   -1.1190    2.8240 C   0  0  0  0  0
    1.5310   -0.2930    2.1300 C   0  0  0  0  0
    0.2180   -0.5090    2.3500 N   0  0  0  0  0
    2.5060   -2.1310    3.7030 N   0  0  0  0  0
    3.7870   -2.4870    3.9780 C   0  0  0  0  0
    4.6690   -1.7260    3.3000 N   0  3  0  0  0
    6.4910    2.9060    4.3940 P   0  0  0  0  0
    3.9160    3.9960    3.7750 P   0  0  0  0  0
    6.1520   -1.8850    3.4040 C   0  0  0  0  0
    6.1650    3.3670    5.7940 O   0  0  0  0  0
    3.4730    3.7610    5.2050 O   0  0  0  0  0
    1.1640    1.5630    0.5350 C   0  0  0  0  0
    6.9590   -1.1490    2.3840 C   0  0  0  0  0
    7.1760   -1.8920    1.3100 O   0  0  0  0  0
    7.6670    3.5140    3.6800 O   0  0  0  0  0
    4.1990    5.4130    3.2770 O   0  0  0  0  0
   -0.1800    2.0440    1.0370 C   0  0  0  0  0
   -1.1360    2.0370   -0.0290 O   0  0  0  0  0
    8.0930   -0.7790    2.9400 C   0  0  0  0  0
    9.0710   -1.6200    2.6140 O   0  0  0  0  0
    5.1700    3.0290    3.4600 O   0  0  0  0  0
    0.0410    3.5120    1.3880 C   0  0  0  0  0
   -0.9830    4.3540    0.8300 O   0  0  0  0  0
    7.9310   -0.7410    4.4230 C   0  0  0  0  0
    6.6600   -1.3760    4.6510 O   0  0  0  0  0
    1.3610    3.8930    0.7400 C   0  0  0  0  0
    1.8040    2.6260    0.0550 C   0  0  0  0  0
    7.9140    0.7090    4.9010 C   0  0  0  0  0
    6.7030    1.3090    4.4420 O   0  0  0  0  0
    2.3900    4.3990    1.7450 C   0  0  0  0  0
    2.7630    3.4680    2.7700 O   0  0  0  0  0
    3.6552    1.6564    0.3991 H   0  0  0  0  0
   -0.4797    0.0614    1.8723 H   0  0  0  0  0
   -0.0772   -1.2427    2.9941 H   0  0  0  0  0
    4.0672   -3.2883    4.6618 H   0  0  0  0  0
    6.2639   -2.9615    3.2749 H   0  0  0  0  0
    5.3949    2.8921    6.1149 H   0  0  0  0  0
    0.8755    0.8065   -0.1948 H   0  0  0  0  0
    6.4069   -0.2705    2.0500 H   0  0  0  0  0
    7.6953   -1.3920    0.6760 H   0  0  0  0  0
    4.4666    5.3797    2.3557 H   0  0  0  0  0
   -0.5351    1.4226    1.8591 H   0  0  0  0  0
   -1.9838    2.3437    0.3009 H   0  0  0  0  0
    8.3560    0.2139    2.5751 H   0  0  0  0  0
    9.8886   -1.3342    3.0281 H   0  0  0  0  0
    0.0284    3.6426    2.4701 H   0  0  0  0  0
   -0.8113    5.2673    1.0710 H   0  0  0  0  0
    8.7391   -1.2376    4.9601 H   0  0  0  0  0
    1.2514    4.7272    0.0470 H   0  0  0  0  0
    1.5810    2.7123   -1.0084 H   0  0  0  0  0
    2.8718    2.4942    0.2297 H   0  0  0  0  0
    8.7752    1.2469    4.5047 H   0  0  0  0  0
    7.9654    0.7480    5.9891 H   0  0  0  0  0
    1.9363    5.2514    2.2506 H   0  0  0  0  0
    3.2957    4.6159    1.1787 H   0  0  0  0  0
  2  1  4  0  0  0
  6  1  4  0  0  0
  1 16  1  0  0  0
  3  2  4  0  0  0
  4  3  4  0  0  0
  4  5  1  0  0  0
 10  4  4  0  0  0
  5  6  4  0  0  0
  8  5  4  0  0  0
  6  7  1  0  0  0
  9  8  4  0  0  0
 10  9  4  0  0  0
 13 10  1  0  0  0
 11 14  1  0  0  0
 11 19  2  0  0  0
 11 25  1  0  0  0
 33 11  1  0  0  0
 12 15  2  0  0  0
 12 20  1  0  0  0
 25 12  1  0  0  0
 12 35  1  0  0  0
 13 17  1  0  0  0
 29 13  1  0  0  0
 16 21  1  0  0  0
 16 31  1  0  0  0
 17 18  1  0  0  0
 23 17  1  0  0  0
 21 22  1  0  0  0
 21 26  1  0  0  0
 23 24  1  0  0  0
 28 23  1  0  0  0
 26 27  1  0  0  0
 30 26  1  0  0  0
 28 29  1  0  0  0
 32 28  1  0  0  0
 31 30  1  0  0  0
 30 34  1  0  0  0
 32 33  1  0  0  0
 34 35  1  0  0  0
  2 36  1  0  0  0
  7 37  1  0  0  0
  7 38  1  0  0  0
  9 39  1  0  0  0
 13 40  1  0  0  0
 14 41  1  0  0  0
 16 42  1  0  0  0
 17 43  1  0  0  0
 18 44  1  0  0  0
 20 45  1  0  0  0
 21 46  1  0  0  0
 22 47  1  0  0  0
 23 48  1  0  0  0
 24 49  1  0  0  0
 26 50  1  0  0  0
 27 51  1  0  0  0
 28 52  1  0  0  0
 30 53  1  0  0  0
 31 54  1  0  0  0
 31 55  1  0  0  0
 32 56  1  0  0  0
 32 57  1  0  0  0
 34 58  1  0  0  0
 34 59  1  0  0  0
M  END
$$$$
