3oeu_ligand
  -I-interpret- 

 75 77  0  0  0  0  0  0  0  0999 V2000
   11.6420 -136.8850   21.3510 C   0  0  0  0  0
   15.8950 -134.3790   23.1400 C   0  0  0  0  0
   15.0850 -134.8660   24.3600 C   0  0  0  0  0
   15.4280 -134.4140   25.6330 C   0  0  0  0  0
   14.7070 -134.8440   26.7490 C   0  0  0  0  0
   13.6410 -135.7280   26.6050 C   0  0  0  0  0
   13.2950 -136.1820   25.3350 C   0  0  0  0  0
   14.0080 -135.7540   24.2040 C   0  0  0  0  0
   13.5660 -136.3080   22.8430 C   0  0  0  0  0
   12.0650 -136.1630   22.6240 C   0  0  0  0  0
   12.2270 -137.8970   20.9610 O   0  0  0  0  0
   10.6200 -136.3220   20.7230 N   0  0  0  0  0
   10.0650 -136.8820   19.4920 C   0  0  0  0  0
   10.9800 -136.6220   18.2780 C   0  0  0  0  0
   11.6230 -135.5800   18.1430 O   0  0  0  0  0
    8.6930 -136.2370   19.3180 C   0  0  0  0  0
    7.8760 -136.6100   20.4320 O   0  0  0  0  0
    8.0210 -136.6450   18.0120 C   0  0  0  0  0
   10.9810 -137.6020   17.3870 N   0  0  0  0  0
   11.7250 -137.5160   16.1250 C   0  0  0  0  0
   10.7370 -137.2090   14.9860 C   0  0  0  0  0
    9.6140 -137.7090   14.9600 O   0  0  0  0  0
   12.4420 -138.8260   15.8370 C   0  0  0  0  0
   13.3350 -139.2240   17.0020 C   0  0  0  0  0
   14.5300 -138.2850   17.1670 C   0  0  0  0  0
   15.4900 -138.1750   16.1520 C   0  0  0  0  0
   14.6630 -137.5560   18.3500 C   0  0  0  0  0
   16.5890 -137.3240   16.3180 C   0  0  0  0  0
   15.7570 -136.7080   18.5080 C   0  0  0  0  0
   16.7160 -136.5920   17.4990 C   0  0  0  0  0
    8.3780 -132.1880   13.4660 C   0  0  0  0  0
    9.6910 -132.1930   13.0070 C   0  0  0  0  0
   10.3600 -133.4030   12.8240 C   0  0  0  0  0
   10.3610 -135.9930   12.9150 C   0  0  0  0  0
   11.1830 -136.3650   14.0650 N   0  0  0  0  0
    9.7210 -134.6160   13.0990 C   0  0  0  0  0
    8.4090 -134.5980   13.5540 C   0  0  0  0  0
    7.7420 -133.3920   13.7450 C   0  0  0  0  0
   12.0000 -133.3740   12.2580 Cl  0  0  0  0  0
   15.8256 -133.2935   23.0693 H   0  0  0  0  0
   16.9385 -134.6707   23.2584 H   0  0  0  0  0
   15.4909 -134.8300   22.2337 H   0  0  0  0  0
   16.2615 -133.7228   25.7579 H   0  0  0  0  0
   14.9810 -134.4846   27.7409 H   0  0  0  0  0
   13.0820 -136.0619   27.4792 H   0  0  0  0  0
   12.4628 -136.8762   25.2179 H   0  0  0  0  0
   13.8128 -137.3692   22.8119 H   0  0  0  0  0
   14.0789 -135.7440   22.0639 H   0  0  0  0  0
   11.5385 -136.6007   23.4721 H   0  0  0  0  0
   11.8205 -135.1049   22.5301 H   0  0  0  0  0
   10.2084 -135.4728   21.1100 H   0  0  0  0  0
    9.9828 -137.9669   19.5578 H   0  0  0  0  0
    8.8212 -135.1553   19.2773 H   0  0  0  0  0
    7.0076 -136.2118   20.3380 H   0  0  0  0  0
    8.6460 -136.3402   17.1726 H   0  0  0  0  0
    7.8898 -137.7269   17.9949 H   0  0  0  0  0
    7.0484 -136.1586   17.9379 H   0  0  0  0  0
   10.4453 -138.4471   17.5852 H   0  0  0  0  0
   12.4700 -136.7240   16.2015 H   0  0  0  0  0
   13.0608 -138.6988   14.9488 H   0  0  0  0  0
   11.6970 -139.6068   15.6839 H   0  0  0  0  0
   13.7175 -140.2259   16.8070 H   0  0  0  0  0
   12.7404 -139.1769   17.9143 H   0  0  0  0  0
   15.3810 -138.7519   15.2336 H   0  0  0  0  0
   13.9192 -137.6492   19.1413 H   0  0  0  0  0
   17.3386 -137.2340   15.5318 H   0  0  0  0  0
   15.8655 -136.1306   19.4261 H   0  0  0  0  0
   17.5681 -135.9260   17.6350 H   0  0  0  0  0
    7.8504 -131.2445   13.6062 H   0  0  0  0  0
   10.1967 -131.2520   12.7905 H   0  0  0  0  0
    9.5652 -136.7302   12.8088 H   0  0  0  0  0
   10.9999 -135.9597   12.0325 H   0  0  0  0  0
   12.1176 -135.9679   14.1611 H   0  0  0  0  0
    7.8971 -135.5373   13.7634 H   0  0  0  0  0
    6.7167 -133.3914   14.1149 H   0  0  0  0  0
  1 10  1  0  0  0
  1 11  2  0  0  0
 12  1  1  0  0  0
  3  2  1  0  0  0
  3  4  4  0  0  0
  8  3  4  0  0  0
  4  5  4  0  0  0
  6  5  4  0  0  0
  7  6  4  0  0  0
  8  7  4  0  0  0
  9  8  1  0  0  0
 10  9  1  0  0  0
 13 12  1  0  0  0
 14 13  1  0  0  0
 13 16  1  0  0  0
 14 15  2  0  0  0
 19 14  1  0  0  0
 16 17  1  0  0  0
 16 18  1  0  0  0
 20 19  1  0  0  0
 21 20  1  0  0  0
 20 23  1  0  0  0
 21 22  2  0  0  0
 35 21  1  0  0  0
 23 24  1  0  0  0
 24 25  1  0  0  0
 25 26  4  0  0  0
 25 27  4  0  0  0
 26 28  4  0  0  0
 27 29  4  0  0  0
 28 30  4  0  0  0
 29 30  4  0  0  0
 32 31  4  0  0  0
 31 38  4  0  0  0
 33 32  4  0  0  0
 36 33  4  0  0  0
 33 39  1  0  0  0
 34 35  1  0  0  0
 34 36  1  0  0  0
 36 37  4  0  0  0
 37 38  4  0  0  0
  2 40  1  0  0  0
  2 41  1  0  0  0
  2 42  1  0  0  0
  4 43  1  0  0  0
  5 44  1  0  0  0
  6 45  1  0  0  0
  7 46  1  0  0  0
  9 47  1  0  0  0
  9 48  1  0  0  0
 10 49  1  0  0  0
 10 50  1  0  0  0
 12 51  1  0  0  0
 13 52  1  0  0  0
 16 53  1  0  0  0
 17 54  1  0  0  0
 18 55  1  0  0  0
 18 56  1  0  0  0
 18 57  1  0  0  0
 19 58  1  0  0  0
 20 59  1  0  0  0
 23 60  1  0  0  0
 23 61  1  0  0  0
 24 62  1  0  0  0
 24 63  1  0  0  0
 26 64  1  0  0  0
 27 65  1  0  0  0
 28 66  1  0  0  0
 29 67  1  0  0  0
 30 68  1  0  0  0
 31 69  1  0  0  0
 32 70  1  0  0  0
 34 71  1  0  0  0
 34 72  1  0  0  0
 35 73  1  0  0  0
 37 74  1  0  0  0
 38 75  1  0  0  0
M  END
$$$$
