3nu5_ligand
  -I-interpret- 

 70 72  0  0  0  0  0  0  0  0999 V2000
   12.2590   18.0790   19.6550 C   0  0  0  0  0
   14.2270   18.9110   20.7220 C   0  0  0  0  0
   14.2680   20.6920   18.1470 C   0  0  0  0  0
   13.5910   18.7730   19.3470 C   0  0  0  0  0
   14.8880   22.8250   17.0530 C   0  0  0  0  0
   15.3150   23.9780   17.9440 C   0  0  0  0  0
   14.1940   23.3080   15.7640 C   0  0  0  0  0
   13.7020   22.1790   14.8740 C   0  0  0  0  0
   12.4060   21.6680   14.9230 C   0  0  0  0  0
   14.6020   21.5360   14.0300 C   0  0  0  0  0
   12.0540   20.6190   14.0760 C   0  0  0  0  0
   14.2960   20.4480   13.2210 C   0  0  0  0  0
   13.0140   19.9680   13.3370 C   0  0  0  0  0
   16.4030   24.8650   17.3430 C   0  0  0  0  0
   18.5990   24.6540   18.3040 C   0  0  0  0  0
   18.3630   24.0210   19.6900 C   0  0  0  0  0
   19.1580   25.3320   15.1520 C   0  0  0  0  0
   18.4640   26.3220   14.4760 C   0  0  0  0  0
   19.0550   27.5090   14.0460 C   0  0  0  0  0
   20.3860   27.7650   14.3370 C   0  0  0  0  0
   21.0890   26.7950   15.0530 C   0  0  0  0  0
   20.4660   25.6380   15.4930 C   0  0  0  0  0
   18.3950   22.4820   19.6160 C   0  0  0  0  0
   19.4180   24.4780   20.7050 C   0  0  0  0  0
   13.1390   18.4280   21.7020 C   0  0  0  0  0
   13.9610   21.9440   17.7890 N   0  0  0  0  0
   17.6870   24.2050   17.2780 N   0  0  0  0  0
   20.9780   28.8990   13.9660 N   0  0  0  0  0
   13.2540   20.0560   18.7630 O   0  0  0  0  0
   15.3510   20.1330   17.9320 O   0  0  0  0  0
   14.1660   24.7470   18.3090 O   0  0  0  0  0
   17.2420   23.5470   14.8720 O   0  0  0  0  0
   19.3230   22.7810   15.9720 O   0  0  0  0  0
   11.9120   18.5810   20.9540 O   0  0  0  0  0
   18.3540   23.9210   15.7970 S   0  0  0  0  0
   12.3398   16.9922   19.6351 H   0  0  0  0  0
   11.4948   18.2912   18.9073 H   0  0  0  0  0
   14.5359   19.9358   20.9278 H   0  0  0  0  0
   15.1429   18.3265   20.8086 H   0  0  0  0  0
   14.2616   18.2594   18.6581 H   0  0  0  0  0
   15.7920   22.2857   16.7701 H   0  0  0  0  0
   15.7705   23.5383   18.8313 H   0  0  0  0  0
   14.9277   23.8767   15.1927 H   0  0  0  0  0
   13.3225   23.8907   16.0623 H   0  0  0  0  0
   11.6756   22.0846   15.6166 H   0  0  0  0  0
   15.6240   21.9139   14.0010 H   0  0  0  0  0
   11.0109   20.3123   13.9986 H   0  0  0  0  0
   15.0238   20.0056   12.5407 H   0  0  0  0  0
   12.7493   19.0417   12.8271 H   0  0  0  0  0
   16.5095   25.7428   17.9804 H   0  0  0  0  0
   16.1047   25.1182   16.3256 H   0  0  0  0  0
   19.6017   24.3660   17.9881 H   0  0  0  0  0
   18.4514   25.7283   18.4144 H   0  0  0  0  0
   17.3773   24.3529   20.0161 H   0  0  0  0  0
   17.4051   26.1654   14.2704 H   0  0  0  0  0
   18.4709   28.2356   13.4812 H   0  0  0  0  0
   22.1459   26.9501   15.2698 H   0  0  0  0  0
   21.0219   24.9472   16.1269 H   0  0  0  0  0
   17.6143   22.1358   18.9387 H   0  0  0  0  0
   19.3680   22.1574   19.2472 H   0  0  0  0  0
   18.2253   22.0681   20.6100 H   0  0  0  0  0
   20.4078   24.1844   20.3555 H   0  0  0  0  0
   19.3748   25.5622   20.8088 H   0  0  0  0  0
   19.2186   24.0111   21.6695 H   0  0  0  0  0
   13.1335   18.9980   22.6311 H   0  0  0  0  0
   13.3009   17.4012   22.0299 H   0  0  0  0  0
   13.0408   22.3074   18.0371 H   0  0  0  0  0
   20.4503   29.6060   13.4540 H   0  0  0  0  0
   21.9590   29.0604   14.1939 H   0  0  0  0  0
   13.4994   24.1663   18.6831 H   0  0  0  0  0
  4  1  1  0  0  0
  1 34  1  0  0  0
  4  2  1  0  0  0
  2 25  1  0  0  0
 26  3  1  0  0  0
  3 29  1  0  0  0
  3 30  2  0  0  0
 29  4  1  0  0  0
  6  5  1  0  0  0
  5  7  1  0  0  0
  5 26  1  0  0  0
 14  6  1  0  0  0
  6 31  1  0  0  0
  7  8  1  0  0  0
  8  9  4  0  0  0
  8 10  4  0  0  0
  9 11  4  0  0  0
 10 12  4  0  0  0
 11 13  4  0  0  0
 12 13  4  0  0  0
 27 14  1  0  0  0
 15 16  1  0  0  0
 27 15  1  0  0  0
 16 23  1  0  0  0
 16 24  1  0  0  0
 17 18  4  0  0  0
 17 22  4  0  0  0
 35 17  1  0  0  0
 18 19  4  0  0  0
 19 20  4  0  0  0
 21 20  4  0  0  0
 20 28  1  0  0  0
 22 21  4  0  0  0
 25 34  1  0  0  0
 27 35  1  0  0  0
 35 32  2  0  0  0
 35 33  2  0  0  0
  1 36  1  0  0  0
  1 37  1  0  0  0
  2 38  1  0  0  0
  2 39  1  0  0  0
  4 40  1  0  0  0
  5 41  1  0  0  0
  6 42  1  0  0  0
  7 43  1  0  0  0
  7 44  1  0  0  0
  9 45  1  0  0  0
 10 46  1  0  0  0
 11 47  1  0  0  0
 12 48  1  0  0  0
 13 49  1  0  0  0
 14 50  1  0  0  0
 14 51  1  0  0  0
 15 52  1  0  0  0
 15 53  1  0  0  0
 16 54  1  0  0  0
 18 55  1  0  0  0
 19 56  1  0  0  0
 21 57  1  0  0  0
 22 58  1  0  0  0
 23 59  1  0  0  0
 23 60  1  0  0  0
 23 61  1  0  0  0
 24 62  1  0  0  0
 24 63  1  0  0  0
 24 64  1  0  0  0
 25 65  1  0  0  0
 25 66  1  0  0  0
 26 67  1  0  0  0
 28 68  1  0  0  0
 28 69  1  0  0  0
 31 70  1  0  0  0
M  END
$$$$
