2xuc_ligand
  -I-interpret- 

 18 17  0  0  0  0  0  0  0  0999 V2000
  -10.1290    9.1880   -2.3020 C   0  0  0  0  0
  -10.2250   10.2210   -3.3160 N   0  0  0  0  0
  -11.4270   10.7740   -3.4010 C   0  0  0  0  0
  -12.3980   10.3960   -2.7250 O   0  0  0  0  0
  -11.5600   11.7480   -4.3250 N   0  0  0  0  0
  -12.6890   12.3790   -4.5950 C   0  0  0  0  0
  -13.7650   12.1810   -3.8600 N   0  0  0  0  0
  -12.7390   13.2320   -5.6150 N   0  0  0  0  0
  -14.0320   13.9780   -5.8820 C   0  0  0  0  0
  -10.3600    9.6157   -1.3264 H   0  0  0  0  0
  -10.8381    8.3917   -2.5281 H   0  0  0  0  0
   -9.1170    8.7831   -2.2923 H   0  0  0  0  0
   -9.4413   10.4961   -3.9080 H   0  0  0  0  0
  -13.7324   11.5342   -3.0719 H   0  0  0  0  0
  -11.9219   13.3815   -6.2070 H   0  0  0  0  0
  -14.8286   13.2615   -6.0825 H   0  0  0  0  0
  -14.2914   14.5768   -5.0089 H   0  0  0  0  0
  -13.9021   14.6300   -6.7458 H   0  0  0  0  0
  1  2  1  0  0  0
  2  3  1  0  0  0
  3  4  2  0  0  0
  3  5  1  0  0  0
  5  6  4  0  0  0
  6  7  2  0  0  0
  6  8  1  0  0  0
  8  9  1  0  0  0
  1 10  1  0  0  0
  1 11  1  0  0  0
  1 12  1  0  0  0
  2 13  1  0  0  0
  7 14  1  0  0  0
  8 15  1  0  0  0
  9 16  1  0  0  0
  9 17  1  0  0  0
  9 18  1  0  0  0
M  END
$$$$
