4rn4_ligand
  -I-interpret- 

 63 67  0  0  0  0  0  0  0  0999 V2000
   15.7260    1.5200   18.0760 O   0  0  0  0  0
   15.2870    1.3350   16.7250 S   0  0  0  0  0
   15.9560    2.6290   15.7060 C   0  0  0  0  0
   17.3230    2.6820   15.4160 N   0  0  0  0  0
   17.5720    3.8370   14.5390 N   0  0  0  0  0
   16.4010    4.5380   14.2720 C   0  0  0  0  0
   16.3870    5.7340   13.4550 N   0  0  0  0  0
   17.5210    6.0810   12.5960 C   0  0  0  0  0
   18.3900    7.1450   13.3230 C   0  0  0  0  0
   18.6390    8.4610   12.9480 C   0  0  0  0  0
   19.4300    8.9970   13.8950 N   0  0  0  0  0
   19.9360   10.3210   13.9530 C   0  0  0  0  0
   21.1630   10.5610   14.5600 C   0  0  0  0  0
   21.6520   11.8700   14.6320 C   0  0  0  0  0
   20.9090   12.9320   14.1050 C   0  0  0  0  0
   19.6770   12.6850   13.5070 C   0  0  0  0  0
   19.1900   11.3770   13.4360 C   0  0  0  0  0
   19.6740    8.0670   14.8440 N   0  0  0  0  0
   19.0280    6.9150   14.4850 N   0  0  0  0  0
   15.2170    6.5780   13.5110 C   0  0  0  0  0
   15.0700    7.3180   12.1800 C   0  0  0  0  0
   15.6290    8.5580   11.8870 C   0  0  0  0  0
   15.3090    8.8670   10.6460 N   0  0  0  0  0
   15.7010   10.0510   10.0010 C   0  0  0  0  0
   15.3550    9.8940    8.5530 C   0  0  0  0  0
   15.1460   11.1900    7.8340 C   0  0  0  0  0
   15.6440   12.4040    8.5340 C   0  0  0  0  0
   15.2590   12.4970    9.9930 C   0  0  0  0  0
   14.0470   13.3670   10.1760 C   0  0  0  0  0
   12.9940   12.9840    9.2990 O   0  0  0  0  0
   15.0130   11.1770   10.6410 O   0  0  0  0  0
   17.1030   12.4460    8.4370 O   0  0  0  0  0
   13.7200   11.3440    7.5530 O   0  0  0  0  0
   16.4140    9.1290    7.9270 O   0  0  0  0  0
   14.5520    7.8610   10.1110 N   0  0  0  0  0
   14.4260    6.9000   11.0770 N   0  0  0  0  0
   15.0860    3.8670   15.0170 S   0  0  0  0  0
   15.8490   -0.0630   16.1140 N   0  0  0  0  0
   13.8670    1.4760   16.6630 O   0  0  0  0  0
   17.1591    6.4826   11.6495 H   0  0  0  0  0
   18.1176    5.1916   12.3933 H   0  0  0  0  0
   18.2643    8.9629   12.0559 H   0  0  0  0  0
   21.7401    9.7356   14.9769 H   0  0  0  0  0
   22.6167   12.0634   15.1011 H   0  0  0  0  0
   21.2941   13.9501   14.1627 H   0  0  0  0  0
   19.0939   13.5088   13.0954 H   0  0  0  0  0
   18.2221   11.1826   12.9740 H   0  0  0  0  0
   15.3231    7.2988   14.3217 H   0  0  0  0  0
   14.3323    5.9672   13.6908 H   0  0  0  0  0
   16.2268    9.1673   12.5649 H   0  0  0  0  0
   16.7702   10.2479   10.0791 H   0  0  0  0  0
   14.3968    9.3783    8.4892 H   0  0  0  0  0
   15.7456   11.1233    6.9262 H   0  0  0  0  0
   15.1692   13.2492    8.0357 H   0  0  0  0  0
   16.1237   12.9411   10.4861 H   0  0  0  0  0
   14.3244   14.3974    9.9536 H   0  0  0  0  0
   13.6973   13.2609   11.2029 H   0  0  0  0  0
   12.2369   13.5571    9.4403 H   0  0  0  0  0
   17.4301   13.2281    8.8874 H   0  0  0  0  0
   13.5737   12.1729    7.0914 H   0  0  0  0  0
   16.2159    9.0137    6.9948 H   0  0  0  0  0
   16.4330   -0.6719   16.6872 H   0  0  0  0  0
   15.6175   -0.3311   15.1575 H   0  0  0  0  0
  1  2  2  0  0  0
  2  3  1  0  0  0
  2 38  1  0  0  0
  2 39  2  0  0  0
  3  4  4  0  0  0
  3 37  4  0  0  0
  4  5  4  0  0  0
  5  6  4  0  0  0
  6  7  1  0  0  0
  6 37  4  0  0  0
  7  8  1  0  0  0
  7 20  1  0  0  0
  8  9  1  0  0  0
  9 10  4  0  0  0
  9 19  4  0  0  0
 10 11  4  0  0  0
 11 12  1  0  0  0
 11 18  4  0  0  0
 12 13  4  0  0  0
 12 17  4  0  0  0
 13 14  4  0  0  0
 14 15  4  0  0  0
 15 16  4  0  0  0
 16 17  4  0  0  0
 18 19  4  0  0  0
 20 21  1  0  0  0
 21 22  4  0  0  0
 21 36  4  0  0  0
 22 23  4  0  0  0
 23 24  1  0  0  0
 23 35  4  0  0  0
 24 25  1  0  0  0
 24 31  1  0  0  0
 25 26  1  0  0  0
 25 34  1  0  0  0
 26 27  1  0  0  0
 26 33  1  0  0  0
 27 28  1  0  0  0
 27 32  1  0  0  0
 28 29  1  0  0  0
 28 31  1  0  0  0
 29 30  1  0  0  0
 35 36  4  0  0  0
  8 40  1  0  0  0
  8 41  1  0  0  0
 10 42  1  0  0  0
 13 43  1  0  0  0
 14 44  1  0  0  0
 15 45  1  0  0  0
 16 46  1  0  0  0
 17 47  1  0  0  0
 20 48  1  0  0  0
 20 49  1  0  0  0
 22 50  1  0  0  0
 24 51  1  0  0  0
 25 52  1  0  0  0
 26 53  1  0  0  0
 27 54  1  0  0  0
 28 55  1  0  0  0
 29 56  1  0  0  0
 29 57  1  0  0  0
 30 58  1  0  0  0
 32 59  1  0  0  0
 33 60  1  0  0  0
 34 61  1  0  0  0
 38 62  1  0  0  0
 38 63  1  0  0  0
M  END
$$$$
