3pbb_ligand
  -I-interpret- 

 42 43  0  0  0  0  0  0  0  0999 V2000
    3.4040   76.5310    1.0340 C   0  0  0  0  0
    3.6190   71.6740    3.2840 C   0  0  0  0  0
    0.9770   74.8840    9.2290 S   0  0  0  0  0
   -5.6270   75.3090    3.6370 C   0  0  0  0  0
    2.4050   76.2670    4.9990 C   0  0  0  0  0
    2.6980   76.4120    3.6430 C   0  0  0  0  0
   -4.9940   74.8750    4.7410 C   0  0  0  0  0
   -4.7710   77.1000    4.6120 C   0  0  0  0  0
    2.9570   73.8860    4.8680 C   0  0  0  0  0
   -2.2660   75.6210    6.0550 C   0  0  0  0  0
   -1.3710   75.6170    7.2960 C   0  0  0  0  0
   -3.6630   76.0000    6.5410 C   0  0  0  0  0
   -5.5210   76.6730    3.6200 N   0  0  0  0  0
   -0.0120   75.4610    6.7550 N   0  0  0  0  0
    2.2970   74.9180    6.9080 N   0  0  0  0  0
    3.3840   75.2600    1.6160 O   0  0  0  0  0
    3.6610   73.0250    2.6410 O   0  0  0  0  0
    1.0860   75.1130    7.4940 C   0  0  0  0  0
    2.5420   75.0160    5.6160 C   0  0  0  0  0
    3.0920   75.2720    2.9330 C   0  0  0  0  0
    3.2390   74.0320    3.5050 C   0  0  0  0  0
   -4.5070   75.9950    5.3300 N   0  0  0  0  0
    2.4245   76.9959    1.1460 H   0  0  0  0  0
    4.1573   77.1440    1.5288 H   0  0  0  0  0
    3.6457   76.4405   -0.0250 H   0  0  0  0  0
    4.2720   71.6679    4.1567 H   0  0  0  0  0
    2.5973   71.4510    3.5916 H   0  0  0  0  0
    3.9571   70.9227    2.5703 H   0  0  0  0  0
   -0.2707   75.1150    9.6276 H   0  0  0  0  0
   -6.1305   74.6900    2.8944 H   0  0  0  0  0
    2.0694   77.1268    5.5789 H   0  0  0  0  0
    2.6225   77.3822    3.1520 H   0  0  0  0  0
   -4.8941   73.8463    5.0873 H   0  0  0  0  0
   -4.4386   78.1195    4.8077 H   0  0  0  0  0
    3.0555   72.9131    5.3494 H   0  0  0  0  0
   -2.2695   74.6454    5.5690 H   0  0  0  0  0
   -1.9028   76.3289    5.3100 H   0  0  0  0  0
   -1.6327   74.8194    7.9913 H   0  0  0  0  0
   -1.4787   76.5274    7.8857 H   0  0  0  0  0
   -3.6684   76.9734    7.0315 H   0  0  0  0  0
   -4.0316   75.3009    7.2916 H   0  0  0  0  0
    0.1216   75.6240    5.7570 H   0  0  0  0  0
 16  1  1  0  0  0
 17  2  1  0  0  0
 18  3  1  0  0  0
  7  4  4  0  0  0
 13  4  4  0  0  0
  5  6  4  0  0  0
 19  5  4  0  0  0
  6 20  4  0  0  0
 22  7  4  0  0  0
  8 13  4  0  0  0
 22  8  4  0  0  0
  9 19  4  0  0  0
 21  9  4  0  0  0
 11 10  1  0  0  0
 10 12  1  0  0  0
 14 11  1  0  0  0
 12 22  1  0  0  0
 18 14  1  0  0  0
 15 18  2  0  0  0
 19 15  1  0  0  0
 20 16  1  0  0  0
 17 21  1  0  0  0
 20 21  4  0  0  0
  1 23  1  0  0  0
  1 24  1  0  0  0
  1 25  1  0  0  0
  2 26  1  0  0  0
  2 27  1  0  0  0
  2 28  1  0  0  0
  3 29  1  0  0  0
  4 30  1  0  0  0
  5 31  1  0  0  0
  6 32  1  0  0  0
  7 33  1  0  0  0
  8 34  1  0  0  0
  9 35  1  0  0  0
 10 36  1  0  0  0
 10 37  1  0  0  0
 11 38  1  0  0  0
 11 39  1  0  0  0
 12 40  1  0  0  0
 12 41  1  0  0  0
 14 42  1  0  0  0
M  END
$$$$
