### 
### Created by X-TOOL on Mon Sep 10 21:13:32 2018
### 

@<TRIPOS>MOLECULE
5jv2_ligand
   32    34     1     0     0
SMALL
GAST_HUCK


@<TRIPOS>ATOM
      1 OAS         5.6030   74.4340   25.3740 O.co2     1 6O3        -0.5609
      2 PAR         6.8840   73.7030   26.1500 P.3       1 6O3         0.0674
      3 OAT         6.9190   72.1680   25.5150 O.co2     1 6O3        -0.5609
      4 OAU         8.2040   74.4230   26.0640 O.co2     1 6O3        -0.5609
      5 CAQ         6.5230   73.6860   27.8050 C.3       1 6O3         0.0477
      6 CAC         5.0840   73.1020   28.1470 C.2       1 6O3        -0.0034
      7 C5          4.9680   71.7130   28.2620 C.ar      1 6O3         0.0367
      8 C6          5.9310   70.7630   28.0820 C.ar      1 6O3         0.0249
      9 N1          5.6870   69.3750   28.2040 N.ar      1 6O3        -0.2755
     10 C2          4.4000   68.9470   28.5330 C.ar      1 6O3         0.0773
     11 N3          3.4240   69.9430   28.7220 N.ar      1 6O3        -0.2565
     12 C4          3.7140   71.2620   28.5880 C.ar      1 6O3         0.1214
     13 SAE         2.6920   72.6050   28.8000 S.3       1 6O3        -0.0154
     14 CAD         3.9450   73.8730   28.4390 C.2       1 6O3         0.0418
     15 CAJ         3.6950   75.2620   28.3730 C.ar      1 6O3        -0.0184
     16 CAK         4.6340   76.3170   28.6220 C.ar      1 6O3        -0.0621
     17 CAL         4.3280   77.6800   28.4820 C.ar      1 6O3        -0.0614
     18 CAM         3.0540   78.0930   28.0910 C.ar      1 6O3        -0.0469
     19 CAP         2.7720   79.4760   27.9690 C.3       1 6O3        -0.0315
     20 CAN         2.0990   77.0960   27.8170 C.ar      1 6O3        -0.0614
     21 CAO         2.4120   75.7240   27.9490 C.ar      1 6O3        -0.0621
     22 H1          6.5757   74.7183   28.1812 H         1 6O3         0.0584
     23 H2          7.2769   73.0701   28.3172 H         1 6O3         0.0584
     24 H3          6.9344   71.0887   27.8327 H         1 6O3         0.0909
     25 H4          4.1628   67.8945   28.6382 H         1 6O3         0.1060
     26 H5          5.6358   76.0470   28.9358 H         1 6O3         0.0589
     27 H6          5.0926   78.4223   28.6806 H         1 6O3         0.0556
     28 H7          1.7268   79.6106   27.6538 H         1 6O3         0.0391
     29 H8          3.4415   79.9220   27.2188 H         1 6O3         0.0391
     30 H9          2.9287   79.9692   28.9397 H         1 6O3         0.0391
     31 H10         1.1042   77.3860   27.4986 H         1 6O3         0.0556
     32 H11         1.6463   74.9920   27.7188 H         1 6O3         0.0589
@<TRIPOS>BOND
     1    1    2 ar 
     2    2    3 ar 
     3    2    4 ar 
     4    2    5 1  
     5    5    6 1  
     6    6    7 1  
     7    6   14 2  
     8    7    8 ar 
     9    7   12 ar 
    10    8    9 ar 
    11    9   10 ar 
    12   10   11 ar 
    13   11   12 ar 
    14   12   13 1  
    15   13   14 1  
    16   14   15 1  
    17   15   16 ar 
    18   15   21 ar 
    19   16   17 ar 
    20   17   18 ar 
    21   18   19 1  
    22   18   20 ar 
    23   20   21 ar 
    24    5   22 1  
    25    5   23 1  
    26    8   24 1  
    27   10   25 1  
    28   16   26 1  
    29   17   27 1  
    30   19   28 1  
    31   19   29 1  
    32   19   30 1  
    33   20   31 1  
    34   21   32 1  
@<TRIPOS>SUBSTRUCTURE
     1 6O3         1

