5jv2_ligand
  -I-interpret- 

 34 36  0  0  0  0  0  0  0  0999 V2000
    5.6030   74.4340   25.3740 O   0  0  0  0  0
    6.8840   73.7030   26.1500 P   0  0  0  0  0
    6.9190   72.1680   25.5150 O   0  0  0  0  0
    8.2040   74.4230   26.0640 O   0  0  0  0  0
    6.5230   73.6860   27.8050 C   0  0  0  0  0
    5.0840   73.1020   28.1470 C   0  0  0  0  0
    4.9680   71.7130   28.2620 C   0  0  0  0  0
    5.9310   70.7630   28.0820 C   0  0  0  0  0
    5.6870   69.3750   28.2040 N   0  0  0  0  0
    4.4000   68.9470   28.5330 C   0  0  0  0  0
    3.4240   69.9430   28.7220 N   0  0  0  0  0
    3.7140   71.2620   28.5880 C   0  0  0  0  0
    2.6920   72.6050   28.8000 S   0  0  0  0  0
    3.9450   73.8730   28.4390 C   0  0  0  0  0
    3.6950   75.2620   28.3730 C   0  0  0  0  0
    4.6340   76.3170   28.6220 C   0  0  0  0  0
    4.3280   77.6800   28.4820 C   0  0  0  0  0
    3.0540   78.0930   28.0910 C   0  0  0  0  0
    2.7720   79.4760   27.9690 C   0  0  0  0  0
    2.0990   77.0960   27.8170 C   0  0  0  0  0
    2.4120   75.7240   27.9490 C   0  0  0  0  0
    4.8139   73.8993   25.4881 H   0  0  0  0  0
    6.0509   71.7674   25.6012 H   0  0  0  0  0
    6.5432   74.7194   28.1510 H   0  0  0  0  0
    7.2569   73.0419   28.2895 H   0  0  0  0  0
    6.9400   71.0905   27.8314 H   0  0  0  0  0
    4.1615   67.8887   28.6388 H   0  0  0  0  0
    5.6414   76.0455   28.9375 H   0  0  0  0  0
    5.0969   78.4264   28.6817 H   0  0  0  0  0
    2.9277   79.9635   28.9314 H   0  0  0  0  0
    3.4360   79.9167   27.2254 H   0  0  0  0  0
    1.7361   79.6081   27.6567 H   0  0  0  0  0
    1.0987   77.3876   27.4968 H   0  0  0  0  0
    1.6421   74.9880   27.7175 H   0  0  0  0  0
  1  2  1  0  0  0
  2  3  1  0  0  0
  2  4  2  0  0  0
  2  5  1  0  0  0
  5  6  1  0  0  0
  6  7  4  0  0  0
  6 14  4  0  0  0
  7  8  4  0  0  0
  7 12  4  0  0  0
  8  9  4  0  0  0
  9 10  4  0  0  0
 10 11  4  0  0  0
 11 12  4  0  0  0
 12 13  4  0  0  0
 13 14  4  0  0  0
 14 15  1  0  0  0
 15 16  4  0  0  0
 15 21  4  0  0  0
 16 17  4  0  0  0
 17 18  4  0  0  0
 18 19  1  0  0  0
 18 20  4  0  0  0
 20 21  4  0  0  0
  1 22  1  0  0  0
  3 23  1  0  0  0
  5 24  1  0  0  0
  5 25  1  0  0  0
  8 26  1  0  0  0
 10 27  1  0  0  0
 16 28  1  0  0  0
 17 29  1  0  0  0
 19 30  1  0  0  0
 19 31  1  0  0  0
 19 32  1  0  0  0
 20 33  1  0  0  0
 21 34  1  0  0  0
M  END
$$$$
