4x1p_ligand
  -I-interpret- 

146149  0  0  0  0  0  0  0  0999 V2000
   26.5610   21.8380  -28.6560 N   0  3  0  0  0
   27.2560   21.1840  -27.4930 C   0  0  0  0  0
   26.4350   21.0520  -26.1790 C   0  0  0  0  0
   26.0630   19.9270  -25.8150 O   0  0  0  0  0
   28.6530   21.8230  -27.2360 C   0  0  0  0  0
   29.6570   21.2300  -25.8040 S   0  0  0  0  0
   26.1460   22.1900  -25.4890 N   0  0  0  0  0
   25.7740   22.2720  -24.0590 C   0  0  0  0  0
   25.3200   20.9550  -23.4020 C   0  0  0  0  0
   24.5390   20.2350  -24.0210 O   0  0  0  0  0
   24.6470   23.3210  -24.0780 C   0  0  0  0  0
   25.1070   24.2950  -25.1290 C   0  0  0  0  0
   25.9200   23.5030  -26.1450 C   0  0  0  0  0
   25.7250   20.6150  -22.1680 N   0  0  0  0  0
   26.3330   21.4180  -21.0630 C   0  0  0  0  0
   25.5540   20.9860  -19.7990 C   0  0  0  0  0
   24.4920   21.5460  -19.4780 O   0  0  0  0  0
   26.2380   22.9170  -21.2570 C   0  0  0  0  0
   26.0540   19.9600  -19.1130 N   0  0  0  0  0
   25.3260   19.3090  -17.9950 C   0  0  0  0  0
   26.3800   19.1290  -16.9220 C   0  0  0  0  0
   27.5440   19.2370  -17.2220 O   0  0  0  0  0
   24.7820   17.9310  -18.4170 C   0  0  0  0  0
   23.6100   18.0100  -19.3420 C   0  0  0  0  0
   22.3130   18.1090  -18.8300 C   0  0  0  0  0
   23.7910   18.0200  -20.7460 C   0  0  0  0  0
   21.2150   18.2290  -19.6710 C   0  0  0  0  0
   22.7020   18.1270  -21.6080 C   0  0  0  0  0
   21.4150   18.2310  -21.0630 C   0  0  0  0  0
   20.3150   18.3350  -21.8940 O   0  0  0  0  0
   25.9860   18.9600  -15.6660 N   0  0  0  0  0
   27.0150   18.6910  -14.6400 C   0  0  0  0  0
   27.5170   17.2580  -14.6450 C   0  0  0  0  0
   26.7070   16.3040  -14.6440 O   0  0  0  0  0
   26.4870   19.0970  -13.2850 C   0  0  0  0  0
   27.5290   18.8640  -12.3750 O   0  0  0  0  0
   29.0380   17.0660  -14.6710 N   0  0  0  0  0
   29.0910   15.6440  -14.3780 C   0  0  0  0  0
   29.1020   15.2460  -12.8850 C   0  0  0  0  0
   29.3600   14.6230  -15.4780 C   0  0  0  0  0
   29.3100   13.3630  -14.8670 O   0  0  0  0  0
   28.8320   15.3110  -16.7860 N   0  3  0  0  0
   28.9140   14.0710  -17.6440 C   0  0  0  0  0
   30.0660   14.2040  -18.6670 C   0  0  0  0  0
   31.2680   13.9350  -18.3570 O   0  0  0  0  0
   27.5220   13.8100  -18.2420 C   0  0  0  0  0
   27.4090   12.6430  -19.2380 C   0  0  0  0  0
   28.1060   11.4190  -19.0360 C   0  0  0  0  0
   26.5760   12.7720  -20.3820 C   0  0  0  0  0
   27.9940   10.3790  -19.9570 C   0  0  0  0  0
   26.4540   11.7420  -21.2910 C   0  0  0  0  0
   27.1450   10.5410  -21.0620 C   0  0  0  0  0
   27.0110    9.4890  -21.9810 O   0  0  0  0  0
   29.7290   14.6260  -19.8720 N   0  0  0  0  0
   30.7490   14.9800  -20.8650 C   0  0  0  0  0
   30.9390   16.5050  -21.0520 C   0  0  0  0  0
   30.1630   17.3410  -20.5390 O   0  0  0  0  0
   30.4020   14.3460  -22.2190 C   0  0  0  0  0
   29.9510   12.8900  -22.1210 C   0  0  0  0  0
   29.1920   12.4800  -23.3940 C   0  0  0  0  0
   31.1270   11.9230  -21.8700 C   0  0  0  0  0
   31.9690   16.8680  -21.8090 N   0  0  0  0  0
   32.0950   18.2770  -22.1680 C   0  0  0  0  0
   30.7840   18.7350  -22.8650 C   0  0  0  0  0
   30.2020   19.7810  -22.4860 O   0  0  0  0  0
   33.3030   18.4960  -23.1070 C   0  0  0  0  0
   33.8850   19.9080  -23.0120 C   0  0  0  0  0
   33.3140   20.8020  -22.3370 O   0  0  0  0  0
   34.9760   20.1160  -23.5820 O   0  0  0  0  0
   30.4370   17.9700  -23.9130 N   0  0  0  0  0
   29.2520   18.1320  -24.7570 C   0  0  0  0  0
   28.4070   16.8880  -24.6440 C   0  0  0  0  0
   28.8030   15.8530  -25.1540 O   0  0  0  0  0
   29.6920   18.2550  -26.2210 C   0  0  0  0  0
   30.7880   19.6770  -26.5090 S   0  0  0  0  0
   27.3460   16.9440  -24.0450 O   0  0  0  0  0
   25.6516   21.3984  -28.7981 H   0  0  0  0  0
   26.4331   22.8307  -28.4596 H   0  0  0  0  0
   27.1287   21.7268  -29.4961 H   0  0  0  0  0
   27.3825   20.1504  -27.8152 H   0  0  0  0  0
   28.4474   22.8715  -27.0204 H   0  0  0  0  0
   29.2437   21.5717  -28.1170 H   0  0  0  0  0
   26.6372   22.5272  -23.4443 H   0  0  0  0  0
   24.4913   23.7906  -23.1068 H   0  0  0  0  0
   23.6717   22.8885  -24.3015 H   0  0  0  0  0
   25.7109   25.0858  -24.6840 H   0  0  0  0  0
   24.2545   24.7764  -25.6082 H   0  0  0  0  0
   25.4005   23.4021  -27.0979 H   0  0  0  0  0
   26.8553   24.0009  -26.4006 H   0  0  0  0  0
   25.5940   19.6287  -21.9432 H   0  0  0  0  0
   27.4048   21.2271  -21.0082 H   0  0  0  0  0
   26.7532   23.1965  -22.1760 H   0  0  0  0  0
   25.1896   23.2077  -21.3238 H   0  0  0  0  0
   26.7031   23.4219  -20.4103 H   0  0  0  0  0
   26.9765   19.6063  -19.3665 H   0  0  0  0  0
   24.4703   19.8995  -17.6676 H   0  0  0  0  0
   24.4521   17.4184  -17.5134 H   0  0  0  0  0
   25.5814   17.4109  -18.9449 H   0  0  0  0  0
   22.1610   18.0917  -17.7508 H   0  0  0  0  0
   24.7970   17.9429  -21.1585 H   0  0  0  0  0
   20.2106   18.3205  -19.2576 H   0  0  0  0  0
   22.8483   18.1298  -22.6881 H   0  0  0  0  0
   20.6045   18.3230  -22.8092 H   0  0  0  0  0
   24.9988   19.0144  -15.4154 H   0  0  0  0  0
   27.8898   19.2936  -14.8844 H   0  0  0  0  0
   25.5983   18.5238  -13.0210 H   0  0  0  0  0
   26.1850   20.1443  -13.2779 H   0  0  0  0  0
   27.2418   19.1080  -11.4921 H   0  0  0  0  0
   29.7878   17.7358  -14.8426 H   0  0  0  0  0
   28.0997   15.2964  -14.6687 H   0  0  0  0  0
   29.9752   15.6827  -12.4003 H   0  0  0  0  0
   28.1957   15.6154  -12.4051 H   0  0  0  0  0
   29.1429   14.1601  -12.8001 H   0  0  0  0  0
   30.2518   14.2835  -16.0048 H   0  0  0  0  0
   29.4746   12.6831  -15.5244 H   0  0  0  0  0
   29.3405   16.1326  -17.1127 H   0  0  0  0  0
   27.9249   15.7741  -16.7299 H   0  0  0  0  0
   29.1722   13.1848  -17.0643 H   0  0  0  0  0
   27.2605   14.7089  -18.8002 H   0  0  0  0  0
   26.8766   13.5529  -17.4021 H   0  0  0  0  0
   28.7330   11.2937  -18.1532 H   0  0  0  0  0
   26.0253   13.6987  -20.5435 H   0  0  0  0  0
   28.5566    9.4553  -19.8210 H   0  0  0  0  0
   25.8289   11.8587  -22.1763 H   0  0  0  0  0
   26.4013    9.7482  -22.6758 H   0  0  0  0  0
   28.7421   14.7072  -20.1166 H   0  0  0  0  0
   31.6913   14.5899  -20.4803 H   0  0  0  0  0
   31.3057   14.3659  -22.8281 H   0  0  0  0  0
   29.5737   14.9149  -22.6414 H   0  0  0  0  0
   29.2857   12.8193  -21.2605 H   0  0  0  0  0
   28.3160   13.1173  -23.5143 H   0  0  0  0  0
   29.8467   12.5931  -24.2581 H   0  0  0  0  0
   28.8773   11.4399  -23.3087 H   0  0  0  0  0
   31.8402   11.9996  -22.6907 H   0  0  0  0  0
   31.6189   12.1865  -20.9337 H   0  0  0  0  0
   30.7497   10.9022  -21.8090 H   0  0  0  0  0
   32.6519   16.1817  -22.1299 H   0  0  0  0  0
   32.2604   18.8660  -21.2659 H   0  0  0  0  0
   32.9596   18.3463  -24.1306 H   0  0  0  0  0
   34.0837   17.7943  -22.8133 H   0  0  0  0  0
   32.4931   20.4560  -21.9793 H   0  0  0  0  0
   31.0624   17.1981  -24.1442 H   0  0  0  0  0
   28.6976   19.0166  -24.4435 H   0  0  0  0  0
   29.6510   16.0095  -25.5759 H   0  0  0  0  0
   28.7975   18.3941  -26.8282 H   0  0  0  0  0
   30.2422   17.3509  -26.4817 H   0  0  0  0  0
  1  2  1  0  0  0
  2  3  1  0  0  0
  2  5  1  0  0  0
  3  4  2  0  0  0
  3  7  1  0  0  0
  5  6  1  0  0  0
  6 75  1  0  0  0
  7  8  1  0  0  0
  7 13  1  0  0  0
  8  9  1  0  0  0
  8 11  1  0  0  0
  9 10  2  0  0  0
  9 14  1  0  0  0
 11 12  1  0  0  0
 12 13  1  0  0  0
 14 15  1  0  0  0
 15 16  1  0  0  0
 15 18  1  0  0  0
 16 17  2  0  0  0
 16 19  1  0  0  0
 19 20  1  0  0  0
 20 21  1  0  0  0
 20 23  1  0  0  0
 21 22  2  0  0  0
 21 31  1  0  0  0
 23 24  1  0  0  0
 24 25  4  0  0  0
 24 26  4  0  0  0
 25 27  4  0  0  0
 26 28  4  0  0  0
 27 29  4  0  0  0
 28 29  4  0  0  0
 29 30  1  0  0  0
 31 32  1  0  0  0
 32 33  1  0  0  0
 32 35  1  0  0  0
 33 34  2  0  0  0
 33 37  1  0  0  0
 35 36  1  0  0  0
 37 38  1  0  0  0
 38 39  1  0  0  0
 38 40  1  0  0  0
 40 41  1  0  0  0
 40 42  1  0  0  0
 42 43  1  0  0  0
 43 44  1  0  0  0
 43 46  1  0  0  0
 44 45  2  0  0  0
 44 54  1  0  0  0
 46 47  1  0  0  0
 47 48  4  0  0  0
 47 49  4  0  0  0
 48 50  4  0  0  0
 49 51  4  0  0  0
 50 52  4  0  0  0
 51 52  4  0  0  0
 52 53  1  0  0  0
 54 55  1  0  0  0
 55 56  1  0  0  0
 55 58  1  0  0  0
 56 57  2  0  0  0
 56 62  1  0  0  0
 58 59  1  0  0  0
 59 60  1  0  0  0
 59 61  1  0  0  0
 62 63  1  0  0  0
 63 64  1  0  0  0
 63 66  1  0  0  0
 64 65  2  0  0  0
 64 70  1  0  0  0
 66 67  1  0  0  0
 67 68  1  0  0  0
 67 69  2  0  0  0
 70 71  1  0  0  0
 71 72  1  0  0  0
 71 74  1  0  0  0
 72 73  1  0  0  0
 72 76  2  0  0  0
 74 75  1  0  0  0
  1 77  1  0  0  0
  1 78  1  0  0  0
  1 79  1  0  0  0
  2 80  1  0  0  0
  5 81  1  0  0  0
  5 82  1  0  0  0
  8 83  1  0  0  0
 11 84  1  0  0  0
 11 85  1  0  0  0
 12 86  1  0  0  0
 12 87  1  0  0  0
 13 88  1  0  0  0
 13 89  1  0  0  0
 14 90  1  0  0  0
 15 91  1  0  0  0
 18 92  1  0  0  0
 18 93  1  0  0  0
 18 94  1  0  0  0
 19 95  1  0  0  0
 20 96  1  0  0  0
 23 97  1  0  0  0
 23 98  1  0  0  0
 25 99  1  0  0  0
 26100  1  0  0  0
 27101  1  0  0  0
 28102  1  0  0  0
 30103  1  0  0  0
 31104  1  0  0  0
 32105  1  0  0  0
 35106  1  0  0  0
 35107  1  0  0  0
 36108  1  0  0  0
 37109  1  0  0  0
 38110  1  0  0  0
 39111  1  0  0  0
 39112  1  0  0  0
 39113  1  0  0  0
 40114  1  0  0  0
 41115  1  0  0  0
 42116  1  0  0  0
 42117  1  0  0  0
 43118  1  0  0  0
 46119  1  0  0  0
 46120  1  0  0  0
 48121  1  0  0  0
 49122  1  0  0  0
 50123  1  0  0  0
 51124  1  0  0  0
 53125  1  0  0  0
 54126  1  0  0  0
 55127  1  0  0  0
 58128  1  0  0  0
 58129  1  0  0  0
 59130  1  0  0  0
 60131  1  0  0  0
 60132  1  0  0  0
 60133  1  0  0  0
 61134  1  0  0  0
 61135  1  0  0  0
 61136  1  0  0  0
 62137  1  0  0  0
 63138  1  0  0  0
 66139  1  0  0  0
 66140  1  0  0  0
 68141  1  0  0  0
 70142  1  0  0  0
 71143  1  0  0  0
 73144  1  0  0  0
 74145  1  0  0  0
 74146  1  0  0  0
M  END
$$$$
