### 
### Created by X-TOOL on Mon Sep 10 21:13:23 2018
### 

@<TRIPOS>MOLECULE
4x1p_ligand
  144   147     1     0     0
SMALL
GAST_HUCK


@<TRIPOS>ATOM
      1 N          26.5610   21.8380  -28.6560 N.4       1 CYS         0.2385
      2 CA         27.2560   21.1840  -27.4930 C.3       1 CYS         0.0751
      3 C          26.4350   21.0520  -26.1790 C.2       1 CYS         0.2300
      4 O          26.0630   19.9270  -25.8150 O.2       1 CYS        -0.3905
      5 CB         28.6530   21.8230  -27.2360 C.3       1 CYS         0.0643
      6 SG         29.6570   21.2300  -25.8040 S.3       1 CYS        -0.0848
      7 N          26.1460   22.1900  -25.4890 N.am      1 PRO        -0.2471
      8 CA         25.7740   22.2720  -24.0590 C.3       1 PRO         0.1339
      9 C          25.3200   20.9550  -23.4020 C.2       1 PRO         0.2041
     10 O          24.5390   20.2350  -24.0210 O.2       1 PRO        -0.3944
     11 CB         24.6470   23.3210  -24.0780 C.3       1 PRO        -0.0104
     12 CG         25.1070   24.2950  -25.1290 C.3       1 PRO        -0.0281
     13 CD         25.9200   23.5030  -26.1450 C.3       1 PRO         0.0371
     14 N          25.7250   20.6150  -22.1680 N.am      1 ALA        -0.2640
     15 CA         26.3330   21.4180  -21.0630 C.3       1 ALA         0.1282
     16 C          25.5540   20.9860  -19.7990 C.2       1 ALA         0.2037
     17 O          24.4920   21.5460  -19.4780 O.2       1 ALA        -0.3944
     18 CB         26.2380   22.9170  -21.2570 C.3       1 ALA        -0.0244
     19 N          26.0540   19.9600  -19.1130 N.am      1 TYR        -0.2621
     20 CA         25.3260   19.3090  -17.9950 C.3       1 TYR         0.1390
     21 C          26.3800   19.1290  -16.9220 C.2       1 TYR         0.2058
     22 O          27.5440   19.2370  -17.2220 O.2       1 TYR        -0.3942
     23 CB         24.7820   17.9310  -18.4170 C.3       1 TYR         0.0163
     24 CG         23.6100   18.0100  -19.3420 C.ar      1 TYR        -0.0493
     25 CD1        22.3130   18.1090  -18.8300 C.ar      1 TYR        -0.0685
     26 CD2        23.7910   18.0200  -20.7460 C.ar      1 TYR        -0.0685
     27 CE1        21.2150   18.2290  -19.6710 C.ar      1 TYR        -0.0398
     28 CE2        22.7020   18.1270  -21.6080 C.ar      1 TYR        -0.0398
     29 CZ         21.4150   18.2310  -21.0630 C.ar      1 TYR         0.0805
     30 OH         20.3150   18.3350  -21.8940 O.3       1 TYR        -0.3376
     31 N          25.9860   18.9600  -15.6660 N.am      1 SER        -0.2614
     32 CA         27.0150   18.6910  -14.6400 C.3       1 SER         0.1538
     33 C          27.5170   17.2580  -14.6450 C.2       1 SER         0.2044
     34 O          26.7070   16.3040  -14.6440 O.2       1 SER        -0.3944
     35 CB         26.4870   19.0970  -13.2850 C.3       1 SER         0.0843
     36 OG         27.5290   18.8640  -12.3750 O.3       1 SER        -0.3903
     37 N          29.0380   17.0660  -14.6710 N.am      1 DAL        -0.2742
     38 CA         29.0910   15.6440  -14.3780 C.3       1 DAL         0.1077
     39 CB         29.1020   15.2460  -12.8850 C.3       1 DAL        -0.0342
     40 C          29.3600   14.6230  -15.4780 C.3       1 DAL         0.1055
     41 O          29.3100   13.3630  -14.8670 O.3       1 DAL        -0.3507
     42 N          28.8320   15.3110  -16.7860 N.4       1 TYR         0.2708
     43 CA         28.9140   14.0710  -17.6440 C.3       1 TYR         0.0774
     44 C          30.0660   14.2040  -18.6670 C.2       1 TYR         0.2287
     45 O          31.2680   13.9350  -18.3570 O.2       1 TYR        -0.3905
     46 CB         27.5220   13.8100  -18.2420 C.3       1 TYR         0.0367
     47 CG         27.4090   12.6430  -19.2380 C.ar      1 TYR        -0.0460
     48 CD1        28.1060   11.4190  -19.0360 C.ar      1 TYR        -0.0684
     49 CD2        26.5760   12.7720  -20.3820 C.ar      1 TYR        -0.0684
     50 CE1        27.9940   10.3790  -19.9570 C.ar      1 TYR        -0.0398
     51 CE2        26.4540   11.7420  -21.2910 C.ar      1 TYR        -0.0398
     52 CZ         27.1450   10.5410  -21.0620 C.ar      1 TYR         0.0805
     53 OH         27.0110    9.4890  -21.9810 O.3       1 TYR        -0.3376
     54 N          29.7290   14.6260  -19.8720 N.am      1 LEU        -0.2609
     55 CA         30.7490   14.9800  -20.8650 C.3       1 LEU         0.1313
     56 C          30.9390   16.5050  -21.0520 C.2       1 LEU         0.2040
     57 O          30.1630   17.3410  -20.5390 O.2       1 LEU        -0.3944
     58 CB         30.4020   14.3460  -22.2190 C.3       1 LEU        -0.0101
     59 CG         29.9510   12.8900  -22.1210 C.3       1 LEU        -0.0425
     60 CD1        29.1920   12.4800  -23.3940 C.3       1 LEU        -0.0625
     61 CD2        31.1270   11.9230  -21.8700 C.3       1 LEU        -0.0625
     62 N          31.9690   16.8680  -21.8090 N.am      1 ASP        -0.2622
     63 CA         32.0950   18.2770  -22.1680 C.3       1 ASP         0.1423
     64 C          30.7840   18.7350  -22.8650 C.2       1 ASP         0.2051
     65 O          30.2020   19.7810  -22.4860 O.2       1 ASP        -0.3943
     66 CB         33.3030   18.4960  -23.1070 C.3       1 ASP         0.0406
     67 CG         33.8850   19.9080  -23.0120 C.2       1 ASP         0.0393
     68 OD1        33.3140   20.8020  -22.3370 O.co2     1 ASP        -0.5688
     69 OD2        34.9760   20.1160  -23.5820 O.co2     1 ASP        -0.5688
     70 N          30.4370   17.9700  -23.9130 N.am      1 CYS        -0.2686
     71 CA         29.2520   18.1320  -24.7570 C.3       1 CYS         0.1041
     72 C          28.4070   16.8880  -24.6440 C.2       1 CYS         0.0609
     73 O          28.8030   15.8530  -25.1540 O.co2     1 CYS        -0.5666
     74 CB         29.6920   18.2550  -26.2210 C.3       1 CYS         0.0388
     75 SG         30.7880   19.6770  -26.5090 S.3       1 CYS        -0.0887
     76 OXT        27.3460   16.9440  -24.0450 O.co2     1 CYS        -0.5666
     77 H1         27.1854   21.8682  -29.4468 H         1 CYS         0.2015
     78 H2         26.2935   22.7764  -28.4031 H         1 CYS         0.2015
     79 H3         25.7385   21.3076  -28.8974 H         1 CYS         0.2015
     80 H4         27.4477   20.1503  -27.8164 H         1 CYS         0.1107
     81 H5         28.4930   22.9019  -27.0930 H         1 CYS         0.0466
     82 H6         29.2547   21.6584  -28.1420 H         1 CYS         0.0466
     83 H7         26.6317   22.6485  -23.4823 H         1 PRO         0.0802
     84 H8         24.5487   23.8132  -23.0992 H         1 PRO         0.0313
     85 H9         23.6862   22.8637  -24.3566 H         1 PRO         0.0313
     86 H10        25.7317   25.0766  -24.6721 H         1 PRO         0.0287
     87 H11        24.2388   24.7595  -25.6195 H         1 PRO         0.0287
     88 H12        25.3580   23.3789  -27.0824 H         1 PRO         0.0524
     89 H13        26.8766   24.0040  -26.3545 H         1 PRO         0.0524
     90 H14        25.5966   19.6481  -21.9476 H         1 ALA         0.1883
     91 H15        27.3956   21.1521  -20.9619 H         1 ALA         0.0797
     92 H16        26.7071   23.4277  -20.4031 H         1 ALA         0.0277
     93 H17        25.1804   23.2117  -21.3246 H         1 ALA         0.0277
     94 H18        26.7576   23.2004  -22.1842 H         1 ALA         0.0277
     95 H19        26.9584   19.6133  -19.3616 H         1 TYR         0.1885
     96 H20        24.5008   19.9442  -17.6408 H         1 TYR         0.0821
     97 H21        24.4752   17.3858  -17.5122 H         1 TYR         0.0453
     98 H22        25.5878   17.3785  -18.9225 H         1 TYR         0.0453
     99 H23        22.1618   18.0918  -17.7567 H         1 TYR         0.0530
    100 H24        24.7915   17.9433  -21.1562 H         1 TYR         0.0530
    101 H25        20.2161   18.3200  -19.2599 H         1 TYR         0.0525
    102 H26        22.8475   18.1298  -22.6822 H         1 TYR         0.0525
    103 H27        19.5266   18.3965  -21.3676 H         1 TYR         0.2458
    104 H28        25.0181   19.0133  -15.4203 H         1 SER         0.1884
    105 H29        27.8795   19.3321  -14.8671 H         1 SER         0.0823
    106 H30        25.6074   18.4916  -13.0211 H         1 SER         0.0606
    107 H31        26.2122   20.1621  -13.2859 H         1 SER         0.0606
    108 H32        27.2448   19.1054  -11.5012 H         1 SER         0.2097
    109 H33        29.7731   17.7227  -14.8392 H         1 DAL         0.1858
    110 H34        28.0017   15.5199  -14.4671 H         1 DAL         0.0636
    111 H35        29.1432   14.1502  -12.7980 H         1 DAL         0.0255
    112 H36        28.1878   15.6182  -12.3995 H         1 DAL         0.0255
    113 H37        29.9828   15.6861  -12.3947 H         1 DAL         0.0255
    114 H38        30.4409   14.6739  -15.6756 H         1 DAL         0.1208
    115 H39        29.7048   12.7177  -15.4417 H         1 DAL         0.2155
    116 H40        29.4347   16.0513  -17.1095 H         1 TYR         0.2066
    117 H41        27.8912   15.6604  -16.6921 H         1 TYR         0.2066
    118 H42        29.1579   13.2160  -16.9964 H         1 TYR         0.1121
    119 H43        27.2054   14.7255  -18.7631 H         1 TYR         0.0486
    120 H44        26.8336   13.6056  -17.4088 H         1 TYR         0.0486
    121 H45        28.7295   11.2944  -18.1581 H         1 TYR         0.0530
    122 H46        26.0283   13.6936  -20.5426 H         1 TYR         0.0530
    123 H47        28.5535    9.4604  -19.8218 H         1 TYR         0.0525
    124 H48        25.8324   11.8580  -22.1714 H         1 TYR         0.0525
    125 H49        27.5335    8.7498  -21.6928 H         1 TYR         0.2458
    126 H50        28.7614   14.7057  -20.1118 H         1 LEU         0.1885
    127 H51        31.7068   14.5635  -20.5199 H         1 LEU         0.0800
    128 H52        31.2939   14.3902  -22.8613 H         1 LEU         0.0315
    129 H53        29.5906   14.9301  -22.6776 H         1 LEU         0.0315
    130 H54        29.2613   12.8091  -21.2679 H         1 LEU         0.0298
    131 H55        28.8738   11.4305  -23.3091 H         1 LEU         0.0232
    132 H56        29.8516   12.5937  -24.2669 H         1 LEU         0.0232
    133 H57        28.3076   13.1225  -23.5166 H         1 LEU         0.0232
    134 H58        31.6622   12.2256  -20.9579 H         1 LEU         0.0232
    135 H59        31.8162   11.9537  -22.7267 H         1 LEU         0.0232
    136 H60        30.7409   10.9004  -21.7464 H         1 LEU         0.0232
    137 H61        32.6385   16.1951  -22.1236 H         1 ASP         0.1884
    138 H62        32.2446   18.8695  -21.2534 H         1 ASP         0.0819
    139 H63        32.9783   18.3196  -24.1431 H         1 ASP         0.0478
    140 H64        34.0892   17.7741  -22.8411 H         1 ASP         0.0478
    141 H65        31.0502   17.2132  -24.1396 H         1 CYS         0.1876
    142 H66        28.6806   19.0199  -24.4484 H         1 CYS         0.0734
    143 H67        28.7961   18.3687  -26.8491 H         1 CYS         0.0425
    144 H68        30.2256   17.3364  -26.5062 H         1 CYS         0.0425
@<TRIPOS>BOND
     1    1    2 1  
     2    2    3 1  
     3    2    5 1  
     4    3    4 2  
     5    3    7 am 
     6    5    6 1  
     7    6   75 1  
     8    7    8 1  
     9    7   13 1  
    10    8    9 1  
    11    8   11 1  
    12    9   10 2  
    13    9   14 am 
    14   11   12 1  
    15   12   13 1  
    16   14   15 1  
    17   15   16 1  
    18   15   18 1  
    19   16   17 2  
    20   16   19 am 
    21   19   20 1  
    22   20   21 1  
    23   20   23 1  
    24   21   22 2  
    25   21   31 am 
    26   23   24 1  
    27   24   25 ar 
    28   24   26 ar 
    29   25   27 ar 
    30   26   28 ar 
    31   27   29 ar 
    32   28   29 ar 
    33   29   30 1  
    34   31   32 1  
    35   32   33 1  
    36   32   35 1  
    37   33   34 2  
    38   33   37 am 
    39   35   36 1  
    40   37   38 1  
    41   38   39 1  
    42   38   40 1  
    43   40   41 1  
    44   40   42 1  
    45   42   43 1  
    46   43   44 1  
    47   43   46 1  
    48   44   45 2  
    49   44   54 am 
    50   46   47 1  
    51   47   48 ar 
    52   47   49 ar 
    53   48   50 ar 
    54   49   51 ar 
    55   50   52 ar 
    56   51   52 ar 
    57   52   53 1  
    58   54   55 1  
    59   55   56 1  
    60   55   58 1  
    61   56   57 2  
    62   56   62 am 
    63   58   59 1  
    64   59   60 1  
    65   59   61 1  
    66   62   63 1  
    67   63   64 1  
    68   63   66 1  
    69   64   65 2  
    70   64   70 am 
    71   66   67 1  
    72   67   68 ar 
    73   67   69 ar 
    74   70   71 1  
    75   71   72 1  
    76   71   74 1  
    77   72   73 ar 
    78   72   76 ar 
    79   74   75 1  
    80    1   77 1  
    81    1   78 1  
    82    1   79 1  
    83    2   80 1  
    84    5   81 1  
    85    5   82 1  
    86    8   83 1  
    87   11   84 1  
    88   11   85 1  
    89   12   86 1  
    90   12   87 1  
    91   13   88 1  
    92   13   89 1  
    93   14   90 1  
    94   15   91 1  
    95   18   92 1  
    96   18   93 1  
    97   18   94 1  
    98   19   95 1  
    99   20   96 1  
   100   23   97 1  
   101   23   98 1  
   102   25   99 1  
   103   26  100 1  
   104   27  101 1  
   105   28  102 1  
   106   30  103 1  
   107   31  104 1  
   108   32  105 1  
   109   35  106 1  
   110   35  107 1  
   111   36  108 1  
   112   37  109 1  
   113   38  110 1  
   114   39  111 1  
   115   39  112 1  
   116   39  113 1  
   117   40  114 1  
   118   41  115 1  
   119   42  116 1  
   120   42  117 1  
   121   43  118 1  
   122   46  119 1  
   123   46  120 1  
   124   48  121 1  
   125   49  122 1  
   126   50  123 1  
   127   51  124 1  
   128   53  125 1  
   129   54  126 1  
   130   55  127 1  
   131   58  128 1  
   132   58  129 1  
   133   59  130 1  
   134   60  131 1  
   135   60  132 1  
   136   60  133 1  
   137   61  134 1  
   138   61  135 1  
   139   61  136 1  
   140   62  137 1  
   141   63  138 1  
   142   66  139 1  
   143   66  140 1  
   144   70  141 1  
   145   71  142 1  
   146   74  143 1  
   147   74  144 1  
@<TRIPOS>SUBSTRUCTURE
     1 CYS         1

