4oag_ligand
  -I-interpret- 

 42 44  0  0  0  0  0  0  0  0999 V2000
   77.4250  -11.3180    4.4600 P   0  0  0  0  0
   78.3880  -10.9800    3.3350 O   0  0  0  0  0
   76.4510  -10.2010    4.8040 O   0  0  0  0  0
   76.7860  -12.6720    4.3610 O   0  0  0  0  0
   78.2520  -12.3450    7.0080 P   0  0  0  0  0
   79.0440  -11.7100    8.1310 O   0  0  0  0  0
   76.8040  -12.7310    7.1880 O   0  0  0  0  0
   78.4010  -11.3640    5.7390 O   0  0  0  0  0
   79.0680  -13.5930    6.4310 O   0  0  0  0  0
   78.3970  -14.7810    6.0500 C   0  0  0  0  0
   79.3110  -15.9270    6.4360 C   0  0  0  0  0
   79.3830  -15.9870    7.8620 O   0  0  0  0  0
   78.8080  -17.2800    5.9580 C   0  0  0  0  0
   79.9030  -17.9980    5.3610 O   0  0  0  0  0
   78.3280  -17.9780    7.2180 C   0  0  0  0  0
   78.5450  -19.3900    7.1630 O   0  0  0  0  0
   79.2200  -17.3430    8.2720 C   0  0  0  0  0
   78.7530  -17.3270    9.6760 N   0  0  0  0  0
   77.6270  -16.8020   10.2050 C   0  0  0  0  0
   77.6250  -16.9720   11.5570 N   0  0  0  0  0
   78.7750  -17.5970   11.8860 C   0  0  0  0  0
   79.4170  -18.0760   13.1230 C   0  0  0  0  0
   78.8120  -17.9210   14.3220 N   0  0  0  0  0
   80.6180  -18.6740   13.0100 N   0  0  0  0  0
   81.2420  -18.8320   11.8180 C   0  0  0  0  0
   80.7120  -18.4310   10.6550 N   0  0  0  0  0
   79.5060  -17.8200   10.6430 C   0  0  0  0  0
   78.7483  -10.1016    3.4768 H   0  0  0  0  0
   76.9252   -9.3676    4.8508 H   0  0  0  0  0
   79.9394  -11.5367    7.8313 H   0  0  0  0  0
   78.1889  -14.7883    4.9801 H   0  0  0  0  0
   77.4316  -14.8638    6.5492 H   0  0  0  0  0
   80.2762  -15.7350    5.9674 H   0  0  0  0  0
   78.0156  -17.2097    5.2128 H   0  0  0  0  0
   79.5943  -18.8543    5.0560 H   0  0  0  0  0
   77.2583  -17.8663    7.3953 H   0  0  0  0  0
   78.2293  -19.7930    7.9751 H   0  0  0  0  0
   80.1166  -17.9617    8.3086 H   0  0  0  0  0
   76.8364  -16.3143    9.6347 H   0  0  0  0  0
   77.8999  -17.4678   14.3782 H   0  0  0  0  0
   79.2676  -18.2572   15.1704 H   0  0  0  0  0
   82.2224  -19.3083   11.8046 H   0  0  0  0  0
  1  2  1  0  0  0
  1  3  1  0  0  0
  1  4  2  0  0  0
  8  1  1  0  0  0
  5  6  1  0  0  0
  5  7  2  0  0  0
  5  8  1  0  0  0
  5  9  1  0  0  0
  9 10  1  0  0  0
 10 11  1  0  0  0
 11 12  1  0  0  0
 11 13  1  0  0  0
 12 17  1  0  0  0
 13 14  1  0  0  0
 13 15  1  0  0  0
 15 16  1  0  0  0
 15 17  1  0  0  0
 17 18  1  0  0  0
 18 19  4  0  0  0
 18 27  4  0  0  0
 19 20  4  0  0  0
 20 21  4  0  0  0
 21 22  4  0  0  0
 21 27  4  0  0  0
 22 23  1  0  0  0
 22 24  4  0  0  0
 24 25  4  0  0  0
 25 26  4  0  0  0
 26 27  4  0  0  0
  2 28  1  0  0  0
  3 29  1  0  0  0
  6 30  1  0  0  0
 10 31  1  0  0  0
 10 32  1  0  0  0
 11 33  1  0  0  0
 13 34  1  0  0  0
 14 35  1  0  0  0
 15 36  1  0  0  0
 16 37  1  0  0  0
 17 38  1  0  0  0
 19 39  1  0  0  0
 23 40  1  0  0  0
 23 41  1  0  0  0
 25 42  1  0  0  0
M  END
$$$$
