3hxb_ligand
  -I-interpret- 

 81 84  0  0  0  0  0  0  0  0999 V2000
    5.8440   18.8800   27.3910 C   0  0  0  0  0
    5.3500   20.1850   27.3650 C   0  0  0  0  0
    3.9850   20.4190   27.2060 C   0  0  0  0  0
    3.5070   21.6930   27.1790 O   0  0  0  0  0
    3.1140   19.3400   27.0740 C   0  0  0  0  0
    3.6000   18.0320   27.1010 C   0  0  0  0  0
    4.9690   17.7970   27.2510 C   0  0  0  0  0
    5.4970   16.3530   27.2920 C   0  0  0  0  0
    5.8820   15.6930   25.9360 C   0  0  0  0  0
    4.9030   14.5580   25.5460 C   0  0  0  0  0
    4.3140   14.6490   24.4380 O   0  0  0  0  0
    4.7770   13.6110   26.3510 O   0  0  0  0  0
    5.9310   16.5960   24.7690 N   0  0  0  0  0
    7.0500   16.8510   24.0990 C   0  0  0  0  0
    8.1470   16.3680   24.3780 O   0  0  0  0  0
    6.8340   17.7590   22.8680 C   0  0  0  0  0
    7.6600   17.2060   21.6390 C   0  0  0  0  0
    7.9100   18.2140   20.4910 C   0  0  0  0  0
    9.0910   18.1580   19.7700 C   0  0  0  0  0
    9.3110   19.0790   18.7560 C   0  0  0  0  0
    8.3840   20.0590   18.4330 C   0  0  0  0  0
    7.1990   20.1250   19.1360 C   0  0  0  0  0
    6.9860   19.2000   20.1470 C   0  0  0  0  0
    6.8770   19.2400   23.0430 N   0  0  0  0  0
    5.8170   19.9180   23.5320 C   0  0  0  0  0
    4.7650   19.3780   23.9000 O   0  0  0  0  0
    5.8900   21.4810   23.5400 C   0  0  0  0  0
    5.8220   22.2450   24.9140 C   0  0  0  0  0
    6.2430   23.7240   24.7350 C   0  0  0  0  0
    7.1330   24.2750   25.6670 C   0  0  0  0  0
    7.5480   25.5970   25.5250 C   0  0  0  0  0
    7.0950   26.3670   24.4510 C   0  0  0  0  0
    7.5250   27.6350   24.3460 O   0  0  0  0  0
    6.2270   25.8350   23.4990 C   0  0  0  0  0
    5.8010   24.5100   23.6470 C   0  0  0  0  0
    6.8200   22.0390   22.4720 N   0  0  0  0  0
    8.1370   22.3610   22.4730 C   0  0  0  0  0
    8.9520   22.2170   23.3840 O   0  0  0  0  0
    8.6060   22.8660   21.2840 O   0  0  0  0  0
    8.5880   24.2820   21.0430 C   0  0  0  0  0
    7.7360   24.8560   20.1190 C   0  0  0  0  0
    6.7380   24.0740   19.5180 C   0  0  0  0  0
    5.8540   24.6200   18.5860 C   0  0  0  0  0
    5.9860   25.9710   18.2730 C   0  0  0  0  0
    6.9850   26.7490   18.8800 C   0  0  0  0  0
    7.8800   26.2120   19.8100 C   0  0  0  0  0
    6.9119   18.7043   27.5204 H   0  0  0  0  0
    6.0354   21.0261   27.4696 H   0  0  0  0  0
    2.5542   21.6737   27.0636 H   0  0  0  0  0
    2.0460   19.5184   26.9488 H   0  0  0  0  0
    2.9108   17.1930   27.0050 H   0  0  0  0  0
    4.6797   15.7519   27.6905 H   0  0  0  0  0
    6.4189   16.3930   27.8722 H   0  0  0  0  0
    6.8902   15.3322   26.1398 H   0  0  0  0  0
    4.5744   15.4650   24.0045 H   0  0  0  0  0
    5.0673   17.0442   24.4633 H   0  0  0  0  0
    5.7679   17.6741   22.6573 H   0  0  0  0  0
    7.0729   16.3923   21.2132 H   0  0  0  0  0
    8.6407   16.9286   22.0256 H   0  0  0  0  0
    9.8395   17.3987   19.9966 H   0  0  0  0  0
   10.2438   19.0309   18.1942 H   0  0  0  0  0
    8.5897   20.7693   17.6323 H   0  0  0  0  0
    6.4510   20.8830   18.9034 H   0  0  0  0  0
    6.0484   19.2461   20.7010 H   0  0  0  0  0
    7.7230   19.7497   22.7884 H   0  0  0  0  0
    4.8871   21.7635   23.2198 H   0  0  0  0  0
    6.5021   21.7665   25.6187 H   0  0  0  0  0
    4.7984   22.2114   25.2871 H   0  0  0  0  0
    7.4984   23.6723   26.4984 H   0  0  0  0  0
    8.2296   26.0329   26.2555 H   0  0  0  0  0
    7.1359   28.0402   23.5676 H   0  0  0  0  0
    5.8871   26.4381   22.6571 H   0  0  0  0  0
    5.1196   24.0789   22.9136 H   0  0  0  0  0
    6.3605   22.2036   21.5764 H   0  0  0  0  0
    9.5796   24.4860   20.6389 H   0  0  0  0  0
    8.2549   24.6996   21.9931 H   0  0  0  0  0
    6.6514   23.0205   19.7839 H   0  0  0  0  0
    5.0836   24.0078   18.1172 H   0  0  0  0  0
    5.3086   26.4277   17.5514 H   0  0  0  0  0
    7.0651   27.8040   18.6180 H   0  0  0  0  0
    8.6550   26.8227   20.2732 H   0  0  0  0  0
  1  2  4  0  0  0
  1  7  4  0  0  0
  2  3  4  0  0  0
  3  4  1  0  0  0
  3  5  4  0  0  0
  5  6  4  0  0  0
  6  7  4  0  0  0
  7  8  1  0  0  0
  8  9  1  0  0  0
  9 10  1  0  0  0
  9 13  1  0  0  0
 10 11  1  0  0  0
 10 12  2  0  0  0
 13 14  1  0  0  0
 14 15  2  0  0  0
 14 16  1  0  0  0
 16 17  1  0  0  0
 16 24  1  0  0  0
 17 18  1  0  0  0
 18 19  4  0  0  0
 18 23  4  0  0  0
 19 20  4  0  0  0
 20 21  4  0  0  0
 21 22  4  0  0  0
 22 23  4  0  0  0
 24 25  1  0  0  0
 25 26  2  0  0  0
 25 27  1  0  0  0
 27 28  1  0  0  0
 27 36  1  0  0  0
 28 29  1  0  0  0
 29 30  4  0  0  0
 29 35  4  0  0  0
 30 31  4  0  0  0
 31 32  4  0  0  0
 32 33  1  0  0  0
 32 34  4  0  0  0
 34 35  4  0  0  0
 36 37  1  0  0  0
 37 38  2  0  0  0
 37 39  1  0  0  0
 39 40  1  0  0  0
 40 41  1  0  0  0
 41 42  4  0  0  0
 41 46  4  0  0  0
 42 43  4  0  0  0
 43 44  4  0  0  0
 44 45  4  0  0  0
 45 46  4  0  0  0
  1 47  1  0  0  0
  2 48  1  0  0  0
  4 49  1  0  0  0
  5 50  1  0  0  0
  6 51  1  0  0  0
  8 52  1  0  0  0
  8 53  1  0  0  0
  9 54  1  0  0  0
 11 55  1  0  0  0
 13 56  1  0  0  0
 16 57  1  0  0  0
 17 58  1  0  0  0
 17 59  1  0  0  0
 19 60  1  0  0  0
 20 61  1  0  0  0
 21 62  1  0  0  0
 22 63  1  0  0  0
 23 64  1  0  0  0
 24 65  1  0  0  0
 27 66  1  0  0  0
 28 67  1  0  0  0
 28 68  1  0  0  0
 30 69  1  0  0  0
 31 70  1  0  0  0
 33 71  1  0  0  0
 34 72  1  0  0  0
 35 73  1  0  0  0
 36 74  1  0  0  0
 40 75  1  0  0  0
 40 76  1  0  0  0
 42 77  1  0  0  0
 43 78  1  0  0  0
 44 79  1  0  0  0
 45 80  1  0  0  0
 46 81  1  0  0  0
M  END
$$$$
