5n20_ligand
  -I-interpret- 

 62 66  0  0  0  0  0  0  0  0999 V2000
   14.9910   -0.1690    9.2940 C   0  0  0  0  0
   16.1740   -2.1990   10.2730 C   0  0  0  0  0
   16.5670   -1.6650   11.5010 C   0  0  0  0  0
   14.4460   -0.6670   17.8490 N   0  0  0  0  0
   16.6040   -3.4880    9.9090 C   0  0  0  0  0
   16.8290   -3.5050    7.3600 C   0  0  0  0  0
   16.6410   -4.6650    6.3930 C   0  0  0  0  0
   15.3470   -5.3070    6.9030 C   0  0  0  0  0
   15.5470   -5.2690    8.4140 C   0  0  0  0  0
   14.1970   -6.5330    5.0490 C   0  0  0  0  0
   16.0010   -7.6470    6.2020 C   0  0  0  0  0
   16.7730   -1.6240   14.7020 C   0  0  0  0  0
   15.4100   -1.8880   14.5440 C   0  0  0  0  0
   14.5250   -1.5960   15.5810 C   0  0  0  0  0
   15.4140   -0.1350   18.5820 C   0  0  0  0  0
   17.8960    0.4260   18.3470 C   0  0  0  0  0
   12.5480   -2.2420   14.2530 C   0  0  0  0  0
   11.2690   -3.0020   14.3660 C   0  0  0  0  0
   18.9230    0.8500   18.6090 N   0  0  0  0  0
   16.6530   -0.1370   17.9280 C   0  0  0  0  0
   15.0550   -1.0240   16.7070 N   0  0  0  0  0
   13.2050   -1.7920   15.4830 N   0  0  0  0  0
   12.4150   -3.7110   14.0250 C   0  0  0  0  0
   16.4070   -0.7390   16.7260 C   0  0  0  0  0
   17.2750   -1.0290   15.7670 N   0  0  0  0  0
   17.6150   -2.0410   13.6990 N   0  0  0  0  0
   17.4080   -2.3770   12.3520 C   0  0  0  0  0
   17.8360   -3.6460   11.9820 C   0  0  0  0  0
   17.4170   -4.2060   10.7860 C   0  0  0  0  0
   15.4280   -1.4570    9.3170 N   0  0  0  0  0
   15.0960    0.5960   10.2460 O   0  0  0  0  0
   14.3980    0.2680    7.9880 C   0  0  0  0  0
   16.2730   -4.0130    8.6200 N   0  0  0  0  0
   14.9200   -6.6590    6.3150 N   0  3  0  0  0
   16.2111   -0.6783   11.7975 H   0  0  0  0  0
   16.3325   -2.5955    7.0218 H   0  0  0  0  0
   17.8730   -3.2065    7.4552 H   0  0  0  0  0
   17.4857   -5.3538    6.3794 H   0  0  0  0  0
   16.5824   -4.3502    5.3511 H   0  0  0  0  0
   14.4708   -4.7584    6.5576 H   0  0  0  0  0
   16.0895   -6.1365    8.7898 H   0  0  0  0  0
   14.6075   -5.3086    8.9652 H   0  0  0  0  0
   13.2953   -5.9407    5.2044 H   0  0  0  0  0
   14.8349   -6.0403    4.3153 H   0  0  0  0  0
   13.9242   -7.5245    4.6876 H   0  0  0  0  0
   16.7846   -7.2539    5.5542 H   0  0  0  0  0
   16.4124   -7.8482    7.1911 H   0  0  0  0  0
   15.6054   -8.5695    5.7771 H   0  0  0  0  0
   15.0403   -2.3203   13.6142 H   0  0  0  0  0
   15.2622    0.2615   19.5859 H   0  0  0  0  0
   12.9109   -1.3773   13.6974 H   0  0  0  0  0
   10.1983   -3.0016   14.5704 H   0  0  0  0  0
   12.6272   -1.6195   16.3057 H   0  0  0  0  0
   12.8831   -4.6622   13.7716 H   0  0  0  0  0
   18.5882   -2.1230   13.9933 H   0  0  0  0  0
   18.5054   -4.2043   12.6365 H   0  0  0  0  0
   17.7261   -5.2188   10.5276 H   0  0  0  0  0
   15.1709   -1.9939    8.4887 H   0  0  0  0  0
   13.3726    0.6008    8.1492 H   0  0  0  0  0
   14.9876    1.0886    7.5792 H   0  0  0  0  0
   14.4042   -0.5688    7.2895 H   0  0  0  0  0
   14.2717   -7.0258    7.0118 H   0  0  0  0  0
 30  1  1  0  0  0
  1 31  2  0  0  0
  1 32  1  0  0  0
  3  2  4  0  0  0
  2  5  4  0  0  0
  2 30  1  0  0  0
 27  3  4  0  0  0
  4 15  4  0  0  0
 21  4  4  0  0  0
  5 29  4  0  0  0
  5 33  1  0  0  0
  6  7  1  0  0  0
 33  6  1  0  0  0
  8  7  1  0  0  0
  9  8  1  0  0  0
  8 34  1  0  0  0
 33  9  1  0  0  0
 34 10  1  0  0  0
 34 11  1  0  0  0
 12 13  4  0  0  0
 12 25  4  0  0  0
 26 12  1  0  0  0
 13 14  4  0  0  0
 14 21  4  0  0  0
 14 22  1  0  0  0
 20 15  4  0  0  0
 16 19  3  0  0  0
 20 16  1  0  0  0
 17 18  1  0  0  0
 22 17  1  0  0  0
 17 23  1  0  0  0
 23 18  2  0  0  0
 24 20  4  0  0  0
 24 21  4  0  0  0
 25 24  4  0  0  0
 26 27  1  0  0  0
 27 28  4  0  0  0
 28 29  4  0  0  0
  3 35  1  0  0  0
  6 36  1  0  0  0
  6 37  1  0  0  0
  7 38  1  0  0  0
  7 39  1  0  0  0
  8 40  1  0  0  0
  9 41  1  0  0  0
  9 42  1  0  0  0
 10 43  1  0  0  0
 10 44  1  0  0  0
 10 45  1  0  0  0
 11 46  1  0  0  0
 11 47  1  0  0  0
 11 48  1  0  0  0
 13 49  1  0  0  0
 15 50  1  0  0  0
 17 51  1  0  0  0
 18 52  1  0  0  0
 22 53  1  0  0  0
 23 54  1  0  0  0
 26 55  1  0  0  0
 28 56  1  0  0  0
 29 57  1  0  0  0
 30 58  1  0  0  0
 32 59  1  0  0  0
 32 60  1  0  0  0
 32 61  1  0  0  0
 34 62  1  0  0  0
M  END
$$$$
