3s9t_ligand
  -I-interpret- 

 37 38  0  0  0  0  0  0  0  0999 V2000
   -0.7740    4.7670   10.2150 N   0  0  0  0  0
   -1.5170    4.1500   11.1130 C   0  0  0  0  0
   -1.8890    4.7280   12.2580 N   0  0  0  0  0
   -1.6290    6.0190   12.5240 C   0  0  0  0  0
   -0.8950    6.7040   11.5700 C   0  0  0  0  0
   -0.4370    6.0630   10.4120 C   0  0  0  0  0
   -1.9310    2.5010   10.7070 S   0  0  0  0  0
   -3.0800    1.9640   12.0540 C   0  0  0  0  0
   -4.2280    2.9630   12.2230 C   0  0  0  0  0
   -4.6780    3.6070   11.2120 O   0  0  0  0  0
   -2.1700    6.7310   13.7960 C   0  0  0  0  0
    0.4060    6.7420    9.4440 C   0  0  0  0  0
   -4.8440    3.1210   13.5860 C   0  0  0  0  0
   -5.0590    2.0850   14.4560 C   0  0  0  0  0
   -5.6360    2.2760   15.6370 C   0  0  0  0  0
   -6.1970    3.4920   15.9250 C   0  0  0  0  0
   -5.9330    4.6360   15.1350 C   0  0  0  0  0
   -5.4280    4.3590   13.9570 C   0  0  0  0  0
   -5.9540    0.8350   16.6890 S   0  0  0  0  0
   -7.4580    0.7840   16.7220 O   0  0  0  0  0
   -5.3560    1.0460   17.9540 O   0  0  0  0  0
   -5.2970   -0.5060   16.0580 N   0  0  0  0  0
   -6.8490    3.8180   17.4580 Cl  0  0  0  0  0
   -0.6700    7.7595   11.7229 H   0  0  0  0  0
   -2.5226    1.9089   12.9891 H   0  0  0  0  0
   -3.4971    0.9916   11.7922 H   0  0  0  0  0
   -3.2596    6.7006   13.7922 H   0  0  0  0  0
   -1.7941    6.2218   14.6834 H   0  0  0  0  0
   -1.8342    7.7680   13.8009 H   0  0  0  0  0
    1.3629    6.2250    9.3716 H   0  0  0  0  0
   -0.0849    6.7384    8.4708 H   0  0  0  0  0
    0.5706    7.7704    9.7656 H   0  0  0  0  0
   -4.7490    1.0793   14.1722 H   0  0  0  0  0
   -6.1310    5.6528   15.4741 H   0  0  0  0  0
   -5.4596    5.1441   13.2015 H   0  0  0  0  0
   -5.8973   -1.2655   15.7369 H   0  0  0  0  0
   -4.2833   -0.5902   15.9821 H   0  0  0  0  0
  1  2  4  0  0  0
  1  6  4  0  0  0
  2  3  4  0  0  0
  2  7  1  0  0  0
  3  4  4  0  0  0
  4  5  4  0  0  0
  4 11  1  0  0  0
  5  6  4  0  0  0
  6 12  1  0  0  0
  7  8  1  0  0  0
  8  9  1  0  0  0
  9 10  2  0  0  0
  9 13  1  0  0  0
 13 14  4  0  0  0
 13 18  4  0  0  0
 14 15  4  0  0  0
 15 16  4  0  0  0
 15 19  1  0  0  0
 16 17  4  0  0  0
 16 23  1  0  0  0
 17 18  4  0  0  0
 19 20  2  0  0  0
 19 21  2  0  0  0
 19 22  1  0  0  0
  5 24  1  0  0  0
  8 25  1  0  0  0
  8 26  1  0  0  0
 11 27  1  0  0  0
 11 28  1  0  0  0
 11 29  1  0  0  0
 12 30  1  0  0  0
 12 31  1  0  0  0
 12 32  1  0  0  0
 14 33  1  0  0  0
 17 34  1  0  0  0
 18 35  1  0  0  0
 22 36  1  0  0  0
 22 37  1  0  0  0
M  END
$$$$
