1akr_ligand
  -I-interpret- 

 52 54  0  0  0  0  0  0  0  0999 V2000
   -4.1670   36.0330   18.0950 N   0  0  0  0  0
   -3.2060   36.7360   18.7940 C   0  0  0  0  0
   -2.3360   37.5450   18.1480 O   0  0  0  0  0
   -3.1450   36.6640   20.1800 N   0  0  0  0  0
   -4.0190   35.8690   20.9070 C   0  0  0  0  0
   -3.8960   35.8010   22.2740 O   0  0  0  0  0
   -5.0060   35.1320   20.1860 C   0  0  0  0  0
   -5.8690   34.3250   20.8950 N   0  0  0  0  0
   -6.8990   33.7120   20.1710 C   0  0  0  0  0
   -7.8640   33.0020   20.9350 C   0  0  0  0  0
   -8.8950   32.4130   20.1900 C   0  0  0  0  0
   -9.9050   31.6880   20.9090 C   0  0  0  0  0
   -8.9740   32.5170   18.7920 C   0  0  0  0  0
  -10.0430   31.9070   18.0560 C   0  0  0  0  0
   -7.9980   33.2220   18.0570 C   0  0  0  0  0
   -6.9310   33.8180   18.7710 C   0  0  0  0  0
   -5.9830   34.5220   18.0320 N   0  0  0  0  0
   -5.0500   35.2280   18.7760 C   0  0  0  0  0
   -5.9430   34.6770   16.6350 C   0  0  0  0  0
   -5.2750   33.4120   16.0560 C   0  0  0  0  0
   -3.8870   33.3320   16.4270 O   0  0  0  0  0
   -5.3640   33.5390   14.5100 C   0  0  0  0  0
   -6.7170   33.2100   14.2170 O   0  0  0  0  0
   -4.4010   32.7710   13.7020 C   0  0  0  0  0
   -4.5360   33.1090   12.2930 O   0  0  0  0  0
   -4.4510   31.3460   13.8580 C   0  0  0  0  0
   -3.3530   30.8000   13.1270 O   0  0  0  0  0
   -3.2830   29.1870   12.7530 P   0  0  0  0  0
   -3.3950   28.3190   14.1420 O   0  0  0  0  0
   -1.8390   28.9240   11.9800 O   0  0  0  0  0
   -4.4640   28.8110   11.6560 O   0  0  0  0  0
   -2.4398   37.2094   20.6756 H   0  0  0  0  0
   -7.8068   32.9213   22.0205 H   0  0  0  0  0
   -9.4411   30.8679   21.4569 H   0  0  0  0  0
  -10.4029   32.3588   21.6092 H   0  0  0  0  0
  -10.6349   31.2891   20.2046 H   0  0  0  0  0
  -10.0316   30.8304   18.2262 H   0  0  0  0  0
  -10.9947   32.3191   18.3914 H   0  0  0  0  0
   -9.9124   32.1095   16.9930 H   0  0  0  0  0
   -8.0635   33.3053   16.9722 H   0  0  0  0  0
   -5.3781   35.5687   16.3632 H   0  0  0  0  0
   -6.9487   34.7989   16.2328 H   0  0  0  0  0
   -5.7746   32.5214   16.4372 H   0  0  0  0  0
   -3.5021   32.5364   16.0522 H   0  0  0  0  0
   -5.0738   34.5485   14.2189 H   0  0  0  0  0
   -6.8604   33.2644   13.2693 H   0  0  0  0  0
   -3.4271   33.0700   14.0896 H   0  0  0  0  0
   -3.9025   32.6008   11.7811 H   0  0  0  0  0
   -5.3952   30.9525   13.4815 H   0  0  0  0  0
   -4.3831   31.0735   14.9112 H   0  0  0  0  0
   -1.8087   29.4459   11.1748 H   0  0  0  0  0
   -4.3491   29.3466   10.8676 H   0  0  0  0  0
  1  2  1  0  0  0
  1 18  2  0  0  0
  2  3  2  0  0  0
  2  4  1  0  0  0
  4  5  1  0  0  0
  5  6  2  0  0  0
  5  7  1  0  0  0
  7  8  2  0  0  0
  7 18  1  0  0  0
  8  9  1  0  0  0
  9 10  4  0  0  0
  9 16  4  0  0  0
 10 11  4  0  0  0
 11 12  1  0  0  0
 11 13  4  0  0  0
 13 14  1  0  0  0
 13 15  4  0  0  0
 15 16  4  0  0  0
 16 17  1  0  0  0
 17 18  1  0  0  0
 17 19  1  0  0  0
 19 20  1  0  0  0
 20 21  1  0  0  0
 20 22  1  0  0  0
 22 23  1  0  0  0
 22 24  1  0  0  0
 24 25  1  0  0  0
 24 26  1  0  0  0
 26 27  1  0  0  0
 27 28  1  0  0  0
 28 29  2  0  0  0
 28 30  1  0  0  0
 28 31  1  0  0  0
  4 32  1  0  0  0
 10 33  1  0  0  0
 12 34  1  0  0  0
 12 35  1  0  0  0
 12 36  1  0  0  0
 14 37  1  0  0  0
 14 38  1  0  0  0
 14 39  1  0  0  0
 15 40  1  0  0  0
 19 41  1  0  0  0
 19 42  1  0  0  0
 20 43  1  0  0  0
 21 44  1  0  0  0
 22 45  1  0  0  0
 23 46  1  0  0  0
 24 47  1  0  0  0
 25 48  1  0  0  0
 26 49  1  0  0  0
 26 50  1  0  0  0
 30 51  1  0  0  0
 31 52  1  0  0  0
M  END
$$$$
