### 
### Created by X-TOOL on Mon Aug  2 16:13:44 2021
### 

@<TRIPOS>MOLECULE
6h8c_ligand
  289   291     1     0     0
SMALL
GAST_HUCK


@<TRIPOS>ATOM
      1 N          26.3430   -2.3410    2.0300 N.4       1 GLY         0.2357
      2 CA         26.2440   -1.2810    1.0270 C.3       1 GLY         0.0545
      3 C          25.8610   -1.8680   -0.3090 C.2       1 GLY         0.2236
      4 O          26.6320   -2.6530   -0.8660 O.2       1 GLY        -0.3910
      5 N          24.7000   -1.4650   -0.8320 N.am      1 GLY        -0.2615
      6 CA         24.1310   -1.8910   -2.1000 C.3       1 GLY         0.1283
      7 C          24.3220   -3.3890   -2.3410 C.2       1 GLY         0.2036
      8 O          24.9830   -3.8040   -3.2970 O.2       1 GLY        -0.3944
      9 CB         24.6870   -1.0150   -3.2190 C.3       1 GLY        -0.0244
     10 N          23.7690   -4.2180   -1.4580 N.am      1 GLY        -0.2637
     11 CA         23.8500   -5.6750   -1.5500 C.3       1 GLY         0.1317
     12 C          22.7670   -6.1790   -2.5100 C.2       1 GLY         0.2039
     13 O          21.9930   -7.0810   -2.1950 O.2       1 GLY        -0.3944
     14 CB         23.7620   -6.2930   -0.1500 C.3       1 GLY        -0.0034
     15 CG         24.9640   -5.8420    0.6870 C.3       1 GLY        -0.0024
     16 SD         25.1700   -6.6980    2.2630 S.3       1 GLY        -0.1639
     17 CE         23.6290   -6.2290    3.0790 C.3       1 GLY        -0.0181
     18 N          22.6820   -5.5470   -3.6750 N.am      1 GLY        -0.2636
     19 CA         21.7780   -5.7620   -4.7990 C.3       1 GLY         0.1325
     20 C          22.1180   -7.0880   -5.5050 C.2       1 GLY         0.2040
     21 O          22.5340   -7.0900   -6.6640 O.2       1 GLY        -0.3944
     22 CB         21.8250   -4.5360   -5.7360 C.3       1 GLY        -0.0008
     23 CG         21.6820   -3.1640   -5.0520 C.3       1 GLY         0.0044
     24 CD         20.4590   -3.0210   -4.1420 C.2       1 GLY         0.0350
     25 OE1        19.4580   -2.4050   -4.5720 O.co2     1 GLY        -0.5690
     26 OE2        20.5270   -3.4310   -2.9550 O.co2     1 GLY        -0.5690
     27 N          22.1890   -8.1820   -4.7420 N.am      1 GLY        -0.2635
     28 CA         22.4990   -9.5240   -5.2160 C.3       1 GLY         0.1335
     29 C          21.6390   -9.8980   -6.4250 C.2       1 GLY         0.2042
     30 O          20.4600   -9.5760   -6.4850 O.2       1 GLY        -0.3944
     31 CB         22.3380  -10.5570   -4.0710 C.3       1 GLY        -0.0037
     32 CG1        20.9270  -10.5540   -3.4330 C.3       1 GLY        -0.0491
     33 CG2        23.4360  -10.3300   -3.0200 C.3       1 GLY        -0.0582
     34 CD1        20.7140  -11.6420   -2.3770 C.3       1 GLY        -0.0648
     35 N          22.2180  -10.6470   -7.3630 N.am      1 GLY        -0.2635
     36 CA         21.5210  -11.0940   -8.5710 C.3       1 GLY         0.1335
     37 C          20.5020  -12.2120   -8.2600 C.2       1 GLY         0.2043
     38 O          19.8210  -12.7070   -9.1580 O.2       1 GLY        -0.3944
     39 CB         22.5550  -11.4750   -9.6670 C.3       1 GLY        -0.0037
     40 CG1        23.4130  -12.7410   -9.4300 C.3       1 GLY        -0.0491
     41 CG2        23.5490  -10.3110   -9.8830 C.3       1 GLY        -0.0582
     42 CD1        22.6880  -14.0810   -9.5930 C.3       1 GLY        -0.0648
     43 N          20.3970  -12.6170   -6.9900 N.am      1 GLY        -0.2619
     44 CA         19.5390  -13.6680   -6.4680 C.3       1 GLY         0.1421
     45 C          18.2780  -13.1360   -5.7620 C.2       1 GLY         0.2060
     46 O          17.7650  -13.8070   -4.8650 O.2       1 GLY        -0.3942
     47 CB         20.4280  -14.5500   -5.5650 C.3       1 GLY         0.0427
     48 CG         19.9000  -15.9340   -5.2870 C.2       1 GLY         0.0561
     49 ND1        19.7470  -16.5130   -4.0490 N.pl3     1 GLY        -0.2623
     50 CD2        19.5380  -16.8630   -6.2200 C.2       1 GLY        -0.0276
     51 CE1        19.2760  -17.7570   -4.2280 C.2       1 GLY         0.0875
     52 NE2        19.1240  -18.0150   -5.5400 N.2       1 GLY        -0.3437
     53 N          17.7790  -11.9430   -6.1120 N.am      1 GLY        -0.2635
     54 CA         16.5690  -11.3680   -5.5090 C.3       1 GLY         0.1325
     55 C          15.4150  -12.3730   -5.6370 C.2       1 GLY         0.2041
     56 O          15.1250  -12.8280   -6.7510 O.2       1 GLY        -0.3944
     57 CB         16.1230  -10.0850   -6.2390 C.3       1 GLY        -0.0008
     58 CG         17.0400   -8.8650   -6.1030 C.3       1 GLY         0.0044
     59 CD         16.4710   -7.6780   -6.8890 C.2       1 GLY         0.0350
     60 OE1        15.9500   -6.7220   -6.2770 O.co2     1 GLY        -0.5690
     61 OE2        16.5100   -7.7060   -8.1490 O.co2     1 GLY        -0.5690
     62 N          14.7670  -12.7680   -4.5370 N.am      1 GLY        -0.2622
     63 CA         13.6410  -13.7020   -4.6030 C.3       1 GLY         0.1423
     64 C          12.3690  -12.9100   -4.9010 C.2       1 GLY         0.2057
     65 O          11.6700  -13.1850   -5.8750 O.2       1 GLY        -0.3943
     66 CB         13.4630  -14.5060   -3.3140 C.3       1 GLY         0.0406
     67 CG         12.1520  -15.2800   -3.3780 C.2       1 GLY         0.0393
     68 OD1        12.0630  -16.2970   -4.1000 O.co2     1 GLY        -0.5688
     69 OD2        11.1630  -14.8160   -2.7700 O.co2     1 GLY        -0.5688
     70 N          12.0330  -11.9650   -4.0230 N.am      1 GLY        -0.2615
     71 CA         10.8610  -11.1000   -4.1450 C.3       1 GLY         0.1476
     72 C          11.3000   -9.9420   -5.0410 C.2       1 GLY         0.2063
     73 O          12.2440   -9.2490   -4.6670 O.2       1 GLY        -0.3942
     74 CB         10.4600  -10.5100   -2.7870 C.3       1 GLY         0.0773
     75 CG          9.8220  -11.4130   -1.7400 C.2       1 GLY         0.1780
     76 OD1         8.7960  -11.0700   -1.1660 O.2       1 GLY        -0.3970
     77 ND2        10.3950  -12.5560   -1.4140 N.am      1 GLY        -0.3007
     78 N          10.6270   -9.7070   -6.1670 N.am      1 GLY        -0.2635
     79 CA         11.0100   -8.6430   -7.0980 C.3       1 GLY         0.1325
     80 C          10.8320   -7.1980   -6.5920 C.2       1 GLY         0.2041
     81 O          11.8310   -6.4990   -6.4670 O.2       1 GLY        -0.3944
     82 CB         10.3340   -8.8660   -8.4550 C.3       1 GLY        -0.0008
     83 CG         10.7310  -10.2030   -9.1050 C.3       1 GLY         0.0044
     84 CD         10.3230  -10.2620  -10.5760 C.2       1 GLY         0.0350
     85 OE1         9.1460  -10.5780  -10.8820 O.co2     1 GLY        -0.5690
     86 OE2        11.1730   -9.9840  -11.4510 O.co2     1 GLY        -0.5690
     87 N           9.6130   -6.7330   -6.2680 N.am      1 GLY        -0.2627
     88 CA          9.3520   -5.3650   -5.7950 C.3       1 GLY         0.1352
     89 C           9.6030   -4.3160   -6.8910 C.2       1 GLY         0.2050
     90 O          10.4700   -3.4510   -6.7560 O.2       1 GLY        -0.3943
     91 CB         10.0530   -5.0460   -4.4670 C.3       1 GLY         0.0042
     92 CG          9.7820   -5.9660   -3.3240 C.2       1 GLY        -0.0418
     93 CD1        10.6900   -6.7980   -2.7760 C.2       1 GLY         0.0167
     94 CD2         8.5290   -6.2150   -2.6190 C.ar      1 GLY        -0.0214
     95 NE1        10.1060   -7.4840   -1.7320 N.pl3     1 GLY        -0.2890
     96 CE2         8.7480   -7.2640   -1.6800 C.ar      1 GLY         0.0603
     97 CE3         7.2190   -5.6990   -2.7060 C.ar      1 GLY        -0.0747
     98 CZ2         7.7030   -7.8380   -0.9420 C.ar      1 GLY        -0.0443
     99 CZ3         6.1680   -6.2510   -1.9510 C.ar      1 GLY        -0.0792
    100 CH2         6.4010   -7.3330   -1.0840 C.ar      1 GLY        -0.0768
    101 N           8.8010   -4.3570   -7.9620 N.am      1 GLY        -0.2663
    102 CA          8.9200   -3.4260   -9.0830 C.3       1 GLY         0.1201
    103 C           8.2090   -2.1210   -8.7510 C.2       1 GLY         0.2008
    104 O           7.1340   -2.1510   -8.1550 O.2       1 GLY        -0.3947
    105 N           8.7890   -0.9740   -9.1050 N.am      1 GLY        -0.2637
    106 CA          8.2060    0.3380   -8.8250 C.3       1 GLY         0.1335
    107 C           7.0420    0.6410   -9.7670 C.2       1 GLY         0.2042
    108 O           7.1770    0.5200  -10.9870 O.2       1 GLY        -0.3944
    109 CB          9.2630    1.4610   -8.9400 C.3       1 GLY        -0.0037
    110 CG1        10.5180    1.1160   -8.1190 C.3       1 GLY        -0.0491
    111 CG2         8.6640    2.8000   -8.4550 C.3       1 GLY        -0.0582
    112 CD1        11.5680    2.2200   -8.1400 C.3       1 GLY        -0.0648
    113 N           5.9450    1.1450   -9.2030 N.am      1 GLY        -0.2636
    114 CA          4.7570    1.5070   -9.9540 C.3       1 GLY         0.1325
    115 C           4.1270    2.8020   -9.4240 C.2       1 GLY         0.2040
    116 O           3.7040    2.8770   -8.2680 O.2       1 GLY        -0.3944
    117 CB          3.7680    0.3310   -9.9430 C.3       1 GLY        -0.0008
    118 CG          3.0180    0.2490  -11.2750 C.3       1 GLY         0.0044
    119 CD          3.9330   -0.2180  -12.4110 C.2       1 GLY         0.0350
    120 OE1         4.2420   -1.4320  -12.4910 O.co2     1 GLY        -0.5690
    121 OE2         4.3150    0.6260  -13.2580 O.co2     1 GLY        -0.5690
    122 N           4.1300    3.8650  -10.2350 N.am      1 GLY        -0.2637
    123 CA          3.5380    5.1510   -9.8730 C.3       1 GLY         0.1312
    124 C           2.0550    5.0130  -10.1660 C.2       1 GLY         0.2039
    125 O           1.6990    4.7300  -11.3080 O.2       1 GLY        -0.3944
    126 CB          4.0910    6.3190  -10.7070 C.3       1 GLY        -0.0101
    127 CG          5.3790    6.9250  -10.1370 C.3       1 GLY        -0.0425
    128 CD1         6.5730    5.9880  -10.3350 C.3       1 GLY        -0.0625
    129 CD2         5.6500    8.2700  -10.8140 C.3       1 GLY        -0.0625
    130 N           1.2050    5.1700   -9.1580 N.am      1 GLY        -0.2635
    131 CA         -0.2390    5.0550   -9.3020 C.3       1 GLY         0.1333
    132 C          -0.9060    6.3540   -8.8450 C.2       1 GLY         0.2042
    133 O          -0.4040    7.0040   -7.9260 O.2       1 GLY        -0.3944
    134 CB         -0.6810    3.7920   -8.5340 C.3       1 GLY        -0.0063
    135 CG1        -2.1990    3.6230   -8.5210 C.3       1 GLY        -0.0584
    136 CG2        -0.0680    2.5340   -9.1760 C.3       1 GLY        -0.0584
    137 N          -1.9680    6.7840   -9.5220 N.am      1 GLY        -0.2616
    138 CA         -2.7550    7.9710   -9.2050 C.3       1 GLY         0.1539
    139 C          -4.0990    7.8450   -9.9220 C.2       1 GLY         0.2056
    140 O          -4.1610    7.2030  -10.9730 O.2       1 GLY        -0.3943
    141 CB         -2.0100    9.2690   -9.5500 C.3       1 GLY         0.0843
    142 OG         -1.2580    9.1810  -10.7550 O.3       1 GLY        -0.3903
    143 N          -5.1670    8.3980   -9.3520 N.am      1 GLY        -0.2693
    144 CA         -6.5320    8.4250   -9.8680 C.3       1 GLY         0.0959
    145 C          -7.3260    9.2590   -8.8680 C.2       1 GLY         0.0602
    146 O          -6.7500   10.2580   -8.3900 O.co2     1 GLY        -0.5666
    147 CB         -7.1280    7.0230  -10.1170 C.3       1 GLY        -0.0064
    148 CG         -7.9530    7.0130  -11.4030 C.3       1 GLY         0.0038
    149 CD         -8.8610    5.7880  -11.4950 C.2       1 GLY         0.0350
    150 OE1        -8.3810    4.6300  -11.4920 O.co2     1 GLY        -0.5690
    151 OE2       -10.1040    5.9560  -11.5200 O.co2     1 GLY        -0.5690
    152 OXT        -8.4850    8.8720   -8.6120 O.co2     1 GLY        -0.5666
    153 H1         26.5991   -1.9399    2.9186 H         1 GLY         0.2012
    154 H2         27.0450   -3.0068    1.7471 H         1 GLY         0.2012
    155 H3         25.4532   -2.8068    2.1156 H         1 GLY         0.2012
    156 H4         27.2156   -0.7733    0.9366 H         1 GLY         0.1061
    157 H5         25.4786   -0.5551    1.3386 H         1 GLY         0.1061
    158 H6         24.1701   -0.8054   -0.2989 H         1 GLY         0.1884
    159 H7         23.0464   -1.7135   -2.0543 H         1 GLY         0.0797
    160 H8         24.2592   -1.3336   -4.1810 H         1 GLY         0.0277
    161 H9         25.7819   -1.1152   -3.2535 H         1 GLY         0.0277
    162 H10        24.4207    0.0353   -3.0292 H         1 GLY         0.0277
    163 H11        23.2696   -3.8214   -0.6877 H         1 GLY         0.1883
    164 H12        24.8284   -5.9453   -1.9737 H         1 GLY         0.0800
    165 H13        23.7646   -7.3898   -0.2331 H         1 GLY         0.0320
    166 H14        22.8324   -5.9644    0.3376 H         1 GLY         0.0320
    167 H15        24.8492   -4.7681    0.8959 H         1 GLY         0.0378
    168 H16        25.8738   -6.0043    0.0905 H         1 GLY         0.0378
    169 H17        23.5927   -6.6807    4.0813 H         1 GLY         0.0340
    170 H18        22.7756   -6.5869    2.4844 H         1 GLY         0.0340
    171 H19        23.5800   -5.1338    3.1685 H         1 GLY         0.0340
    172 H20        23.3423   -4.8067   -3.8014 H         1 GLY         0.1883
    173 H21        20.7529   -5.8463   -4.4091 H         1 GLY         0.0801
    174 H22        21.0072   -4.6366   -6.4648 H         1 GLY         0.0330
    175 H23        22.7902   -4.5511   -6.2635 H         1 GLY         0.0330
    176 H24        21.6153   -2.3963   -5.8369 H         1 GLY         0.0433
    177 H25        22.5821   -2.9898   -4.4442 H         1 GLY         0.0433
    178 H26        22.0148   -8.0704   -3.7636 H         1 GLY         0.1883
    179 H27        23.5513   -9.5350   -5.5361 H         1 GLY         0.0803
    180 H28        22.4914  -11.5558   -4.5055 H         1 GLY         0.0345
    181 H29        20.1862  -10.6999   -4.2330 H         1 GLY         0.0267
    182 H30        20.7653   -9.5753   -2.9575 H         1 GLY         0.0267
    183 H31        24.4205  -10.3388   -3.5105 H         1 GLY         0.0235
    184 H32        23.3943  -11.1310   -2.2672 H         1 GLY         0.0235
    185 H33        23.2792   -9.3577   -2.5300 H         1 GLY         0.0235
    186 H34        19.6919  -11.5695   -1.9769 H         1 GLY         0.0230
    187 H35        21.4380  -11.5068   -1.5600 H         1 GLY         0.0230
    188 H36        20.8589  -12.6314   -2.8354 H         1 GLY         0.0230
    189 H37        23.1727  -10.9163   -7.2361 H         1 GLY         0.1883
    190 H38        20.9448  -10.2393   -8.9550 H         1 GLY         0.0803
    191 H39        21.9862  -11.6337  -10.5951 H         1 GLY         0.0345
    192 H40        23.8073  -12.6938   -8.4042 H         1 GLY         0.0267
    193 H41        24.2485  -12.7207  -10.1452 H         1 GLY         0.0267
    194 H42        22.9905   -9.3795  -10.0573 H         1 GLY         0.0235
    195 H43        24.1828  -10.5272  -10.7556 H         1 GLY         0.0235
    196 H44        24.1809  -10.1979   -8.9898 H         1 GLY         0.0235
    197 H45        23.3920  -14.9044   -9.4019 H         1 GLY         0.0230
    198 H46        22.2964  -14.1638  -10.6176 H         1 GLY         0.0230
    199 H47        21.8552  -14.1369   -8.8765 H         1 GLY         0.0230
    200 H48        20.9737  -12.1435   -6.3242 H         1 GLY         0.1885
    201 H49        19.1946  -14.2814   -7.3136 H         1 GLY         0.0824
    202 H50        20.5496  -14.0339   -4.6012 H         1 GLY         0.0491
    203 H51        21.4089  -14.6531   -6.0521 H         1 GLY         0.0491
    204 H52        19.9570  -16.0697   -3.1433 H         1 GLY         0.2386
    205 H53        19.5662  -16.7314   -7.3007 H         1 GLY         0.0324
    206 H54        19.0492  -18.4577   -3.4258 H         1 GLY         0.1149
    207 H55        18.2535  -11.4180   -6.8185 H         1 GLY         0.1883
    208 H56        16.7630  -11.1441   -4.4497 H         1 GLY         0.0801
    209 H57        15.1341   -9.8046   -5.8473 H         1 GLY         0.0330
    210 H58        16.0395  -10.3221   -7.3099 H         1 GLY         0.0330
    211 H59        18.0366   -9.1152   -6.4956 H         1 GLY         0.0433
    212 H60        17.1225   -8.5903   -5.0411 H         1 GLY         0.0433
    213 H61        15.0582  -12.4172   -3.6470 H         1 GLY         0.1884
    214 H62        13.8236  -14.4090   -5.4256 H         1 GLY         0.0819
    215 H63        13.4431  -13.8208   -2.4537 H         1 GLY         0.0478
    216 H64        14.3002  -15.2107   -3.2023 H         1 GLY         0.0478
    217 H65        12.6235  -11.8391   -3.2258 H         1 GLY         0.1885
    218 H66        10.0164  -11.6505   -4.5850 H         1 GLY         0.0826
    219 H67         9.7456   -9.6982   -2.9884 H         1 GLY         0.0551
    220 H68        11.3725  -10.0922   -2.3368 H         1 GLY         0.0551
    221 H69         9.9746  -13.1478   -0.7262 H         1 GLY         0.1814
    222 H70        11.2497  -12.8305   -1.8547 H         1 GLY         0.1814
    223 H71         9.8338  -10.2762   -6.3836 H         1 GLY         0.1883
    224 H72        12.0910   -8.7636   -7.2618 H         1 GLY         0.0801
    225 H73        10.6226   -8.0472   -9.1305 H         1 GLY         0.0330
    226 H74         9.2436   -8.8552   -8.3107 H         1 GLY         0.0330
    227 H75        10.2348  -11.0227   -8.5648 H         1 GLY         0.0433
    228 H76        11.8220  -10.3238   -9.0330 H         1 GLY         0.0433
    229 H77         8.8354   -7.3559   -6.3539 H         1 GLY         0.1884
    230 H78         8.2743   -5.3208   -5.5793 H         1 GLY         0.0815
    231 H79         9.7429   -4.0358   -4.1615 H         1 GLY         0.0397
    232 H80        11.1372   -5.0564   -4.6524 H         1 GLY         0.0397
    233 H81        11.7218   -6.9106   -3.1057 H         1 GLY         0.0795
    234 H82        10.6213   -8.0856   -1.0736 H         1 GLY         0.2216
    235 H83         7.0187   -4.8627   -3.3660 H         1 GLY         0.0540
    236 H84         7.8988   -8.6641   -0.2680 H         1 GLY         0.0541
    237 H85         5.1695   -5.8383   -2.0385 H         1 GLY         0.0510
    238 H86         5.5809   -7.7742   -0.5291 H         1 GLY         0.0530
    239 H87         8.0875   -5.0568   -7.9970 H         1 GLY         0.1881
    240 H88         8.4629   -3.8728   -9.9782 H         1 GLY         0.0763
    241 H89         9.9835   -3.2227   -9.2769 H         1 GLY         0.0763
    242 H90         9.6653   -1.0125   -9.5853 H         1 GLY         0.1883
    243 H91         7.8236    0.3264   -7.7937 H         1 GLY         0.0803
    244 H92         9.5522    1.5646   -9.9962 H         1 GLY         0.0345
    245 H93        10.9653    0.1996   -8.5315 H         1 GLY         0.0267
    246 H94        10.2165    0.9395   -7.0760 H         1 GLY         0.0267
    247 H95         7.7683    3.0371   -9.0478 H         1 GLY         0.0235
    248 H96         9.4080    3.6007   -8.5787 H         1 GLY         0.0235
    249 H97         8.3892    2.7156   -7.3932 H         1 GLY         0.0235
    250 H98        12.4354    1.9125   -7.5375 H         1 GLY         0.0230
    251 H99        11.1389    3.1422   -7.7210 H         1 GLY         0.0230
    252 H100       11.8877    2.4023   -9.1766 H         1 GLY         0.0230
    253 H101        5.9400    1.2807   -8.2123 H         1 GLY         0.1883
    254 H102        5.0555    1.6878  -10.9972 H         1 GLY         0.0801
    255 H103        3.0435    0.4748   -9.1279 H         1 GLY         0.0330
    256 H104        4.3212   -0.6058   -9.7808 H         1 GLY         0.0330
    257 H105        2.6213    1.2446  -11.5229 H         1 GLY         0.0433
    258 H106        2.1853   -0.4624  -11.1724 H         1 GLY         0.0433
    259 H107        4.5587    3.7755  -11.1340 H         1 GLY         0.1883
    260 H108        3.7079    5.3537   -8.8053 H         1 GLY         0.0800
    261 H109        3.3256    7.1078  -10.7511 H         1 GLY         0.0315
    262 H110        4.2992    5.9528  -11.7231 H         1 GLY         0.0315
    263 H111        5.2413    7.0909   -9.0583 H         1 GLY         0.0298
    264 H112        7.4774    6.4530   -9.9156 H         1 GLY         0.0232
    265 H113        6.7201    5.8035  -11.4094 H         1 GLY         0.0232
    266 H114        6.3796    5.0342   -9.8222 H         1 GLY         0.0232
    267 H115        4.7867    8.9355  -10.6660 H         1 GLY         0.0232
    268 H116        5.8113    8.1127  -11.8907 H         1 GLY         0.0232
    269 H117        6.5467    8.7289  -10.3721 H         1 GLY         0.0232
    270 H118        1.5761    5.3780   -8.2530 H         1 GLY         0.1883
    271 H119       -0.4846    4.9107  -10.3645 H         1 GLY         0.0802
    272 H120       -0.3259    3.8770   -7.4964 H         1 GLY         0.0343
    273 H121       -2.4617    2.7119   -7.9635 H         1 GLY         0.0234
    274 H122       -2.5676    3.5398   -9.5541 H         1 GLY         0.0234
    275 H123       -2.6610    4.4956   -8.0360 H         1 GLY         0.0234
    276 H124        1.0276    2.6302   -9.1977 H         1 GLY         0.0234
    277 H125       -0.4469    2.4246  -10.2029 H         1 GLY         0.0234
    278 H126       -0.3466    1.6484   -8.5861 H         1 GLY         0.0234
    279 H127       -2.2511    6.2471  -10.3167 H         1 GLY         0.1884
    280 H128       -2.9444    7.9810   -8.1215 H         1 GLY         0.0823
    281 H129       -1.3220    9.5069   -8.7253 H         1 GLY         0.0606
    282 H130       -2.7479   10.0777   -9.6569 H         1 GLY         0.0606
    283 H131       -0.8214   10.0093  -10.9157 H         1 GLY         0.2097
    284 H132       -5.0173    8.8457   -8.4704 H         1 GLY         0.1875
    285 H133       -6.5297    8.9482  -10.8356 H         1 GLY         0.0727
    286 H134       -7.7743    6.7488   -9.2702 H         1 GLY         0.0323
    287 H135       -6.3103    6.2926  -10.2058 H         1 GLY         0.0323
    288 H136       -7.2680    7.0119  -12.2636 H         1 GLY         0.0432
    289 H137       -8.5761    7.9190  -11.4315 H         1 GLY         0.0432
@<TRIPOS>BOND
     1    1    2 1  
     2    2    3 1  
     3    3    4 2  
     4    3    5 am 
     5    5    6 1  
     6    6    7 1  
     7    6    9 1  
     8    7    8 2  
     9    7   10 am 
    10   10   11 1  
    11   11   12 1  
    12   11   14 1  
    13   12   13 2  
    14   12   18 am 
    15   14   15 1  
    16   15   16 1  
    17   16   17 1  
    18   18   19 1  
    19   19   20 1  
    20   19   22 1  
    21   20   21 2  
    22   20   27 am 
    23   22   23 1  
    24   23   24 1  
    25   24   25 ar 
    26   24   26 ar 
    27   27   28 1  
    28   28   29 1  
    29   28   31 1  
    30   29   30 2  
    31   29   35 am 
    32   31   32 1  
    33   31   33 1  
    34   32   34 1  
    35   35   36 1  
    36   36   37 1  
    37   36   39 1  
    38   37   38 2  
    39   37   43 am 
    40   39   40 1  
    41   39   41 1  
    42   40   42 1  
    43   43   44 1  
    44   44   45 1  
    45   44   47 1  
    46   45   46 2  
    47   45   53 am 
    48   47   48 1  
    49   48   49 1  
    50   48   50 2  
    51   49   51 1  
    52   50   52 1  
    53   51   52 2  
    54   53   54 1  
    55   54   55 1  
    56   54   57 1  
    57   55   56 2  
    58   55   62 am 
    59   57   58 1  
    60   58   59 1  
    61   59   60 ar 
    62   59   61 ar 
    63   62   63 1  
    64   63   64 1  
    65   63   66 1  
    66   64   65 2  
    67   64   70 am 
    68   66   67 1  
    69   67   68 ar 
    70   67   69 ar 
    71   70   71 1  
    72   71   72 1  
    73   71   74 1  
    74   72   73 2  
    75   72   78 am 
    76   74   75 1  
    77   75   76 2  
    78   75   77 am 
    79   78   79 1  
    80   79   80 1  
    81   79   82 1  
    82   80   81 2  
    83   80   87 am 
    84   82   83 1  
    85   83   84 1  
    86   84   85 ar 
    87   84   86 ar 
    88   87   88 1  
    89   88   89 1  
    90   88   91 1  
    91   89   90 2  
    92   89  101 am 
    93   91   92 1  
    94   92   93 2  
    95   92   94 1  
    96   93   95 1  
    97   94   96 ar 
    98   94   97 ar 
    99   95   96 1  
   100   96   98 ar 
   101   97   99 ar 
   102   98  100 ar 
   103   99  100 ar 
   104  101  102 1  
   105  102  103 1  
   106  103  104 2  
   107  103  105 am 
   108  105  106 1  
   109  106  107 1  
   110  106  109 1  
   111  107  108 2  
   112  107  113 am 
   113  109  110 1  
   114  109  111 1  
   115  110  112 1  
   116  113  114 1  
   117  114  115 1  
   118  114  117 1  
   119  115  116 2  
   120  115  122 am 
   121  117  118 1  
   122  118  119 1  
   123  119  120 ar 
   124  119  121 ar 
   125  122  123 1  
   126  123  124 1  
   127  123  126 1  
   128  124  125 2  
   129  124  130 am 
   130  126  127 1  
   131  127  128 1  
   132  127  129 1  
   133  130  131 1  
   134  131  132 1  
   135  131  134 1  
   136  132  133 2  
   137  132  137 am 
   138  134  135 1  
   139  134  136 1  
   140  137  138 1  
   141  138  139 1  
   142  138  141 1  
   143  139  140 2  
   144  139  143 am 
   145  141  142 1  
   146  143  144 1  
   147  144  145 1  
   148  144  147 1  
   149  145  146 ar 
   150  145  152 ar 
   151  147  148 1  
   152  148  149 1  
   153  149  150 ar 
   154  149  151 ar 
   155    1  153 1  
   156    1  154 1  
   157    1  155 1  
   158    2  156 1  
   159    2  157 1  
   160    5  158 1  
   161    6  159 1  
   162    9  160 1  
   163    9  161 1  
   164    9  162 1  
   165   10  163 1  
   166   11  164 1  
   167   14  165 1  
   168   14  166 1  
   169   15  167 1  
   170   15  168 1  
   171   17  169 1  
   172   17  170 1  
   173   17  171 1  
   174   18  172 1  
   175   19  173 1  
   176   22  174 1  
   177   22  175 1  
   178   23  176 1  
   179   23  177 1  
   180   27  178 1  
   181   28  179 1  
   182   31  180 1  
   183   32  181 1  
   184   32  182 1  
   185   33  183 1  
   186   33  184 1  
   187   33  185 1  
   188   34  186 1  
   189   34  187 1  
   190   34  188 1  
   191   35  189 1  
   192   36  190 1  
   193   39  191 1  
   194   40  192 1  
   195   40  193 1  
   196   41  194 1  
   197   41  195 1  
   198   41  196 1  
   199   42  197 1  
   200   42  198 1  
   201   42  199 1  
   202   43  200 1  
   203   44  201 1  
   204   47  202 1  
   205   47  203 1  
   206   49  204 1  
   207   50  205 1  
   208   51  206 1  
   209   53  207 1  
   210   54  208 1  
   211   57  209 1  
   212   57  210 1  
   213   58  211 1  
   214   58  212 1  
   215   62  213 1  
   216   63  214 1  
   217   66  215 1  
   218   66  216 1  
   219   70  217 1  
   220   71  218 1  
   221   74  219 1  
   222   74  220 1  
   223   77  221 1  
   224   77  222 1  
   225   78  223 1  
   226   79  224 1  
   227   82  225 1  
   228   82  226 1  
   229   83  227 1  
   230   83  228 1  
   231   87  229 1  
   232   88  230 1  
   233   91  231 1  
   234   91  232 1  
   235   93  233 1  
   236   95  234 1  
   237   97  235 1  
   238   98  236 1  
   239   99  237 1  
   240  100  238 1  
   241  101  239 1  
   242  102  240 1  
   243  102  241 1  
   244  105  242 1  
   245  106  243 1  
   246  109  244 1  
   247  110  245 1  
   248  110  246 1  
   249  111  247 1  
   250  111  248 1  
   251  111  249 1  
   252  112  250 1  
   253  112  251 1  
   254  112  252 1  
   255  113  253 1  
   256  114  254 1  
   257  117  255 1  
   258  117  256 1  
   259  118  257 1  
   260  118  258 1  
   261  122  259 1  
   262  123  260 1  
   263  126  261 1  
   264  126  262 1  
   265  127  263 1  
   266  128  264 1  
   267  128  265 1  
   268  128  266 1  
   269  129  267 1  
   270  129  268 1  
   271  129  269 1  
   272  130  270 1  
   273  131  271 1  
   274  134  272 1  
   275  135  273 1  
   276  135  274 1  
   277  135  275 1  
   278  136  276 1  
   279  136  277 1  
   280  136  278 1  
   281  137  279 1  
   282  138  280 1  
   283  141  281 1  
   284  141  282 1  
   285  142  283 1  
   286  143  284 1  
   287  144  285 1  
   288  147  286 1  
   289  147  287 1  
   290  148  288 1  
   291  148  289 1  
@<TRIPOS>SUBSTRUCTURE
     1 GLY         1

