6h8c_ligand
  -I-interpret- 

294296  0  0  0  0  0  0  0  0999 V2000
   26.3430   -2.3410    2.0300 N   0  3  0  0  0
   26.2440   -1.2810    1.0270 C   0  0  0  0  0
   25.8610   -1.8680   -0.3090 C   0  0  0  0  0
   26.6320   -2.6530   -0.8660 O   0  0  0  0  0
   24.7000   -1.4650   -0.8320 N   0  0  0  0  0
   24.1310   -1.8910   -2.1000 C   0  0  0  0  0
   24.3220   -3.3890   -2.3410 C   0  0  0  0  0
   24.9830   -3.8040   -3.2970 O   0  0  0  0  0
   24.6870   -1.0150   -3.2190 C   0  0  0  0  0
   23.7690   -4.2180   -1.4580 N   0  0  0  0  0
   23.8500   -5.6750   -1.5500 C   0  0  0  0  0
   22.7670   -6.1790   -2.5100 C   0  0  0  0  0
   21.9930   -7.0810   -2.1950 O   0  0  0  0  0
   23.7620   -6.2930   -0.1500 C   0  0  0  0  0
   24.9640   -5.8420    0.6870 C   0  0  0  0  0
   25.1700   -6.6980    2.2630 S   0  0  0  0  0
   23.6290   -6.2290    3.0790 C   0  0  0  0  0
   22.6820   -5.5470   -3.6750 N   0  0  0  0  0
   21.7780   -5.7620   -4.7990 C   0  0  0  0  0
   22.1180   -7.0880   -5.5050 C   0  0  0  0  0
   22.5340   -7.0900   -6.6640 O   0  0  0  0  0
   21.8250   -4.5360   -5.7360 C   0  0  0  0  0
   21.6820   -3.1640   -5.0520 C   0  0  0  0  0
   20.4590   -3.0210   -4.1420 C   0  0  0  0  0
   19.4580   -2.4050   -4.5720 O   0  0  0  0  0
   20.5270   -3.4310   -2.9550 O   0  0  0  0  0
   22.1890   -8.1820   -4.7420 N   0  0  0  0  0
   22.4990   -9.5240   -5.2160 C   0  0  0  0  0
   21.6390   -9.8980   -6.4250 C   0  0  0  0  0
   20.4600   -9.5760   -6.4850 O   0  0  0  0  0
   22.3380  -10.5570   -4.0710 C   0  0  0  0  0
   20.9270  -10.5540   -3.4330 C   0  0  0  0  0
   23.4360  -10.3300   -3.0200 C   0  0  0  0  0
   20.7140  -11.6420   -2.3770 C   0  0  0  0  0
   22.2180  -10.6470   -7.3630 N   0  0  0  0  0
   21.5210  -11.0940   -8.5710 C   0  0  0  0  0
   20.5020  -12.2120   -8.2600 C   0  0  0  0  0
   19.8210  -12.7070   -9.1580 O   0  0  0  0  0
   22.5550  -11.4750   -9.6670 C   0  0  0  0  0
   23.4130  -12.7410   -9.4300 C   0  0  0  0  0
   23.5490  -10.3110   -9.8830 C   0  0  0  0  0
   22.6880  -14.0810   -9.5930 C   0  0  0  0  0
   20.3970  -12.6170   -6.9900 N   0  0  0  0  0
   19.5390  -13.6680   -6.4680 C   0  0  0  0  0
   18.2780  -13.1360   -5.7620 C   0  0  0  0  0
   17.7650  -13.8070   -4.8650 O   0  0  0  0  0
   20.4280  -14.5500   -5.5650 C   0  0  0  0  0
   19.9000  -15.9340   -5.2870 C   0  0  0  0  0
   19.7470  -16.5130   -4.0490 N   0  0  0  0  0
   19.5380  -16.8630   -6.2200 C   0  0  0  0  0
   19.2760  -17.7570   -4.2280 C   0  0  0  0  0
   19.1240  -18.0150   -5.5400 N   0  0  0  0  0
   17.7790  -11.9430   -6.1120 N   0  0  0  0  0
   16.5690  -11.3680   -5.5090 C   0  0  0  0  0
   15.4150  -12.3730   -5.6370 C   0  0  0  0  0
   15.1250  -12.8280   -6.7510 O   0  0  0  0  0
   16.1230  -10.0850   -6.2390 C   0  0  0  0  0
   17.0400   -8.8650   -6.1030 C   0  0  0  0  0
   16.4710   -7.6780   -6.8890 C   0  0  0  0  0
   15.9500   -6.7220   -6.2770 O   0  0  0  0  0
   16.5100   -7.7060   -8.1490 O   0  0  0  0  0
   14.7670  -12.7680   -4.5370 N   0  0  0  0  0
   13.6410  -13.7020   -4.6030 C   0  0  0  0  0
   12.3690  -12.9100   -4.9010 C   0  0  0  0  0
   11.6700  -13.1850   -5.8750 O   0  0  0  0  0
   13.4630  -14.5060   -3.3140 C   0  0  0  0  0
   12.1520  -15.2800   -3.3780 C   0  0  0  0  0
   12.0630  -16.2970   -4.1000 O   0  0  0  0  0
   11.1630  -14.8160   -2.7700 O   0  0  0  0  0
   12.0330  -11.9650   -4.0230 N   0  0  0  0  0
   10.8610  -11.1000   -4.1450 C   0  0  0  0  0
   11.3000   -9.9420   -5.0410 C   0  0  0  0  0
   12.2440   -9.2490   -4.6670 O   0  0  0  0  0
   10.4600  -10.5100   -2.7870 C   0  0  0  0  0
    9.8220  -11.4130   -1.7400 C   0  0  0  0  0
    8.7960  -11.0700   -1.1660 O   0  0  0  0  0
   10.3950  -12.5560   -1.4140 N   0  0  0  0  0
   10.6270   -9.7070   -6.1670 N   0  0  0  0  0
   11.0100   -8.6430   -7.0980 C   0  0  0  0  0
   10.8320   -7.1980   -6.5920 C   0  0  0  0  0
   11.8310   -6.4990   -6.4670 O   0  0  0  0  0
   10.3340   -8.8660   -8.4550 C   0  0  0  0  0
   10.7310  -10.2030   -9.1050 C   0  0  0  0  0
   10.3230  -10.2620  -10.5760 C   0  0  0  0  0
    9.1460  -10.5780  -10.8820 O   0  0  0  0  0
   11.1730   -9.9840  -11.4510 O   0  0  0  0  0
    9.6130   -6.7330   -6.2680 N   0  0  0  0  0
    9.3520   -5.3650   -5.7950 C   0  0  0  0  0
    9.6030   -4.3160   -6.8910 C   0  0  0  0  0
   10.4700   -3.4510   -6.7560 O   0  0  0  0  0
   10.0530   -5.0460   -4.4670 C   0  0  0  0  0
    9.7820   -5.9660   -3.3240 C   0  0  0  0  0
   10.6900   -6.7980   -2.7760 C   0  0  0  0  0
    8.5290   -6.2150   -2.6190 C   0  0  0  0  0
   10.1060   -7.4840   -1.7320 N   0  0  0  0  0
    8.7480   -7.2640   -1.6800 C   0  0  0  0  0
    7.2190   -5.6990   -2.7060 C   0  0  0  0  0
    7.7030   -7.8380   -0.9420 C   0  0  0  0  0
    6.1680   -6.2510   -1.9510 C   0  0  0  0  0
    6.4010   -7.3330   -1.0840 C   0  0  0  0  0
    8.8010   -4.3570   -7.9620 N   0  0  0  0  0
    8.9200   -3.4260   -9.0830 C   0  0  0  0  0
    8.2090   -2.1210   -8.7510 C   0  0  0  0  0
    7.1340   -2.1510   -8.1550 O   0  0  0  0  0
    8.7890   -0.9740   -9.1050 N   0  0  0  0  0
    8.2060    0.3380   -8.8250 C   0  0  0  0  0
    7.0420    0.6410   -9.7670 C   0  0  0  0  0
    7.1770    0.5200  -10.9870 O   0  0  0  0  0
    9.2630    1.4610   -8.9400 C   0  0  0  0  0
   10.5180    1.1160   -8.1190 C   0  0  0  0  0
    8.6640    2.8000   -8.4550 C   0  0  0  0  0
   11.5680    2.2200   -8.1400 C   0  0  0  0  0
    5.9450    1.1450   -9.2030 N   0  0  0  0  0
    4.7570    1.5070   -9.9540 C   0  0  0  0  0
    4.1270    2.8020   -9.4240 C   0  0  0  0  0
    3.7040    2.8770   -8.2680 O   0  0  0  0  0
    3.7680    0.3310   -9.9430 C   0  0  0  0  0
    3.0180    0.2490  -11.2750 C   0  0  0  0  0
    3.9330   -0.2180  -12.4110 C   0  0  0  0  0
    4.2420   -1.4320  -12.4910 O   0  0  0  0  0
    4.3150    0.6260  -13.2580 O   0  0  0  0  0
    4.1300    3.8650  -10.2350 N   0  0  0  0  0
    3.5380    5.1510   -9.8730 C   0  0  0  0  0
    2.0550    5.0130  -10.1660 C   0  0  0  0  0
    1.6990    4.7300  -11.3080 O   0  0  0  0  0
    4.0910    6.3190  -10.7070 C   0  0  0  0  0
    5.3790    6.9250  -10.1370 C   0  0  0  0  0
    6.5730    5.9880  -10.3350 C   0  0  0  0  0
    5.6500    8.2700  -10.8140 C   0  0  0  0  0
    1.2050    5.1700   -9.1580 N   0  0  0  0  0
   -0.2390    5.0550   -9.3020 C   0  0  0  0  0
   -0.9060    6.3540   -8.8450 C   0  0  0  0  0
   -0.4040    7.0040   -7.9260 O   0  0  0  0  0
   -0.6810    3.7920   -8.5340 C   0  0  0  0  0
   -2.1990    3.6230   -8.5210 C   0  0  0  0  0
   -0.0680    2.5340   -9.1760 C   0  0  0  0  0
   -1.9680    6.7840   -9.5220 N   0  0  0  0  0
   -2.7550    7.9710   -9.2050 C   0  0  0  0  0
   -4.0990    7.8450   -9.9220 C   0  0  0  0  0
   -4.1610    7.2030  -10.9730 O   0  0  0  0  0
   -2.0100    9.2690   -9.5500 C   0  0  0  0  0
   -1.2580    9.1810  -10.7550 O   0  0  0  0  0
   -5.1670    8.3980   -9.3520 N   0  0  0  0  0
   -6.5320    8.4250   -9.8680 C   0  0  0  0  0
   -7.3260    9.2590   -8.8680 C   0  0  0  0  0
   -6.7500   10.2580   -8.3900 O   0  0  0  0  0
   -7.1280    7.0230  -10.1170 C   0  0  0  0  0
   -7.9530    7.0130  -11.4030 C   0  0  0  0  0
   -8.8610    5.7880  -11.4950 C   0  0  0  0  0
   -8.3810    4.6300  -11.4920 O   0  0  0  0  0
  -10.1040    5.9560  -11.5200 O   0  0  0  0  0
   -8.4850    8.8720   -8.6120 O   0  0  0  0  0
   26.6022   -1.9340    2.9287 H   0  0  0  0  0
   25.4421   -2.8116    2.1157 H   0  0  0  0  0
   27.0535   -3.0140    1.7427 H   0  0  0  0  0
   27.2090   -0.7825    0.9360 H   0  0  0  0  0
   25.4819   -0.5655    1.3358 H   0  0  0  0  0
   24.1595   -0.7922   -0.2883 H   0  0  0  0  0
   23.0500   -1.7530   -2.0772 H   0  0  0  0  0
   25.7572   -1.1944   -3.3214 H   0  0  0  0  0
   24.1849   -1.2609   -4.1547 H   0  0  0  0  0
   24.5146    0.0338   -2.9773 H   0  0  0  0  0
   23.2596   -3.8135   -0.6723 H   0  0  0  0  0
   24.8111   -5.9851   -1.9602 H   0  0  0  0  0
   23.7655   -7.3798   -0.2328 H   0  0  0  0  0
   22.8411   -5.9664    0.3330 H   0  0  0  0  0
   24.8041   -4.7896    0.9216 H   0  0  0  0  0
   25.8544   -6.0568    0.0961 H   0  0  0  0  0
   23.5817   -5.1436    3.1670 H   0  0  0  0  0
   22.7842   -6.5841    2.4888 H   0  0  0  0  0
   23.5942   -6.6772    4.0720 H   0  0  0  0  0
   23.3555   -4.7919   -3.8040 H   0  0  0  0  0
   20.7494   -5.8573   -4.4511 H   0  0  0  0  0
   20.9757   -4.6328   -6.4124 H   0  0  0  0  0
   22.8087   -4.5449   -6.2054 H   0  0  0  0  0
   21.5721   -2.4256   -5.8463 H   0  0  0  0  0
   22.5613   -3.0329   -4.4214 H   0  0  0  0  0
   21.3666   -3.8762   -2.8190 H   0  0  0  0  0
   22.0113   -8.0682   -3.7441 H   0  0  0  0  0
   23.5396   -9.5366   -5.5402 H   0  0  0  0  0
   22.4510  -11.5500   -4.5060 H   0  0  0  0  0
   20.2112  -10.7385   -4.2341 H   0  0  0  0  0
   20.8012   -9.5928   -2.9346 H   0  0  0  0  0
   24.4139  -10.4518   -3.4859 H   0  0  0  0  0
   23.3476   -9.3215   -2.6161 H   0  0  0  0  0
   23.3226  -11.0563   -2.2152 H   0  0  0  0  0
   20.8579  -12.6218   -2.8325 H   0  0  0  0  0
   21.4320  -11.5069   -1.5681 H   0  0  0  0  0
   19.7010  -11.5691   -1.9813 H   0  0  0  0  0
   23.1918  -10.9217   -7.2336 H   0  0  0  0  0
   20.9252  -10.2723   -8.9684 H   0  0  0  0  0
   21.9191  -11.6902  -10.5257 H   0  0  0  0  0
   23.7461  -12.6964   -8.3931 H   0  0  0  0  0
   24.1999  -12.7241  -10.1840 H   0  0  0  0  0
   23.0026   -9.4220  -10.1979 H   0  0  0  0  0
   24.0736  -10.1051   -8.9500 H   0  0  0  0  0
   24.2692  -10.5881  -10.6528 H   0  0  0  0  0
   21.8631  -14.1351   -8.8826 H   0  0  0  0  0
   22.3005  -14.1618  -10.6086 H   0  0  0  0  0
   23.3865  -14.8960   -9.4034 H   0  0  0  0  0
   20.9852  -12.1341   -6.3109 H   0  0  0  0  0
   19.1251  -14.2607   -7.2838 H   0  0  0  0  0
   20.4917  -14.0431   -4.6022 H   0  0  0  0  0
   21.3738  -14.6787   -6.0914 H   0  0  0  0  0
   19.5663  -16.7313   -7.3016 H   0  0  0  0  0
   19.0490  -18.4584   -3.4251 H   0  0  0  0  0
   18.2630  -11.4075   -6.8327 H   0  0  0  0  0
   16.8024  -11.1382   -4.4694 H   0  0  0  0  0
   15.1719   -9.7984   -5.7904 H   0  0  0  0  0
   16.1066  -10.3326   -7.3004 H   0  0  0  0  0
   18.0240   -9.1146   -6.5000 H   0  0  0  0  0
   17.1129   -8.5914   -5.0504 H   0  0  0  0  0
   16.9449   -8.5120   -8.4367 H   0  0  0  0  0
   15.0640  -12.4102   -3.6292 H   0  0  0  0  0
   13.8468  -14.4225   -5.3946 H   0  0  0  0  0
   13.4441  -13.8274   -2.4612 H   0  0  0  0  0
   14.2929  -15.2038   -3.2025 H   0  0  0  0  0
   12.9226  -16.4957   -4.4784 H   0  0  0  0  0
   12.6353  -11.8366   -3.2099 H   0  0  0  0  0
   10.0140  -11.6634   -4.5366 H   0  0  0  0  0
    9.6937   -9.7708   -3.0205 H   0  0  0  0  0
   11.3980  -10.1835   -2.3380 H   0  0  0  0  0
    9.9832  -13.1447   -0.6900 H   0  0  0  0  0
   11.2498  -12.8509   -1.8860 H   0  0  0  0  0
    9.8180  -10.2876   -6.3879 H   0  0  0  0  0
   12.0916   -8.7297   -7.2015 H   0  0  0  0  0
   10.6498   -8.0635   -9.1216 H   0  0  0  0  0
    9.2562   -8.8800   -8.2932 H   0  0  0  0  0
   10.2197  -11.0067   -8.5752 H   0  0  0  0  0
   11.8147  -10.3043   -9.0457 H   0  0  0  0  0
    8.6451  -10.7547  -10.0823 H   0  0  0  0  0
    8.8198   -7.3683   -6.3556 H   0  0  0  0  0
    8.2871   -5.3114   -5.5689 H   0  0  0  0  0
    9.6800   -4.0691   -4.1593 H   0  0  0  0  0
   11.1217   -5.1243   -4.6668 H   0  0  0  0  0
   11.7227   -6.9107   -3.1060 H   0  0  0  0  0
    7.0176   -4.8581   -3.3696 H   0  0  0  0  0
    7.8999   -8.6687   -0.2643 H   0  0  0  0  0
    5.1639   -5.8360   -2.0390 H   0  0  0  0  0
    5.5764   -7.7766   -0.5260 H   0  0  0  0  0
    8.0732   -5.0708   -7.9977 H   0  0  0  0  0
    8.4634   -3.8690   -9.9681 H   0  0  0  0  0
    9.9743   -3.2231   -9.2713 H   0  0  0  0  0
    9.6828   -1.0132   -9.5949 H   0  0  0  0  0
    7.8344    0.3060   -7.8008 H   0  0  0  0  0
    9.5532    1.5560   -9.9864 H   0  0  0  0  0
   10.9660    0.2244   -8.5576 H   0  0  0  0  0
   10.2078    0.9735   -7.0838 H   0  0  0  0  0
    7.8006    3.0542   -9.0699 H   0  0  0  0  0
    8.3545    2.7024   -7.4144 H   0  0  0  0  0
    9.4157    3.5847   -8.5398 H   0  0  0  0  0
   11.8839    2.3997   -9.1676 H   0  0  0  0  0
   11.1416    3.1331   -7.7247 H   0  0  0  0  0
   12.4269    1.9142   -7.5427 H   0  0  0  0  0
    5.9399    1.2834   -8.1924 H   0  0  0  0  0
    5.0369    1.7100  -10.9877 H   0  0  0  0  0
    3.0472    0.4819   -9.1394 H   0  0  0  0  0
    4.3213   -0.5957   -9.7904 H   0  0  0  0  0
    2.6443    1.2429  -11.5210 H   0  0  0  0  0
    2.2065   -0.4710  -11.1690 H   0  0  0  0  0
    3.8548   -1.9089  -11.7533 H   0  0  0  0  0
    4.5673    3.7737  -11.1520 H   0  0  0  0  0
    3.7632    5.3754   -8.8304 H   0  0  0  0  0
    3.3348    7.1040  -10.7115 H   0  0  0  0  0
    4.3235    5.9310  -11.6987 H   0  0  0  0  0
    5.2459    7.0707   -9.0650 H   0  0  0  0  0
    6.3801    5.0434   -9.8265 H   0  0  0  0  0
    6.7177    5.8059  -11.3999 H   0  0  0  0  0
    7.4685    6.4498   -9.9191 H   0  0  0  0  0
    5.7619    8.1189  -11.8877 H   0  0  0  0  0
    4.8149    8.9448  -10.6259 H   0  0  0  0  0
    6.5656    8.7012  -10.4091 H   0  0  0  0  0
    1.5835    5.3822   -8.2349 H   0  0  0  0  0
   -0.5511    4.9284  -10.3387 H   0  0  0  0  0
   -0.3313    3.9154   -7.5090 H   0  0  0  0  0
   -2.6555    4.4882   -8.0403 H   0  0  0  0  0
   -2.5629    3.5407   -9.5452 H   0  0  0  0  0
   -2.4580    2.7199   -7.9683 H   0  0  0  0  0
   -0.4013    2.4566  -10.2109 H   0  0  0  0  0
    1.0192    2.6061   -9.1475 H   0  0  0  0  0
   -0.3895    1.6518   -8.6225 H   0  0  0  0  0
   -2.2568    6.2364  -10.3326 H   0  0  0  0  0
   -2.9263    8.0310   -8.1302 H   0  0  0  0  0
   -1.3112    9.4741   -8.7390 H   0  0  0  0  0
   -2.7560   10.0525   -9.6829 H   0  0  0  0  0
   -0.8168   10.0180  -10.9174 H   0  0  0  0  0
   -5.0143    8.8546   -8.4528 H   0  0  0  0  0
   -6.5654    8.8705  -10.8623 H   0  0  0  0  0
   -7.7740    6.7590   -9.2797 H   0  0  0  0  0
   -6.3143    6.3041  -10.2127 H   0  0  0  0  0
   -7.2647    6.9897  -12.2479 H   0  0  0  0  0
   -8.5820    7.9032  -11.4099 H   0  0  0  0  0
  -10.2988    6.8960  -11.5184 H   0  0  0  0  0
   -8.6752    8.0785   -9.1177 H   0  0  0  0  0
  1  2  1  0  0  0
  2  3  1  0  0  0
  3  4  2  0  0  0
  3  5  1  0  0  0
  5  6  1  0  0  0
  6  7  1  0  0  0
  6  9  1  0  0  0
  7  8  2  0  0  0
  7 10  1  0  0  0
 10 11  1  0  0  0
 11 12  1  0  0  0
 11 14  1  0  0  0
 12 13  2  0  0  0
 12 18  1  0  0  0
 14 15  1  0  0  0
 15 16  1  0  0  0
 16 17  1  0  0  0
 18 19  1  0  0  0
 19 20  1  0  0  0
 19 22  1  0  0  0
 20 21  2  0  0  0
 20 27  1  0  0  0
 22 23  1  0  0  0
 23 24  1  0  0  0
 24 25  2  0  0  0
 24 26  1  0  0  0
 27 28  1  0  0  0
 28 29  1  0  0  0
 28 31  1  0  0  0
 29 30  2  0  0  0
 29 35  1  0  0  0
 31 32  1  0  0  0
 31 33  1  0  0  0
 32 34  1  0  0  0
 35 36  1  0  0  0
 36 37  1  0  0  0
 36 39  1  0  0  0
 37 38  2  0  0  0
 37 43  1  0  0  0
 39 40  1  0  0  0
 39 41  1  0  0  0
 40 42  1  0  0  0
 43 44  1  0  0  0
 44 45  1  0  0  0
 44 47  1  0  0  0
 45 46  2  0  0  0
 45 53  1  0  0  0
 47 48  1  0  0  0
 48 49  4  0  0  0
 48 50  4  0  0  0
 49 51  4  0  0  0
 50 52  4  0  0  0
 51 52  4  0  0  0
 53 54  1  0  0  0
 54 55  1  0  0  0
 54 57  1  0  0  0
 55 56  2  0  0  0
 55 62  1  0  0  0
 57 58  1  0  0  0
 58 59  1  0  0  0
 59 60  2  0  0  0
 59 61  1  0  0  0
 62 63  1  0  0  0
 63 64  1  0  0  0
 63 66  1  0  0  0
 64 65  2  0  0  0
 64 70  1  0  0  0
 66 67  1  0  0  0
 67 68  1  0  0  0
 67 69  2  0  0  0
 70 71  1  0  0  0
 71 72  1  0  0  0
 71 74  1  0  0  0
 72 73  2  0  0  0
 72 78  1  0  0  0
 74 75  1  0  0  0
 75 76  2  0  0  0
 75 77  1  0  0  0
 78 79  1  0  0  0
 79 80  1  0  0  0
 79 82  1  0  0  0
 80 81  2  0  0  0
 80 87  1  0  0  0
 82 83  1  0  0  0
 83 84  1  0  0  0
 84 85  1  0  0  0
 84 86  2  0  0  0
 87 88  1  0  0  0
 88 89  1  0  0  0
 88 91  1  0  0  0
 89 90  2  0  0  0
 89101  1  0  0  0
 91 92  1  0  0  0
 92 93  4  0  0  0
 92 94  4  0  0  0
 93 95  4  0  0  0
 94 96  4  0  0  0
 94 97  4  0  0  0
 95 96  4  0  0  0
 96 98  4  0  0  0
 97 99  4  0  0  0
 98100  4  0  0  0
 99100  4  0  0  0
101102  1  0  0  0
102103  1  0  0  0
103104  2  0  0  0
103105  1  0  0  0
105106  1  0  0  0
106107  1  0  0  0
106109  1  0  0  0
107108  2  0  0  0
107113  1  0  0  0
109110  1  0  0  0
109111  1  0  0  0
110112  1  0  0  0
113114  1  0  0  0
114115  1  0  0  0
114117  1  0  0  0
115116  2  0  0  0
115122  1  0  0  0
117118  1  0  0  0
118119  1  0  0  0
119120  1  0  0  0
119121  2  0  0  0
122123  1  0  0  0
123124  1  0  0  0
123126  1  0  0  0
124125  2  0  0  0
124130  1  0  0  0
126127  1  0  0  0
127128  1  0  0  0
127129  1  0  0  0
130131  1  0  0  0
131132  1  0  0  0
131134  1  0  0  0
132133  2  0  0  0
132137  1  0  0  0
134135  1  0  0  0
134136  1  0  0  0
137138  1  0  0  0
138139  1  0  0  0
138141  1  0  0  0
139140  2  0  0  0
139143  1  0  0  0
141142  1  0  0  0
143144  1  0  0  0
144145  1  0  0  0
144147  1  0  0  0
145146  2  0  0  0
145152  1  0  0  0
147148  1  0  0  0
148149  1  0  0  0
149150  2  0  0  0
149151  1  0  0  0
  1153  1  0  0  0
  1154  1  0  0  0
  1155  1  0  0  0
  2156  1  0  0  0
  2157  1  0  0  0
  5158  1  0  0  0
  6159  1  0  0  0
  9160  1  0  0  0
  9161  1  0  0  0
  9162  1  0  0  0
 10163  1  0  0  0
 11164  1  0  0  0
 14165  1  0  0  0
 14166  1  0  0  0
 15167  1  0  0  0
 15168  1  0  0  0
 17169  1  0  0  0
 17170  1  0  0  0
 17171  1  0  0  0
 18172  1  0  0  0
 19173  1  0  0  0
 22174  1  0  0  0
 22175  1  0  0  0
 23176  1  0  0  0
 23177  1  0  0  0
 26178  1  0  0  0
 27179  1  0  0  0
 28180  1  0  0  0
 31181  1  0  0  0
 32182  1  0  0  0
 32183  1  0  0  0
 33184  1  0  0  0
 33185  1  0  0  0
 33186  1  0  0  0
 34187  1  0  0  0
 34188  1  0  0  0
 34189  1  0  0  0
 35190  1  0  0  0
 36191  1  0  0  0
 39192  1  0  0  0
 40193  1  0  0  0
 40194  1  0  0  0
 41195  1  0  0  0
 41196  1  0  0  0
 41197  1  0  0  0
 42198  1  0  0  0
 42199  1  0  0  0
 42200  1  0  0  0
 43201  1  0  0  0
 44202  1  0  0  0
 47203  1  0  0  0
 47204  1  0  0  0
 50205  1  0  0  0
 51206  1  0  0  0
 53207  1  0  0  0
 54208  1  0  0  0
 57209  1  0  0  0
 57210  1  0  0  0
 58211  1  0  0  0
 58212  1  0  0  0
 61213  1  0  0  0
 62214  1  0  0  0
 63215  1  0  0  0
 66216  1  0  0  0
 66217  1  0  0  0
 68218  1  0  0  0
 70219  1  0  0  0
 71220  1  0  0  0
 74221  1  0  0  0
 74222  1  0  0  0
 77223  1  0  0  0
 77224  1  0  0  0
 78225  1  0  0  0
 79226  1  0  0  0
 82227  1  0  0  0
 82228  1  0  0  0
 83229  1  0  0  0
 83230  1  0  0  0
 85231  1  0  0  0
 87232  1  0  0  0
 88233  1  0  0  0
 91234  1  0  0  0
 91235  1  0  0  0
 93236  1  0  0  0
 97237  1  0  0  0
 98238  1  0  0  0
 99239  1  0  0  0
100240  1  0  0  0
101241  1  0  0  0
102242  1  0  0  0
102243  1  0  0  0
105244  1  0  0  0
106245  1  0  0  0
109246  1  0  0  0
110247  1  0  0  0
110248  1  0  0  0
111249  1  0  0  0
111250  1  0  0  0
111251  1  0  0  0
112252  1  0  0  0
112253  1  0  0  0
112254  1  0  0  0
113255  1  0  0  0
114256  1  0  0  0
117257  1  0  0  0
117258  1  0  0  0
118259  1  0  0  0
118260  1  0  0  0
120261  1  0  0  0
122262  1  0  0  0
123263  1  0  0  0
126264  1  0  0  0
126265  1  0  0  0
127266  1  0  0  0
128267  1  0  0  0
128268  1  0  0  0
128269  1  0  0  0
129270  1  0  0  0
129271  1  0  0  0
129272  1  0  0  0
130273  1  0  0  0
131274  1  0  0  0
134275  1  0  0  0
135276  1  0  0  0
135277  1  0  0  0
135278  1  0  0  0
136279  1  0  0  0
136280  1  0  0  0
136281  1  0  0  0
137282  1  0  0  0
138283  1  0  0  0
141284  1  0  0  0
141285  1  0  0  0
142286  1  0  0  0
143287  1  0  0  0
144288  1  0  0  0
147289  1  0  0  0
147290  1  0  0  0
148291  1  0  0  0
148292  1  0  0  0
151293  1  0  0  0
152294  1  0  0  0
M  END
$$$$
