188l_ligand
  -I-interpret- 

 18 18  0  0  0  0  0  0  0  0999 V2000
   27.2140    7.4650    4.4890 C   0  0  0  0  0
   27.5750    6.9460    3.2690 C   0  0  0  0  0
   27.2520    5.6280    2.9580 C   0  0  0  0  0
   26.4320    4.8790    3.8100 C   0  0  0  0  0
   26.0190    5.4030    5.0400 C   0  0  0  0  0
   26.4360    6.6760    5.4130 C   0  0  0  0  0
   27.6430    8.8780    4.7960 C   0  0  0  0  0
   28.4530    7.7660    2.3490 C   0  0  0  0  0
   27.6402    5.1764    2.0451 H   0  0  0  0  0
   26.1127    3.8800    3.5131 H   0  0  0  0  0
   25.3767    4.8190    5.6992 H   0  0  0  0  0
   26.1775    7.0741    6.3942 H   0  0  0  0  0
   28.7307    8.9411    4.7644 H   0  0  0  0  0
   27.2169    9.5548    4.0554 H   0  0  0  0  0
   27.2904    9.1557    5.7893 H   0  0  0  0  0
   27.9501    8.7026    2.1084 H   0  0  0  0  0
   29.3998    7.9777    2.8458 H   0  0  0  0  0
   28.6393    7.2063    1.4324 H   0  0  0  0  0
  1  2  4  0  0  0
  1  6  4  0  0  0
  1  7  1  0  0  0
  2  3  4  0  0  0
  2  8  1  0  0  0
  3  4  4  0  0  0
  4  5  4  0  0  0
  5  6  4  0  0  0
  3  9  1  0  0  0
  4 10  1  0  0  0
  5 11  1  0  0  0
  6 12  1  0  0  0
  7 13  1  0  0  0
  7 14  1  0  0  0
  7 15  1  0  0  0
  8 16  1  0  0  0
  8 17  1  0  0  0
  8 18  1  0  0  0
M  END
$$$$
