1iih_ligand
  -I-interpret- 

 18 17  0  0  0  0  0  0  0  0999 V2000
   46.4510   15.2650   -8.7440 C   0  0  0  0  0
   47.3220   15.8050   -8.0570 O   0  0  0  0  0
   45.2700   15.2200   -8.4480 O   0  0  0  0  0
   46.8730   14.6890  -10.0830 C   0  0  0  0  0
   47.2570   13.3250  -10.0540 O   0  0  0  0  0
   48.0670   15.5450  -10.4800 C   0  0  0  0  0
   47.6780   16.7860  -11.1160 O   0  0  0  0  0
   47.7670   16.9710  -12.7130 P   0  0  0  0  0
   49.2390   16.7440  -12.9640 O   0  0  0  0  0
   46.8860   15.8500  -13.2130 O   0  0  0  0  0
   47.3480   18.3830  -12.9890 O   0  0  0  0  0
   48.1731   15.7136   -8.4916 H   0  0  0  0  0
   46.0327   14.7110  -10.7769 H   0  0  0  0  0
   46.5027   12.7866   -9.8034 H   0  0  0  0  0
   48.6641   14.9764  -11.1929 H   0  0  0  0  0
   48.6179   15.7923   -9.5726 H   0  0  0  0  0
   49.4575   15.8287  -12.7739 H   0  0  0  0  0
   47.2729   15.0065  -12.9672 H   0  0  0  0  0
  1  4  1  0  0  0
  1  3  2  0  0  0
  1  2  1  0  0  0
  4  6  1  0  0  0
  4  5  1  0  0  0
  6  7  1  0  0  0
  7  8  1  0  0  0
  8 11  2  0  0  0
  8 10  1  0  0  0
  8  9  1  0  0  0
  2 12  1  0  0  0
  4 13  1  0  0  0
  5 14  1  0  0  0
  6 15  1  0  0  0
  6 16  1  0  0  0
  9 17  1  0  0  0
 10 18  1  0  0  0
M  END
$$$$
