4n8e_ligand
  -I-interpret- 

 48 50  0  0  0  0  0  0  0  0999 V2000
   15.4040   29.0900   53.1470 C   0  0  0  0  0
   17.9860   33.7120   54.7870 C   0  0  0  0  0
   17.1120   31.3230   55.4230 C   0  0  0  0  0
   18.9140   37.4920   54.7140 C   0  0  0  0  0
   17.8490   28.8360   53.5930 C   0  0  0  0  0
   19.4740   33.2100   54.7250 C   0  0  0  0  0
   15.2660   27.6350   52.7430 C   0  0  0  0  0
   17.8050   35.6920   56.5050 C   0  0  0  0  0
   18.0190   37.0220   56.9040 C   0  0  0  0  0
   18.5870   37.9380   56.0040 C   0  0  0  0  0
   17.7140   27.3020   53.3820 C   0  0  0  0  0
   16.6200   27.0140   52.3130 C   0  0  0  0  0
   16.6020   29.6410   53.5410 N   0  0  0  0  0
   18.1350   35.2220   55.2090 C   0  0  0  0  0
   16.6050   31.0750   53.9500 C   0  0  0  0  0
   14.3490   29.7190   53.1130 O   0  0  0  0  0
   18.7300   36.1620   54.3510 C   0  0  0  0  0
   17.2250   33.5460   53.4060 C   0  0  0  0  0
   17.2230   32.8230   55.8530 C   0  0  0  0  0
   17.1030   32.0950   52.8560 C   0  0  0  0  0
   19.6520   38.5270   53.5200 Cl  0  0  0  0  0
   20.2980   33.5610   55.8950 N   0  3  0  0  0
   18.1186   30.9087   55.4788 H   0  0  0  0  0
   16.3784   30.8636   56.0854 H   0  0  0  0  0
   18.4671   29.1945   52.7699 H   0  0  0  0  0
   18.2408   28.9624   54.6023 H   0  0  0  0  0
   19.9328   33.6907   53.8610 H   0  0  0  0  0
   19.4376   32.1215   54.6805 H   0  0  0  0  0
   14.5846   27.5825   51.8939 H   0  0  0  0  0
   14.8963   27.0781   53.6040 H   0  0  0  0  0
   17.3683   34.9945   57.2197 H   0  0  0  0  0
   17.7449   37.3419   57.9093 H   0  0  0  0  0
   18.7696   38.9710   56.3002 H   0  0  0  0  0
   17.4319   26.8311   54.3237 H   0  0  0  0  0
   18.6675   26.8988   53.0410 H   0  0  0  0  0
   16.9267   27.4542   51.3642 H   0  0  0  0  0
   16.4991   25.9356   52.2109 H   0  0  0  0  0
   15.5485   31.3368   54.0073 H   0  0  0  0  0
   19.0597   35.8369   53.3642 H   0  0  0  0  0
   17.8065   34.1016   52.6703 H   0  0  0  0  0
   16.2058   33.8923   53.5775 H   0  0  0  0  0
   16.2118   33.2171   55.9540 H   0  0  0  0  0
   17.7865   32.8623   56.7852 H   0  0  0  0  0
   16.3736   32.1024   52.0461 H   0  0  0  0  0
   18.0913   31.7767   52.5243 H   0  0  0  0  0
   21.2418   33.1960   55.7665 H   0  0  0  0  0
   20.3348   34.5758   55.9913 H   0  0  0  0  0
   19.8859   33.1533   56.7342 H   0  0  0  0  0
  1  7  1  0  0  0
 13  1  1  0  0  0
  1 16  2  0  0  0
  2  6  1  0  0  0
  2 14  1  0  0  0
  2 18  1  0  0  0
 19  2  1  0  0  0
 15  3  1  0  0  0
  3 19  1  0  0  0
 10  4  4  0  0  0
  4 17  4  0  0  0
  4 21  1  0  0  0
  5 11  1  0  0  0
 13  5  1  0  0  0
  6 22  1  0  0  0
  7 12  1  0  0  0
  8  9  4  0  0  0
 14  8  4  0  0  0
  9 10  4  0  0  0
 11 12  1  0  0  0
 13 15  1  0  0  0
 14 17  4  0  0  0
 15 20  1  0  0  0
 18 20  1  0  0  0
  3 23  1  0  0  0
  3 24  1  0  0  0
  5 25  1  0  0  0
  5 26  1  0  0  0
  6 27  1  0  0  0
  6 28  1  0  0  0
  7 29  1  0  0  0
  7 30  1  0  0  0
  8 31  1  0  0  0
  9 32  1  0  0  0
 10 33  1  0  0  0
 11 34  1  0  0  0
 11 35  1  0  0  0
 12 36  1  0  0  0
 12 37  1  0  0  0
 15 38  1  0  0  0
 17 39  1  0  0  0
 18 40  1  0  0  0
 18 41  1  0  0  0
 19 42  1  0  0  0
 19 43  1  0  0  0
 20 44  1  0  0  0
 20 45  1  0  0  0
 22 46  1  0  0  0
 22 47  1  0  0  0
 22 48  1  0  0  0
M  END
$$$$
