4oc1_ligand
  -I-interpret- 

 54 55  0  0  0  0  0  0  0  0999 V2000
   12.9560   47.6400   40.7000 C   0  0  0  0  0
   13.1960   47.0750   39.4660 O   0  0  0  0  0
   13.3950   46.2580   40.6990 C   0  0  0  0  0
   14.8010   46.2320   41.4460 C   0  0  0  0  0
   15.9040   45.1010   41.3540 C   0  0  0  0  0
   16.7610   45.0290   40.0780 C   0  0  0  0  0
   17.6040   45.9340   39.9080 O   0  0  0  0  0
   16.6760   44.0070   39.3430 O   0  0  0  0  0
   16.8470   45.5960   42.3690 N   0  0  0  0  0
   18.0300   45.0700   42.6600 C   0  0  0  0  0
   18.4580   44.0450   42.1080 O   0  0  0  0  0
   18.6940   45.7750   43.5640 N   0  0  0  0  0
   20.0230   45.4460   44.0810 C   0  0  0  0  0
   20.1500   46.0430   45.4820 C   0  0  0  0  0
   20.7070   45.3240   46.3400 O   0  0  0  0  0
   19.7070   47.2080   45.6740 O   0  0  0  0  0
   21.0790   46.1100   43.1810 C   0  0  0  0  0
   22.3670   46.3130   43.9690 C   0  0  0  0  0
   23.4950   46.8660   43.0800 C   0  0  0  0  0
   23.7470   48.3410   43.4420 C   0  0  0  0  0
   23.7200   48.5350   44.9110 N   0  0  0  0  0
   23.3280   49.6830   45.4680 C   0  0  0  0  0
   22.8640   50.6300   44.8410 O   0  0  0  0  0
   23.3140   49.7180   46.9950 C   0  0  0  0  0
   23.6500   50.8650   47.7090 C   0  0  0  0  0
   23.5970   50.8590   49.1030 C   0  0  0  0  0
   23.1890   49.6920   49.7340 C   0  0  0  0  0
   23.0330   49.5500   51.7880 I   0  0  0  0  0
   22.8320   48.5640   49.0160 C   0  0  0  0  0
   22.8980   48.5750   47.6440 C   0  0  0  0  0
   12.1490   48.2091   41.1615 H   0  0  0  0  0
   13.2432   48.5566   41.2152 H   0  0  0  0  0
   13.0887   45.2408   40.9432 H   0  0  0  0  0
   14.4927   46.1517   42.4884 H   0  0  0  0  0
   15.3120   47.0736   40.9783 H   0  0  0  0  0
   15.4188   44.1281   41.4327 H   0  0  0  0  0
   15.9610   43.4479   39.6557 H   0  0  0  0  0
   16.5650   46.4208   42.8987 H   0  0  0  0  0
   18.2430   46.6140   43.9288 H   0  0  0  0  0
   20.1659   44.3656   44.1033 H   0  0  0  0  0
   19.3268   47.5430   44.8586 H   0  0  0  0  0
   20.7076   47.0759   42.8388 H   0  0  0  0  0
   21.2772   45.4693   42.3217 H   0  0  0  0  0
   22.6833   45.3483   44.3658 H   0  0  0  0  0
   22.1733   47.0313   44.7657 H   0  0  0  0  0
   23.2053   46.7907   42.0319 H   0  0  0  0  0
   24.4052   46.2887   43.2422 H   0  0  0  0  0
   22.9639   48.9517   42.9926 H   0  0  0  0  0
   24.7283   48.6319   43.0673 H   0  0  0  0  0
   24.0103   47.7667   45.5158 H   0  0  0  0  0
   23.9544   51.7675   47.1789 H   0  0  0  0  0
   23.8677   51.7438   49.6791 H   0  0  0  0  0
   22.4987   47.6675   49.5388 H   0  0  0  0  0
   22.6238   47.6877   47.0733 H   0  0  0  0  0
  1  2  1  0  0  0
  1  3  1  0  0  0
  2  3  1  0  0  0
  3  4  1  0  0  0
  4  5  1  0  0  0
  5  6  1  0  0  0
  5  9  1  0  0  0
  6  7  2  0  0  0
  6  8  1  0  0  0
  9 10  1  0  0  0
 10 11  2  0  0  0
 10 12  1  0  0  0
 12 13  1  0  0  0
 13 14  1  0  0  0
 13 17  1  0  0  0
 14 15  2  0  0  0
 14 16  1  0  0  0
 17 18  1  0  0  0
 18 19  1  0  0  0
 19 20  1  0  0  0
 20 21  1  0  0  0
 21 22  1  0  0  0
 22 23  2  0  0  0
 22 24  1  0  0  0
 24 25  4  0  0  0
 24 30  4  0  0  0
 25 26  4  0  0  0
 26 27  4  0  0  0
 27 28  1  0  0  0
 27 29  4  0  0  0
 29 30  4  0  0  0
  1 31  1  0  0  0
  1 32  1  0  0  0
  3 33  1  0  0  0
  4 34  1  0  0  0
  4 35  1  0  0  0
  5 36  1  0  0  0
  8 37  1  0  0  0
  9 38  1  0  0  0
 12 39  1  0  0  0
 13 40  1  0  0  0
 16 41  1  0  0  0
 17 42  1  0  0  0
 17 43  1  0  0  0
 18 44  1  0  0  0
 18 45  1  0  0  0
 19 46  1  0  0  0
 19 47  1  0  0  0
 20 48  1  0  0  0
 20 49  1  0  0  0
 21 50  1  0  0  0
 25 51  1  0  0  0
 26 52  1  0  0  0
 29 53  1  0  0  0
 30 54  1  0  0  0
M  END
$$$$
