### 
### Created by X-TOOL on Mon Sep 10 21:12:53 2018
### 

@<TRIPOS>MOLECULE
2ivz_ligand
  196   200     1     0     0
SMALL
GAST_HUCK


@<TRIPOS>ATOM
      1 N          13.4990   22.2120   50.4460 N.4       1 GLY         0.2357
      2 CA         12.0440   21.9660   50.7160 C.3       1 GLY         0.0545
      3 C          11.7860   20.8410   51.7050 C.2       1 GLY         0.2236
      4 O          11.4620   21.0990   52.8690 O.2       1 GLY        -0.3910
      5 N          11.9230   19.5990   51.2340 N.am      1 ALA        -0.2615
      6 CA         11.6960   18.3920   52.0380 C.3       1 ALA         0.1283
      7 C          12.5290   18.4090   53.3280 C.2       1 ALA         0.2037
      8 O          13.7630   18.4120   53.2850 O.2       1 ALA        -0.3944
      9 CB         11.9760   17.1480   51.2120 C.3       1 ALA        -0.0244
     10 N          11.8360   18.4270   54.4670 N.am      1 SER        -0.2616
     11 CA         12.4900   18.5610   55.7690 C.3       1 SER         0.1539
     12 C          11.6700   17.9700   56.9180 C.2       1 SER         0.2063
     13 O          10.4320   18.0110   56.9010 O.2       1 SER        -0.3943
     14 CB         12.7080   20.0540   56.0560 C.3       1 SER         0.0843
     15 OG         13.0890   20.2910   57.4050 O.3       1 SER        -0.3903
     16 N          12.3680   17.4520   57.9240 N.am      1 ASP        -0.2621
     17 CA         11.6970   16.9540   59.1140 C.3       1 ASP         0.1423
     18 C          11.3530   18.0420   60.1260 C.2       1 ASP         0.2054
     19 O          10.7120   17.7560   61.1340 O.2       1 ASP        -0.3943
     20 CB         12.4640   15.7870   59.7600 C.3       1 ASP         0.0406
     21 CG         13.7150   16.2020   60.4950 C.2       1 ASP         0.0393
     22 OD1        14.1260   17.3970   60.4770 O.co2     1 ASP        -0.5688
     23 OD2        14.2920   15.2810   61.1190 O.co2     1 ASP        -0.5688
     24 N          11.7840   19.2760   59.8470 N.am      1 GLY        -0.2663
     25 CA         11.5280   20.4420   60.6930 C.3       1 GLY         0.1201
     26 C          12.1630   20.4050   62.0750 C.2       1 GLY         0.2008
     27 O          11.7200   21.1050   62.9950 O.2       1 GLY        -0.3947
     28 N          13.1970   19.5850   62.2380 N.am      1 SER        -0.2618
     29 CA         13.8750   19.4940   63.5180 C.3       1 SER         0.1539
     30 C          14.7820   20.7090   63.7140 C.2       1 SER         0.2060
     31 O          14.9850   21.1510   64.8310 O.2       1 SER        -0.3943
     32 CB         14.7040   18.2010   63.6140 C.3       1 SER         0.0843
     33 OG         15.5900   18.0990   62.5220 O.3       1 SER        -0.3903
     34 N          15.3030   21.2330   62.6140 N.am      1 GLY        -0.2663
     35 CA         16.2740   22.3130   62.6510 C.3       1 GLY         0.1201
     36 C          17.6920   21.7700   62.8100 C.2       1 GLY         0.2008
     37 O          18.6320   22.5460   62.8160 O.2       1 GLY        -0.3947
     38 N          17.8720   20.4500   62.9570 N.am      1 TRP        -0.2629
     39 CA         19.2430   19.9220   63.1790 C.3       1 TRP         0.1352
     40 C          19.5930   18.5320   62.6750 C.2       1 TRP         0.2052
     41 O          20.7640   18.2140   62.5700 O.2       1 TRP        -0.3942
     42 CB         19.6020   19.9340   64.6730 C.3       1 TRP         0.0042
     43 CG         18.5780   19.2810   65.5300 C.2       1 TRP        -0.0418
     44 CD1        17.6060   19.9160   66.2550 C.2       1 TRP         0.0167
     45 CD2        18.4120   17.8690   65.7770 C.ar      1 TRP        -0.0214
     46 NE1        16.8430   18.9860   66.9280 N.pl3     1 TRP        -0.2890
     47 CE2        17.3100   17.7270   66.6550 C.ar      1 TRP         0.0603
     48 CE3        19.0770   16.7120   65.3300 C.ar      1 TRP        -0.0747
     49 CZ2        16.8560   16.4760   67.1060 C.ar      1 TRP        -0.0443
     50 CZ3        18.6080   15.4500   65.7780 C.ar      1 TRP        -0.0792
     51 CH2        17.5230   15.3590   66.6730 C.ar      1 TRP        -0.0768
     52 N          18.5950   17.6940   62.4130 N.am      1 SER        -0.2615
     53 CA         18.8660   16.2940   62.0800 C.3       1 SER         0.1539
     54 C          19.3510   16.1320   60.6620 C.2       1 SER         0.2062
     55 O          19.3440   17.0830   59.8610 O.2       1 SER        -0.3943
     56 CB         17.5960   15.4530   62.2470 C.3       1 SER         0.0843
     57 OG         16.7450   15.6490   61.1200 O.3       1 SER        -0.3903
     58 N          19.6990   14.8910   60.3260 N.am      1 SER        -0.2615
     59 CA         20.1440   14.5650   58.9770 C.3       1 SER         0.1539
     60 C          19.0120   14.7010   57.9460 C.2       1 SER         0.2062
     61 O          19.2660   14.7060   56.7490 O.2       1 SER        -0.3943
     62 CB         20.7010   13.1420   58.9620 C.3       1 SER         0.0843
     63 OG         19.6990   12.2120   59.3750 O.3       1 SER        -0.3903
     64 N          17.7680   14.8050   58.4180 N.am      1 GLU        -0.2636
     65 CA         16.6060   14.9280   57.5480 C.3       1 GLU         0.1325
     66 C          16.0470   16.3570   57.5770 C.2       1 GLU         0.2041
     67 O          14.9580   16.6190   57.0650 O.2       1 GLU        -0.3944
     68 CB         15.5390   13.9000   57.9440 C.3       1 GLU        -0.0008
     69 CG         15.9730   12.4210   57.6570 C.3       1 GLU         0.0044
     70 CD         14.8490   11.4270   57.8640 C.2       1 GLU         0.0350
     71 OE1        13.8510   11.7830   58.5330 O.co2     1 GLU        -0.5690
     72 OE2        14.9680   10.2840   57.3710 O.co2     1 GLU        -0.5690
     73 N          16.8000   17.2790   58.1710 N.am      1 ASN        -0.2616
     74 CA         16.4160   18.6860   58.1820 C.3       1 ASN         0.1476
     75 C          16.9150   19.2890   56.8720 C.2       1 ASN         0.2064
     76 O          18.1210   19.4410   56.6620 O.2       1 ASN        -0.3942
     77 CB         17.0380   19.4250   59.3720 C.3       1 ASN         0.0773
     78 CG         16.4670   20.8260   59.5260 C.2       1 ASN         0.1780
     79 OD1        15.2880   20.9870   59.8700 O.2       1 ASN        -0.3970
     80 ND2        17.2780   21.8350   59.2210 N.am      1 ASN        -0.3007
     81 N          16.0180   19.6070   55.9650 N.am      1 ASN        -0.2615
     82 CA         16.4660   20.1200   54.6480 C.3       1 ASN         0.1478
     83 C          17.8260   19.5250   54.1330 C.2       1 ASN         0.2088
     84 O          18.7940   20.2640   53.9250 O.2       1 ASN        -0.3940
     85 CB         16.5400   21.6620   54.6980 C.3       1 ASN         0.0773
     86 CG         16.4400   22.3050   53.3160 C.2       1 ASN         0.1780
     87 OD1        15.9420   21.7000   52.3620 O.2       1 ASN        -0.3970
     88 ND2        16.8750   23.5580   53.2180 N.am      1 ASN        -0.3007
     89 N          17.9130   18.1850   53.9230 N.am      1 PRO        -0.2497
     90 CA         19.2000   17.6850   53.4340 C.3       1 PRO         0.1338
     91 C          19.5390   18.0720   51.9840 C.2       1 PRO         0.2043
     92 O          20.7090   18.1530   51.6330 O.2       1 PRO        -0.3944
     93 CB         19.0350   16.1710   53.5110 C.3       1 PRO        -0.0104
     94 CG         17.5980   15.9490   53.3700 C.3       1 PRO        -0.0281
     95 CD         16.9470   17.0860   54.1020 C.3       1 PRO         0.0369
     96 N          18.5310   18.3240   51.1640 N.am      1 TRP        -0.2613
     97 CA         18.7750   18.5860   49.7580 C.3       1 TRP         0.1462
     98 C          18.6960   20.0710   49.3770 C.2       1 TRP         0.2583
     99 O          17.6170   20.6760   49.4390 O.2       1 TRP        -0.3679
    100 CB         17.8210   17.7510   48.9040 C.3       1 TRP         0.0056
    101 CG         17.9870   16.2680   49.0670 C.2       1 TRP        -0.0417
    102 CD1        17.1180   15.4050   49.6800 C.2       1 TRP         0.0167
    103 CD2        19.0890   15.4680   48.6010 C.ar      1 TRP        -0.0214
    104 NE1        17.6110   14.1150   49.6220 N.pl3     1 TRP        -0.2890
    105 CE2        18.8210   14.1330   48.9660 C.ar      1 TRP         0.0603
    106 CE3        20.2840   15.7580   47.9210 C.ar      1 TRP        -0.0747
    107 CZ2        19.6930   13.0750   48.6500 C.ar      1 TRP        -0.0443
    108 CZ3        21.1630   14.6990   47.6080 C.ar      1 TRP        -0.0792
    109 CH2        20.8570   13.3780   47.9840 C.ar      1 TRP        -0.0768
    110 O1         19.7916   20.7111   48.9784 O.3       1 TRP        -0.2909
    111 H1         13.5951   22.9671   49.7852 H         1 GLY         0.2012
    112 H2         13.9159   21.3771   50.0651 H         1 GLY         0.2012
    113 H3         13.9636   22.4572   51.3062 H         1 GLY         0.2012
    114 H4         11.5529   21.7115   49.7652 H         1 GLY         0.1061
    115 H5         11.6049   22.8902   51.1197 H         1 GLY         0.1061
    116 H6         12.1959   19.4846   50.2788 H         1 ALA         0.1884
    117 H7         10.6348   18.3737   52.3269 H         1 ALA         0.0797
    118 H8         11.8019   16.2527   51.8269 H         1 ALA         0.0277
    119 H9         13.0220   17.1614   50.8719 H         1 ALA         0.0277
    120 H10        11.3068   17.1291   50.3392 H         1 ALA         0.0277
    121 H11        10.8399   18.3465   54.4303 H         1 SER         0.1884
    122 H12        13.4616   18.0469   55.7284 H         1 SER         0.0823
    123 H13        11.7719   20.5944   55.8521 H         1 SER         0.0606
    124 H14        13.5007   20.4303   55.3926 H         1 SER         0.0606
    125 H15        13.2130   21.2233   57.5387 H         1 SER         0.2097
    126 H16        13.3649   17.4044   57.8616 H         1 ASP         0.1884
    127 H17        10.7360   16.5425   58.7718 H         1 ASP         0.0819
    128 H18        12.7482   15.0797   58.9670 H         1 ASP         0.0478
    129 H19        11.7937   15.2869   60.4746 H         1 ASP         0.0478
    130 H20        12.3135   19.4105   59.0094 H         1 GLY         0.1881
    131 H21        10.4395   20.5329   60.8233 H         1 GLY         0.0763
    132 H22        11.9101   21.3305   60.1690 H         1 GLY         0.0763
    133 H23        13.5106   19.0254   61.4709 H         1 SER         0.1884
    134 H24        13.1177   19.4846   64.3157 H         1 SER         0.0823
    135 H25        14.0255   17.3352   63.6114 H         1 SER         0.0606
    136 H26        15.2825   18.2108   64.5495 H         1 SER         0.0606
    137 H27        15.0930   18.0878   61.7124 H         1 SER         0.2097
    138 H28        15.0174   20.8719   61.7262 H         1 GLY         0.1881
    139 H29        16.0448   22.9737   63.5001 H         1 GLY         0.0763
    140 H30        16.2112   22.8852   61.7137 H         1 GLY         0.0763
    141 H31        17.0911   19.8265   62.9176 H         1 TRP         0.1884
    142 H32        19.9154   20.6204   62.6594 H         1 TRP         0.0815
    143 H33        19.7129   20.9794   64.9969 H         1 TRP         0.0397
    144 H34        20.5574   19.4054   64.8066 H         1 TRP         0.0397
    145 H35        17.4577   20.9942   66.2942 H         1 TRP         0.0795
    146 H36        16.0449   19.2038   67.5415 H         1 TRP         0.2216
    147 H37        19.9263   16.7832   64.6602 H         1 TRP         0.0540
    148 H38        16.0063   16.3966   67.7744 H         1 TRP         0.0541
    149 H39        19.0902   14.5446   65.4276 H         1 TRP         0.0510
    150 H40        17.2087   14.3838   67.0270 H         1 TRP         0.0530
    151 H41        17.6510   18.0225   62.4436 H         1 SER         0.1884
    152 H42        19.6406   15.9184   62.7647 H         1 SER         0.0823
    153 H43        17.0695   15.7616   63.1621 H         1 SER         0.0606
    154 H44        17.8674   14.3896   62.3210 H         1 SER         0.0606
    155 H45        15.9580   15.1273   61.2243 H         1 SER         0.2097
    156 H46        19.6540   14.1671   61.0144 H         1 SER         0.1884
    157 H47        20.9476   15.2627   58.6987 H         1 SER         0.0823
    158 H48        21.5579   13.0807   59.6490 H         1 SER         0.0606
    159 H49        21.0297   12.8919   57.9425 H         1 SER         0.0606
    160 H50        19.4150   12.4248   60.2563 H         1 SER         0.2097
    161 H51        17.6280   14.7982   59.4081 H         1 GLU         0.1883
    162 H52        16.9241   14.7101   56.5178 H         1 GLU         0.0801
    163 H53        14.6210   14.1118   57.3762 H         1 GLU         0.0330
    164 H54        15.3364   14.0027   59.0203 H         1 GLU         0.0330
    165 H55        16.8009   12.1605   58.3328 H         1 GLU         0.0433
    166 H56        16.3154   12.3516   56.6140 H         1 GLU         0.0433
    167 H57        17.6490   17.0009   58.6204 H         1 ASN         0.1885
    168 H58        15.3208   18.7704   58.2404 H         1 ASN         0.0826
    169 H59        18.1246   19.4981   59.2176 H         1 ASN         0.0551
    170 H60        16.8357   18.8549   60.2907 H         1 ASN         0.0551
    171 H61        16.9557   22.7780   59.3035 H         1 ASN         0.1814
    172 H62        18.2101   21.6506   58.9091 H         1 ASN         0.1814
    173 H63        15.0429   19.5039   56.1615 H         1 ASN         0.1885
    174 H64        15.6964   19.8402   53.9136 H         1 ASN         0.0826
    175 H65        17.4984   21.9532   55.1525 H         1 ASN         0.0551
    176 H66        15.7117   22.0336   55.3191 H         1 ASN         0.0551
    177 H67        16.8358   24.0336   52.3392 H         1 ASN         0.1814
    178 H68        17.2412   24.0245   54.0231 H         1 ASN         0.1814
    179 H69        20.0105   18.0309   54.0924 H         1 PRO         0.0802
    180 H70        19.3936   15.7900   54.4786 H         1 PRO         0.0313
    181 H71        19.5857   15.6784   52.6961 H         1 PRO         0.0313
    182 H72        17.3092   15.9585   52.3086 H         1 PRO         0.0287
    183 H73        17.3110   14.9869   53.8195 H         1 PRO         0.0287
    184 H74        15.9731   17.3380   53.6569 H         1 PRO         0.0524
    185 H75        16.8124   16.8462   55.1671 H         1 PRO         0.0524
    186 H76        17.5950   18.3339   51.5159 H         1 TRP         0.1886
    187 H77        19.8003   18.2533   49.5389 H         1 TRP         0.0831
    188 H78        17.9934   18.0033   47.8473 H         1 TRP         0.0398
    189 H79        16.7896   18.0151   49.1805 H         1 TRP         0.0398
    190 H80        16.1764   15.6930   50.1451 H         1 TRP         0.0795
    191 H81        17.1492   13.2783   50.0062 H         1 TRP         0.2216
    192 H82        20.5265   16.7770   47.6418 H         1 TRP         0.0540
    193 H83        19.4546   12.0534   48.9230 H         1 TRP         0.0541
    194 H84        22.0828   14.9053   47.0727 H         1 TRP         0.0510
    195 H85        21.5534   12.5828   47.7436 H         1 TRP         0.0530
    196 H86        19.6608   21.0423   48.0976 H         1 TRP         0.2540
@<TRIPOS>BOND
     1    2    1 1  
     2    3    2 1  
     3    3    4 2  
     4    6    5 1  
     5    6    9 1  
     6    7    6 1  
     7    7    8 2  
     8    5    3 am 
     9   11   10 1  
    10   11   14 1  
    11   12   11 1  
    12   12   13 2  
    13   14   15 1  
    14   10    7 am 
    15   17   16 1  
    16   17   20 1  
    17   18   17 1  
    18   18   19 2  
    19   20   21 1  
    20   21   22 ar 
    21   21   23 ar 
    22   16   12 am 
    23   25   24 1  
    24   26   25 1  
    25   26   27 2  
    26   24   18 am 
    27   29   28 1  
    28   29   32 1  
    29   30   29 1  
    30   30   31 2  
    31   32   33 1  
    32   28   26 am 
    33   35   34 1  
    34   36   35 1  
    35   36   37 2  
    36   34   30 am 
    37   39   38 1  
    38   39   42 1  
    39   40   39 1  
    40   40   41 2  
    41   42   43 1  
    42   43   44 2  
    43   43   45 1  
    44   45   48 ar 
    45   45   47 ar 
    46   47   49 ar 
    47   47   46 1  
    48   44   46 1  
    49   49   51 ar 
    50   50   51 ar 
    51   48   50 ar 
    52   38   36 am 
    53   53   52 1  
    54   53   56 1  
    55   54   53 1  
    56   54   55 2  
    57   56   57 1  
    58   52   40 am 
    59   59   58 1  
    60   59   62 1  
    61   60   59 1  
    62   60   61 2  
    63   62   63 1  
    64   58   54 am 
    65   65   64 1  
    66   65   68 1  
    67   66   65 1  
    68   66   67 2  
    69   68   69 1  
    70   69   70 1  
    71   70   72 ar 
    72   70   71 ar 
    73   64   60 am 
    74   74   73 1  
    75   74   77 1  
    76   75   74 1  
    77   75   76 2  
    78   77   78 1  
    79   78   80 am 
    80   78   79 2  
    81   73   66 am 
    82   82   81 1  
    83   82   85 1  
    84   83   82 1  
    85   83   84 2  
    86   85   86 1  
    87   86   88 am 
    88   86   87 2  
    89   81   75 am 
    90   91   90 1  
    91   90   93 1  
    92   90   89 1  
    93   89   95 1  
    94   95   94 1  
    95   93   94 1  
    96   91   92 2  
    97   89   83 am 
    98   96   97 1  
    99   97  100 1  
   100   97   98 1  
   101   98   99 2  
   102  100  101 1  
   103  101  102 2  
   104  101  103 1  
   105  103  106 ar 
   106  103  105 ar 
   107  105  107 ar 
   108  105  104 1  
   109  102  104 1  
   110  107  109 ar 
   111  108  109 ar 
   112  106  108 ar 
   113   91   96 am 
   114   98  110 1  
   115    1  111 1  
   116    1  112 1  
   117    1  113 1  
   118    2  114 1  
   119    2  115 1  
   120    5  116 1  
   121    6  117 1  
   122    9  118 1  
   123    9  119 1  
   124    9  120 1  
   125   10  121 1  
   126   11  122 1  
   127   14  123 1  
   128   14  124 1  
   129   15  125 1  
   130   16  126 1  
   131   17  127 1  
   132   20  128 1  
   133   20  129 1  
   134   24  130 1  
   135   25  131 1  
   136   25  132 1  
   137   28  133 1  
   138   29  134 1  
   139   32  135 1  
   140   32  136 1  
   141   33  137 1  
   142   34  138 1  
   143   35  139 1  
   144   35  140 1  
   145   38  141 1  
   146   39  142 1  
   147   42  143 1  
   148   42  144 1  
   149   44  145 1  
   150   46  146 1  
   151   48  147 1  
   152   49  148 1  
   153   50  149 1  
   154   51  150 1  
   155   52  151 1  
   156   53  152 1  
   157   56  153 1  
   158   56  154 1  
   159   57  155 1  
   160   58  156 1  
   161   59  157 1  
   162   62  158 1  
   163   62  159 1  
   164   63  160 1  
   165   64  161 1  
   166   65  162 1  
   167   68  163 1  
   168   68  164 1  
   169   69  165 1  
   170   69  166 1  
   171   73  167 1  
   172   74  168 1  
   173   77  169 1  
   174   77  170 1  
   175   80  171 1  
   176   80  172 1  
   177   81  173 1  
   178   82  174 1  
   179   85  175 1  
   180   85  176 1  
   181   88  177 1  
   182   88  178 1  
   183   90  179 1  
   184   93  180 1  
   185   93  181 1  
   186   94  182 1  
   187   94  183 1  
   188   95  184 1  
   189   95  185 1  
   190   96  186 1  
   191   97  187 1  
   192  100  188 1  
   193  100  189 1  
   194  102  190 1  
   195  104  191 1  
   196  106  192 1  
   197  107  193 1  
   198  108  194 1  
   199  109  195 1  
   200  110  196 1  
@<TRIPOS>SUBSTRUCTURE
     1 GLY         1

