2ivz_ligand
  -I-interpret- 

196200  0  0  0  0  0  0  0  0999 V2000
   13.4990   22.2120   50.4460 N   0  3  0  0  0
   12.0440   21.9660   50.7160 C   0  0  0  0  0
   11.7860   20.8410   51.7050 C   0  0  0  0  0
   11.4620   21.0990   52.8690 O   0  0  0  0  0
   11.9230   19.5990   51.2340 N   0  0  0  0  0
   11.6960   18.3920   52.0380 C   0  0  0  0  0
   12.5290   18.4090   53.3280 C   0  0  0  0  0
   13.7630   18.4120   53.2850 O   0  0  0  0  0
   11.9760   17.1480   51.2120 C   0  0  0  0  0
   11.8360   18.4270   54.4670 N   0  0  0  0  0
   12.4900   18.5610   55.7690 C   0  0  0  0  0
   11.6700   17.9700   56.9180 C   0  0  0  0  0
   10.4320   18.0110   56.9010 O   0  0  0  0  0
   12.7080   20.0540   56.0560 C   0  0  0  0  0
   13.0890   20.2910   57.4050 O   0  0  0  0  0
   12.3680   17.4520   57.9240 N   0  0  0  0  0
   11.6970   16.9540   59.1140 C   0  0  0  0  0
   11.3530   18.0420   60.1260 C   0  0  0  0  0
   10.7120   17.7560   61.1340 O   0  0  0  0  0
   12.4640   15.7870   59.7600 C   0  0  0  0  0
   13.7150   16.2020   60.4950 C   0  0  0  0  0
   14.1260   17.3970   60.4770 O   0  0  0  0  0
   14.2920   15.2810   61.1190 O   0  0  0  0  0
   11.7840   19.2760   59.8470 N   0  0  0  0  0
   11.5280   20.4420   60.6930 C   0  0  0  0  0
   12.1630   20.4050   62.0750 C   0  0  0  0  0
   11.7200   21.1050   62.9950 O   0  0  0  0  0
   13.1970   19.5850   62.2380 N   0  0  0  0  0
   13.8750   19.4940   63.5180 C   0  0  0  0  0
   14.7820   20.7090   63.7140 C   0  0  0  0  0
   14.9850   21.1510   64.8310 O   0  0  0  0  0
   14.7040   18.2010   63.6140 C   0  0  0  0  0
   15.5900   18.0990   62.5220 O   0  0  0  0  0
   15.3030   21.2330   62.6140 N   0  0  0  0  0
   16.2740   22.3130   62.6510 C   0  0  0  0  0
   17.6920   21.7700   62.8100 C   0  0  0  0  0
   18.6320   22.5460   62.8160 O   0  0  0  0  0
   17.8720   20.4500   62.9570 N   0  0  0  0  0
   19.2430   19.9220   63.1790 C   0  0  0  0  0
   19.5930   18.5320   62.6750 C   0  0  0  0  0
   20.7640   18.2140   62.5700 O   0  0  0  0  0
   19.6020   19.9340   64.6730 C   0  0  0  0  0
   18.5780   19.2810   65.5300 C   0  0  0  0  0
   17.6060   19.9160   66.2550 C   0  0  0  0  0
   18.4120   17.8690   65.7770 C   0  0  0  0  0
   16.8430   18.9860   66.9280 N   0  0  0  0  0
   17.3100   17.7270   66.6550 C   0  0  0  0  0
   19.0770   16.7120   65.3300 C   0  0  0  0  0
   16.8560   16.4760   67.1060 C   0  0  0  0  0
   18.6080   15.4500   65.7780 C   0  0  0  0  0
   17.5230   15.3590   66.6730 C   0  0  0  0  0
   18.5950   17.6940   62.4130 N   0  0  0  0  0
   18.8660   16.2940   62.0800 C   0  0  0  0  0
   19.3510   16.1320   60.6620 C   0  0  0  0  0
   19.3440   17.0830   59.8610 O   0  0  0  0  0
   17.5960   15.4530   62.2470 C   0  0  0  0  0
   16.7450   15.6490   61.1200 O   0  0  0  0  0
   19.6990   14.8910   60.3260 N   0  0  0  0  0
   20.1440   14.5650   58.9770 C   0  0  0  0  0
   19.0120   14.7010   57.9460 C   0  0  0  0  0
   19.2660   14.7060   56.7490 O   0  0  0  0  0
   20.7010   13.1420   58.9620 C   0  0  0  0  0
   19.6990   12.2120   59.3750 O   0  0  0  0  0
   17.7680   14.8050   58.4180 N   0  0  0  0  0
   16.6060   14.9280   57.5480 C   0  0  0  0  0
   16.0470   16.3570   57.5770 C   0  0  0  0  0
   14.9580   16.6190   57.0650 O   0  0  0  0  0
   15.5390   13.9000   57.9440 C   0  0  0  0  0
   15.9730   12.4210   57.6570 C   0  0  0  0  0
   14.8490   11.4270   57.8640 C   0  0  0  0  0
   13.8510   11.7830   58.5330 O   0  0  0  0  0
   14.9680   10.2840   57.3710 O   0  0  0  0  0
   16.8000   17.2790   58.1710 N   0  0  0  0  0
   16.4160   18.6860   58.1820 C   0  0  0  0  0
   16.9150   19.2890   56.8720 C   0  0  0  0  0
   18.1210   19.4410   56.6620 O   0  0  0  0  0
   17.0380   19.4250   59.3720 C   0  0  0  0  0
   16.4670   20.8260   59.5260 C   0  0  0  0  0
   15.2880   20.9870   59.8700 O   0  0  0  0  0
   17.2780   21.8350   59.2210 N   0  0  0  0  0
   16.0180   19.6070   55.9650 N   0  0  0  0  0
   16.4660   20.1200   54.6480 C   0  0  0  0  0
   17.8260   19.5250   54.1330 C   0  0  0  0  0
   18.7940   20.2640   53.9250 O   0  0  0  0  0
   16.5400   21.6620   54.6980 C   0  0  0  0  0
   16.4400   22.3050   53.3160 C   0  0  0  0  0
   15.9420   21.7000   52.3620 O   0  0  0  0  0
   16.8750   23.5580   53.2180 N   0  0  0  0  0
   17.9130   18.1850   53.9230 N   0  0  0  0  0
   19.2000   17.6850   53.4340 C   0  0  0  0  0
   19.5390   18.0720   51.9840 C   0  0  0  0  0
   20.7090   18.1530   51.6330 O   0  0  0  0  0
   19.0350   16.1710   53.5110 C   0  0  0  0  0
   17.5980   15.9490   53.3700 C   0  0  0  0  0
   16.9470   17.0860   54.1020 C   0  0  0  0  0
   18.5310   18.3240   51.1640 N   0  0  0  0  0
   18.7750   18.5860   49.7580 C   0  0  0  0  0
   18.6960   20.0710   49.3770 C   0  0  0  0  0
   17.6170   20.6760   49.4390 O   0  0  0  0  0
   17.8210   17.7510   48.9040 C   0  0  0  0  0
   17.9870   16.2680   49.0670 C   0  0  0  0  0
   17.1180   15.4050   49.6800 C   0  0  0  0  0
   19.0890   15.4680   48.6010 C   0  0  0  0  0
   17.6110   14.1150   49.6220 N   0  0  0  0  0
   18.8210   14.1330   48.9660 C   0  0  0  0  0
   20.2840   15.7580   47.9210 C   0  0  0  0  0
   19.6930   13.0750   48.6500 C   0  0  0  0  0
   21.1630   14.6990   47.6080 C   0  0  0  0  0
   20.8570   13.3780   47.9840 C   0  0  0  0  0
   19.7916   20.7111   48.9784 O   0  0  0  0  0
   13.5950   22.9762   49.7773 H   0  0  0  0  0
   13.9680   22.4600   51.3171 H   0  0  0  0  0
   13.9198   21.3665   50.0607 H   0  0  0  0  0
   11.5815   21.6809   49.7711 H   0  0  0  0  0
   11.6344   22.8791   51.1479 H   0  0  0  0  0
   12.2013   19.4823   50.2597 H   0  0  0  0  0
   10.6479   18.3747   52.3369 H   0  0  0  0  0
   13.0318   17.1225   50.9424 H   0  0  0  0  0
   11.7273   16.2620   51.7961 H   0  0  0  0  0
   11.3690   17.1702   50.3069 H   0  0  0  0  0
   10.8200   18.3449   54.4296 H   0  0  0  0  0
   13.4285   18.0093   55.7156 H   0  0  0  0  0
   11.7687   20.5756   55.8721 H   0  0  0  0  0
   13.5099   20.4103   55.4093 H   0  0  0  0  0
   13.2143   21.2331   57.5401 H   0  0  0  0  0
   13.3849   17.4034   57.8604 H   0  0  0  0  0
   10.7389   16.5660   58.7683 H   0  0  0  0  0
   12.7700   15.1182   58.9555 H   0  0  0  0  0
   11.7977   15.3293   60.4912 H   0  0  0  0  0
   13.5346   17.9296   59.9402 H   0  0  0  0  0
   12.3240   19.4132   58.9926 H   0  0  0  0  0
   10.4499   20.4799   60.8491 H   0  0  0  0  0
   11.9604   21.2992   60.1770 H   0  0  0  0  0
   13.5169   19.0142   61.4555 H   0  0  0  0  0
   13.1196   19.4744   64.3036 H   0  0  0  0  0
   14.0282   17.3459   63.6023 H   0  0  0  0  0
   15.2820   18.2192   64.5380 H   0  0  0  0  0
   16.0980   17.2880   62.5982 H   0  0  0  0  0
   15.0117   20.8647   61.7085 H   0  0  0  0  0
   16.0488   22.9562   63.5017 H   0  0  0  0  0
   16.2153   22.8677   61.7146 H   0  0  0  0  0
   17.0755   19.8141   62.9169 H   0  0  0  0  0
   19.8181   20.6136   62.5633 H   0  0  0  0  0
   19.6766   20.9757   64.9851 H   0  0  0  0  0
   20.5329   19.3797   64.7922 H   0  0  0  0  0
   17.4576   20.9951   66.2942 H   0  0  0  0  0
   19.9310   16.7836   64.6565 H   0  0  0  0  0
   16.0016   16.3962   67.7781 H   0  0  0  0  0
   19.0928   14.5396   65.4256 H   0  0  0  0  0
   17.2070   14.3784   67.0290 H   0  0  0  0  0
   17.6321   18.0290   62.4442 H   0  0  0  0  0
   19.6466   15.9559   62.7616 H   0  0  0  0  0
   17.0743   15.7587   63.1539 H   0  0  0  0  0
   17.8649   14.3993   62.3205 H   0  0  0  0  0
   15.9497   15.1218   61.2255 H   0  0  0  0  0
   19.6531   14.1526   61.0282 H   0  0  0  0  0
   20.9213   15.2755   58.6957 H   0  0  0  0  0
   21.5451   13.0835   59.6491 H   0  0  0  0  0
   21.0189   12.8954   57.9490 H   0  0  0  0  0
   20.0630   11.3238   59.3606 H   0  0  0  0  0
   17.6252   14.7981   59.4279 H   0  0  0  0  0
   16.9136   14.7212   56.5229 H   0  0  0  0  0
   14.6468   14.1041   57.3520 H   0  0  0  0  0
   15.3712   13.9935   59.0169 H   0  0  0  0  0
   16.7738   12.1679   58.3518 H   0  0  0  0  0
   16.2828   12.3611   56.6137 H   0  0  0  0  0
   13.9641   12.6939   58.8143 H   0  0  0  0  0
   17.6659   16.9953   58.6293 H   0  0  0  0  0
   15.3345   18.7809   58.2792 H   0  0  0  0  0
   18.1112   19.5088   59.2009 H   0  0  0  0  0
   16.8164   18.8626   60.2790 H   0  0  0  0  0
   16.9364   22.7951   59.2649 H   0  0  0  0  0
   18.2416   21.6487   58.9432 H   0  0  0  0  0
   15.0234   19.5018   56.1654 H   0  0  0  0  0
   15.7211   19.7865   53.9255 H   0  0  0  0  0
   17.5049   21.9361   55.1245 H   0  0  0  0  0
   15.6986   22.0173   55.2930 H   0  0  0  0  0
   16.8033   24.0548   52.3300 H   0  0  0  0  0
   17.2803   24.0222   54.0308 H   0  0  0  0  0
   20.0119   18.1086   54.0251 H   0  0  0  0  0
   19.4199   15.7663   54.4471 H   0  0  0  0  0
   19.6044   15.6591   52.7352 H   0  0  0  0  0
   17.2974   15.9221   52.3226 H   0  0  0  0  0
   17.2992   14.9845   53.7805 H   0  0  0  0  0
   15.9555   17.3257   53.7179 H   0  0  0  0  0
   16.7514   16.8594   55.1501 H   0  0  0  0  0
   17.5763   18.3341   51.5230 H   0  0  0  0  0
   19.8058   18.2922   49.5598 H   0  0  0  0  0
   18.0339   17.9857   47.8611 H   0  0  0  0  0
   16.8073   17.9977   49.2196 H   0  0  0  0  0
   16.1755   15.6933   50.1455 H   0  0  0  0  0
   20.5278   16.7826   47.6402 H   0  0  0  0  0
   19.4533   12.0477   48.9245 H   0  0  0  0  0
   22.0879   14.9065   47.0698 H   0  0  0  0  0
   21.5573   12.5784   47.7423 H   0  0  0  0  0
   20.5358   20.1047   48.9862 H   0  0  0  0  0
  2  1  1  0  0  0
  3  2  1  0  0  0
  3  4  2  0  0  0
  6  5  1  0  0  0
  6  9  1  0  0  0
  7  6  1  0  0  0
  7  8  2  0  0  0
  5  3  1  0  0  0
 11 10  1  0  0  0
 11 14  1  0  0  0
 12 11  1  0  0  0
 12 13  2  0  0  0
 14 15  1  0  0  0
 10  7  1  0  0  0
 17 16  1  0  0  0
 17 20  1  0  0  0
 18 17  1  0  0  0
 18 19  2  0  0  0
 20 21  1  0  0  0
 21 22  1  0  0  0
 21 23  2  0  0  0
 16 12  1  0  0  0
 25 24  1  0  0  0
 26 25  1  0  0  0
 26 27  2  0  0  0
 24 18  1  0  0  0
 29 28  1  0  0  0
 29 32  1  0  0  0
 30 29  1  0  0  0
 30 31  2  0  0  0
 32 33  1  0  0  0
 28 26  1  0  0  0
 35 34  1  0  0  0
 36 35  1  0  0  0
 36 37  2  0  0  0
 34 30  1  0  0  0
 39 38  1  0  0  0
 39 42  1  0  0  0
 40 39  1  0  0  0
 40 41  2  0  0  0
 42 43  1  0  0  0
 43 44  4  0  0  0
 43 45  4  0  0  0
 45 48  4  0  0  0
 45 47  4  0  0  0
 47 49  4  0  0  0
 47 46  4  0  0  0
 44 46  4  0  0  0
 49 51  4  0  0  0
 50 51  4  0  0  0
 48 50  4  0  0  0
 38 36  1  0  0  0
 53 52  1  0  0  0
 53 56  1  0  0  0
 54 53  1  0  0  0
 54 55  2  0  0  0
 56 57  1  0  0  0
 52 40  1  0  0  0
 59 58  1  0  0  0
 59 62  1  0  0  0
 60 59  1  0  0  0
 60 61  2  0  0  0
 62 63  1  0  0  0
 58 54  1  0  0  0
 65 64  1  0  0  0
 65 68  1  0  0  0
 66 65  1  0  0  0
 66 67  2  0  0  0
 68 69  1  0  0  0
 69 70  1  0  0  0
 70 72  2  0  0  0
 70 71  1  0  0  0
 64 60  1  0  0  0
 74 73  1  0  0  0
 74 77  1  0  0  0
 75 74  1  0  0  0
 75 76  2  0  0  0
 77 78  1  0  0  0
 78 80  1  0  0  0
 78 79  2  0  0  0
 73 66  1  0  0  0
 82 81  1  0  0  0
 82 85  1  0  0  0
 83 82  1  0  0  0
 83 84  2  0  0  0
 85 86  1  0  0  0
 86 88  1  0  0  0
 86 87  2  0  0  0
 81 75  1  0  0  0
 91 90  1  0  0  0
 90 93  1  0  0  0
 90 89  1  0  0  0
 89 95  1  0  0  0
 95 94  1  0  0  0
 93 94  1  0  0  0
 91 92  2  0  0  0
 89 83  1  0  0  0
 96 97  1  0  0  0
 97100  1  0  0  0
 97 98  1  0  0  0
 98 99  2  0  0  0
100101  1  0  0  0
101102  4  0  0  0
101103  4  0  0  0
103106  4  0  0  0
103105  4  0  0  0
105107  4  0  0  0
105104  4  0  0  0
102104  4  0  0  0
107109  4  0  0  0
108109  4  0  0  0
106108  4  0  0  0
 91 96  1  0  0  0
 98110  1  0  0  0
  1111  1  0  0  0
  1112  1  0  0  0
  1113  1  0  0  0
  2114  1  0  0  0
  2115  1  0  0  0
  5116  1  0  0  0
  6117  1  0  0  0
  9118  1  0  0  0
  9119  1  0  0  0
  9120  1  0  0  0
 10121  1  0  0  0
 11122  1  0  0  0
 14123  1  0  0  0
 14124  1  0  0  0
 15125  1  0  0  0
 16126  1  0  0  0
 17127  1  0  0  0
 20128  1  0  0  0
 20129  1  0  0  0
 22130  1  0  0  0
 24131  1  0  0  0
 25132  1  0  0  0
 25133  1  0  0  0
 28134  1  0  0  0
 29135  1  0  0  0
 32136  1  0  0  0
 32137  1  0  0  0
 33138  1  0  0  0
 34139  1  0  0  0
 35140  1  0  0  0
 35141  1  0  0  0
 38142  1  0  0  0
 39143  1  0  0  0
 42144  1  0  0  0
 42145  1  0  0  0
 44146  1  0  0  0
 48147  1  0  0  0
 49148  1  0  0  0
 50149  1  0  0  0
 51150  1  0  0  0
 52151  1  0  0  0
 53152  1  0  0  0
 56153  1  0  0  0
 56154  1  0  0  0
 57155  1  0  0  0
 58156  1  0  0  0
 59157  1  0  0  0
 62158  1  0  0  0
 62159  1  0  0  0
 63160  1  0  0  0
 64161  1  0  0  0
 65162  1  0  0  0
 68163  1  0  0  0
 68164  1  0  0  0
 69165  1  0  0  0
 69166  1  0  0  0
 71167  1  0  0  0
 73168  1  0  0  0
 74169  1  0  0  0
 77170  1  0  0  0
 77171  1  0  0  0
 80172  1  0  0  0
 80173  1  0  0  0
 81174  1  0  0  0
 82175  1  0  0  0
 85176  1  0  0  0
 85177  1  0  0  0
 88178  1  0  0  0
 88179  1  0  0  0
 90180  1  0  0  0
 93181  1  0  0  0
 93182  1  0  0  0
 94183  1  0  0  0
 94184  1  0  0  0
 95185  1  0  0  0
 95186  1  0  0  0
 96187  1  0  0  0
 97188  1  0  0  0
100189  1  0  0  0
100190  1  0  0  0
102191  1  0  0  0
106192  1  0  0  0
107193  1  0  0  0
108194  1  0  0  0
109195  1  0  0  0
110196  1  0  0  0
M  END
$$$$
