1pi5_ligand
  -I-interpret- 

 36 37  0  0  0  0  0  0  0  0999 V2000
   22.0130    5.0210   11.1100 C   0  0  0  0  0
   20.8260    5.7340   11.4250 C   0  0  0  0  0
   20.7500    6.1050   12.7160 C   0  0  0  0  0
   22.1220    5.6010   13.5930 S   0  0  0  0  0
   22.8230    4.8710   12.2060 C   0  0  0  0  0
   24.1840    4.1630   12.2910 C   0  0  0  0  0
   25.2050    5.1340   12.9000 C   0  0  0  0  0
   25.6580    6.0770   12.2290 O   0  0  0  0  0
   25.5620    4.9210   14.2140 N   0  0  0  0  0
   26.4930    5.7710   14.9710 C   0  0  0  0  0
   27.0480    5.0170   16.2990 B   0  0  0  0  0
   26.0040    4.1510   16.8580 O   0  0  0  0  0
   27.4550    6.0130   17.3130 O   0  0  0  0  0
   25.7760    7.0930   15.2680 C   0  0  0  0  0
   24.4160    7.1440   15.7370 C   0  0  0  0  0
   26.4430    8.3030   14.9600 C   0  0  0  0  0
   25.7470    9.5300   15.0740 C   0  0  0  0  0
   24.4040    9.5730   15.5060 C   0  0  0  0  0
   23.7310    8.3800   15.8450 C   0  0  0  0  0
   22.2980    8.4030   16.3180 C   0  0  0  0  0
   21.4130    7.9290   15.5710 O   0  0  0  0  0
   22.0420    8.8950   17.4380 O   0  0  0  0  0
   22.2513    4.6392   10.1172 H   0  0  0  0  0
   20.0514    5.9589   10.6918 H   0  0  0  0  0
   19.9157    6.6584   13.1471 H   0  0  0  0  0
   24.5078    3.8611   11.2949 H   0  0  0  0  0
   24.1007    3.2731   12.9149 H   0  0  0  0  0
   25.1527    4.1194   14.6939 H   0  0  0  0  0
   27.3880    5.9828   14.3860 H   0  0  0  0  0
   26.3410    3.7103   17.6415 H   0  0  0  0  0
   27.7812    5.5587   18.0933 H   0  0  0  0  0
   23.9067    6.2205   16.0125 H   0  0  0  0  0
   27.4842    8.2898   14.6377 H   0  0  0  0  0
   26.2579   10.4596   14.8234 H   0  0  0  0  0
   23.8859   10.5293   15.5779 H   0  0  0  0  0
   21.8177    7.6046   14.7632 H   0  0  0  0  0
  1  2  4  0  0  0
  1  5  4  0  0  0
  2  3  4  0  0  0
  3  4  4  0  0  0
  4  5  4  0  0  0
  5  6  1  0  0  0
  6  7  1  0  0  0
  7  8  2  0  0  0
  7  9  1  0  0  0
  9 10  1  0  0  0
 10 11  1  0  0  0
 10 14  1  0  0  0
 11 12  1  0  0  0
 11 13  1  0  0  0
 14 15  4  0  0  0
 14 16  4  0  0  0
 15 19  4  0  0  0
 16 17  4  0  0  0
 17 18  4  0  0  0
 18 19  4  0  0  0
 19 20  1  0  0  0
 20 21  1  0  0  0
 20 22  2  0  0  0
  1 23  1  0  0  0
  2 24  1  0  0  0
  3 25  1  0  0  0
  6 26  1  0  0  0
  6 27  1  0  0  0
  9 28  1  0  0  0
 10 29  1  0  0  0
 12 30  1  0  0  0
 13 31  1  0  0  0
 15 32  1  0  0  0
 16 33  1  0  0  0
 17 34  1  0  0  0
 18 35  1  0  0  0
 21 36  1  0  0  0
M  END
$$$$
