### 
### Created by X-TOOL on Mon Sep 10 21:12:51 2018
### 

@<TRIPOS>MOLECULE
1pi5_ligand
   35    36     1     0     0
SMALL
GAST_HUCK


@<TRIPOS>ATOM
      1 CAF        22.0130    5.0210   11.1100 C.2       1 SM2        -0.0791
      2 CAC        20.8260    5.7340   11.4250 C.2       1 SM2        -0.0924
      3 CAB        20.7500    6.1050   12.7160 C.2       1 SM2        -0.0189
      4 SAD        22.1220    5.6010   13.5930 S.3       1 SM2        -0.0419
      5 CAE        22.8230    4.8710   12.2060 C.2       1 SM2         0.0307
      6 CAG        24.1840    4.1630   12.2910 C.3       1 SM2         0.0818
      7 CAH        25.2050    5.1340   12.9000 C.2       1 SM2         0.1904
      8 OAI        25.6580    6.0770   12.2290 O.2       1 SM2        -0.3936
      9 NAJ        25.5620    4.9210   14.2140 N.am      1 SM2        -0.2815
     10 CAK        26.4930    5.7710   14.9710 C.3       1 SM2         0.0855
     11 B          27.0480    5.0170   16.2990 B         1 SM2         0.7343
     12 OAT        26.0040    4.1510   16.8580 O.3       1 SM2        -0.4949
     13 OAO        27.4550    6.0130   17.3130 O.3       1 SM2        -0.4949
     14 CAL        25.7760    7.0930   15.2680 C.ar      1 SM2        -0.0253
     15 CAQ        24.4160    7.1440   15.7370 C.ar      1 SM2        -0.0454
     16 CAM        26.4430    8.3030   14.9600 C.ar      1 SM2        -0.0569
     17 CAN        25.7470    9.5300   15.0740 C.ar      1 SM2        -0.0649
     18 CAS        24.4040    9.5730   15.5060 C.ar      1 SM2        -0.0545
     19 CAR        23.7310    8.3800   15.8450 C.ar      1 SM2         0.0035
     20 CAU        22.2980    8.4030   16.3180 C.2       1 SM2         0.0613
     21 OAW        21.4130    7.9290   15.5710 O.co2     1 SM2        -0.5607
     22 OAV        22.0420    8.8950   17.4380 O.co2     1 SM2        -0.5607
     23 H1         22.2511    4.6396   10.1181 H         1 SM2         0.0284
     24 H2         20.0521    5.9587   10.6925 H         1 SM2         0.0373
     25 H3         19.9165    6.6579   13.1467 H         1 SM2         0.0603
     26 H4         24.5106    3.8660   11.2835 H         1 SM2         0.0685
     27 H5         24.0977    3.2695   12.9268 H         1 SM2         0.0685
     28 H6         25.1607    4.1351   14.6845 H         1 SM2         0.1866
     29 H7         27.3618    5.9903   14.3330 H         1 SM2         0.0583
     30 H8         26.3422    3.7037   17.6249 H         1 SM2         0.1668
     31 H9         27.7915    5.5637   18.0794 H         1 SM2         0.1668
     32 H10        23.9095    6.2256   16.0110 H         1 SM2         0.0590
     33 H11        27.4784    8.2899   14.6394 H         1 SM2         0.0578
     34 H12        26.2551   10.4545   14.8247 H         1 SM2         0.0606
     35 H13        23.8887   10.5240   15.5775 H         1 SM2         0.0593
@<TRIPOS>BOND
     1    1    2 1  
     2    1    5 2  
     3    2    3 2  
     4    3    4 1  
     5    4    5 1  
     6    5    6 1  
     7    6    7 1  
     8    7    8 2  
     9    7    9 am 
    10    9   10 1  
    11   10   11 1  
    12   10   14 1  
    13   11   12 1  
    14   11   13 1  
    15   14   15 ar 
    16   14   16 ar 
    17   15   19 ar 
    18   16   17 ar 
    19   17   18 ar 
    20   18   19 ar 
    21   19   20 1  
    22   20   21 ar 
    23   20   22 ar 
    24    1   23 1  
    25    2   24 1  
    26    3   25 1  
    27    6   26 1  
    28    6   27 1  
    29    9   28 1  
    30   10   29 1  
    31   12   30 1  
    32   13   31 1  
    33   15   32 1  
    34   16   33 1  
    35   17   34 1  
    36   18   35 1  
@<TRIPOS>SUBSTRUCTURE
     1 SM2         1

