### 
### Created by X-TOOL on Mon Sep 10 21:13:32 2018
### 

@<TRIPOS>MOLECULE
5U4F_LIGAND
   32    33     1     0     0
SMALL
GAST_HUCK


@<TRIPOS>ATOM
      1 C01       -22.5050   -1.1910  -30.2540 C.ar      1 IWW        -0.1151
      2 C02       -23.0960   -1.6300  -29.0550 C.ar      1 IWW        -0.1256
      3 C03       -22.7310   -1.1500  -27.7900 C.ar      1 IWW        -0.1352
      4 C04       -21.7110   -0.1890  -27.5890 C.ar      1 IWW        -0.1619
      5 C05       -21.1220    0.2680  -28.7830 C.ar      1 IWW        -0.0374
      6 C06       -21.4990   -0.2230  -30.0610 C.ar      1 IWW        -0.1129
      7 C07       -21.4380    0.2650  -26.1490 C.2       1 IWW        -0.2452
      8 C08       -21.9110   -0.3270  -25.0430 C.2       1 IWW        -0.2452
      9 C09       -21.7430    0.1140  -23.5760 C.ar      1 IWW        -0.1619
     10 C10       -21.7810   -0.8710  -22.5550 C.ar      1 IWW        -0.0374
     11 C11       -21.6750   -0.5380  -21.2200 C.ar      1 IWW        -0.1129
     12 C12       -21.5340    0.7500  -20.7220 C.ar      1 IWW        -0.1151
     13 C13       -21.5120    1.7650  -21.7250 C.ar      1 IWW        -0.1256
     14 C14       -21.6280    1.4360  -23.1210 C.ar      1 IWW        -0.1352
     15 O02       -21.9580    0.1430  -18.2990 O.3       1 IWW        -0.8710
     16 O03       -22.1070   -1.7930  -32.7210 O.3       1 IWW        -0.8710
     17 O04       -24.2190   -2.2930  -31.8530 O.3       1 IWW        -0.8710
     18 CL1       -19.9050    1.4280  -28.7210 Cl        1 IWW        -0.1183
     19 CL2       -21.9290   -2.5440  -22.9050 Cl        1 IWW        -0.1183
     20 B01       -21.4330    1.0630  -19.1780 B         1 IWW         2.0000
     21 B02       -22.9640   -1.7780  -31.6540 B         1 IWW         3.0000
     22 H         -23.8805   -2.3845  -29.1132 H         1 IWW         0.0433
     23 H         -23.2585   -1.5356  -26.9176 H         1 IWW         0.0183
     24 H         -20.9838    0.1690  -30.9379 H         1 IWW         0.0444
     25 H         -20.8062    1.1429  -26.0138 H         1 IWW        -0.0544
     26 H         -22.4888   -1.2375  -25.2019 H         1 IWW        -0.0544
     27 H         -21.7044   -1.3534  -20.4972 H         1 IWW         0.0444
     28 H         -21.4054    2.8084  -21.4282 H         1 IWW         0.0433
     29 H         -21.6265    2.2442  -23.8523 H         1 IWW         0.0183
     30 H         -21.5115   -0.6990  -18.4142 H         1 IWW        -0.1290
     31 H         -22.4843   -1.2813  -33.4403 H         1 IWW        -0.1290
     32 H         -24.1480   -3.2143  -32.1135 H         1 IWW        -0.1290
@<TRIPOS>BOND
     1    1    2 ar 
     2    1    6 ar 
     3    1   21 1  
     4    2    3 ar 
     5    3    4 ar 
     6    4    5 ar 
     7    4    7 1  
     8    5    6 ar 
     9    5   18 1  
    10    7    8 2  
    11    8    9 1  
    12    9   10 ar 
    13    9   14 ar 
    14   10   11 ar 
    15   10   19 1  
    16   11   12 ar 
    17   12   13 ar 
    18   12   20 1  
    19   13   14 ar 
    20   20   15 1  
    21   21   16 1  
    22   21   17 1  
    23    2   22 1  
    24    3   23 1  
    25    6   24 1  
    26    7   25 1  
    27    8   26 1  
    28   11   27 1  
    29   13   28 1  
    30   14   29 1  
    31   15   30 1  
    32   16   31 1  
    33   17   32 1  
@<TRIPOS>SUBSTRUCTURE
     1 IWW         1

