5U4F_LIGAND
  -I-interpret- 

 32 33  0  0  0  0  0  0  0  0999 V2000
  -22.5050   -1.1910  -30.2540 C   0  0  0  0  0
  -23.0960   -1.6300  -29.0550 C   0  0  0  0  0
  -22.7310   -1.1500  -27.7900 C   0  0  0  0  0
  -21.7110   -0.1890  -27.5890 C   0  0  0  0  0
  -21.1220    0.2680  -28.7830 C   0  0  0  0  0
  -21.4990   -0.2230  -30.0610 C   0  0  0  0  0
  -21.4380    0.2650  -26.1490 C   0  0  0  0  0
  -21.9110   -0.3270  -25.0430 C   0  0  0  0  0
  -21.7430    0.1140  -23.5760 C   0  0  0  0  0
  -21.7810   -0.8710  -22.5550 C   0  0  0  0  0
  -21.6750   -0.5380  -21.2200 C   0  0  0  0  0
  -21.5340    0.7500  -20.7220 C   0  0  0  0  0
  -21.5120    1.7650  -21.7250 C   0  0  0  0  0
  -21.6280    1.4360  -23.1210 C   0  0  0  0  0
  -21.9580    0.1430  -18.2990 O   0  0  0  0  0
  -22.1070   -1.7930  -32.7210 O   0  0  0  0  0
  -24.2190   -2.2930  -31.8530 O   0  0  0  0  0
  -19.9050    1.4280  -28.7210 Cl  0  0  0  0  0
  -21.9290   -2.5440  -22.9050 Cl  0  0  0  0  0
  -21.4330    1.0630  -19.1780 B   0  0  0  0  0
  -22.9640   -1.7780  -31.6540 B   0  0  0  0  0
  -23.8805   -2.3845  -29.1132 H   0  0  0  0  0
  -23.2585   -1.5356  -26.9176 H   0  0  0  0  0
  -20.9838    0.1690  -30.9379 H   0  0  0  0  0
  -20.8062    1.1429  -26.0138 H   0  0  0  0  0
  -22.4888   -1.2375  -25.2019 H   0  0  0  0  0
  -21.7044   -1.3534  -20.4972 H   0  0  0  0  0
  -21.4054    2.8084  -21.4282 H   0  0  0  0  0
  -21.6265    2.2442  -23.8523 H   0  0  0  0  0
  -21.8314    0.4532  -17.3994 H   0  0  0  0  0
  -21.2665   -1.4093  -32.4603 H   0  0  0  0  0
  -24.7234   -2.2274  -31.0388 H   0  0  0  0  0
  1  2  4  0  0  0
  1  6  4  0  0  0
  1 21  1  0  0  0
  2  3  4  0  0  0
  3  4  4  0  0  0
  4  5  4  0  0  0
  4  7  1  0  0  0
  5  6  4  0  0  0
  5 18  1  0  0  0
  7  8  2  0  0  0
  8  9  1  0  0  0
  9 10  4  0  0  0
  9 14  4  0  0  0
 10 11  4  0  0  0
 10 19  1  0  0  0
 11 12  4  0  0  0
 12 13  4  0  0  0
 12 20  1  0  0  0
 13 14  4  0  0  0
 20 15  1  0  0  0
 21 16  1  0  0  0
 21 17  1  0  0  0
  2 22  1  0  0  0
  3 23  1  0  0  0
  6 24  1  0  0  0
  7 25  1  0  0  0
  8 26  1  0  0  0
 11 27  1  0  0  0
 13 28  1  0  0  0
 14 29  1  0  0  0
 15 30  1  0  0  0
 16 31  1  0  0  0
 17 32  1  0  0  0
M  END
$$$$
