3d04_ligand
  -I-interpret- 

 35 37  0  0  0  0  0  0  0  0999 V2000
   18.8810   16.1720  -11.4600 C   0  0  0  0  0
   20.2100   15.9740  -11.8670 C   0  0  0  0  0
   20.6550   14.6630  -12.1770 C   0  0  0  0  0
   21.9350   14.4710  -12.5680 O   0  0  0  0  0
   19.7880   13.5510  -12.0930 C   0  0  0  0  0
   18.4530   13.7520  -11.6760 C   0  0  0  0  0
   18.0100   15.0620  -11.3670 C   0  0  0  0  0
   16.5580   15.3070  -10.9290 C   0  0  0  0  0
   15.7740   15.9290  -11.9950 O   0  0  0  0  0
   15.8560   14.0000  -10.5120 C   0  0  0  0  0
   14.3840   14.3160  -10.2210 C   0  0  0  0  0
   13.8360   13.5720   -9.4000 O   0  0  0  0  0
   13.6950   15.3690  -10.8350 C   0  0  0  0  0
   14.4500   16.1820  -11.7210 C   0  0  0  0  0
   13.8440   17.2710  -12.3780 C   0  0  0  0  0
   12.4830   17.5630  -12.1530 C   0  0  0  0  0
   11.9730   18.6230  -12.8610 O   0  0  0  0  0
   10.7520   19.2670  -12.4390 C   0  0  0  0  0
   11.7340   16.7550  -11.2730 C   0  0  0  0  0
   12.3260   15.6620  -10.6220 C   0  0  0  0  0
   11.5240   14.9420   -9.7860 O   0  0  0  0  0
   18.5237   17.1729  -11.2178 H   0  0  0  0  0
   20.8935   16.8196  -11.9441 H   0  0  0  0  0
   22.0794   13.5376  -12.7397 H   0  0  0  0  0
   20.1437   12.5523  -12.3462 H   0  0  0  0  0
   17.7699   12.9067  -11.5927 H   0  0  0  0  0
   16.6117   15.9781  -10.0718 H   0  0  0  0  0
   16.3326   13.5867   -9.6231 H   0  0  0  0  0
   15.9293   13.2642  -11.3128 H   0  0  0  0  0
   14.4277   17.8883  -13.0608 H   0  0  0  0  0
    9.9399   18.5399  -12.4405 H   0  0  0  0  0
   10.8821   19.6661  -11.4331 H   0  0  0  0  0
   10.5152   20.0796  -13.1258 H   0  0  0  0  0
   10.6827   16.9821  -11.0964 H   0  0  0  0  0
   10.6391   15.3142   -9.7941 H   0  0  0  0  0
  1  2  4  0  0  0
  1  7  4  0  0  0
  2  3  4  0  0  0
  3  4  1  0  0  0
  3  5  4  0  0  0
  5  6  4  0  0  0
  6  7  4  0  0  0
  7  8  1  0  0  0
  8  9  1  0  0  0
  8 10  1  0  0  0
  9 14  1  0  0  0
 10 11  1  0  0  0
 11 12  2  0  0  0
 11 13  1  0  0  0
 13 14  4  0  0  0
 13 20  4  0  0  0
 14 15  4  0  0  0
 15 16  4  0  0  0
 16 17  1  0  0  0
 16 19  4  0  0  0
 17 18  1  0  0  0
 19 20  4  0  0  0
 20 21  1  0  0  0
  1 22  1  0  0  0
  2 23  1  0  0  0
  4 24  1  0  0  0
  5 25  1  0  0  0
  6 26  1  0  0  0
  8 27  1  0  0  0
 10 28  1  0  0  0
 10 29  1  0  0  0
 15 30  1  0  0  0
 18 31  1  0  0  0
 18 32  1  0  0  0
 18 33  1  0  0  0
 19 34  1  0  0  0
 21 35  1  0  0  0
M  END
$$$$
