6ps3_ligand
  -I-interpret- 

 56 59  0  0  0  0  0  0  0  0999 V2000
    3.5290    6.4830   49.8080 O   0  0  0  0  0
    3.1150    5.3680   50.5460 C   0  0  0  0  0
    2.3410    4.4200   49.6360 C   0  0  0  0  0
    2.5230    3.1050   50.0980 O   0  0  0  0  0
    1.6910    2.0890   49.5840 C   0  0  0  0  0
    1.2000    2.1180   48.3440 C   0  0  0  0  0
    0.3330    0.9570   47.8190 C   0  0  0  0  0
    0.0720   -0.0890   48.5960 C   0  0  0  0  0
    0.6500   -0.1410   50.0080 C   0  0  0  0  0
    1.4110    0.8630   50.4600 C   0  0  0  0  0
    1.8160    0.4790   51.9470 C   0  0  0  0  0
    2.6510    1.1800   53.0220 C   0  0  0  0  0
    2.7850    0.6110   54.2160 C   0  0  0  0  0
    2.1540   -0.7640   54.4930 C   0  0  0  0  0
    1.4070   -1.3560   53.5730 C   0  0  0  0  0
    1.2480   -0.7110   52.1980 C   0  0  0  0  0
    0.5540   -1.0710   51.0410 N   0  0  0  0  0
    2.2180    5.7840   51.7200 C   0  0  0  0  0
    2.8760    6.8100   52.5010 N   0  3  0  0  0
    2.1150    7.1460   53.6870 C   0  0  0  0  0
    2.5410    8.5350   54.1800 C   0  0  0  0  0
    3.9430    8.6140   54.2210 O   0  0  0  0  0
    4.5180    9.8270   54.6420 C   0  0  0  0  0
    5.0620   10.6370   53.7350 C   0  0  0  0  0
    5.7240   11.9540   54.1650 C   0  0  0  0  0
    5.7740   12.2710   55.4510 C   0  0  0  0  0
    5.1620   11.3350   56.5060 C   0  0  0  0  0
    4.6050   10.1800   56.1490 C   0  0  0  0  0
    4.0240    9.3520   57.1420 O   0  0  0  0  0
    4.6870    8.1530   57.4700 C   0  0  0  0  0
    4.0871    6.1954   49.0818 H   0  0  0  0  0
    3.9999    4.8723   50.9451 H   0  0  0  0  0
    2.7064    4.5074   48.6128 H   0  0  0  0  0
    1.2813    4.6748   49.6506 H   0  0  0  0  0
    1.4136    2.9691   47.6973 H   0  0  0  0  0
   -0.0678    0.9940   46.8060 H   0  0  0  0  0
   -0.5506   -0.9043   48.2276 H   0  0  0  0  0
    3.1306    2.1357   52.8105 H   0  0  0  0  0
    3.3438    1.1205   55.0011 H   0  0  0  0  0
    2.3224   -1.2542   55.4519 H   0  0  0  0  0
    0.9082   -2.2991   53.7964 H   0  0  0  0  0
    2.0271    4.9169   52.3523 H   0  0  0  0  0
    1.2765    6.1740   51.3333 H   0  0  0  0  0
    2.9631    7.6476   51.9254 H   0  0  0  0  0
    3.7884    6.4588   52.7918 H   0  0  0  0  0
    2.3038    6.4068   54.4655 H   0  0  0  0  0
    1.0509    7.1512   53.4507 H   0  0  0  0  0
    2.1405    8.7018   55.1799 H   0  0  0  0  0
    2.1563    9.2937   53.4985 H   0  0  0  0  0
    5.0370   10.3629   52.6803 H   0  0  0  0  0
    6.1499   12.6236   53.4178 H   0  0  0  0  0
    6.2515   13.2001   55.7622 H   0  0  0  0  0
    5.1845   11.6203   57.5578 H   0  0  0  0  0
    4.7601    7.5251   56.5820 H   0  0  0  0  0
    5.6871    8.3814   57.8384 H   0  0  0  0  0
    4.1249    7.6281   58.2424 H   0  0  0  0  0
  1  2  1  0  0  0
  2  3  1  0  0  0
  2 18  1  0  0  0
  3  4  1  0  0  0
  4  5  1  0  0  0
  5  6  4  0  0  0
  5 10  4  0  0  0
  6  7  4  0  0  0
  7  8  4  0  0  0
  8  9  4  0  0  0
  9 10  4  0  0  0
  9 17  4  0  0  0
 10 11  4  0  0  0
 11 12  4  0  0  0
 11 16  4  0  0  0
 12 13  4  0  0  0
 13 14  4  0  0  0
 14 15  4  0  0  0
 15 16  4  0  0  0
 16 17  4  0  0  0
 18 19  1  0  0  0
 19 20  1  0  0  0
 20 21  1  0  0  0
 21 22  1  0  0  0
 22 23  1  0  0  0
 23 24  4  0  0  0
 23 28  4  0  0  0
 24 25  4  0  0  0
 25 26  4  0  0  0
 26 27  4  0  0  0
 27 28  4  0  0  0
 28 29  1  0  0  0
 29 30  1  0  0  0
  1 31  1  0  0  0
  2 32  1  0  0  0
  3 33  1  0  0  0
  3 34  1  0  0  0
  6 35  1  0  0  0
  7 36  1  0  0  0
  8 37  1  0  0  0
 12 38  1  0  0  0
 13 39  1  0  0  0
 14 40  1  0  0  0
 15 41  1  0  0  0
 18 42  1  0  0  0
 18 43  1  0  0  0
 19 44  1  0  0  0
 19 45  1  0  0  0
 20 46  1  0  0  0
 20 47  1  0  0  0
 21 48  1  0  0  0
 21 49  1  0  0  0
 24 50  1  0  0  0
 25 51  1  0  0  0
 26 52  1  0  0  0
 27 53  1  0  0  0
 30 54  1  0  0  0
 30 55  1  0  0  0
 30 56  1  0  0  0
M  END
$$$$
