5mw2_ligand
  -I-interpret- 

 63 66  0  0  0  0  0  0  0  0999 V2000
    7.6070   13.4180   13.7020 C   0  0  0  0  0
    8.6550   14.4780   13.9480 C   0  0  0  0  0
   12.1690   17.1950    9.7150 C   0  0  0  0  0
   10.6870   15.9800   11.2250 C   0  0  0  0  0
   13.5380   19.5080   13.0090 C   0  0  0  0  0
   12.1260   17.7600   12.1420 C   0  0  0  0  0
   12.0760   18.3060   14.5000 C   0  0  0  0  0
   14.7760   20.0100   15.9410 C   0  0  0  0  0
   17.0000   19.4220   15.8680 C   0  0  0  0  0
   16.2550   20.4630   17.7490 C   0  0  0  0  0
   17.8360   18.3050   13.8240 C   0  0  0  0  0
    6.4050   11.4960   14.6100 C   0  0  0  0  0
    7.3690   12.5770   14.7020 N   0  0  0  0  0
    7.0150   13.3660   12.6260 O   0  0  0  0  0
    9.2210   14.7950   12.6570 O   0  0  0  0  0
   10.2850   15.3250   10.2680 O   0  0  0  0  0
   11.6410   16.9750   11.0630 N   0  0  0  0  0
   10.1590   15.7850   12.5960 C   0  0  0  0  0
   10.6080   16.5170   13.6190 C   0  0  0  0  0
   13.1080   18.7310   11.9460 C   0  0  0  0  0
   11.6060   17.5350   13.4310 C   0  0  0  0  0
   13.0320   19.2950   14.2890 C   0  0  0  0  0
   13.5290   20.0280   15.3850 N   0  0  0  0  0
   18.0280   18.8540   15.1700 N   0  0  0  0  0
   13.6980   21.2570   18.1350 Cl  0  0  0  0  0
   15.7860   19.4270   15.2720 N   0  0  0  0  0
   17.2860   19.9130   17.0920 N   0  0  0  0  0
   14.9790   20.5260   17.2210 C   0  0  0  0  0
   18.5460   16.9760   13.5470 C   0  0  0  0  0
   20.0170   17.0840   13.9630 C   0  0  0  0  0
   20.1380   17.4500   15.4450 C   0  0  0  0  0
   19.3870   18.7580   15.7100 C   0  0  0  0  0
   18.4140   16.5870   12.0780 C   0  0  0  0  0
   21.5970   17.5580   15.8730 C   0  0  0  0  0
    9.4216   14.1198   14.6351 H   0  0  0  0  0
    8.2176   15.3619   14.4123 H   0  0  0  0  0
   11.9687   18.2224    9.4109 H   0  0  0  0  0
   13.2445   17.0176    9.7140 H   0  0  0  0  0
   11.6855   16.5082    9.0202 H   0  0  0  0  0
   14.2774   20.2914   12.8426 H   0  0  0  0  0
   11.6908   18.1308   15.5045 H   0  0  0  0  0
   16.4302   20.8781   18.7415 H   0  0  0  0  0
   18.2560   19.0322   13.1291 H   0  0  0  0  0
   16.7682   18.1152   13.7154 H   0  0  0  0  0
    5.4163   11.9087   14.4095 H   0  0  0  0  0
    6.6906   10.8241   13.8006 H   0  0  0  0  0
    6.3866   10.9462   15.5510 H   0  0  0  0  0
    7.8864   12.6961   15.5729 H   0  0  0  0  0
   10.2094   16.3389   14.6177 H   0  0  0  0  0
   13.5375   18.8785   10.9551 H   0  0  0  0  0
   12.8626   20.6621   15.8256 H   0  0  0  0  0
   18.0738   16.1893   14.1354 H   0  0  0  0  0
   20.4939   17.8633   13.3686 H   0  0  0  0  0
   20.5003   16.1209   13.7984 H   0  0  0  0  0
   19.6888   16.6552   16.0405 H   0  0  0  0  0
   19.2872   18.8342   16.7927 H   0  0  0  0  0
   19.9631   19.5414   15.2175 H   0  0  0  0  0
   17.3591   16.4819   11.8247 H   0  0  0  0  0
   18.8627   17.3619   11.4565 H   0  0  0  0  0
   18.9262   15.6402   11.9067 H   0  0  0  0  0
   22.0938   16.6015   15.7103 H   0  0  0  0  0
   22.0910   18.3304   15.2835 H   0  0  0  0  0
   21.6458   17.8190   16.9302 H   0  0  0  0  0
  2  1  1  0  0  0
  1 13  1  0  0  0
  1 14  2  0  0  0
 15  2  1  0  0  0
 17  3  1  0  0  0
  4 16  2  0  0  0
 17  4  1  0  0  0
 18  4  1  0  0  0
  5 20  4  0  0  0
 22  5  4  0  0  0
  6 17  1  0  0  0
 20  6  4  0  0  0
 21  6  4  0  0  0
  7 21  4  0  0  0
 22  7  4  0  0  0
 23  8  1  0  0  0
  8 26  4  0  0  0
  8 28  4  0  0  0
  9 24  1  0  0  0
 26  9  4  0  0  0
  9 27  4  0  0  0
 10 27  4  0  0  0
 28 10  4  0  0  0
 24 11  1  0  0  0
 11 29  1  0  0  0
 13 12  1  0  0  0
 18 15  1  0  0  0
 19 18  2  0  0  0
 21 19  1  0  0  0
 22 23  1  0  0  0
 24 32  1  0  0  0
 28 25  1  0  0  0
 29 30  1  0  0  0
 29 33  1  0  0  0
 30 31  1  0  0  0
 31 32  1  0  0  0
 31 34  1  0  0  0
  2 35  1  0  0  0
  2 36  1  0  0  0
  3 37  1  0  0  0
  3 38  1  0  0  0
  3 39  1  0  0  0
  5 40  1  0  0  0
  7 41  1  0  0  0
 10 42  1  0  0  0
 11 43  1  0  0  0
 11 44  1  0  0  0
 12 45  1  0  0  0
 12 46  1  0  0  0
 12 47  1  0  0  0
 13 48  1  0  0  0
 19 49  1  0  0  0
 20 50  1  0  0  0
 23 51  1  0  0  0
 29 52  1  0  0  0
 30 53  1  0  0  0
 30 54  1  0  0  0
 31 55  1  0  0  0
 32 56  1  0  0  0
 32 57  1  0  0  0
 33 58  1  0  0  0
 33 59  1  0  0  0
 33 60  1  0  0  0
 34 61  1  0  0  0
 34 62  1  0  0  0
 34 63  1  0  0  0
M  END
$$$$
