5zcu_ligand
  -I-interpret- 

 35 37  0  0  0  0  0  0  0  0999 V2000
  -21.9840   -3.4930   30.2670 S   0  0  0  0  0
  -24.1210   -0.6400   35.6790 Br  0  0  0  0  0
  -23.4470   -1.7030   34.2030 C   0  0  0  0  0
  -23.0330   -4.7560   29.7870 N   0  0  0  0  0
  -20.5870   -3.9290   30.2880 O   0  0  0  0  0
  -23.0400   -3.0490   34.2500 C   0  0  0  0  0
  -25.6720   -6.3800   30.7570 N   0  0  0  0  0
  -21.9450   -2.4040   29.2880 O   0  0  0  0  0
  -22.5840   -3.6600   33.1100 C   0  0  0  0  0
  -22.5270   -2.9450   31.9060 C   0  0  0  0  0
  -22.9290   -1.6180   31.8510 C   0  0  0  0  0
  -23.3900   -0.9950   33.0070 C   0  0  0  0  0
  -22.1770   -5.0060   33.1320 C   0  0  0  0  0
  -22.2310   -5.7250   34.3150 C   0  0  0  0  0
  -22.6880   -5.1080   35.4720 C   0  0  0  0  0
  -23.0940   -3.7790   35.4510 C   0  0  0  0  0
  -24.4580   -4.5040   29.6550 C   0  0  0  0  0
  -25.2580   -5.0960   30.8150 C   0  0  0  0  0
  -26.3850   -6.9080   31.7770 C   0  0  0  0  0
  -26.7010   -6.1340   32.8800 C   0  0  0  0  0
  -26.2930   -4.8430   32.9390 C   0  0  0  0  0
  -25.5800   -4.3150   31.9150 C   0  0  0  0  0
  -22.6587   -5.6849   29.5937 H   0  0  0  0  0
  -22.8841   -1.0684   30.9108 H   0  0  0  0  0
  -23.7063    0.0476   32.9752 H   0  0  0  0  0
  -21.8195   -5.4830   32.2194 H   0  0  0  0  0
  -21.9167   -6.7685   34.3374 H   0  0  0  0  0
  -22.7287   -5.6708   36.4046 H   0  0  0  0  0
  -23.4536   -3.3034   36.3635 H   0  0  0  0  0
  -24.8014   -4.9717   28.7323 H   0  0  0  0  0
  -24.6130   -3.4251   29.6515 H   0  0  0  0  0
  -26.7121   -7.9467   31.7306 H   0  0  0  0  0
  -27.2773   -6.5622   33.7001 H   0  0  0  0  0
  -26.5377   -4.2314   33.8074 H   0  0  0  0  0
  -25.2588   -3.2742   31.9558 H   0  0  0  0  0
  4  1  1  0  0  0
  1  5  2  0  0  0
  1  8  2  0  0  0
  1 10  1  0  0  0
  3  2  1  0  0  0
  6  3  4  0  0  0
 12  3  4  0  0  0
 17  4  1  0  0  0
  9  6  4  0  0  0
  6 16  4  0  0  0
 18  7  4  0  0  0
  7 19  4  0  0  0
 10  9  4  0  0  0
  9 13  4  0  0  0
 10 11  4  0  0  0
 11 12  4  0  0  0
 13 14  4  0  0  0
 14 15  4  0  0  0
 16 15  4  0  0  0
 17 18  1  0  0  0
 18 22  4  0  0  0
 19 20  4  0  0  0
 20 21  4  0  0  0
 21 22  4  0  0  0
  4 23  1  0  0  0
 11 24  1  0  0  0
 12 25  1  0  0  0
 13 26  1  0  0  0
 14 27  1  0  0  0
 15 28  1  0  0  0
 16 29  1  0  0  0
 17 30  1  0  0  0
 17 31  1  0  0  0
 19 32  1  0  0  0
 20 33  1  0  0  0
 21 34  1  0  0  0
 22 35  1  0  0  0
M  END
$$$$
