5bpe_ligand
  -I-interpret- 

 70 72  0  0  0  0  0  0  0  0999 V2000
   14.7360   11.0470   25.2440 C   0  0  0  0  0
   15.3980   10.0270   25.1550 O   0  0  0  0  0
   14.7180   11.8260   26.5560 C   0  0  0  0  0
   13.6050   11.4120   27.5110 C   0  0  0  0  0
   13.7710   11.7670   28.9880 C   0  0  0  0  0
   13.0660   11.0330   29.9520 C   0  0  0  0  0
   13.1740   11.3250   31.3150 C   0  0  0  0  0
   14.0040   12.3700   31.7210 C   0  0  0  0  0
   14.7120   13.1090   30.7680 C   0  0  0  0  0
   14.5980   12.8100   29.4110 C   0  0  0  0  0
   13.9960   11.5110   24.1120 N   0  0  0  0  0
   13.9900   10.8080   22.8630 C   0  0  0  0  0
   15.3040   10.9520   22.1330 C   0  0  0  0  0
   15.7780   12.0300   21.8640 O   0  0  0  0  0
   12.9340   11.3530   21.9190 C   0  0  0  0  0
   11.5350   11.1610   22.4410 C   0  0  0  0  0
   10.6910   12.2600   22.5740 C   0  0  0  0  0
   11.1100    9.8850   22.8000 C   0  0  0  0  0
    9.4030   12.0850   23.0760 C   0  0  0  0  0
    9.8210    9.6980   23.2900 C   0  0  0  0  0
    8.9760   10.7970   23.4280 C   0  0  0  0  0
   19.1740   11.2200   25.0250 C   0  0  0  0  0
   17.2180   10.0360   21.1070 C   0  0  0  0  0
   18.7540   10.8080   23.6230 C   0  0  0  0  0
   19.4140    8.4890   24.1390 C   0  0  0  0  0
   18.2170    9.0610   21.9840 C   0  0  0  0  0
   18.1190    9.6530   18.9050 C   0  0  0  0  0
   16.9050    9.9440   19.6520 C   0  0  0  0  0
   18.4870    9.5260   23.4590 C   0  0  0  0  0
   20.3910   10.4080   25.4830 C   0  0  0  0  0
   18.9960    9.4790   18.3530 N   0  0  0  0  0
   16.0250    9.8180   21.7330 N   0  0  0  0  0
   20.1210    8.9680   25.3120 N   0  3  0  0  0
   16.2960   11.1040   19.2130 O   0  0  0  0  0
   19.5640    7.2780   23.6230 O   0  0  0  0  0
   14.5548   12.8743   26.3061 H   0  0  0  0  0
   15.6644   11.6302   27.0600 H   0  0  0  0  0
   13.5772   10.3230   27.4732 H   0  0  0  0  0
   12.7183   11.9516   27.1783 H   0  0  0  0  0
   12.4191   10.2163   29.6317 H   0  0  0  0  0
   12.6173   10.7440   32.0503 H   0  0  0  0  0
   14.1006   12.6103   32.7798 H   0  0  0  0  0
   15.3585   13.9258   31.0888 H   0  0  0  0  0
   15.1562   13.3922   28.6778 H   0  0  0  0  0
   13.4542   12.3711   24.1961 H   0  0  0  0  0
   13.7934    9.7673   23.1207 H   0  0  0  0  0
   13.0168   10.8130   20.9758 H   0  0  0  0  0
   13.1056   12.4235   21.8063 H   0  0  0  0  0
   11.0362   13.2532   22.2867 H   0  0  0  0  0
   11.7847    9.0350   22.6976 H   0  0  0  0  0
    8.7358   12.9389   23.1935 H   0  0  0  0  0
    9.4757    8.7009   23.5633 H   0  0  0  0  0
    7.9674   10.6532   23.8156 H   0  0  0  0  0
   18.3471   11.0349   25.7106 H   0  0  0  0  0
   19.4367   12.2778   25.0189 H   0  0  0  0  0
   17.7705   10.9754   21.0898 H   0  0  0  0  0
   19.5966   11.0338   22.9695 H   0  0  0  0  0
   17.8308   11.3456   23.4069 H   0  0  0  0  0
   19.3924    7.4283   24.3890 H   0  0  0  0  0
   19.1809    9.0646   21.4751 H   0  0  0  0  0
   17.7262    8.0899   22.0487 H   0  0  0  0  0
   16.2024    9.1278   19.4837 H   0  0  0  0  0
   17.5514    9.5179   24.0183 H   0  0  0  0  0
   20.5892   10.6160   26.5345 H   0  0  0  0  0
   21.2576   10.6867   24.8836 H   0  0  0  0  0
   15.6746    8.8751   21.9018 H   0  0  0  0  0
   21.0462    8.5447   25.2394 H   0  0  0  0  0
   19.5062    8.7323   26.0910 H   0  0  0  0  0
   16.1020   11.0273   18.2759 H   0  0  0  0  0
   20.1693    6.7713   24.1693 H   0  0  0  0  0
  1  2  2  0  0  0
  1  3  1  0  0  0
 11  1  1  0  0  0
  3  4  1  0  0  0
  4  5  1  0  0  0
  5  6  4  0  0  0
  5 10  4  0  0  0
  6  7  4  0  0  0
  7  8  4  0  0  0
  9  8  4  0  0  0
 10  9  4  0  0  0
 12 11  1  0  0  0
 13 12  1  0  0  0
 12 15  1  0  0  0
 13 14  2  0  0  0
 32 13  1  0  0  0
 15 16  1  0  0  0
 16 17  4  0  0  0
 16 18  4  0  0  0
 17 19  4  0  0  0
 18 20  4  0  0  0
 19 21  4  0  0  0
 20 21  4  0  0  0
 24 22  1  0  0  0
 22 30  1  0  0  0
 26 23  1  0  0  0
 23 28  1  0  0  0
 23 32  1  0  0  0
 29 24  1  0  0  0
 29 25  1  0  0  0
 25 33  1  0  0  0
 25 35  1  0  0  0
 26 29  1  0  0  0
 28 27  1  0  0  0
 27 31  3  0  0  0
 28 34  1  0  0  0
 30 33  1  0  0  0
  3 36  1  0  0  0
  3 37  1  0  0  0
  4 38  1  0  0  0
  4 39  1  0  0  0
  6 40  1  0  0  0
  7 41  1  0  0  0
  8 42  1  0  0  0
  9 43  1  0  0  0
 10 44  1  0  0  0
 11 45  1  0  0  0
 12 46  1  0  0  0
 15 47  1  0  0  0
 15 48  1  0  0  0
 17 49  1  0  0  0
 18 50  1  0  0  0
 19 51  1  0  0  0
 20 52  1  0  0  0
 21 53  1  0  0  0
 22 54  1  0  0  0
 22 55  1  0  0  0
 23 56  1  0  0  0
 24 57  1  0  0  0
 24 58  1  0  0  0
 25 59  1  0  0  0
 26 60  1  0  0  0
 26 61  1  0  0  0
 28 62  1  0  0  0
 29 63  1  0  0  0
 30 64  1  0  0  0
 30 65  1  0  0  0
 32 66  1  0  0  0
 33 67  1  0  0  0
 33 68  1  0  0  0
 34 69  1  0  0  0
 35 70  1  0  0  0
M  END
$$$$
