6hpw_ligand
  -I-interpret- 

 50 53  0  0  0  0  0  0  0  0999 V2000
    3.9140   14.9260   12.2820 C   0  0  0  0  0
    2.9040   14.0080   11.9870 C   0  0  0  0  0
    1.6920   14.0100   12.6550 C   0  0  0  0  0
    1.4440   14.9320   13.6600 C   0  0  0  0  0
    2.4410   15.8530   13.9840 C   0  0  0  0  0
    3.6430   15.8680   13.2800 C   0  0  0  0  0
    0.0870   14.9760   14.2830 C   0  0  0  0  0
   -0.9220   14.7860   13.6140 O   0  0  0  0  0
    4.9570   17.5290   13.5660 I   0  0  0  0  0
    5.2310   14.8420   11.5590 C   0  0  0  0  0
    0.0570   15.2350   15.6020 N   0  0  0  0  0
   -1.0660   15.2740   16.4380 C   0  0  0  0  0
   -2.2970   14.7540   16.0290 C   0  0  0  0  0
   -3.3350   14.6940   16.9490 C   0  0  0  0  0
   -3.1440   15.1720   18.2400 C   0  0  0  0  0
   -1.9350   15.7070   18.6520 C   0  0  0  0  0
   -0.8960   15.7580   17.7370 C   0  0  0  0  0
   -4.6270   14.2060   16.8220 N   0  0  0  0  0
   -5.1870   14.4070   18.0010 C   0  0  0  0  0
   -4.3440   14.9740   18.8900 N   0  0  0  0  0
   -6.6260   14.1520   18.3170 C   0  0  0  0  0
   -6.8290   12.9100   19.0740 N   0  3  0  0  0
   -8.2760   12.6200   19.2050 C   0  0  0  0  0
   -8.5400   11.2660   19.8330 C   0  0  0  0  0
   -7.6610   11.0460   21.0500 C   0  0  0  0  0
   -7.0570   12.3550   21.5130 C   0  0  0  0  0
   -6.2230   13.0030   20.4130 C   0  0  0  0  0
    3.0755   13.2669   11.2064 H   0  0  0  0  0
    0.9266   13.2810   12.3889 H   0  0  0  0  0
    2.2783   16.5651   14.7930 H   0  0  0  0  0
    5.6878   13.8710   11.7503 H   0  0  0  0  0
    5.0646   14.9621   10.4885 H   0  0  0  0  0
    5.8912   15.6323   11.9163 H   0  0  0  0  0
    0.9559   15.4250   16.0450 H   0  0  0  0  0
   -2.4395   14.4022   15.0072 H   0  0  0  0  0
   -1.8044   16.0779   19.6686 H   0  0  0  0  0
    0.0640   16.1802   18.0340 H   0  0  0  0  0
   -7.1645   14.0607   17.3737 H   0  0  0  0  0
   -6.9858   14.9793   18.9288 H   0  0  0  0  0
   -6.3758   12.1530   18.5621 H   0  0  0  0  0
   -8.7113   12.6187   18.2057 H   0  0  0  0  0
   -8.7154   13.3817   19.8491 H   0  0  0  0  0
   -8.3178   10.4920   19.0984 H   0  0  0  0  0
   -9.5836   11.2243   20.1450 H   0  0  0  0  0
   -6.8568   10.3592   20.7860 H   0  0  0  0  0
   -8.2685   10.6325   21.8550 H   0  0  0  0  0
   -6.4089   12.1545   22.3661 H   0  0  0  0  0
   -7.8665   13.0346   21.7794 H   0  0  0  0  0
   -6.1319   14.0618   20.6555 H   0  0  0  0  0
   -5.2695   12.4762   20.3753 H   0  0  0  0  0
  1  2  4  0  0  0
  1  6  4  0  0  0
  1 10  1  0  0  0
  2  3  4  0  0  0
  3  4  4  0  0  0
  4  5  4  0  0  0
  4  7  1  0  0  0
  5  6  4  0  0  0
  6  9  1  0  0  0
  7  8  2  0  0  0
  7 11  1  0  0  0
 11 12  1  0  0  0
 12 13  4  0  0  0
 12 17  4  0  0  0
 13 14  4  0  0  0
 14 15  4  0  0  0
 14 18  4  0  0  0
 15 16  4  0  0  0
 15 20  4  0  0  0
 16 17  4  0  0  0
 18 19  4  0  0  0
 19 20  4  0  0  0
 19 21  1  0  0  0
 21 22  1  0  0  0
 22 23  1  0  0  0
 22 27  1  0  0  0
 23 24  1  0  0  0
 24 25  1  0  0  0
 25 26  1  0  0  0
 26 27  1  0  0  0
  2 28  1  0  0  0
  3 29  1  0  0  0
  5 30  1  0  0  0
 10 31  1  0  0  0
 10 32  1  0  0  0
 10 33  1  0  0  0
 11 34  1  0  0  0
 13 35  1  0  0  0
 16 36  1  0  0  0
 17 37  1  0  0  0
 21 38  1  0  0  0
 21 39  1  0  0  0
 22 40  1  0  0  0
 23 41  1  0  0  0
 23 42  1  0  0  0
 24 43  1  0  0  0
 24 44  1  0  0  0
 25 45  1  0  0  0
 25 46  1  0  0  0
 26 47  1  0  0  0
 26 48  1  0  0  0
 27 49  1  0  0  0
 27 50  1  0  0  0
M  END
$$$$
