1akw_ligand
  -I-interpret- 

 52 54  0  0  0  0  0  0  0  0999 V2000
   -4.2130   36.2990   18.2440 N   0  0  0  0  0
   -3.2510   36.9960   18.9590 C   0  0  0  0  0
   -2.3890   37.8000   18.2920 O   0  0  0  0  0
   -3.1770   36.9490   20.3410 N   0  0  0  0  0
   -4.0500   36.1500   21.0580 C   0  0  0  0  0
   -3.8830   36.1220   22.4230 O   0  0  0  0  0
   -5.0310   35.4060   20.3250 C   0  0  0  0  0
   -5.8900   34.5820   21.0130 N   0  0  0  0  0
   -6.9130   33.9520   20.3070 C   0  0  0  0  0
   -7.8550   33.2420   21.1040 C   0  0  0  0  0
   -8.9200   32.6470   20.4080 C   0  0  0  0  0
   -9.9110   31.9230   21.1630 C   0  0  0  0  0
   -9.0110   32.7570   19.0140 C   0  0  0  0  0
  -10.0810   32.1400   18.2820 C   0  0  0  0  0
   -8.0570   33.4550   18.2480 C   0  0  0  0  0
   -6.9690   34.0750   18.9150 C   0  0  0  0  0
   -6.0340   34.7810   18.1620 N   0  0  0  0  0
   -5.1070   35.4870   18.9180 C   0  0  0  0  0
   -5.9800   34.9500   16.7580 C   0  0  0  0  0
   -5.3210   33.6920   16.1540 C   0  0  0  0  0
   -3.9360   33.6090   16.5550 O   0  0  0  0  0
   -5.4010   33.8000   14.6100 C   0  0  0  0  0
   -6.7470   33.4530   14.2750 O   0  0  0  0  0
   -4.4430   33.0190   13.8050 C   0  0  0  0  0
   -4.5980   33.3770   12.4100 O   0  0  0  0  0
   -4.5060   31.5910   13.9900 C   0  0  0  0  0
   -3.4330   31.0060   13.2410 O   0  0  0  0  0
   -3.3280   29.3950   12.8670 P   0  0  0  0  0
   -3.4330   28.5040   14.2550 O   0  0  0  0  0
   -1.8710   29.1220   12.0910 O   0  0  0  0  0
   -4.5160   28.9790   11.7880 O   0  0  0  0  0
   -2.4768   37.5051   20.8319 H   0  0  0  0  0
   -7.7559   33.1650   22.1868 H   0  0  0  0  0
   -9.4314   31.1025   21.6967 H   0  0  0  0  0
  -10.3842   32.5959   21.8781 H   0  0  0  0  0
  -10.6644   31.5248   20.4833 H   0  0  0  0  0
  -10.0581   31.0627   18.4464 H   0  0  0  0  0
  -11.0340   32.5412   18.6268 H   0  0  0  0  0
   -9.9604   32.3493   17.2191 H   0  0  0  0  0
   -8.1527   33.5176   17.1640 H   0  0  0  0  0
   -5.3998   35.8378   16.5066 H   0  0  0  0  0
   -6.9841   35.0809   16.3546 H   0  0  0  0  0
   -5.8388   32.8001   16.5067 H   0  0  0  0  0
   -3.5398   32.8227   16.1723 H   0  0  0  0  0
   -5.1105   34.8176   14.3487 H   0  0  0  0  0
   -6.8613   33.5015   13.3231 H   0  0  0  0  0
   -3.4488   33.2851   14.1640 H   0  0  0  0  0
   -3.9769   32.8718   11.8802 H   0  0  0  0  0
   -5.4647   31.2058   13.6428 H   0  0  0  0  0
   -4.4109   31.3412   15.0467 H   0  0  0  0  0
   -1.8330   29.6490   11.2895 H   0  0  0  0  0
   -4.4277   29.5128   10.9950 H   0  0  0  0  0
  1  2  1  0  0  0
  1 18  2  0  0  0
  2  3  2  0  0  0
  2  4  1  0  0  0
  4  5  1  0  0  0
  5  6  2  0  0  0
  5  7  1  0  0  0
  7  8  2  0  0  0
  7 18  1  0  0  0
  8  9  1  0  0  0
  9 10  4  0  0  0
  9 16  4  0  0  0
 10 11  4  0  0  0
 11 12  1  0  0  0
 11 13  4  0  0  0
 13 14  1  0  0  0
 13 15  4  0  0  0
 15 16  4  0  0  0
 16 17  1  0  0  0
 17 18  1  0  0  0
 17 19  1  0  0  0
 19 20  1  0  0  0
 20 21  1  0  0  0
 20 22  1  0  0  0
 22 23  1  0  0  0
 22 24  1  0  0  0
 24 25  1  0  0  0
 24 26  1  0  0  0
 26 27  1  0  0  0
 27 28  1  0  0  0
 28 29  2  0  0  0
 28 30  1  0  0  0
 28 31  1  0  0  0
  4 32  1  0  0  0
 10 33  1  0  0  0
 12 34  1  0  0  0
 12 35  1  0  0  0
 12 36  1  0  0  0
 14 37  1  0  0  0
 14 38  1  0  0  0
 14 39  1  0  0  0
 15 40  1  0  0  0
 19 41  1  0  0  0
 19 42  1  0  0  0
 20 43  1  0  0  0
 21 44  1  0  0  0
 22 45  1  0  0  0
 23 46  1  0  0  0
 24 47  1  0  0  0
 25 48  1  0  0  0
 26 49  1  0  0  0
 26 50  1  0  0  0
 30 51  1  0  0  0
 31 52  1  0  0  0
M  END
$$$$
