1qm4_ligand
  -I-interpret- 

 19 18  0  0  0  0  0  0  0  0999 V2000
    2.7050   33.7660   52.9570 C   0  0  0  0  0
    1.6370   33.4940   53.8720 C   0  0  0  0  0
    0.2870   33.9880   54.0210 O   0  0  0  0  0
   -0.7110   33.1990   54.6780 C   0  0  0  0  0
    4.3980   34.8100   51.5690 C   0  0  0  0  0
    4.8470   35.5220   50.6290 O   0  0  0  0  0
    5.1900   34.2300   52.3330 O   0  0  0  0  0
    2.2700   34.2170   50.5220 N   0  3  0  0  0
    2.9030   34.6730   51.7570 C   0  0  0  0  0
    3.5947   33.1760   53.1771 H   0  0  0  0  0
    1.9011   32.7490   54.6226 H   0  0  0  0  0
   -0.8387   32.2580   54.1430 H   0  0  0  0  0
   -0.3964   32.9965   55.7018 H   0  0  0  0  0
   -1.6549   33.7440   54.6876 H   0  0  0  0  0
    4.1142   35.8972   50.1351 H   0  0  0  0  0
    1.2643   34.1309   50.6685 H   0  0  0  0  0
    2.4500   34.8928   49.7795 H   0  0  0  0  0
    2.6553   33.3100   50.2587 H   0  0  0  0  0
    2.4110   35.6233   51.9643 H   0  0  0  0  0
  1  2  2  0  0  0
  9  1  1  0  0  0
  2  3  1  0  0  0
  3  4  1  0  0  0
  5  6  1  0  0  0
  5  7  2  0  0  0
  5  9  1  0  0  0
  9  8  1  0  0  0
  1 10  1  0  0  0
  2 11  1  0  0  0
  4 12  1  0  0  0
  4 13  1  0  0  0
  4 14  1  0  0  0
  6 15  1  0  0  0
  8 16  1  0  0  0
  8 17  1  0  0  0
  8 18  1  0  0  0
  9 19  1  0  0  0
M  END
$$$$
