### 
### Created by X-TOOL on Mon Sep 10 21:13:29 2018
### 

@<TRIPOS>MOLECULE
4yhp_ligand
  194   193     1     0     0
SMALL
GAST_HUCK


@<TRIPOS>ATOM
      1 N           8.2240  -18.7350  -14.1380 N.4       1 ALA         0.2377
      2 CA          6.8400  -18.4810  -13.7510 C.3       1 ALA         0.0621
      3 C           5.8900  -19.4830  -14.3800 C.2       1 ALA         0.2264
      4 O           6.0230  -19.8280  -15.5550 O.2       1 ALA        -0.3907
      5 CB          6.4270  -17.0760  -14.1310 C.3       1 ALA        -0.0040
      6 N           4.9220  -19.9330  -13.5910 N.am      1 ARG        -0.2610
      7 CA          3.8910  -20.8320  -14.0820 C.3       1 ARG         0.1312
      8 C           2.5840  -20.0540  -14.1930 C.2       1 ARG         0.2040
      9 O           1.6420  -20.2760  -13.4310 O.2       1 ARG        -0.3944
     10 CB          3.7470  -22.0220  -13.1370 C.3       1 ARG        -0.0092
     11 CG          5.0750  -22.5120  -12.5710 C.3       1 ARG        -0.0156
     12 CD          5.2890  -23.9960  -12.8220 C.3       1 ARG         0.0627
     13 NE          4.1860  -24.8110  -12.3170 N.pl3     1 ARG        -0.2723
     14 CZ          3.8420  -25.9930  -12.8230 C.cat     1 ARG         0.2882
     15 NH1         2.8230  -26.6720  -12.3160 N.pl3     1 ARG        -0.2849
     16 NH2         4.5180  -26.4970  -13.8450 N.pl3     1 ARG        -0.2849
     17 N           2.5530  -19.1250  -15.1440 N.am      1 THR        -0.2613
     18 CA          1.4020  -18.2590  -15.3710 C.3       1 THR         0.1565
     19 C           0.4880  -18.8480  -16.4340 C.2       1 THR         0.2065
     20 O           0.9290  -19.6360  -17.2700 O.2       1 THR        -0.3943
     21 CB          1.8440  -16.8630  -15.8450 C.3       1 THR         0.0924
     22 OG1         3.2480  -16.8750  -16.1310 O.3       1 THR        -0.3874
     23 CG2         1.5590  -15.8170  -14.7850 C.3       1 THR        -0.0346
     24 N          -0.7850  -18.4640  -16.4040 N.am      1 LYS        -0.2637
     25 CA         -1.7060  -18.8440  -17.4670 C.3       1 LYS         0.1310
     26 C          -1.4530  -18.0010  -18.7030 C.2       1 LYS         0.2039
     27 O          -1.3870  -16.7720  -18.6220 O.2       1 LYS        -0.3944
     28 CB         -3.1590  -18.6470  -17.0310 C.3       1 LYS        -0.0122
     29 CG         -3.7640  -19.8090  -16.2670 C.3       1 LYS        -0.0440
     30 CD         -5.1900  -19.4830  -15.8620 C.3       1 LYS        -0.0124
     31 CE         -5.8360  -20.6310  -15.1100 C.3       1 LYS        -0.0354
     32 NZ         -7.1230  -20.2040  -14.4980 N.4       1 LYS         0.2185
     33 N          -1.3040  -18.6590  -19.8460 N.am      1 GLN        -0.2636
     34 CA         -1.3410  -17.9560  -21.1180 C.3       1 GLN         0.1330
     35 C          -2.6810  -18.2500  -21.7670 C.2       1 GLN         0.2041
     36 O          -3.3050  -19.2680  -21.4660 O.2       1 GLN        -0.3944
     37 CB         -0.1900  -18.3820  -22.0320 C.3       1 GLN         0.0045
     38 CG          1.1800  -17.8980  -21.5710 C.3       1 GLN         0.0412
     39 CD          2.2740  -18.1750  -22.5860 C.2       1 GLN         0.1737
     40 OE1         2.4950  -19.3200  -22.9830 O.2       1 GLN        -0.3973
     41 NE2         2.9600  -17.1220  -23.0180 N.am      1 GLN        -0.3009
     42 N          -3.1250  -17.3460  -22.6360 N.am      1 THR        -0.2613
     43 CA         -4.3920  -17.4950  -23.3380 C.3       1 THR         0.1565
     44 C          -4.5230  -18.8530  -24.0160 C.2       1 THR         0.2065
     45 O          -3.5570  -19.3780  -24.5600 O.2       1 THR        -0.3943
     46 CB         -4.5630  -16.3940  -24.4010 C.3       1 THR         0.0924
     47 OG1        -5.5950  -16.7720  -25.3250 O.3       1 THR        -0.3874
     48 CG2        -3.2660  -16.1740  -25.1560 C.3       1 THR        -0.0346
     49 N          -5.7230  -19.4230  -23.9830 N.am      1 ALA        -0.2639
     50 CA         -5.9810  -20.6710  -24.6900 C.3       1 ALA         0.1282
     51 C          -6.0470  -20.4420  -26.2010 C.2       1 ALA         0.2036
     52 O          -6.2650  -21.3850  -26.9660 O.2       1 ALA        -0.3944
     53 CB         -7.2670  -21.3140  -24.1880 C.3       1 ALA        -0.0244
     54 N          -5.8780  -19.1840  -26.6120 N.am      1 ARG        -0.2637
     55 CA         -5.8440  -18.7990  -28.0260 C.3       1 ARG         0.1311
     56 C          -7.0650  -19.2720  -28.8220 C.2       1 ARG         0.2039
     57 O          -6.9560  -19.6300  -29.9950 O.2       1 ARG        -0.3944
     58 CB         -4.5430  -19.2830  -28.6750 C.3       1 ARG        -0.0092
     59 CG         -3.2880  -18.7830  -27.9670 C.3       1 ARG        -0.0156
     60 CD         -2.0490  -19.4740  -28.5000 C.3       1 ARG         0.0627
     61 NE         -1.6870  -19.0310  -29.8420 N.pl3     1 ARG        -0.2723
     62 CZ         -0.8700  -19.6990  -30.6500 C.cat     1 ARG         0.2882
     63 NH1        -0.3420  -20.8470  -30.2570 N.pl3     1 ARG        -0.2849
     64 NH2        -0.5870  -19.2240  -31.8510 N.pl3     1 ARG        -0.2849
     65 N          -8.2260  -19.2640  -28.1740 N.am      1 M3L        -0.2637
     66 CA         -9.4910  -19.6330  -28.8370 C.3       1 M3L         0.1310
     67 CB        -10.5230  -20.1810  -27.7860 C.3       1 M3L        -0.0122
     68 CG        -10.2030  -21.6480  -27.4920 C.3       1 M3L        -0.0440
     69 CD        -11.4620  -22.3350  -26.9370 C.3       1 M3L        -0.0123
     70 CE        -11.0580  -23.2670  -25.8020 C.3       1 M3L        -0.0309
     71 NZ        -12.1570  -24.2190  -25.4990 N.4       1 M3L         0.2369
     72 C         -10.0660  -18.4760  -29.6280 C.2       1 M3L         0.2040
     73 O         -11.0000  -18.6890  -30.4560 O.2       1 M3L        -0.3944
     74 CM1       -11.8120  -24.9280  -24.3020 C.3       1 M3L        -0.0418
     75 CM2       -13.3920  -23.4960  -25.2760 C.3       1 M3L        -0.0418
     76 CM3       -12.3240  -25.1240  -26.5710 C.3       1 M3L        -0.0418
     77 N          -9.5540  -17.2670  -29.4050 N.am      1 SER        -0.2616
     78 CA        -10.1860  -16.0800  -29.9790 C.3       1 SER         0.1539
     79 C          -9.2690  -14.8670  -30.1720 C.2       1 SER         0.2057
     80 O          -8.9390  -14.1750  -29.2050 O.2       1 SER        -0.3943
     81 CB        -11.3770  -15.6620  -29.1130 C.3       1 SER         0.0843
     82 OG        -10.9350  -15.0820  -27.8970 O.3       1 SER        -0.3903
     83 N          -8.8730  -14.6300  -31.4240 N.am      1 THR        -0.2669
     84 CA         -8.3310  -13.3430  -31.8940 C.3       1 THR         0.1198
     85 C          -8.0540  -13.3980  -33.3950 C.2       1 THR         0.0626
     86 O          -8.7910  -14.0380  -34.1470 O.co2     1 THR        -0.5665
     87 CB         -7.0480  -12.8790  -31.1590 C.3       1 THR         0.0869
     88 OG1        -7.3760  -12.4910  -29.8180 O.3       1 THR        -0.3880
     89 CG2        -6.4360  -11.6790  -31.8740 C.3       1 THR        -0.0352
     90 OXT        -7.0890  -12.8030  -33.8780 O.co2     1 THR        -0.5665
     91 H1          8.8251  -18.0526  -13.7032 H         1 ALA         0.2015
     92 H2          8.3103  -18.6687  -15.1401 H         1 ALA         0.2015
     93 H3          8.4926  -19.6590  -13.8380 H         1 ALA         0.2015
     94 H4          6.7689  -18.5797  -12.6578 H         1 ALA         0.1095
     95 H5          5.3824  -16.9070  -13.8305 H         1 ALA         0.0310
     96 H6          6.5206  -16.9480  -15.2195 H         1 ALA         0.0310
     97 H7          7.0776  -16.3515  -13.6193 H         1 ALA         0.0310
     98 H8          4.9016  -19.6458  -12.6333 H         1 ARG         0.1884
     99 H9          4.1746  -21.2026  -15.0781 H         1 ARG         0.0800
    100 H10         3.2767  -22.8496  -13.6882 H         1 ARG         0.0313
    101 H11         3.0996  -21.7249  -12.2988 H         1 ARG         0.0313
    102 H12         5.0873  -22.3301  -11.4862 H         1 ARG         0.0301
    103 H13         5.8925  -21.9501  -13.0464 H         1 ARG         0.0301
    104 H14         6.2173  -24.3087  -12.3215 H         1 ARG         0.0689
    105 H15         5.3830  -24.1611  -13.9055 H         1 ARG         0.0689
    106 H16         3.6418  -24.4487  -11.5211 H         1 ARG         0.2642
    107 H17         2.5641  -27.5860  -12.7142 H         1 ARG         0.2615
    108 H18         2.2899  -26.2857  -11.5238 H         1 ARG         0.2615
    109 H19         5.3113  -25.9758  -14.2450 H         1 ARG         0.2615
    110 H20         4.2503  -27.4100  -14.2395 H         1 ARG         0.2615
    111 H21         3.3557  -19.0153  -15.7302 H         1 THR         0.1884
    112 H22         0.8448  -18.1604  -14.4277 H         1 THR         0.0826
    113 H23         1.2901  -16.6053  -16.7597 H         1 THR         0.0639
    114 H24         3.5179  -16.0123  -16.4233 H         1 THR         0.2101
    115 H25         1.8832  -14.8302  -15.1471 H         1 THR         0.0257
    116 H26         2.1073  -16.0683  -13.8651 H         1 THR         0.0257
    117 H27         0.4797  -15.7936  -14.5738 H         1 THR         0.0257
    118 H28        -1.1144  -17.9070  -15.6416 H         1 LYS         0.1883
    119 H29        -1.5452  -19.9042  -17.7121 H         1 LYS         0.0800
    120 H30        -3.7658  -18.4793  -17.9330 H         1 LYS         0.0312
    121 H31        -3.2041  -17.7558  -16.3878 H         1 LYS         0.0312
    122 H32        -3.1650  -20.0022  -15.3648 H         1 LYS         0.0269
    123 H33        -3.7633  -20.7042  -16.9063 H         1 LYS         0.0269
    124 H34        -5.7787  -19.2738  -16.7673 H         1 LYS         0.0317
    125 H35        -5.1824  -18.5930  -15.2157 H         1 LYS         0.0317
    126 H36        -5.1546  -20.9710  -14.3163 H         1 LYS         0.0813
    127 H37        -6.0263  -21.4585  -15.8093 H         1 LYS         0.0813
    128 H38        -7.5343  -20.9806  -14.0043 H         1 LYS         0.1994
    129 H39        -7.7528  -19.8944  -15.2216 H         1 LYS         0.1994
    130 H40        -6.9540  -19.4477  -13.8534 H         1 LYS         0.1994
    131 H41        -1.1648  -19.6492  -19.8321 H         1 GLN         0.1883
    132 H42        -1.2570  -16.8748  -20.9336 H         1 GLN         0.0801
    133 H43        -0.3791  -17.9780  -23.0375 H         1 GLN         0.0337
    134 H44        -0.1717  -19.4810  -22.0758 H         1 GLN         0.0337
    135 H45         1.4353  -18.4090  -20.6310 H         1 GLN         0.0504
    136 H46         1.1291  -16.8131  -21.3965 H         1 GLN         0.0504
    137 H47         3.6930  -17.2431  -23.6873 H         1 GLN         0.1814
    138 H48         2.7432  -16.2085  -22.6737 H         1 GLN         0.1814
    139 H49        -2.5683  -16.5345  -22.8137 H         1 THR         0.1884
    140 H50        -5.2011  -17.3982  -22.5991 H         1 THR         0.0826
    141 H51        -4.8500  -15.4568  -23.9018 H         1 THR         0.0639
    142 H52        -6.4126  -16.8873  -24.8551 H         1 THR         0.2101
    143 H53        -3.4094  -15.3852  -25.9091 H         1 THR         0.0257
    144 H54        -2.9694  -17.1081  -25.6554 H         1 THR         0.0257
    145 H55        -2.4785  -15.8691  -24.4511 H         1 THR         0.0257
    146 H56        -6.4602  -18.9890  -23.4652 H         1 ALA         0.1883
    147 H57        -5.1486  -21.3600  -24.4841 H         1 ALA         0.0797
    148 H58        -7.4443  -22.2531  -24.7327 H         1 ALA         0.0277
    149 H59        -8.1101  -20.6278  -24.3563 H         1 ALA         0.0277
    150 H60        -7.1756  -21.5257  -23.1124 H         1 ALA         0.0277
    151 H61        -5.7692  -18.4687  -25.9217 H         1 ARG         0.1883
    152 H62        -5.8447  -17.6996  -28.0617 H         1 ARG         0.0800
    153 H63        -4.5202  -18.9285  -29.7160 H         1 ARG         0.0313
    154 H64        -4.5354  -20.3829  -28.6619 H         1 ARG         0.0313
    155 H65        -3.3778  -18.9870  -26.8898 H         1 ARG         0.0301
    156 H66        -3.1922  -17.6991  -28.1282 H         1 ARG         0.0301
    157 H67        -2.2349  -20.5578  -28.5261 H         1 ARG         0.0689
    158 H68        -1.2093  -19.2622  -27.8217 H         1 ARG         0.0689
    159 H69        -2.0891  -18.1466  -30.1842 H         1 ARG         0.2642
    160 H70         0.2910  -21.3640  -30.8838 H         1 ARG         0.2615
    161 H71        -0.5641  -21.2235  -29.3243 H         1 ARG         0.2615
    162 H72        -0.9957  -18.3308  -32.1610 H         1 ARG         0.2615
    163 H73         0.0422  -19.7471  -32.4766 H         1 ARG         0.2615
    164 H74        -8.2421  -19.0003  -27.2095 H         1 M3L         0.1883
    165 H75        -9.2727  -20.4440  -29.5474 H         1 M3L         0.0800
    166 H76       -11.5418  -20.1001  -28.1927 H         1 M3L         0.0312
    167 H77       -10.4510  -19.5947  -26.8581 H         1 M3L         0.0312
    168 H78        -9.3934  -21.7070  -26.7497 H         1 M3L         0.0269
    169 H79        -9.8879  -22.1494  -28.4189 H         1 M3L         0.0269
    170 H80       -11.9481  -22.9150  -27.7353 H         1 M3L         0.0317
    171 H81       -12.1609  -21.5745  -26.5587 H         1 M3L         0.0317
    172 H82       -10.8370  -22.6708  -24.9044 H         1 M3L         0.0815
    173 H83       -10.1610  -23.8309  -26.0977 H         1 M3L         0.0815
    174 H84       -12.6119  -25.6415  -24.0550 H         1 M3L         0.0778
    175 H85       -11.6899  -24.2133  -23.4748 H         1 M3L         0.0778
    176 H86       -10.8695  -25.4733  -24.4576 H         1 M3L         0.0778
    177 H87       -13.6660  -22.9479  -26.1895 H         1 M3L         0.0778
    178 H88       -13.2560  -22.7844  -24.4483 H         1 M3L         0.0778
    179 H89       -14.1920  -24.2066  -25.0209 H         1 M3L         0.0778
    180 H90       -11.3848  -25.6716  -26.7382 H         1 M3L         0.0778
    181 H91       -12.5914  -24.5682  -27.4818 H         1 M3L         0.0778
    182 H92       -13.1257  -25.8368  -26.3277 H         1 M3L         0.0778
    183 H93        -8.7331  -17.1705  -28.8421 H         1 SER         0.1884
    184 H94       -10.5622  -16.3645  -30.9728 H         1 SER         0.0823
    185 H95       -11.9887  -16.5483  -28.8886 H         1 SER         0.0606
    186 H96       -11.9834  -14.9277  -29.6635 H         1 SER         0.0606
    187 H97       -10.4086  -14.3142  -28.0866 H         1 SER         0.2097
    188 H98        -8.9491  -15.3748  -32.0869 H         1 THR         0.1876
    189 H99        -9.1047  -12.5818  -31.7156 H         1 THR         0.0752
    190 H100       -6.3215  -13.7047  -31.1383 H         1 THR         0.0632
    191 H101       -7.7534  -13.2319  -29.3585 H         1 THR         0.2100
    192 H102       -5.5271  -11.3600  -31.3427 H         1 THR         0.0256
    193 H103       -7.1612  -10.8520  -31.8890 H         1 THR         0.0256
    194 H104       -6.1781  -11.9593  -32.9059 H         1 THR         0.0256
@<TRIPOS>BOND
     1    1    2 1  
     2    2    3 1  
     3    2    5 1  
     4    3    4 2  
     5    3    6 am 
     6    6    7 1  
     7    7    8 1  
     8    7   10 1  
     9    8    9 2  
    10    8   17 am 
    11   10   11 1  
    12   11   12 1  
    13   12   13 1  
    14   13   14 ar 
    15   14   15 ar 
    16   14   16 ar 
    17   17   18 1  
    18   18   19 1  
    19   18   21 1  
    20   19   20 2  
    21   19   24 am 
    22   21   22 1  
    23   21   23 1  
    24   24   25 1  
    25   25   26 1  
    26   25   28 1  
    27   26   27 2  
    28   26   33 am 
    29   28   29 1  
    30   29   30 1  
    31   30   31 1  
    32   31   32 1  
    33   33   34 1  
    34   34   35 1  
    35   34   37 1  
    36   35   36 2  
    37   35   42 am 
    38   37   38 1  
    39   38   39 1  
    40   39   40 2  
    41   39   41 am 
    42   42   43 1  
    43   43   44 1  
    44   43   46 1  
    45   44   45 2  
    46   44   49 am 
    47   46   47 1  
    48   46   48 1  
    49   49   50 1  
    50   50   51 1  
    51   50   53 1  
    52   51   52 2  
    53   51   54 am 
    54   54   55 1  
    55   55   56 1  
    56   55   58 1  
    57   56   57 2  
    58   56   65 am 
    59   58   59 1  
    60   59   60 1  
    61   60   61 1  
    62   61   62 ar 
    63   62   63 ar 
    64   62   64 ar 
    65   65   66 1  
    66   66   67 1  
    67   66   72 1  
    68   67   68 1  
    69   68   69 1  
    70   69   70 1  
    71   70   71 1  
    72   71   74 1  
    73   71   75 1  
    74   71   76 1  
    75   72   73 2  
    76   72   77 am 
    77   77   78 1  
    78   78   79 1  
    79   78   81 1  
    80   79   80 2  
    81   79   83 am 
    82   81   82 1  
    83   83   84 1  
    84   84   85 1  
    85   84   87 1  
    86   85   86 ar 
    87   85   90 ar 
    88   87   88 1  
    89   87   89 1  
    90    1   91 1  
    91    1   92 1  
    92    1   93 1  
    93    2   94 1  
    94    5   95 1  
    95    5   96 1  
    96    5   97 1  
    97    6   98 1  
    98    7   99 1  
    99   10  100 1  
   100   10  101 1  
   101   11  102 1  
   102   11  103 1  
   103   12  104 1  
   104   12  105 1  
   105   13  106 1  
   106   15  107 1  
   107   15  108 1  
   108   16  109 1  
   109   16  110 1  
   110   17  111 1  
   111   18  112 1  
   112   21  113 1  
   113   22  114 1  
   114   23  115 1  
   115   23  116 1  
   116   23  117 1  
   117   24  118 1  
   118   25  119 1  
   119   28  120 1  
   120   28  121 1  
   121   29  122 1  
   122   29  123 1  
   123   30  124 1  
   124   30  125 1  
   125   31  126 1  
   126   31  127 1  
   127   32  128 1  
   128   32  129 1  
   129   32  130 1  
   130   33  131 1  
   131   34  132 1  
   132   37  133 1  
   133   37  134 1  
   134   38  135 1  
   135   38  136 1  
   136   41  137 1  
   137   41  138 1  
   138   42  139 1  
   139   43  140 1  
   140   46  141 1  
   141   47  142 1  
   142   48  143 1  
   143   48  144 1  
   144   48  145 1  
   145   49  146 1  
   146   50  147 1  
   147   53  148 1  
   148   53  149 1  
   149   53  150 1  
   150   54  151 1  
   151   55  152 1  
   152   58  153 1  
   153   58  154 1  
   154   59  155 1  
   155   59  156 1  
   156   60  157 1  
   157   60  158 1  
   158   61  159 1  
   159   63  160 1  
   160   63  161 1  
   161   64  162 1  
   162   64  163 1  
   163   65  164 1  
   164   66  165 1  
   165   67  166 1  
   166   67  167 1  
   167   68  168 1  
   168   68  169 1  
   169   69  170 1  
   170   69  171 1  
   171   70  172 1  
   172   70  173 1  
   173   74  174 1  
   174   74  175 1  
   175   74  176 1  
   176   75  177 1  
   177   75  178 1  
   178   75  179 1  
   179   76  180 1  
   180   76  181 1  
   181   76  182 1  
   182   77  183 1  
   183   78  184 1  
   184   81  185 1  
   185   81  186 1  
   186   82  187 1  
   187   83  188 1  
   188   84  189 1  
   189   87  190 1  
   190   88  191 1  
   191   89  192 1  
   192   89  193 1  
   193   89  194 1  
@<TRIPOS>SUBSTRUCTURE
     1 ALA         1

