4yhp_ligand
  -I-interpret- 

193192  0  0  0  0  0  0  0  0999 V2000
    8.2240  -18.7350  -14.1380 N   0  3  0  0  0
    6.8400  -18.4810  -13.7510 C   0  0  0  0  0
    5.8900  -19.4830  -14.3800 C   0  0  0  0  0
    6.0230  -19.8280  -15.5550 O   0  0  0  0  0
    6.4270  -17.0760  -14.1310 C   0  0  0  0  0
    4.9220  -19.9330  -13.5910 N   0  0  0  0  0
    3.8910  -20.8320  -14.0820 C   0  0  0  0  0
    2.5840  -20.0540  -14.1930 C   0  0  0  0  0
    1.6420  -20.2760  -13.4310 O   0  0  0  0  0
    3.7470  -22.0220  -13.1370 C   0  0  0  0  0
    5.0750  -22.5120  -12.5710 C   0  0  0  0  0
    5.2890  -23.9960  -12.8220 C   0  0  0  0  0
    4.1860  -24.8110  -12.3170 N   0  0  0  0  0
    3.8420  -25.9930  -12.8230 C   0  0  0  0  0
    2.8230  -26.6720  -12.3160 N   0  0  0  0  0
    4.5180  -26.4970  -13.8450 N   0  0  0  0  0
    2.5530  -19.1250  -15.1440 N   0  0  0  0  0
    1.4020  -18.2590  -15.3710 C   0  0  0  0  0
    0.4880  -18.8480  -16.4340 C   0  0  0  0  0
    0.9290  -19.6360  -17.2700 O   0  0  0  0  0
    1.8440  -16.8630  -15.8450 C   0  0  0  0  0
    3.2480  -16.8750  -16.1310 O   0  0  0  0  0
    1.5590  -15.8170  -14.7850 C   0  0  0  0  0
   -0.7850  -18.4640  -16.4040 N   0  0  0  0  0
   -1.7060  -18.8440  -17.4670 C   0  0  0  0  0
   -1.4530  -18.0010  -18.7030 C   0  0  0  0  0
   -1.3870  -16.7720  -18.6220 O   0  0  0  0  0
   -3.1590  -18.6470  -17.0310 C   0  0  0  0  0
   -3.7640  -19.8090  -16.2670 C   0  0  0  0  0
   -5.1900  -19.4830  -15.8620 C   0  0  0  0  0
   -5.8360  -20.6310  -15.1100 C   0  0  0  0  0
   -7.1230  -20.2040  -14.4980 N   0  3  0  0  0
   -1.3040  -18.6590  -19.8460 N   0  0  0  0  0
   -1.3410  -17.9560  -21.1180 C   0  0  0  0  0
   -2.6810  -18.2500  -21.7670 C   0  0  0  0  0
   -3.3050  -19.2680  -21.4660 O   0  0  0  0  0
   -0.1900  -18.3820  -22.0320 C   0  0  0  0  0
    1.1800  -17.8980  -21.5710 C   0  0  0  0  0
    2.2740  -18.1750  -22.5860 C   0  0  0  0  0
    2.4950  -19.3200  -22.9830 O   0  0  0  0  0
    2.9600  -17.1220  -23.0180 N   0  0  0  0  0
   -3.1250  -17.3460  -22.6360 N   0  0  0  0  0
   -4.3920  -17.4950  -23.3380 C   0  0  0  0  0
   -4.5230  -18.8530  -24.0160 C   0  0  0  0  0
   -3.5570  -19.3780  -24.5600 O   0  0  0  0  0
   -4.5630  -16.3940  -24.4010 C   0  0  0  0  0
   -5.5950  -16.7720  -25.3250 O   0  0  0  0  0
   -3.2660  -16.1740  -25.1560 C   0  0  0  0  0
   -5.7230  -19.4230  -23.9830 N   0  0  0  0  0
   -5.9810  -20.6710  -24.6900 C   0  0  0  0  0
   -6.0470  -20.4420  -26.2010 C   0  0  0  0  0
   -6.2650  -21.3850  -26.9660 O   0  0  0  0  0
   -7.2670  -21.3140  -24.1880 C   0  0  0  0  0
   -5.8780  -19.1840  -26.6120 N   0  0  0  0  0
   -5.8440  -18.7990  -28.0260 C   0  0  0  0  0
   -7.0650  -19.2720  -28.8220 C   0  0  0  0  0
   -6.9560  -19.6300  -29.9950 O   0  0  0  0  0
   -4.5430  -19.2830  -28.6750 C   0  0  0  0  0
   -3.2880  -18.7830  -27.9670 C   0  0  0  0  0
   -2.0490  -19.4740  -28.5000 C   0  0  0  0  0
   -1.6870  -19.0310  -29.8420 N   0  0  0  0  0
   -0.8700  -19.6990  -30.6500 C   0  0  0  0  0
   -0.3420  -20.8470  -30.2570 N   0  0  0  0  0
   -0.5870  -19.2240  -31.8510 N   0  0  0  0  0
   -8.2260  -19.2640  -28.1740 N   0  0  0  0  0
   -9.4910  -19.6330  -28.8370 C   0  0  0  0  0
  -10.5230  -20.1810  -27.7860 C   0  0  0  0  0
  -10.2030  -21.6480  -27.4920 C   0  0  0  0  0
  -11.4620  -22.3350  -26.9370 C   0  0  0  0  0
  -11.0580  -23.2670  -25.8020 C   0  0  0  0  0
  -12.1570  -24.2190  -25.4990 N   0  3  0  0  0
  -10.0660  -18.4760  -29.6280 C   0  0  0  0  0
  -11.0000  -18.6890  -30.4560 O   0  0  0  0  0
  -11.8120  -24.9280  -24.3020 C   0  0  0  0  0
  -13.3920  -23.4960  -25.2760 C   0  0  0  0  0
  -12.3240  -25.1240  -26.5710 C   0  0  0  0  0
   -9.5540  -17.2670  -29.4050 N   0  0  0  0  0
  -10.1860  -16.0800  -29.9790 C   0  0  0  0  0
   -9.2690  -14.8670  -30.1720 C   0  0  0  0  0
   -8.9390  -14.1750  -29.2050 O   0  0  0  0  0
  -11.3770  -15.6620  -29.1130 C   0  0  0  0  0
  -10.9350  -15.0820  -27.8970 O   0  0  0  0  0
   -8.8730  -14.6300  -31.4240 N   0  0  0  0  0
   -8.3310  -13.3430  -31.8940 C   0  0  0  0  0
   -8.0540  -13.3980  -33.3950 C   0  0  0  0  0
   -8.7910  -14.0380  -34.1470 O   0  0  0  0  0
   -7.0480  -12.8790  -31.1590 C   0  0  0  0  0
   -7.3760  -12.4910  -29.8180 O   0  0  0  0  0
   -6.4360  -11.6790  -31.8740 C   0  0  0  0  0
   -7.0890  -12.8030  -33.8780 O   0  0  0  0  0
    8.4809  -19.6859  -13.8729 H   0  0  0  0  0
    8.3192  -18.6247  -15.1475 H   0  0  0  0  0
    8.8359  -18.0713  -13.6631 H   0  0  0  0  0
    6.7827  -18.5906  -12.6680 H   0  0  0  0  0
    6.4569  -16.9707  -15.2155 H   0  0  0  0  0
    5.4145  -16.8872  -13.7741 H   0  0  0  0  0
    7.1131  -16.3615  -13.6762 H   0  0  0  0  0
    4.9012  -19.6401  -12.6142 H   0  0  0  0  0
    4.1599  -21.2199  -15.0645 H   0  0  0  0  0
    3.3107  -22.8424  -13.7068 H   0  0  0  0  0
    3.1309  -21.7011  -12.2970 H   0  0  0  0  0
    5.0679  -22.3463  -11.4937 H   0  0  0  0  0
    5.8781  -21.9640  -13.0637 H   0  0  0  0  0
    6.1977  -24.2985  -12.3016 H   0  0  0  0  0
    5.3564  -24.1497  -13.8990 H   0  0  0  0  0
    3.6470  -24.4522  -11.5289 H   0  0  0  0  0
    2.5644  -27.5755  -12.7126 H   0  0  0  0  0
    2.2974  -26.2911  -11.5292 H   0  0  0  0  0
    5.3013  -25.9792  -14.2434 H   0  0  0  0  0
    3.3717  -19.0131  -15.7420 H   0  0  0  0  0
    0.8721  -18.1763  -14.4221 H   0  0  0  0  0
    1.2818  -16.6118  -16.7444 H   0  0  0  0  0
    3.5207  -16.0032  -16.4263 H   0  0  0  0  0
    0.4893  -15.7948  -14.5766 H   0  0  0  0  0
    2.1028  -16.0671  -13.8741 H   0  0  0  0  0
    1.8807  -14.8397  -15.1450 H   0  0  0  0  0
   -1.1210  -17.8959  -15.6264 H   0  0  0  0  0
   -1.5377  -19.8976  -17.6900 H   0  0  0  0  0
   -3.7469  -18.5296  -17.9414 H   0  0  0  0  0
   -3.1716  -17.7888  -16.3591 H   0  0  0  0  0
   -3.1717  -19.9944  -15.3709 H   0  0  0  0  0
   -3.7671  -20.6929  -16.9048 H   0  0  0  0  0
   -5.7694  -19.2954  -16.7660 H   0  0  0  0  0
   -5.1704  -18.6116  -15.2076 H   0  0  0  0  0
   -5.1612  -20.9564  -14.3182 H   0  0  0  0  0
   -6.0320  -21.4434  -15.8098 H   0  0  0  0  0
   -7.5382  -20.9906  -13.9987 H   0  0  0  0  0
   -6.9507  -19.4387  -13.8460 H   0  0  0  0  0
   -7.7594  -19.8909  -15.2311 H   0  0  0  0  0
   -1.1620  -19.6690  -19.8318 H   0  0  0  0  0
   -1.2230  -16.8855  -20.9500 H   0  0  0  0  0
   -0.3754  -17.9418  -23.0118 H   0  0  0  0  0
   -0.1643  -19.4717  -22.0329 H   0  0  0  0  0
    1.4318  -18.4321  -20.6548 H   0  0  0  0  0
    1.1222  -16.8189  -21.4287 H   0  0  0  0  0
    3.7033  -17.2447  -23.7056 H   0  0  0  0  0
    2.7432  -16.1911  -22.6620 H   0  0  0  0  0
   -2.5572  -16.5182  -22.8172 H   0  0  0  0  0
   -5.1718  -17.4092  -22.5812 H   0  0  0  0  0
   -4.8384  -15.4665  -23.8990 H   0  0  0  0  0
   -5.6989  -16.0837  -25.9860 H   0  0  0  0  0
   -2.4866  -15.8720  -24.4564 H   0  0  0  0  0
   -2.9732  -17.1003  -25.6504 H   0  0  0  0  0
   -3.4094  -15.3922  -25.9019 H   0  0  0  0  0
   -6.4749  -18.9803  -23.4548 H   0  0  0  0  0
   -5.1533  -21.3510  -24.4884 H   0  0  0  0  0
   -7.1751  -21.5232  -23.1222 H   0  0  0  0  0
   -8.1015  -20.6331  -24.3553 H   0  0  0  0  0
   -7.4415  -22.2444  -24.7284 H   0  0  0  0  0
   -5.7670  -18.4544  -25.9079 H   0  0  0  0  0
   -5.8796  -17.7099  -28.0525 H   0  0  0  0  0
   -4.5210  -18.8958  -29.6937 H   0  0  0  0  0
   -4.5364  -20.3718  -28.6239 H   0  0  0  0  0
   -3.3780  -19.0003  -26.9027 H   0  0  0  0  0
   -3.1923  -17.7114  -28.1420 H   0  0  0  0  0
   -2.2571  -20.5429  -28.5464 H   0  0  0  0  0
   -1.2202  -19.2330  -27.8343 H   0  0  0  0  0
   -2.0852  -18.1552  -30.1809 H   0  0  0  0  0
    0.2806  -21.3617  -30.8798 H   0  0  0  0  0
   -0.5576  -21.2171  -29.3313 H   0  0  0  0  0
   -0.9961  -18.3422  -32.1601 H   0  0  0  0  0
   -8.2424  -18.9950  -27.1902 H   0  0  0  0  0
   -9.2772  -20.4290  -29.5503 H   0  0  0  0  0
  -11.5337  -20.0982  -28.1856 H   0  0  0  0  0
  -10.4560  -19.5988  -26.8669 H   0  0  0  0  0
   -9.3985  -21.7085  -26.7590 H   0  0  0  0  0
   -9.8872  -22.1457  -28.4089 H   0  0  0  0  0
  -11.9476  -22.9071  -27.7276 H   0  0  0  0  0
  -12.1579  -21.5829  -26.5653 H   0  0  0  0  0
  -10.8469  -22.6732  -24.9126 H   0  0  0  0  0
  -10.1734  -23.8291  -26.1015 H   0  0  0  0  0
  -10.8779  -25.4678  -24.4574 H   0  0  0  0  0
  -11.6913  -24.2188  -23.4831 H   0  0  0  0  0
  -12.6053  -25.6347  -24.0584 H   0  0  0  0  0
  -13.2656  -22.8142  -24.4350 H   0  0  0  0  0
  -13.6457  -22.9279  -26.1710 H   0  0  0  0  0
  -14.1909  -24.2037  -25.0547 H   0  0  0  0  0
  -12.5689  -24.5704  -27.4774 H   0  0  0  0  0
  -11.3991  -25.6805  -26.7224 H   0  0  0  0  0
  -13.1323  -25.8169  -26.3373 H   0  0  0  0  0
   -8.7167  -17.1686  -28.8309 H   0  0  0  0  0
  -10.4898  -16.3840  -30.9807 H   0  0  0  0  0
  -11.9736  -16.5453  -28.8851 H   0  0  0  0  0
  -11.9683  -14.9269  -29.6590 H   0  0  0  0  0
  -11.6960  -14.8275  -27.3700 H   0  0  0  0  0
   -8.9506  -15.3897  -32.1002 H   0  0  0  0  0
   -9.1033  -12.6084  -31.6658 H   0  0  0  0  0
   -6.3352  -13.7035  -31.1503 H   0  0  0  0  0
   -6.5796  -12.2041  -29.3652 H   0  0  0  0  0
   -6.1810  -11.9581  -32.8963 H   0  0  0  0  0
   -7.1555  -10.8604  -31.8882 H   0  0  0  0  0
   -5.5356  -11.3639  -31.3467 H   0  0  0  0  0
   -6.6099  -12.3521  -33.1789 H   0  0  0  0  0
  1  2  1  0  0  0
  2  3  1  0  0  0
  2  5  1  0  0  0
  3  4  2  0  0  0
  3  6  1  0  0  0
  6  7  1  0  0  0
  7  8  1  0  0  0
  7 10  1  0  0  0
  8  9  2  0  0  0
  8 17  1  0  0  0
 10 11  1  0  0  0
 11 12  1  0  0  0
 12 13  1  0  0  0
 13 14  1  0  0  0
 14 15  1  0  0  0
 14 16  2  0  0  0
 17 18  1  0  0  0
 18 19  1  0  0  0
 18 21  1  0  0  0
 19 20  2  0  0  0
 19 24  1  0  0  0
 21 22  1  0  0  0
 21 23  1  0  0  0
 24 25  1  0  0  0
 25 26  1  0  0  0
 25 28  1  0  0  0
 26 27  2  0  0  0
 26 33  1  0  0  0
 28 29  1  0  0  0
 29 30  1  0  0  0
 30 31  1  0  0  0
 31 32  1  0  0  0
 33 34  1  0  0  0
 34 35  1  0  0  0
 34 37  1  0  0  0
 35 36  2  0  0  0
 35 42  1  0  0  0
 37 38  1  0  0  0
 38 39  1  0  0  0
 39 40  2  0  0  0
 39 41  1  0  0  0
 42 43  1  0  0  0
 43 44  1  0  0  0
 43 46  1  0  0  0
 44 45  2  0  0  0
 44 49  1  0  0  0
 46 47  1  0  0  0
 46 48  1  0  0  0
 49 50  1  0  0  0
 50 51  1  0  0  0
 50 53  1  0  0  0
 51 52  2  0  0  0
 51 54  1  0  0  0
 54 55  1  0  0  0
 55 56  1  0  0  0
 55 58  1  0  0  0
 56 57  2  0  0  0
 56 65  1  0  0  0
 58 59  1  0  0  0
 59 60  1  0  0  0
 60 61  1  0  0  0
 61 62  1  0  0  0
 62 63  1  0  0  0
 62 64  2  0  0  0
 65 66  1  0  0  0
 66 67  1  0  0  0
 66 72  1  0  0  0
 67 68  1  0  0  0
 68 69  1  0  0  0
 69 70  1  0  0  0
 70 71  1  0  0  0
 71 74  1  0  0  0
 71 75  1  0  0  0
 71 76  1  0  0  0
 72 73  2  0  0  0
 72 77  1  0  0  0
 77 78  1  0  0  0
 78 79  1  0  0  0
 78 81  1  0  0  0
 79 80  2  0  0  0
 79 83  1  0  0  0
 81 82  1  0  0  0
 83 84  1  0  0  0
 84 85  1  0  0  0
 84 87  1  0  0  0
 85 86  2  0  0  0
 85 90  1  0  0  0
 87 88  1  0  0  0
 87 89  1  0  0  0
  1 91  1  0  0  0
  1 92  1  0  0  0
  1 93  1  0  0  0
  2 94  1  0  0  0
  5 95  1  0  0  0
  5 96  1  0  0  0
  5 97  1  0  0  0
  6 98  1  0  0  0
  7 99  1  0  0  0
 10100  1  0  0  0
 10101  1  0  0  0
 11102  1  0  0  0
 11103  1  0  0  0
 12104  1  0  0  0
 12105  1  0  0  0
 13106  1  0  0  0
 15107  1  0  0  0
 15108  1  0  0  0
 16109  1  0  0  0
 17110  1  0  0  0
 18111  1  0  0  0
 21112  1  0  0  0
 22113  1  0  0  0
 23114  1  0  0  0
 23115  1  0  0  0
 23116  1  0  0  0
 24117  1  0  0  0
 25118  1  0  0  0
 28119  1  0  0  0
 28120  1  0  0  0
 29121  1  0  0  0
 29122  1  0  0  0
 30123  1  0  0  0
 30124  1  0  0  0
 31125  1  0  0  0
 31126  1  0  0  0
 32127  1  0  0  0
 32128  1  0  0  0
 32129  1  0  0  0
 33130  1  0  0  0
 34131  1  0  0  0
 37132  1  0  0  0
 37133  1  0  0  0
 38134  1  0  0  0
 38135  1  0  0  0
 41136  1  0  0  0
 41137  1  0  0  0
 42138  1  0  0  0
 43139  1  0  0  0
 46140  1  0  0  0
 47141  1  0  0  0
 48142  1  0  0  0
 48143  1  0  0  0
 48144  1  0  0  0
 49145  1  0  0  0
 50146  1  0  0  0
 53147  1  0  0  0
 53148  1  0  0  0
 53149  1  0  0  0
 54150  1  0  0  0
 55151  1  0  0  0
 58152  1  0  0  0
 58153  1  0  0  0
 59154  1  0  0  0
 59155  1  0  0  0
 60156  1  0  0  0
 60157  1  0  0  0
 61158  1  0  0  0
 63159  1  0  0  0
 63160  1  0  0  0
 64161  1  0  0  0
 65162  1  0  0  0
 66163  1  0  0  0
 67164  1  0  0  0
 67165  1  0  0  0
 68166  1  0  0  0
 68167  1  0  0  0
 69168  1  0  0  0
 69169  1  0  0  0
 70170  1  0  0  0
 70171  1  0  0  0
 74172  1  0  0  0
 74173  1  0  0  0
 74174  1  0  0  0
 75175  1  0  0  0
 75176  1  0  0  0
 75177  1  0  0  0
 76178  1  0  0  0
 76179  1  0  0  0
 76180  1  0  0  0
 77181  1  0  0  0
 78182  1  0  0  0
 81183  1  0  0  0
 81184  1  0  0  0
 82185  1  0  0  0
 83186  1  0  0  0
 84187  1  0  0  0
 87188  1  0  0  0
 88189  1  0  0  0
 89190  1  0  0  0
 89191  1  0  0  0
 89192  1  0  0  0
 90193  1  0  0  0
M  END
$$$$
