3nsn_ligand
  -I-interpret- 

116119  0  0  0  0  0  0  0  0999 V2000
   35.9850    2.6440   13.2710 C   0  0  0  0  0
   37.4400    2.9630   13.6510 C   0  0  0  0  0
   37.6890    4.3940   13.4050 N   0  0  0  0  0
   37.7810    5.3260   14.3750 C   0  0  0  0  0
   37.9820    6.5250   14.1590 O   0  0  0  0  0
   37.6120    4.8310   15.8020 C   0  0  0  0  0
   38.4290    2.1210   12.8210 C   0  0  0  0  0
   39.7680    2.2530   13.3470 O   0  0  0  0  0
   38.0470    0.6260   12.7630 C   0  0  0  0  0
   38.8480    0.0420   11.7290 O   0  0  0  0  0
   36.5520    0.4830   12.4340 C   0  0  0  0  0
   35.7590    1.2360   13.3660 O   0  0  0  0  0
   36.0990   -0.9650   12.5820 C   0  0  0  0  0
   34.8110   -1.1020   12.0000 O   0  0  0  0  0
   31.0540    4.1730   14.6930 C   0  0  0  0  0
   31.3750    2.7020   14.5150 C   0  0  0  0  0
   30.6630    1.9200   15.5410 N   0  0  0  0  0
   29.5660    1.1990   15.2590 C   0  0  0  0  0
   29.0610    1.1150   14.1390 O   0  0  0  0  0
   28.9570    0.4550   16.4560 C   0  0  0  0  0
   32.8820    2.4440   14.6310 C   0  0  0  0  0
   33.1420    1.0820   14.2590 O   0  0  0  0  0
   33.7160    3.3750   13.7290 C   0  0  0  0  0
   35.0900    3.3380   14.1740 O   0  0  0  0  0
   33.2120    4.8270   13.7830 C   0  0  0  0  0
   31.7650    4.9190   13.6970 O   0  0  0  0  0
   33.7690    5.5840   12.5810 C   0  0  0  0  0
   34.1450    6.8880   13.0020 O   0  0  0  0  0
   27.9930    8.0450   16.0110 C   0  0  0  0  0
   26.9210    8.5050   16.8530 O   0  0  0  0  0
   29.0920    7.3370   16.8850 C   0  0  0  0  0
   30.2920    8.2070   16.8850 N   0  0  0  0  0
   31.2640    8.1770   17.8210 C   0  0  0  0  0
   31.2920    7.4130   18.7870 O   0  0  0  0  0
   32.3900    9.1880   17.5990 C   0  0  0  0  0
   29.4840    5.8560   16.4890 C   0  0  0  0  0
   29.1590    4.9680   17.5770 O   0  0  0  0  0
   28.8330    5.3350   15.1820 C   0  0  0  0  0
   29.6420    4.3370   14.4500 O   0  0  0  0  0
   28.4830    6.5180   14.2880 C   0  0  0  0  0
   27.4360    7.2330   14.9430 O   0  0  0  0  0
   28.0510    6.0500   12.9000 C   0  0  0  0  0
   29.1920    6.1280   12.0460 O   0  0  0  0  0
   39.2880   -1.3360   11.9010 C   0  0  0  0  0
   40.2860   -1.6910   10.7400 C   0  0  0  0  0
   40.2100   -3.1160   10.2670 N   0  3  0  0  0
   41.7390   -1.1950   11.0580 C   0  0  0  0  0
   42.2240   -0.3680    9.9830 O   0  0  0  0  0
   41.8210   -0.4130   12.3710 C   0  0  0  0  0
   43.1980   -0.1200   12.6430 O   0  0  0  0  0
   41.2170   -1.2510   13.5070 C   0  0  0  0  0
   39.8250   -1.6150   13.2390 O   0  0  0  0  0
   41.2770   -0.5020   14.8350 C   0  0  0  0  0
   40.8730   -1.3900   15.8850 O   0  0  0  0  0
   38.9190   -3.3920    9.6250 C   0  0  0  0  0
   40.3760   -4.1200   11.3310 C   0  0  0  0  0
   41.2380   -3.3960    9.2470 C   0  0  0  0  0
   35.7989    2.9700   12.2477 H   0  0  0  0  0
   37.5901    2.7226   14.7035 H   0  0  0  0  0
   37.7989    4.6996   12.4381 H   0  0  0  0  0
   38.5134    5.0556   16.3723 H   0  0  0  0  0
   36.7574    5.3296   16.2594 H   0  0  0  0  0
   37.4444    3.7540   15.7942 H   0  0  0  0  0
   38.3845    2.5098   11.8037 H   0  0  0  0  0
   40.0062    3.1823   13.3833 H   0  0  0  0  0
   38.2231    0.1294   13.7172 H   0  0  0  0  0
   36.4206    0.8375   11.4117 H   0  0  0  0  0
   36.0584   -1.2338   13.6376 H   0  0  0  0  0
   36.8044   -1.6264   12.0790 H   0  0  0  0  0
   34.5164   -2.0114   12.0881 H   0  0  0  0  0
   31.3299    4.5147   15.6906 H   0  0  0  0  0
   31.0526    2.3982   13.5191 H   0  0  0  0  0
   31.0155    1.9266   16.4981 H   0  0  0  0  0
   27.9333    0.7957   16.6113 H   0  0  0  0  0
   28.9582   -0.6163   16.2551 H   0  0  0  0  0
   29.5486    0.6593   17.3484 H   0  0  0  0  0
   33.1742    2.6418   15.6623 H   0  0  0  0  0
   34.0834    0.9069   14.3273 H   0  0  0  0  0
   33.6248    3.0265   12.7003 H   0  0  0  0  0
   33.5398    5.2425   14.7359 H   0  0  0  0  0
   33.0115    5.6498   11.8000 H   0  0  0  0  0
   34.6360    5.0586   12.1804 H   0  0  0  0  0
   34.4976    7.3754   12.2538 H   0  0  0  0  0
   28.5088    8.8725   15.5239 H   0  0  0  0  0
   26.2541    8.9359   16.3134 H   0  0  0  0  0
   28.6519    7.2127   17.8744 H   0  0  0  0  0
   30.3904    8.8770   16.1223 H   0  0  0  0  0
   32.4503    9.8571   18.4574 H   0  0  0  0  0
   33.3352    8.6576   17.4831 H   0  0  0  0  0
   32.1842    9.7673   16.6989 H   0  0  0  0  0
   30.5563    5.8754   16.2945 H   0  0  0  0  0
   29.3967    4.0694   17.3371 H   0  0  0  0  0
   27.9300    4.7991   15.4744 H   0  0  0  0  0
   29.3509    7.1599   14.1370 H   0  0  0  0  0
   27.2464    6.6790   12.5192 H   0  0  0  0  0
   27.6760    5.0274   12.9423 H   0  0  0  0  0
   28.9499    5.8388   11.1632 H   0  0  0  0  0
   38.4213   -1.9936   11.8336 H   0  0  0  0  0
   39.9510   -1.1275    9.8691 H   0  0  0  0  0
   42.3598   -2.0847   11.1636 H   0  0  0  0  0
   43.1134   -0.0694   10.1867 H   0  0  0  0  0
   41.2601    0.5183   12.2927 H   0  0  0  0  0
   43.2631    0.3711   13.4653 H   0  0  0  0  0
   41.8152   -2.1602   13.5677 H   0  0  0  0  0
   40.6105    0.3599   14.8033 H   0  0  0  0  0
   42.2937   -0.1535   15.0168 H   0  0  0  0  0
   40.9077   -0.9269   16.7252 H   0  0  0  0  0
   38.1147   -3.2181   10.3398 H   0  0  0  0  0
   38.7931   -2.7321    8.7667 H   0  0  0  0  0
   38.8941   -4.4301    9.2936 H   0  0  0  0  0
   41.3512   -3.9919   11.8007 H   0  0  0  0  0
   39.5921   -3.9899   12.0771 H   0  0  0  0  0
   40.3071   -5.1189   10.9002 H   0  0  0  0  0
   41.0884   -2.7370    8.3917 H   0  0  0  0  0
   42.2266   -3.2228    9.6722 H   0  0  0  0  0
   41.1561   -4.4344    8.9259 H   0  0  0  0  0
  1  2  1  0  0  0
  1 12  1  0  0  0
 24  1  1  0  0  0
  2  3  1  0  0  0
  2  7  1  0  0  0
  3  4  1  0  0  0
  4  5  2  0  0  0
  4  6  1  0  0  0
  7  8  1  0  0  0
  7  9  1  0  0  0
  9 10  1  0  0  0
 11  9  1  0  0  0
 10 44  1  0  0  0
 12 11  1  0  0  0
 11 13  1  0  0  0
 13 14  1  0  0  0
 15 16  1  0  0  0
 15 26  1  0  0  0
 39 15  1  0  0  0
 16 17  1  0  0  0
 16 21  1  0  0  0
 17 18  1  0  0  0
 18 19  2  0  0  0
 18 20  1  0  0  0
 21 22  1  0  0  0
 21 23  1  0  0  0
 23 24  1  0  0  0
 25 23  1  0  0  0
 26 25  1  0  0  0
 25 27  1  0  0  0
 27 28  1  0  0  0
 29 30  1  0  0  0
 31 29  1  0  0  0
 29 41  1  0  0  0
 31 32  1  0  0  0
 36 31  1  0  0  0
 32 33  1  0  0  0
 33 34  2  0  0  0
 33 35  1  0  0  0
 36 37  1  0  0  0
 38 36  1  0  0  0
 38 39  1  0  0  0
 38 40  1  0  0  0
 40 41  1  0  0  0
 40 42  1  0  0  0
 42 43  1  0  0  0
 44 45  1  0  0  0
 44 52  1  0  0  0
 45 46  1  0  0  0
 45 47  1  0  0  0
 46 55  1  0  0  0
 46 56  1  0  0  0
 46 57  1  0  0  0
 47 48  1  0  0  0
 47 49  1  0  0  0
 49 50  1  0  0  0
 49 51  1  0  0  0
 51 52  1  0  0  0
 51 53  1  0  0  0
 53 54  1  0  0  0
  1 58  1  0  0  0
  2 59  1  0  0  0
  3 60  1  0  0  0
  6 61  1  0  0  0
  6 62  1  0  0  0
  6 63  1  0  0  0
  7 64  1  0  0  0
  8 65  1  0  0  0
  9 66  1  0  0  0
 11 67  1  0  0  0
 13 68  1  0  0  0
 13 69  1  0  0  0
 14 70  1  0  0  0
 15 71  1  0  0  0
 16 72  1  0  0  0
 17 73  1  0  0  0
 20 74  1  0  0  0
 20 75  1  0  0  0
 20 76  1  0  0  0
 21 77  1  0  0  0
 22 78  1  0  0  0
 23 79  1  0  0  0
 25 80  1  0  0  0
 27 81  1  0  0  0
 27 82  1  0  0  0
 28 83  1  0  0  0
 29 84  1  0  0  0
 30 85  1  0  0  0
 31 86  1  0  0  0
 32 87  1  0  0  0
 35 88  1  0  0  0
 35 89  1  0  0  0
 35 90  1  0  0  0
 36 91  1  0  0  0
 37 92  1  0  0  0
 38 93  1  0  0  0
 40 94  1  0  0  0
 42 95  1  0  0  0
 42 96  1  0  0  0
 43 97  1  0  0  0
 44 98  1  0  0  0
 45 99  1  0  0  0
 47100  1  0  0  0
 48101  1  0  0  0
 49102  1  0  0  0
 50103  1  0  0  0
 51104  1  0  0  0
 53105  1  0  0  0
 53106  1  0  0  0
 54107  1  0  0  0
 55108  1  0  0  0
 55109  1  0  0  0
 55110  1  0  0  0
 56111  1  0  0  0
 56112  1  0  0  0
 56113  1  0  0  0
 57114  1  0  0  0
 57115  1  0  0  0
 57116  1  0  0  0
M  END
$$$$
