### 
### Created by X-TOOL on Mon Sep 10 21:13:15 2018
### 

@<TRIPOS>MOLECULE
3zn1_ligand
  116   117     1     0     0
SMALL
GAST_HUCK


@<TRIPOS>ATOM
      1 N           0.2600   54.3780   84.0190 N.4       1 PRO         0.2461
      2 CA          0.3380   53.0870   84.6900 C.3       1 PRO         0.0670
      3 C          -0.1720   51.9420   83.8100 C.2       1 PRO         0.2268
      4 O          -0.7100   52.1820   82.7260 O.2       1 PRO        -0.3907
      5 CB         -0.5810   53.2790   85.8950 C.3       1 PRO         0.0127
      6 CG         -1.6240   54.2270   85.4060 C.3       1 PRO        -0.0053
      7 CD         -0.9340   55.1410   84.4280 C.3       1 PRO        -0.0313
      8 N          -0.0140   50.7110   84.2920 N.am      1 ARG        -0.2610
      9 CA         -0.4310   49.5200   83.5550 C.3       1 ARG         0.1312
     10 C          -1.9520   49.4110   83.3970 C.2       1 ARG         0.2039
     11 O          -2.4330   48.7020   82.5140 O.2       1 ARG        -0.3944
     12 CB          0.1100   48.2690   84.2470 C.3       1 ARG        -0.0092
     13 CG          0.3050   47.0800   83.3250 C.3       1 ARG        -0.0156
     14 CD          0.4820   45.7990   84.1170 C.3       1 ARG         0.0627
     15 NE          1.3320   44.8400   83.4110 N.pl3     1 ARG        -0.2723
     16 CZ          2.6190   44.6260   83.6830 C.cat     1 ARG         0.2882
     17 NH1         3.2210   45.2960   84.6600 N.pl3     1 ARG        -0.2849
     18 NH2         3.3070   43.7330   82.9800 N.pl3     1 ARG        -0.2849
     19 N          -2.6960   50.1220   84.2430 N.am      1 LEU        -0.2637
     20 CA         -4.1610   50.0090   84.3080 C.3       1 LEU         0.1312
     21 C          -4.8670   50.2780   82.9810 C.2       1 LEU         0.2040
     22 O          -5.9090   49.6810   82.7010 O.2       1 LEU        -0.3944
     23 CB         -4.7530   50.9480   85.3740 C.3       1 LEU        -0.0101
     24 CG         -4.0280   51.3240   86.6740 C.3       1 LEU        -0.0425
     25 CD1        -4.9650   52.1360   87.5590 C.3       1 LEU        -0.0625
     26 CD2        -3.4700   50.1250   87.4380 C.3       1 LEU        -0.0625
     27 N          -4.3030   51.1770   82.1750 N.am      1 TYR        -0.2621
     28 CA         -4.9750   51.6520   80.9630 C.3       1 TYR         0.1390
     29 C          -4.7840   50.7650   79.7380 C.2       1 TYR         0.2057
     30 O          -5.4900   50.9400   78.7400 O.2       1 TYR        -0.3942
     31 CB         -4.5770   53.0970   80.6460 C.3       1 TYR         0.0163
     32 CG         -5.0380   54.0780   81.6930 C.ar      1 TYR        -0.0493
     33 CD1        -6.3990   54.3320   81.8850 C.ar      1 TYR        -0.0685
     34 CD2        -4.1180   54.7450   82.5000 C.ar      1 TYR        -0.0685
     35 CE1        -6.8300   55.2210   82.8530 C.ar      1 TYR        -0.0398
     36 CE2        -4.5410   55.6380   83.4690 C.ar      1 TYR        -0.0398
     37 CZ         -5.8950   55.8710   83.6390 C.ar      1 TYR         0.0805
     38 OH         -6.3160   56.7550   84.5990 O.3       1 TYR        -0.3376
     39 N          -3.8410   49.8220   79.8180 N.am      1 LEU        -0.2636
     40 CA         -3.5710   48.8860   78.7220 C.3       1 LEU         0.1312
     41 C          -4.8380   48.2850   78.1330 C.2       1 LEU         0.2034
     42 O          -5.6400   47.6620   78.8360 O.2       1 LEU        -0.3944
     43 CB         -2.6250   47.7670   79.1560 C.3       1 LEU        -0.0101
     44 CG         -1.1670   47.9040   78.7280 C.3       1 LEU        -0.0425
     45 CD1        -0.3760   46.7010   79.2120 C.3       1 LEU        -0.0625
     46 CD2        -1.0490   48.0470   77.2210 C.3       1 LEU        -0.0625
     47 N          -5.0000   48.4940   76.8320 N.am      1 VAL        -0.2692
     48 CA         -6.1490   48.0000   76.0910 C.3       1 VAL         0.0967
     49 C          -6.0130   46.5000   75.8400 C.2       1 VAL         0.0603
     50 O          -4.9154   45.9834   75.4994 O.co2     1 VAL        -0.5666
     51 CB         -6.3210   48.7880   74.7780 C.3       1 VAL        -0.0118
     52 CG1        -7.0690   47.9800   73.7320 C.3       1 VAL        -0.0590
     53 CG2        -7.0260   50.1060   75.0580 C.3       1 VAL        -0.0590
     54 O          -7.0237   45.7602   75.9770 O.co2     1 VAL        -0.5666
     55 H1          0.2237   54.2257   83.0232 H         1 PRO         0.2035
     56 H2          1.0827   54.9138   84.2473 H         1 PRO         0.2035
     57 H3          1.3696   52.8721   85.0057 H         1 PRO         0.1099
     58 H4         -0.0286   53.7091   86.7434 H         1 PRO         0.0347
     59 H5         -1.0329   52.3231   86.1984 H         1 PRO         0.0347
     60 H6         -2.0359   54.8071   86.2450 H         1 PRO         0.0320
     61 H7         -2.4356   53.6772   84.9070 H         1 PRO         0.0320
     62 H8         -1.5809   55.3504   83.5633 H         1 PRO         0.0814
     63 H9         -0.6485   56.0876   84.9101 H         1 PRO         0.0814
     64 H10         0.4059   50.5971   85.1924 H         1 ARG         0.1884
     65 H11         0.0076   49.5775   82.5479 H         1 ARG         0.0800
     66 H12        -0.5979   47.9793   85.0376 H         1 ARG         0.0313
     67 H13         1.0818   48.5180   84.6982 H         1 ARG         0.0313
     68 H14         1.1997   47.2471   82.7074 H         1 ARG         0.0301
     69 H15        -0.5765   46.9813   82.6744 H         1 ARG         0.0301
     70 H16        -0.5054   45.3442   84.2849 H         1 ARG         0.0689
     71 H17         0.9444   46.0396   85.0857 H         1 ARG         0.0689
     72 H18         0.9058   44.2917   82.6503 H         1 ARG         0.2642
     73 H19         4.2160   45.1253   84.8645 H         1 ARG         0.2615
     74 H20         2.6927   45.9860   85.2128 H         1 ARG         0.2615
     75 H21         2.8471   43.2099   82.2212 H         1 ARG         0.2615
     76 H22         4.3003   43.5638   83.1937 H         1 ARG         0.2615
     77 H23        -2.2381   50.7608   84.8612 H         1 LEU         0.1883
     78 H24        -4.3898   48.9737   84.6010 H         1 LEU         0.0800
     79 H25        -5.7038   50.4892   85.6830 H         1 LEU         0.0315
     80 H26        -4.9549   51.8981   84.8578 H         1 LEU         0.0315
     81 H27        -3.1747   51.9631   86.4030 H         1 LEU         0.0298
     82 H28        -4.4468   52.4061   88.4909 H         1 LEU         0.0232
     83 H29        -5.8567   51.5370   87.7957 H         1 LEU         0.0232
     84 H30        -5.2681   53.0513   87.0295 H         1 LEU         0.0232
     85 H31        -2.7971   49.5532   86.7821 H         1 LEU         0.0232
     86 H32        -4.2991   49.4801   87.7645 H         1 LEU         0.0232
     87 H33        -2.9118   50.4781   88.3176 H         1 LEU         0.0232
     88 H34        -3.3982   51.5365   82.4033 H         1 TYR         0.1885
     89 H35        -6.0525   51.6514   81.1844 H         1 TYR         0.0821
     90 H36        -5.0224   53.3795   79.6807 H         1 TYR         0.0453
     91 H37        -3.4807   53.1508   80.5738 H         1 TYR         0.0453
     92 H38        -7.1287   53.8239   81.2650 H         1 TYR         0.0530
     93 H39        -3.0579   54.5620   82.3670 H         1 TYR         0.0530
     94 H40        -7.8886   55.4065   82.9943 H         1 TYR         0.0525
     95 H41        -3.8168   56.1517   84.0909 H         1 TYR         0.0525
     96 H42        -5.9524   57.6138   84.4183 H         1 TYR         0.2458
     97 H43        -3.2996   49.7519   80.6558 H         1 LEU         0.1883
     98 H44        -3.0727   49.4561   77.9241 H         1 LEU         0.0800
     99 H45        -3.0086   46.8243   78.7386 H         1 LEU         0.0315
    100 H46        -2.6475   47.7176   80.2546 H         1 LEU         0.0315
    101 H47        -0.7503   48.8088   79.1946 H         1 LEU         0.0298
    102 H48         0.6742   46.8037   78.9014 H         1 LEU         0.0232
    103 H49        -0.7993   45.7842   78.7758 H         1 LEU         0.0232
    104 H50        -0.4300   46.6439   80.3092 H         1 LEU         0.0232
    105 H51        -1.6273   48.9220   76.8893 H         1 LEU         0.0232
    106 H52        -1.4422   47.1420   76.7349 H         1 LEU         0.0232
    107 H53         0.0079   48.1807   76.9470 H         1 LEU         0.0232
    108 H54        -4.3013   49.0138   76.3404 H         1 VAL         0.1875
    109 H55        -7.0487   48.1612   76.7031 H         1 VAL         0.0729
    110 H56        -5.3203   49.0110   74.3795 H         1 VAL         0.0336
    111 H57        -7.1709   48.5753   72.8127 H         1 VAL         0.0234
    112 H58        -8.0676   47.7211   74.1137 H         1 VAL         0.0234
    113 H59        -6.5103   47.0584   73.5119 H         1 VAL         0.0234
    114 H60        -6.4633   50.6687   75.8174 H         1 VAL         0.0234
    115 H61        -8.0426   49.9067   75.4279 H         1 VAL         0.0234
    116 H62        -7.0820   50.6960   74.1313 H         1 VAL         0.0234
@<TRIPOS>BOND
     1    1    2 1  
     2    1    7 1  
     3    2    3 1  
     4    2    5 1  
     5    3    4 2  
     6    3    8 am 
     7    5    6 1  
     8    6    7 1  
     9    8    9 1  
    10    9   10 1  
    11    9   12 1  
    12   10   11 2  
    13   10   19 am 
    14   12   13 1  
    15   13   14 1  
    16   14   15 1  
    17   15   16 ar 
    18   16   17 ar 
    19   16   18 ar 
    20   19   20 1  
    21   20   21 1  
    22   20   23 1  
    23   21   22 2  
    24   21   27 am 
    25   23   24 1  
    26   24   25 1  
    27   24   26 1  
    28   27   28 1  
    29   28   29 1  
    30   28   31 1  
    31   29   30 2  
    32   29   39 am 
    33   31   32 1  
    34   32   33 ar 
    35   32   34 ar 
    36   33   35 ar 
    37   34   36 ar 
    38   35   37 ar 
    39   36   37 ar 
    40   37   38 1  
    41   39   40 1  
    42   40   41 1  
    43   40   43 1  
    44   41   42 2  
    45   41   47 am 
    46   43   44 1  
    47   44   45 1  
    48   44   46 1  
    49   47   48 1  
    50   48   49 1  
    51   48   51 1  
    52   49   50 ar 
    53   51   52 1  
    54   51   53 1  
    55   49   54 ar 
    56    1   55 1  
    57    1   56 1  
    58    2   57 1  
    59    5   58 1  
    60    5   59 1  
    61    6   60 1  
    62    6   61 1  
    63    7   62 1  
    64    7   63 1  
    65    8   64 1  
    66    9   65 1  
    67   12   66 1  
    68   12   67 1  
    69   13   68 1  
    70   13   69 1  
    71   14   70 1  
    72   14   71 1  
    73   15   72 1  
    74   17   73 1  
    75   17   74 1  
    76   18   75 1  
    77   18   76 1  
    78   19   77 1  
    79   20   78 1  
    80   23   79 1  
    81   23   80 1  
    82   24   81 1  
    83   25   82 1  
    84   25   83 1  
    85   25   84 1  
    86   26   85 1  
    87   26   86 1  
    88   26   87 1  
    89   27   88 1  
    90   28   89 1  
    91   31   90 1  
    92   31   91 1  
    93   33   92 1  
    94   34   93 1  
    95   35   94 1  
    96   36   95 1  
    97   38   96 1  
    98   39   97 1  
    99   40   98 1  
   100   43   99 1  
   101   43  100 1  
   102   44  101 1  
   103   45  102 1  
   104   45  103 1  
   105   45  104 1  
   106   46  105 1  
   107   46  106 1  
   108   46  107 1  
   109   47  108 1  
   110   48  109 1  
   111   51  110 1  
   112   52  111 1  
   113   52  112 1  
   114   52  113 1  
   115   53  114 1  
   116   53  115 1  
   117   53  116 1  
@<TRIPOS>SUBSTRUCTURE
     1 PRO         1

