3zn1_ligand
  -I-interpret- 

116117  0  0  0  0  0  0  0  0999 V2000
    0.2600   54.3780   84.0190 N   0  3  0  0  0
    0.3380   53.0870   84.6900 C   0  0  0  0  0
   -0.1720   51.9420   83.8100 C   0  0  0  0  0
   -0.7100   52.1820   82.7260 O   0  0  0  0  0
   -0.5810   53.2790   85.8950 C   0  0  0  0  0
   -1.6240   54.2270   85.4060 C   0  0  0  0  0
   -0.9340   55.1410   84.4280 C   0  0  0  0  0
   -0.0140   50.7110   84.2920 N   0  0  0  0  0
   -0.4310   49.5200   83.5550 C   0  0  0  0  0
   -1.9520   49.4110   83.3970 C   0  0  0  0  0
   -2.4330   48.7020   82.5140 O   0  0  0  0  0
    0.1100   48.2690   84.2470 C   0  0  0  0  0
    0.3050   47.0800   83.3250 C   0  0  0  0  0
    0.4820   45.7990   84.1170 C   0  0  0  0  0
    1.3320   44.8400   83.4110 N   0  0  0  0  0
    2.6190   44.6260   83.6830 C   0  0  0  0  0
    3.2210   45.2960   84.6600 N   0  0  0  0  0
    3.3070   43.7330   82.9800 N   0  0  0  0  0
   -2.6960   50.1220   84.2430 N   0  0  0  0  0
   -4.1610   50.0090   84.3080 C   0  0  0  0  0
   -4.8670   50.2780   82.9810 C   0  0  0  0  0
   -5.9090   49.6810   82.7010 O   0  0  0  0  0
   -4.7530   50.9480   85.3740 C   0  0  0  0  0
   -4.0280   51.3240   86.6740 C   0  0  0  0  0
   -4.9650   52.1360   87.5590 C   0  0  0  0  0
   -3.4700   50.1250   87.4380 C   0  0  0  0  0
   -4.3030   51.1770   82.1750 N   0  0  0  0  0
   -4.9750   51.6520   80.9630 C   0  0  0  0  0
   -4.7840   50.7650   79.7380 C   0  0  0  0  0
   -5.4900   50.9400   78.7400 O   0  0  0  0  0
   -4.5770   53.0970   80.6460 C   0  0  0  0  0
   -5.0380   54.0780   81.6930 C   0  0  0  0  0
   -6.3990   54.3320   81.8850 C   0  0  0  0  0
   -4.1180   54.7450   82.5000 C   0  0  0  0  0
   -6.8300   55.2210   82.8530 C   0  0  0  0  0
   -4.5410   55.6380   83.4690 C   0  0  0  0  0
   -5.8950   55.8710   83.6390 C   0  0  0  0  0
   -6.3160   56.7550   84.5990 O   0  0  0  0  0
   -3.8410   49.8220   79.8180 N   0  0  0  0  0
   -3.5710   48.8860   78.7220 C   0  0  0  0  0
   -4.8380   48.2850   78.1330 C   0  0  0  0  0
   -5.6400   47.6620   78.8360 O   0  0  0  0  0
   -2.6250   47.7670   79.1560 C   0  0  0  0  0
   -1.1670   47.9040   78.7280 C   0  0  0  0  0
   -0.3760   46.7010   79.2120 C   0  0  0  0  0
   -1.0490   48.0470   77.2210 C   0  0  0  0  0
   -5.0000   48.4940   76.8320 N   0  0  0  0  0
   -6.1490   48.0000   76.0910 C   0  0  0  0  0
   -6.0130   46.5000   75.8400 C   0  0  0  0  0
   -4.9154   45.9834   75.4994 O   0  0  0  0  0
   -6.3210   48.7880   74.7780 C   0  0  0  0  0
   -7.0690   47.9800   73.7320 C   0  0  0  0  0
   -7.0260   50.1060   75.0580 C   0  0  0  0  0
   -7.0237   45.7602   75.9770 O   0  0  0  0  0
    0.2044   54.2126   83.0140 H   0  0  0  0  0
    1.0868   54.9194   84.2714 H   0  0  0  0  0
    1.3618   52.8134   84.9452 H   0  0  0  0  0
   -0.0477   53.6639   86.7642 H   0  0  0  0  0
   -1.0081   52.3384   86.2429 H   0  0  0  0  0
   -2.0608   54.7907   86.2303 H   0  0  0  0  0
   -2.4486   53.6944   84.9322 H   0  0  0  0  0
   -1.5705   55.4019   83.5825 H   0  0  0  0  0
   -0.6805   56.1055   84.8679 H   0  0  0  0  0
    0.4143   50.5948   85.2104 H   0  0  0  0  0
   -0.0161   49.6076   82.5509 H   0  0  0  0  0
   -0.6235   47.9755   84.9980 H   0  0  0  0  0
    1.0892   48.5247   84.6519 H   0  0  0  0  0
    1.2001   47.2462   82.7256 H   0  0  0  0  0
   -0.5772   46.9803   82.6927 H   0  0  0  0  0
   -0.4990   45.3466   84.2625 H   0  0  0  0  0
    0.9569   46.0450   85.0667 H   0  0  0  0  0
    0.9099   44.2971   82.6577 H   0  0  0  0  0
    4.2049   45.1231   84.8659 H   0  0  0  0  0
    2.6992   45.9831   85.2040 H   0  0  0  0  0
    2.8502   43.2111   82.2321 H   0  0  0  0  0
   -2.2290   50.7736   84.8736 H   0  0  0  0  0
   -4.3409   48.9674   84.5742 H   0  0  0  0  0
   -5.6206   50.3934   85.7314 H   0  0  0  0  0
   -4.8194   51.9007   84.8486 H   0  0  0  0  0
   -3.1606   51.9210   86.3924 H   0  0  0  0  0
   -5.2646   53.0426   87.0332 H   0  0  0  0  0
   -5.8481   51.5414   87.7928 H   0  0  0  0  0
   -4.4504   52.4030   88.4820 H   0  0  0  0  0
   -4.2864   49.4538   87.7047 H   0  0  0  0  0
   -2.7540   49.5962   86.8089 H   0  0  0  0  0
   -2.9728   50.4723   88.3437 H   0  0  0  0  0
   -3.3801   51.5436   82.4078 H   0  0  0  0  0
   -6.0392   51.6052   81.1940 H   0  0  0  0  0
   -5.0488   53.3720   79.7027 H   0  0  0  0  0
   -3.4886   53.1406   80.6065 H   0  0  0  0  0
   -7.1328   53.8211   81.2616 H   0  0  0  0  0
   -3.0520   54.5610   82.3663 H   0  0  0  0  0
   -7.8945   55.4075   82.9951 H   0  0  0  0  0
   -3.8128   56.1545   84.0943 H   0  0  0  0  0
   -5.5530   57.1187   85.0542 H   0  0  0  0  0
   -3.2887   49.7505   80.6726 H   0  0  0  0  0
   -3.0896   49.4773   77.9431 H   0  0  0  0  0
   -2.9948   46.8581   78.6814 H   0  0  0  0  0
   -2.6221   47.7799   80.2459 H   0  0  0  0  0
   -0.7572   48.8076   79.1793 H   0  0  0  0  0
   -0.4303   46.6456   80.2992 H   0  0  0  0  0
   -0.7965   45.7933   78.7792 H   0  0  0  0  0
    0.6644   46.8039   78.9037 H   0  0  0  0  0
   -1.4723   47.1655   76.7394 H   0  0  0  0  0
   -1.5921   48.9352   76.8980 H   0  0  0  0  0
    0.0018   48.1426   76.9476 H   0  0  0  0  0
   -4.2873   49.0242   76.3306 H   0  0  0  0  0
   -7.0496   48.1539   76.6854 H   0  0  0  0  0
   -4.2461   46.6688   75.4371 H   0  0  0  0  0
   -5.3313   48.9951   74.3708 H   0  0  0  0  0
   -6.5144   47.0671   73.5149 H   0  0  0  0  0
   -8.0583   47.7241   74.1114 H   0  0  0  0  0
   -7.1693   48.5709   72.8216 H   0  0  0  0  0
   -8.0062   49.9074   75.4913 H   0  0  0  0  0
   -6.4307   50.6937   75.7568 H   0  0  0  0  0
   -7.1446   50.6583   74.1258 H   0  0  0  0  0
  1  2  1  0  0  0
  1  7  1  0  0  0
  2  3  1  0  0  0
  2  5  1  0  0  0
  3  4  2  0  0  0
  3  8  1  0  0  0
  5  6  1  0  0  0
  6  7  1  0  0  0
  8  9  1  0  0  0
  9 10  1  0  0  0
  9 12  1  0  0  0
 10 11  2  0  0  0
 10 19  1  0  0  0
 12 13  1  0  0  0
 13 14  1  0  0  0
 14 15  1  0  0  0
 15 16  1  0  0  0
 16 17  1  0  0  0
 16 18  2  0  0  0
 19 20  1  0  0  0
 20 21  1  0  0  0
 20 23  1  0  0  0
 21 22  2  0  0  0
 21 27  1  0  0  0
 23 24  1  0  0  0
 24 25  1  0  0  0
 24 26  1  0  0  0
 27 28  1  0  0  0
 28 29  1  0  0  0
 28 31  1  0  0  0
 29 30  2  0  0  0
 29 39  1  0  0  0
 31 32  1  0  0  0
 32 33  4  0  0  0
 32 34  4  0  0  0
 33 35  4  0  0  0
 34 36  4  0  0  0
 35 37  4  0  0  0
 36 37  4  0  0  0
 37 38  1  0  0  0
 39 40  1  0  0  0
 40 41  1  0  0  0
 40 43  1  0  0  0
 41 42  2  0  0  0
 41 47  1  0  0  0
 43 44  1  0  0  0
 44 45  1  0  0  0
 44 46  1  0  0  0
 47 48  1  0  0  0
 48 49  1  0  0  0
 48 51  1  0  0  0
 49 50  1  0  0  0
 51 52  1  0  0  0
 51 53  1  0  0  0
 49 54  2  0  0  0
  1 55  1  0  0  0
  1 56  1  0  0  0
  2 57  1  0  0  0
  5 58  1  0  0  0
  5 59  1  0  0  0
  6 60  1  0  0  0
  6 61  1  0  0  0
  7 62  1  0  0  0
  7 63  1  0  0  0
  8 64  1  0  0  0
  9 65  1  0  0  0
 12 66  1  0  0  0
 12 67  1  0  0  0
 13 68  1  0  0  0
 13 69  1  0  0  0
 14 70  1  0  0  0
 14 71  1  0  0  0
 15 72  1  0  0  0
 17 73  1  0  0  0
 17 74  1  0  0  0
 18 75  1  0  0  0
 19 76  1  0  0  0
 20 77  1  0  0  0
 23 78  1  0  0  0
 23 79  1  0  0  0
 24 80  1  0  0  0
 25 81  1  0  0  0
 25 82  1  0  0  0
 25 83  1  0  0  0
 26 84  1  0  0  0
 26 85  1  0  0  0
 26 86  1  0  0  0
 27 87  1  0  0  0
 28 88  1  0  0  0
 31 89  1  0  0  0
 31 90  1  0  0  0
 33 91  1  0  0  0
 34 92  1  0  0  0
 35 93  1  0  0  0
 36 94  1  0  0  0
 38 95  1  0  0  0
 39 96  1  0  0  0
 40 97  1  0  0  0
 43 98  1  0  0  0
 43 99  1  0  0  0
 44100  1  0  0  0
 45101  1  0  0  0
 45102  1  0  0  0
 45103  1  0  0  0
 46104  1  0  0  0
 46105  1  0  0  0
 46106  1  0  0  0
 47107  1  0  0  0
 48108  1  0  0  0
 50109  1  0  0  0
 51110  1  0  0  0
 52111  1  0  0  0
 52112  1  0  0  0
 52113  1  0  0  0
 53114  1  0  0  0
 53115  1  0  0  0
 53116  1  0  0  0
M  END
$$$$
