6oot_ligand
  -I-interpret- 

 75 78  0  0  0  0  0  0  0  0999 V2000
   -8.3820  -16.4540   16.2270 N   0  0  0  0  0
   -8.4470  -16.0950   14.7830 C   0  0  0  0  0
   -7.2730  -15.8850   14.0970 C   0  0  0  0  0
   -7.3080  -15.5530   12.7650 C   0  0  0  0  0
   -8.5330  -15.4200   12.1110 C   0  0  0  0  0
   -9.7020  -15.6330   12.7820 C   0  0  0  0  0
   -9.6670  -15.9700   14.1360 C   0  0  0  0  0
   -8.5290  -14.9830   10.3260 S   0  0  0  0  0
   -9.7030  -14.2220    9.9420 O   0  0  0  0  0
   -7.4620  -13.9990   10.0080 O   0  0  0  0  0
   -8.3300  -16.4630    9.4370 N   0  0  0  0  0
   -7.0980  -17.2150    9.7740 C   0  0  0  0  0
   -6.4250  -17.8510    8.5520 C   0  0  0  0  0
   -5.1550  -18.6490    9.0180 C   0  0  0  0  0
   -6.0750  -16.8070    7.4690 C   0  0  0  0  0
   -9.6120  -17.2630    9.0960 C   0  0  0  0  0
   -9.9720  -17.1810    7.5760 C   0  0  0  0  0
  -11.0330  -18.0250    7.3050 O   0  0  0  0  0
  -10.3590  -15.7570    7.1640 C   0  0  0  0  0
  -10.7130  -15.7450    5.7530 N   0  0  0  0  0
   -9.8290  -15.1970    4.7110 C   0  0  0  0  0
   -8.8600  -14.5720    4.9970 O   0  0  0  0  0
  -10.1780  -15.4430    3.3810 O   0  0  0  0  0
   -9.5860  -14.6260    2.3880 C   0  0  0  0  0
   -8.9920  -15.6220    1.1920 C   0  0  0  0  0
  -10.0540  -15.9570    0.4400 O   0  0  0  0  0
  -11.1790  -14.9010    0.7750 C   0  0  0  0  0
  -12.1090  -15.4070    1.4470 O   0  0  0  0  0
  -12.6070  -14.2600    2.4990 C   0  0  0  0  0
  -11.6110  -13.4140    2.6650 C   0  0  0  0  0
  -10.5010  -13.8740    1.7750 C   0  0  0  0  0
  -11.6060  -15.2640    7.8910 C   0  0  0  0  0
  -11.4870  -12.7970    7.4190 C   0  0  0  0  0
  -11.9710  -11.6270    6.8080 C   0  0  0  0  0
  -13.1200  -11.6770    6.0000 C   0  0  0  0  0
  -13.7730  -12.8740    5.8040 C   0  0  0  0  0
  -13.2930  -14.0410    6.4110 C   0  0  0  0  0
  -12.1390  -13.9910    7.2290 C   0  0  0  0  0
   -7.4777  -16.5404   16.6908 H   0  0  0  0  0
   -9.2418  -16.6135   16.7521 H   0  0  0  0  0
   -6.3163  -15.9820   14.6102 H   0  0  0  0  0
   -6.3784  -15.3934   12.2186 H   0  0  0  0  0
  -10.6566  -15.5406   12.2641 H   0  0  0  0  0
  -10.5955  -16.1343   14.6829 H   0  0  0  0  0
   -7.3780  -18.0202   10.4532 H   0  0  0  0  0
   -6.3904  -16.5106   10.2114 H   0  0  0  0  0
   -7.1303  -18.5403    8.0877 H   0  0  0  0  0
   -4.4584  -17.9677    9.5065 H   0  0  0  0  0
   -5.4542  -19.4287    9.7185 H   0  0  0  0  0
   -4.6742  -19.1025    8.1513 H   0  0  0  0  0
   -6.9870  -16.3124    7.1347 H   0  0  0  0  0
   -5.3912  -16.0678    7.8863 H   0  0  0  0  0
   -5.6006  -17.3066    6.6244 H   0  0  0  0  0
  -10.4390  -16.8370    9.6641 H   0  0  0  0  0
   -9.4362  -18.3090    9.3472 H   0  0  0  0  0
   -9.0895  -17.4788    7.0098 H   0  0  0  0  0
  -11.2518  -17.9727    6.3717 H   0  0  0  0  0
   -9.5038  -15.1243    7.4014 H   0  0  0  0  0
  -11.6136  -16.1335    5.4732 H   0  0  0  0  0
   -8.8290  -14.0073    2.8700 H   0  0  0  0  0
   -8.5072  -16.5034    1.6118 H   0  0  0  0  0
   -8.2267  -15.1206    0.5996 H   0  0  0  0  0
  -11.5675  -14.4870   -0.1555 H   0  0  0  0  0
  -12.8854  -14.7118    3.4511 H   0  0  0  0  0
  -13.4849  -13.7432    2.1113 H   0  0  0  0  0
  -11.2896  -13.3931    3.7063 H   0  0  0  0  0
  -11.9174  -12.3996    2.4098 H   0  0  0  0  0
  -10.0257  -12.9860    1.3582 H   0  0  0  0  0
  -11.3502  -15.0454    8.9278 H   0  0  0  0  0
  -12.3733  -16.0368    7.8452 H   0  0  0  0  0
  -10.5945  -12.7567    8.0434 H   0  0  0  0  0
  -11.4543  -10.6795    6.9611 H   0  0  0  0  0
  -13.4944  -10.7684    5.5284 H   0  0  0  0  0
  -14.6633  -12.9127    5.1764 H   0  0  0  0  0
  -13.8084  -14.9885    6.2535 H   0  0  0  0  0
  2  1  1  0  0  0
  3  2  4  0  0  0
  7  2  4  0  0  0
  4  3  4  0  0  0
  5  4  4  0  0  0
  5  6  4  0  0  0
  8  5  1  0  0  0
  6  7  4  0  0  0
  8  9  2  0  0  0
  8 10  2  0  0  0
 11  8  1  0  0  0
 11 12  1  0  0  0
 16 11  1  0  0  0
 12 13  1  0  0  0
 13 14  1  0  0  0
 13 15  1  0  0  0
 17 16  1  0  0  0
 17 18  1  0  0  0
 19 17  1  0  0  0
 19 20  1  0  0  0
 32 19  1  0  0  0
 20 21  1  0  0  0
 21 22  2  0  0  0
 21 23  1  0  0  0
 23 24  1  0  0  0
 24 25  1  0  0  0
 24 31  1  0  0  0
 25 26  1  0  0  0
 27 26  1  0  0  0
 27 28  1  0  0  0
 31 27  1  0  0  0
 29 28  1  0  0  0
 30 29  1  0  0  0
 31 30  1  0  0  0
 38 32  1  0  0  0
 33 34  4  0  0  0
 33 38  4  0  0  0
 34 35  4  0  0  0
 35 36  4  0  0  0
 36 37  4  0  0  0
 37 38  4  0  0  0
  1 39  1  0  0  0
  1 40  1  0  0  0
  3 41  1  0  0  0
  4 42  1  0  0  0
  6 43  1  0  0  0
  7 44  1  0  0  0
 12 45  1  0  0  0
 12 46  1  0  0  0
 13 47  1  0  0  0
 14 48  1  0  0  0
 14 49  1  0  0  0
 14 50  1  0  0  0
 15 51  1  0  0  0
 15 52  1  0  0  0
 15 53  1  0  0  0
 16 54  1  0  0  0
 16 55  1  0  0  0
 17 56  1  0  0  0
 18 57  1  0  0  0
 19 58  1  0  0  0
 20 59  1  0  0  0
 24 60  1  0  0  0
 25 61  1  0  0  0
 25 62  1  0  0  0
 27 63  1  0  0  0
 29 64  1  0  0  0
 29 65  1  0  0  0
 30 66  1  0  0  0
 30 67  1  0  0  0
 31 68  1  0  0  0
 32 69  1  0  0  0
 32 70  1  0  0  0
 33 71  1  0  0  0
 34 72  1  0  0  0
 35 73  1  0  0  0
 36 74  1  0  0  0
 37 75  1  0  0  0
M  END
$$$$
