5vb6_ligand
  -I-interpret- 

 73 76  0  0  0  0  0  0  0  0999 V2000
   -3.0310   24.0940   14.8250 C   0  0  0  0  0
   -1.6200   24.4040   15.3280 C   0  0  0  0  0
   -0.6050   24.1940   14.2040 C   0  0  0  0  0
   -0.9570   25.0970   13.0170 C   0  0  0  0  0
   -2.3880   24.8260   12.5420 C   0  0  0  0  0
    1.0990   25.7840   15.1690 C   0  0  0  0  0
    3.2950   25.0970   15.6270 N   0  0  0  0  0
    3.0340   23.8790   15.1980 C   0  0  0  0  0
   -5.5270   25.9500   12.9580 C   0  0  0  0  0
   -8.6730   28.4230   14.5710 C   0  0  0  0  0
   -9.9850   27.7220   14.3400 C   0  0  0  0  0
   -8.5750   29.4760   15.6430 C   0  0  0  0  0
   -6.6300   25.0850   15.4440 C   0  0  0  0  0
   -8.3850   23.8260   16.4450 C   0  0  0  0  0
  -10.8850   23.0570   13.0960 O   0  0  0  0  0
  -11.1980   22.9710   14.2690 C   0  0  0  0  0
  -12.4800   22.3740   14.6890 C   0  0  0  0  0
  -12.7030   21.0050   14.5480 C   0  0  0  0  0
  -13.8980   20.4630   14.9750 C   0  0  0  0  0
  -14.8750   21.2690   15.5300 C   0  0  0  0  0
  -14.6530   22.6270   15.6750 C   0  0  0  0  0
  -13.4600   23.1830   15.2630 C   0  0  0  0  0
  -10.4140   23.3500   15.3070 N   0  0  0  0  0
   -9.1470   23.9430   15.2900 C   0  0  0  0  0
   -7.1320   24.3900   16.5210 C   0  0  0  0  0
   -8.6480   24.6480   14.2040 C   0  0  0  0  0
   -7.3780   25.2090   14.2790 C   0  0  0  0  0
   -6.8650   25.9300   13.1940 N   0  0  0  0  0
   -7.6780   27.0760   12.7740 C   0  0  0  0  0
   -7.6180   28.1260   13.8530 C   0  0  0  0  0
   -4.9780   27.0050   12.7190 O   0  0  0  0  0
   -4.7590   24.8770   13.2480 N   0  0  0  0  0
   -5.2390   23.5320   12.9340 C   0  0  0  0  0
   -3.3680   25.0650   13.6940 C   0  0  0  0  0
    0.7820   24.5150   14.7080 C   0  0  0  0  0
    1.7770   23.5480   14.7270 C   0  0  0  0  0
    2.3770   26.0400   15.6250 C   0  0  0  0  0
   -3.7485   24.2067   15.6378 H   0  0  0  0  0
   -3.0786   23.0679   14.4605 H   0  0  0  0  0
   -1.3804   23.7371   16.1562 H   0  0  0  0  0
   -1.5778   25.4415   15.6595 H   0  0  0  0  0
   -0.6325   23.1542   13.8782 H   0  0  0  0  0
   -0.2673   24.8907   12.1985 H   0  0  0  0  0
   -0.8789   26.1384   13.3291 H   0  0  0  0  0
   -2.4681   23.7915   12.2082 H   0  0  0  0  0
   -2.6284   25.4976   11.7178 H   0  0  0  0  0
    0.3461   26.5722   15.1714 H   0  0  0  0  0
    3.8189   23.1228   15.2146 H   0  0  0  0  0
  -10.3142   27.8982   13.3160 H   0  0  0  0  0
   -9.8573   26.6518   14.5029 H   0  0  0  0  0
  -10.7301   28.1102   15.0344 H   0  0  0  0  0
   -7.8281   29.1760   16.3780 H   0  0  0  0  0
   -8.2831   30.4248   15.1929 H   0  0  0  0  0
   -9.5432   29.5867   16.1314 H   0  0  0  0  0
   -5.6415   25.5401   15.5050 H   0  0  0  0  0
   -8.7837   23.2814   17.3009 H   0  0  0  0  0
  -11.9388   20.3673   14.1036 H   0  0  0  0  0
  -14.0731   19.3919   14.8741 H   0  0  0  0  0
  -15.8207   20.8342   15.8535 H   0  0  0  0  0
  -15.4234   23.2594   16.1162 H   0  0  0  0  0
  -13.2837   24.2516   15.3857 H   0  0  0  0  0
  -10.8035   23.1783   16.2340 H   0  0  0  0  0
   -6.5396   24.2868   17.4301 H   0  0  0  0  0
   -9.2464   24.7610   13.3000 H   0  0  0  0  0
   -8.7100   26.7624   12.6171 H   0  0  0  0  0
   -7.2936   27.4818   11.8382 H   0  0  0  0  0
   -6.6796   28.6482   14.0397 H   0  0  0  0  0
   -6.1695   23.3453   13.4701 H   0  0  0  0  0
   -5.4139   23.4513   11.8612 H   0  0  0  0  0
   -4.4902   22.8003   13.2375 H   0  0  0  0  0
   -3.2742   26.0923   14.0462 H   0  0  0  0  0
    1.5697   22.5377   14.3742 H   0  0  0  0  0
    2.6288   27.0364   15.9881 H   0  0  0  0  0
  1  2  1  0  0  0
 34  1  1  0  0  0
  2  3  1  0  0  0
  4  3  1  0  0  0
  3 35  1  0  0  0
  5  4  1  0  0  0
 34  5  1  0  0  0
 35  6  4  0  0  0
  6 37  4  0  0  0
  7  8  4  0  0  0
 37  7  4  0  0  0
  8 36  4  0  0  0
  9 28  1  0  0  0
  9 31  2  0  0  0
 32  9  1  0  0  0
 10 11  1  0  0  0
 10 12  1  0  0  0
 30 10  2  0  0  0
 13 25  4  0  0  0
 27 13  4  0  0  0
 24 14  4  0  0  0
 25 14  4  0  0  0
 16 15  2  0  0  0
 16 17  1  0  0  0
 23 16  1  0  0  0
 17 18  4  0  0  0
 17 22  4  0  0  0
 18 19  4  0  0  0
 19 20  4  0  0  0
 21 20  4  0  0  0
 22 21  4  0  0  0
 24 23  1  0  0  0
 26 24  4  0  0  0
 27 26  4  0  0  0
 28 27  1  0  0  0
 28 29  1  0  0  0
 29 30  1  0  0  0
 32 33  1  0  0  0
 32 34  1  0  0  0
 35 36  4  0  0  0
  1 38  1  0  0  0
  1 39  1  0  0  0
  2 40  1  0  0  0
  2 41  1  0  0  0
  3 42  1  0  0  0
  4 43  1  0  0  0
  4 44  1  0  0  0
  5 45  1  0  0  0
  5 46  1  0  0  0
  6 47  1  0  0  0
  8 48  1  0  0  0
 11 49  1  0  0  0
 11 50  1  0  0  0
 11 51  1  0  0  0
 12 52  1  0  0  0
 12 53  1  0  0  0
 12 54  1  0  0  0
 13 55  1  0  0  0
 14 56  1  0  0  0
 18 57  1  0  0  0
 19 58  1  0  0  0
 20 59  1  0  0  0
 21 60  1  0  0  0
 22 61  1  0  0  0
 23 62  1  0  0  0
 25 63  1  0  0  0
 26 64  1  0  0  0
 29 65  1  0  0  0
 29 66  1  0  0  0
 30 67  1  0  0  0
 33 68  1  0  0  0
 33 69  1  0  0  0
 33 70  1  0  0  0
 34 71  1  0  0  0
 36 72  1  0  0  0
 37 73  1  0  0  0
M  END
$$$$
