5eqp_ligand
  -I-interpret- 

 42 44  0  0  0  0  0  0  0  0999 V2000
   18.3270   71.1430   60.9240 N   0  3  0  0  0
   18.3310   73.5380   60.2080 C   0  0  0  0  0
   17.8300   72.1120   59.9470 C   0  0  0  0  0
   18.6800   72.8470   62.7330 C   0  0  0  0  0
   17.9980   71.5460   62.2970 C   0  0  0  0  0
   17.8030   74.0820   62.5070 C   0  0  0  0  0
   17.4480   74.2900   61.1010 N   0  3  0  0  0
   19.7600   70.9210   60.7650 C   0  0  0  0  0
   17.4840   75.7030   60.7680 C   0  0  0  0  0
   16.6530   76.0110   59.5600 C   0  0  0  0  0
   15.3470   75.5470   59.4710 C   0  0  0  0  0
   14.5760   75.8280   58.3550 C   0  0  0  0  0
   15.0880   76.5680   57.2950 C   0  0  0  0  0
   16.3990   77.0400   57.4000 C   0  0  0  0  0
   17.1680   76.7540   58.5170 C   0  0  0  0  0
   14.3160   76.8360   56.2300 N   0  0  0  0  0
   14.8670   77.5580   55.2420 C   0  0  0  0  0
   16.1560   78.0510   55.2680 C   0  0  0  0  0
   16.9450   77.7750   56.3680 C   0  0  0  0  0
   17.8544   70.2570   60.7452 H   0  0  0  0  0
   18.3665   74.0613   59.2525 H   0  0  0  0  0
   19.3091   73.4681   60.6840 H   0  0  0  0  0
   16.7423   72.1246   60.0160 H   0  0  0  0  0
   18.1914   71.8079   58.9647 H   0  0  0  0  0
   19.5841   72.9661   62.1360 H   0  0  0  0  0
   18.8852   72.7744   63.8010 H   0  0  0  0  0
   18.3453   70.7555   62.9623 H   0  0  0  0  0
   16.9213   71.7102   62.3408 H   0  0  0  0  0
   18.3691   74.9532   62.8366 H   0  0  0  0  0
   16.8769   73.9350   63.0627 H   0  0  0  0  0
   16.4977   73.9435   60.9696 H   0  0  0  0  0
   20.2967   71.8415   60.9946 H   0  0  0  0  0
   20.0818   70.1321   61.4449 H   0  0  0  0  0
   19.9685   70.6241   59.7372 H   0  0  0  0  0
   18.5165   75.9782   60.5529 H   0  0  0  0  0
   17.0831   76.2643   61.6120 H   0  0  0  0  0
   14.9256   74.9574   60.2852 H   0  0  0  0  0
   13.5502   75.4627   58.3070 H   0  0  0  0  0
   18.1930   77.1206   58.5726 H   0  0  0  0  0
   14.2578   77.7685   54.3630 H   0  0  0  0  0
   16.5426   78.6445   54.4395 H   0  0  0  0  0
   17.9745   78.1295   56.4193 H   0  0  0  0  0
  1  3  1  0  0  0
  1  5  1  0  0  0
  1  8  1  0  0  0
  3  2  1  0  0  0
  2  7  1  0  0  0
  5  4  1  0  0  0
  4  6  1  0  0  0
  6  7  1  0  0  0
  7  9  1  0  0  0
  9 10  1  0  0  0
 10 11  4  0  0  0
 10 15  4  0  0  0
 11 12  4  0  0  0
 12 13  4  0  0  0
 13 14  4  0  0  0
 13 16  4  0  0  0
 14 15  4  0  0  0
 14 19  4  0  0  0
 16 17  4  0  0  0
 17 18  4  0  0  0
 18 19  4  0  0  0
  1 20  1  0  0  0
  2 21  1  0  0  0
  2 22  1  0  0  0
  3 23  1  0  0  0
  3 24  1  0  0  0
  4 25  1  0  0  0
  4 26  1  0  0  0
  5 27  1  0  0  0
  5 28  1  0  0  0
  6 29  1  0  0  0
  6 30  1  0  0  0
  7 31  1  0  0  0
  8 32  1  0  0  0
  8 33  1  0  0  0
  8 34  1  0  0  0
  9 35  1  0  0  0
  9 36  1  0  0  0
 11 37  1  0  0  0
 12 38  1  0  0  0
 15 39  1  0  0  0
 17 40  1  0  0  0
 18 41  1  0  0  0
 19 42  1  0  0  0
M  END
$$$$
