### 
### Created by X-TOOL on Mon Sep 10 21:13:00 2018
### 

@<TRIPOS>MOLECULE
3ij0_ligand
   93    92     1     0     0
SMALL
GAST_HUCK


@<TRIPOS>ATOM
      1 N          21.2420    6.1980   19.7460 N.4       1 ALA         0.2377
      2 CA         19.9110    6.8190   19.4890 C.3       1 ALA         0.0621
      3 C          20.0400    8.2560   18.9880 C.2       1 ALA         0.2264
      4 O          20.7070    9.0750   19.6090 O.2       1 ALA        -0.3907
      5 CB         19.0400    6.7670   20.7450 C.3       1 ALA        -0.0040
      6 N          19.3900    8.5480   17.8640 N.am      1 ARG        -0.2610
      7 CA         19.4030    9.8780   17.2510 C.3       1 ARG         0.1312
      8 C          18.2370   10.7310   17.7690 C.2       1 ARG         0.2039
      9 O          17.1740   10.1950   18.1110 O.2       1 ARG        -0.3944
     10 CB         19.2970    9.7660   15.7180 C.3       1 ARG        -0.0092
     11 CG         20.5670    9.2970   14.9880 C.3       1 ARG        -0.0156
     12 CD         20.3310    9.1220   13.4540 C.3       1 ARG         0.0627
     13 NE         19.8500   10.3410   12.7790 N.pl3     1 ARG        -0.2723
     14 CZ         20.6260   11.3400   12.3390 C.cat     1 ARG         0.2882
     15 NH1        20.0680   12.3920   11.7450 N.pl3     1 ARG        -0.2849
     16 NH2        21.9500   11.3040   12.4870 N.pl3     1 ARG        -0.2849
     17 N          18.4430   12.0500   17.8150 N.am      1 M3L        -0.2637
     18 CA         17.3830   12.9980   18.1740 C.3       1 M3L         0.1310
     19 CB         17.9180   14.3100   18.7780 C.3       1 M3L        -0.0122
     20 CG         16.9140   14.9520   19.7340 C.3       1 M3L        -0.0440
     21 CD         17.2220   16.4110   20.0580 C.3       1 M3L        -0.0123
     22 CE         16.2870   16.9900   21.1390 C.3       1 M3L        -0.0309
     23 NZ         16.7140   18.2640   21.7850 N.4       1 M3L         0.2369
     24 C          16.4540   13.2430   17.0030 C.2       1 M3L         0.2040
     25 O          15.2690   13.5500   17.2050 O.2       1 M3L        -0.3944
     26 CM1        15.5060   18.9370   22.2750 C.3       1 M3L        -0.0418
     27 CM2        17.4170   19.1800   20.8650 C.3       1 M3L        -0.0418
     28 CM3        17.6000   18.0090   22.9400 C.3       1 M3L        -0.0418
     29 N          16.9820   13.1090   15.7790 N.am      1 SER        -0.2616
     30 CA         16.1820   13.2000   14.5350 C.3       1 SER         0.1539
     31 C          16.7060   12.2740   13.4370 C.2       1 SER         0.2057
     32 O          17.8500   11.8270   13.4940 O.2       1 SER        -0.3943
     33 CB         16.1480   14.6390   14.0030 C.3       1 SER         0.0843
     34 OG         17.4430   15.0620   13.6240 O.3       1 SER        -0.3903
     35 N          15.8730   12.0120   12.4280 N.am      1 THR        -0.2669
     36 CA         16.2660   11.1950   11.2620 C.3       1 THR         0.1198
     37 C          17.2200   11.9190   10.3090 C.2       1 THR         0.0626
     38 O          17.1904   13.1735   10.1956 O.co2     1 THR        -0.5665
     39 CB         15.0330   10.7110   10.4640 C.3       1 THR         0.0869
     40 OG1        13.9190   11.5860   10.7110 O.3       1 THR        -0.3880
     41 CG2        14.6600    9.2800   10.8650 C.3       1 THR        -0.0352
     42 O47        18.0453   11.2522    9.6294 O.co2     1 THR        -0.5665
     43 H1         21.1143    5.2535   20.0741 H         1 ALA         0.2015
     44 H2         21.7331    6.7330   20.4451 H         1 ALA         0.2015
     45 H3         21.7784    6.1876   18.8926 H         1 ALA         0.2015
     46 H4         19.4124    6.2321   18.7036 H         1 ALA         0.1095
     47 H5         18.0645    7.2294   20.5341 H         1 ALA         0.0310
     48 H6         19.5372    7.3150   21.5590 H         1 ALA         0.0310
     49 H7         18.8918    5.7192   21.0453 H         1 ALA         0.0310
     50 H8         18.8667    7.8233   17.4157 H         1 ARG         0.1884
     51 H9         20.3501   10.3742   17.5092 H         1 ARG         0.0800
     52 H10        19.0300   10.7583   15.3255 H         1 ARG         0.0313
     53 H11        18.4928    9.0518   15.4873 H         1 ARG         0.0313
     54 H12        20.8834    8.3320   15.4107 H         1 ARG         0.0301
     55 H13        21.3608   10.0428   15.1421 H         1 ARG         0.0301
     56 H14        19.5843    8.3277   13.3072 H         1 ARG         0.0689
     57 H15        21.2819    8.8217   12.9897 H         1 ARG         0.0689
     58 H16        18.8343   10.4319   12.6339 H         1 ARG         0.2642
     59 H17        20.6584   13.1641   11.4041 H         1 ARG         0.2615
     60 H18        19.0457   12.4342   11.6262 H         1 ARG         0.2615
     61 H19        22.3952   10.4959   12.9449 H         1 ARG         0.2615
     62 H20        22.5280   12.0843   12.1435 H         1 ARG         0.2615
     63 H21        19.3525   12.4038   17.5968 H         1 M3L         0.1883
     64 H22        16.7835   12.5164   18.9605 H         1 M3L         0.0800
     65 H23        18.1318   15.0155   17.9616 H         1 M3L         0.0312
     66 H24        18.8454   14.0949   19.3291 H         1 M3L         0.0312
     67 H25        16.9145   14.3801   20.6736 H         1 M3L         0.0269
     68 H26        15.9158   14.9016   19.2746 H         1 M3L         0.0269
     69 H27        17.1101   17.0067   19.1401 H         1 M3L         0.0317
     70 H28        18.2597   16.4806   20.4161 H         1 M3L         0.0317
     71 H29        16.1850   16.2333   21.9308 H         1 M3L         0.0815
     72 H30        15.3069   17.1661   20.6717 H         1 M3L         0.0815
     73 H31        15.7850   19.8844   22.7594 H         1 M3L         0.0778
     74 H32        14.9952   18.2896   23.0029 H         1 M3L         0.0778
     75 H33        14.8320   19.1418   21.4301 H         1 M3L         0.0778
     76 H34        18.3273   18.6921   20.4864 H         1 M3L         0.0778
     77 H35        17.6905   20.1003   21.4018 H         1 M3L         0.0778
     78 H36        16.7571   19.4300   20.0212 H         1 M3L         0.0778
     79 H37        17.0989   17.3273   23.6430 H         1 M3L         0.0778
     80 H38        17.8239   18.9591   23.4472 H         1 M3L         0.0778
     81 H39        18.5366   17.5508   22.5896 H         1 M3L         0.0778
     82 H40        17.9644   12.9392   15.7011 H         1 SER         0.1884
     83 H41        15.1529   12.8957   14.7763 H         1 SER         0.0823
     84 H42        15.7661   15.3061   14.7898 H         1 SER         0.0606
     85 H43        15.4826   14.6851   13.1283 H         1 SER         0.0606
     86 H44        17.4010   15.9533   13.2981 H         1 SER         0.2097
     87 H45        14.9453   12.3838   12.4627 H         1 THR         0.1876
     88 H46        16.7898   10.3086   11.6491 H         1 THR         0.0752
     89 H47        15.2738   10.7295    9.3909 H         1 THR         0.0632
     90 H48        13.1650   11.2837   10.2184 H         1 THR         0.2100
     91 H49        13.7823    8.9544   10.2875 H         1 THR         0.0256
     92 H50        14.4240    9.2498   11.9390 H         1 THR         0.0256
     93 H51        15.5058    8.6084   10.6564 H         1 THR         0.0256
@<TRIPOS>BOND
     1    1    2 1  
     2    2    3 1  
     3    2    5 1  
     4    3    4 2  
     5    3    6 am 
     6    6    7 1  
     7    7    8 1  
     8    7   10 1  
     9    8    9 2  
    10    8   17 am 
    11   10   11 1  
    12   11   12 1  
    13   12   13 1  
    14   13   14 ar 
    15   14   15 ar 
    16   14   16 ar 
    17   17   18 1  
    18   18   19 1  
    19   18   24 1  
    20   19   20 1  
    21   20   21 1  
    22   21   22 1  
    23   22   23 1  
    24   23   26 1  
    25   23   27 1  
    26   23   28 1  
    27   24   25 2  
    28   24   29 am 
    29   29   30 1  
    30   30   31 1  
    31   30   33 1  
    32   31   32 2  
    33   31   35 am 
    34   33   34 1  
    35   35   36 1  
    36   36   37 1  
    37   36   39 1  
    38   37   38 ar 
    39   39   40 1  
    40   39   41 1  
    41   37   42 ar 
    42    1   43 1  
    43    1   44 1  
    44    1   45 1  
    45    2   46 1  
    46    5   47 1  
    47    5   48 1  
    48    5   49 1  
    49    6   50 1  
    50    7   51 1  
    51   10   52 1  
    52   10   53 1  
    53   11   54 1  
    54   11   55 1  
    55   12   56 1  
    56   12   57 1  
    57   13   58 1  
    58   15   59 1  
    59   15   60 1  
    60   16   61 1  
    61   16   62 1  
    62   17   63 1  
    63   18   64 1  
    64   19   65 1  
    65   19   66 1  
    66   20   67 1  
    67   20   68 1  
    68   21   69 1  
    69   21   70 1  
    70   22   71 1  
    71   22   72 1  
    72   26   73 1  
    73   26   74 1  
    74   26   75 1  
    75   27   76 1  
    76   27   77 1  
    77   27   78 1  
    78   28   79 1  
    79   28   80 1  
    80   28   81 1  
    81   29   82 1  
    82   30   83 1  
    83   33   84 1  
    84   33   85 1  
    85   34   86 1  
    86   35   87 1  
    87   36   88 1  
    88   39   89 1  
    89   40   90 1  
    90   41   91 1  
    91   41   92 1  
    92   41   93 1  
@<TRIPOS>SUBSTRUCTURE
     1 ALA         1

