3ij0_ligand
  -I-interpret- 

 93 92  0  0  0  0  0  0  0  0999 V2000
   21.2420    6.1980   19.7460 N   0  3  0  0  0
   19.9110    6.8190   19.4890 C   0  0  0  0  0
   20.0400    8.2560   18.9880 C   0  0  0  0  0
   20.7070    9.0750   19.6090 O   0  0  0  0  0
   19.0400    6.7670   20.7450 C   0  0  0  0  0
   19.3900    8.5480   17.8640 N   0  0  0  0  0
   19.4030    9.8780   17.2510 C   0  0  0  0  0
   18.2370   10.7310   17.7690 C   0  0  0  0  0
   17.1740   10.1950   18.1110 O   0  0  0  0  0
   19.2970    9.7660   15.7180 C   0  0  0  0  0
   20.5670    9.2970   14.9880 C   0  0  0  0  0
   20.3310    9.1220   13.4540 C   0  0  0  0  0
   19.8500   10.3410   12.7790 N   0  0  0  0  0
   20.6260   11.3400   12.3390 C   0  0  0  0  0
   20.0680   12.3920   11.7450 N   0  0  0  0  0
   21.9500   11.3040   12.4870 N   0  0  0  0  0
   18.4430   12.0500   17.8150 N   0  0  0  0  0
   17.3830   12.9980   18.1740 C   0  0  0  0  0
   17.9180   14.3100   18.7780 C   0  0  0  0  0
   16.9140   14.9520   19.7340 C   0  0  0  0  0
   17.2220   16.4110   20.0580 C   0  0  0  0  0
   16.2870   16.9900   21.1390 C   0  0  0  0  0
   16.7140   18.2640   21.7850 N   0  3  0  0  0
   16.4540   13.2430   17.0030 C   0  0  0  0  0
   15.2690   13.5500   17.2050 O   0  0  0  0  0
   15.5060   18.9370   22.2750 C   0  0  0  0  0
   17.4170   19.1800   20.8650 C   0  0  0  0  0
   17.6000   18.0090   22.9400 C   0  0  0  0  0
   16.9820   13.1090   15.7790 N   0  0  0  0  0
   16.1820   13.2000   14.5350 C   0  0  0  0  0
   16.7060   12.2740   13.4370 C   0  0  0  0  0
   17.8500   11.8270   13.4940 O   0  0  0  0  0
   16.1480   14.6390   14.0030 C   0  0  0  0  0
   17.4430   15.0620   13.6240 O   0  0  0  0  0
   15.8730   12.0120   12.4280 N   0  0  0  0  0
   16.2660   11.1950   11.2620 C   0  0  0  0  0
   17.2200   11.9190   10.3090 C   0  0  0  0  0
   17.1904   13.1735   10.1956 O   0  0  0  0  0
   15.0330   10.7110   10.4640 C   0  0  0  0  0
   13.9190   11.5860   10.7110 O   0  0  0  0  0
   14.6600    9.2800   10.8650 C   0  0  0  0  0
   18.0453   11.2522    9.6294 O   0  0  0  0  0
   21.8063    6.2429   18.8975 H   0  0  0  0  0
   21.7128    6.7041   20.4961 H   0  0  0  0  0
   21.1142    5.2237   20.0196 H   0  0  0  0  0
   19.4290    6.2391   18.7019 H   0  0  0  0  0
   19.4946    7.3760   21.5263 H   0  0  0  0  0
   18.0472    7.1528   20.5134 H   0  0  0  0  0
   18.9595    5.7353   21.0873 H   0  0  0  0  0
   18.8563    7.8088   17.4068 H   0  0  0  0  0
   20.3450   10.3561   17.5197 H   0  0  0  0  0
   19.0859   10.7705   15.3512 H   0  0  0  0  0
   18.5332    9.0147   15.5176 H   0  0  0  0  0
   20.8591    8.3310   15.3998 H   0  0  0  0  0
   21.3396   10.0528   15.1294 H   0  0  0  0  0
   19.5627    8.3589   13.3299 H   0  0  0  0  0
   21.2903    8.8616   13.0067 H   0  0  0  0  0
   18.8442   10.4310   12.6353 H   0  0  0  0  0
   19.0557   12.4337   11.6273 H   0  0  0  0  0
   22.5224   12.0767   12.1468 H   0  0  0  0  0
   22.3909   10.5038   12.9405 H   0  0  0  0  0
   19.3707   12.4108   17.5925 H   0  0  0  0  0
   16.8023   12.5311   18.9696 H   0  0  0  0  0
   18.1064   15.0084   17.9626 H   0  0  0  0  0
   18.8245   14.0821   19.3388 H   0  0  0  0  0
   16.9532   14.3950   20.6701 H   0  0  0  0  0
   15.9385   14.9249   19.2485 H   0  0  0  0  0
   17.0819   16.9931   19.1472 H   0  0  0  0  0
   18.2430   16.4618   20.4362 H   0  0  0  0  0
   16.2543   16.2468   21.9357 H   0  0  0  0  0
   15.3466   17.2110   20.6341 H   0  0  0  0  0
   14.8391   19.1393   21.4369 H   0  0  0  0  0
   15.0008   18.2944   22.9961 H   0  0  0  0  0
   15.7838   19.8755   22.7547 H   0  0  0  0  0
   18.3120   18.6907   20.4807 H   0  0  0  0  0
   16.7575   19.4371   20.0361 H   0  0  0  0  0
   17.6987   20.0861   21.4014 H   0  0  0  0  0
   17.0695   17.4062   23.6771 H   0  0  0  0  0
   18.4887   17.4749   22.6037 H   0  0  0  0  0
   17.8930   18.9584   23.3881 H   0  0  0  0  0
   17.9840   12.9358   15.6995 H   0  0  0  0  0
   15.1732   12.8827   14.7992 H   0  0  0  0  0
   15.7783   15.2970   14.7894 H   0  0  0  0  0
   15.4953   14.6771   13.1308 H   0  0  0  0  0
   17.4006   15.9627   13.2946 H   0  0  0  0  0
   14.9268   12.3912   12.4634 H   0  0  0  0  0
   16.7944   10.3388   11.6813 H   0  0  0  0  0
   15.2799   10.7249    9.4024 H   0  0  0  0  0
   13.1571   11.2805   10.2132 H   0  0  0  0  0
   15.4989    8.6156   10.6579 H   0  0  0  0  0
   14.4265    9.2515   11.9293 H   0  0  0  0  0
   13.7902    8.9585   10.2921 H   0  0  0  0  0
   17.9419   10.3188    9.8284 H   0  0  0  0  0
  1  2  1  0  0  0
  2  3  1  0  0  0
  2  5  1  0  0  0
  3  4  2  0  0  0
  3  6  1  0  0  0
  6  7  1  0  0  0
  7  8  1  0  0  0
  7 10  1  0  0  0
  8  9  2  0  0  0
  8 17  1  0  0  0
 10 11  1  0  0  0
 11 12  1  0  0  0
 12 13  1  0  0  0
 13 14  1  0  0  0
 14 15  2  0  0  0
 14 16  1  0  0  0
 17 18  1  0  0  0
 18 19  1  0  0  0
 18 24  1  0  0  0
 19 20  1  0  0  0
 20 21  1  0  0  0
 21 22  1  0  0  0
 22 23  1  0  0  0
 23 26  1  0  0  0
 23 27  1  0  0  0
 23 28  1  0  0  0
 24 25  2  0  0  0
 24 29  1  0  0  0
 29 30  1  0  0  0
 30 31  1  0  0  0
 30 33  1  0  0  0
 31 32  2  0  0  0
 31 35  1  0  0  0
 33 34  1  0  0  0
 35 36  1  0  0  0
 36 37  1  0  0  0
 36 39  1  0  0  0
 37 38  2  0  0  0
 39 40  1  0  0  0
 39 41  1  0  0  0
 37 42  1  0  0  0
  1 43  1  0  0  0
  1 44  1  0  0  0
  1 45  1  0  0  0
  2 46  1  0  0  0
  5 47  1  0  0  0
  5 48  1  0  0  0
  5 49  1  0  0  0
  6 50  1  0  0  0
  7 51  1  0  0  0
 10 52  1  0  0  0
 10 53  1  0  0  0
 11 54  1  0  0  0
 11 55  1  0  0  0
 12 56  1  0  0  0
 12 57  1  0  0  0
 13 58  1  0  0  0
 15 59  1  0  0  0
 16 60  1  0  0  0
 16 61  1  0  0  0
 17 62  1  0  0  0
 18 63  1  0  0  0
 19 64  1  0  0  0
 19 65  1  0  0  0
 20 66  1  0  0  0
 20 67  1  0  0  0
 21 68  1  0  0  0
 21 69  1  0  0  0
 22 70  1  0  0  0
 22 71  1  0  0  0
 26 72  1  0  0  0
 26 73  1  0  0  0
 26 74  1  0  0  0
 27 75  1  0  0  0
 27 76  1  0  0  0
 27 77  1  0  0  0
 28 78  1  0  0  0
 28 79  1  0  0  0
 28 80  1  0  0  0
 29 81  1  0  0  0
 30 82  1  0  0  0
 33 83  1  0  0  0
 33 84  1  0  0  0
 34 85  1  0  0  0
 35 86  1  0  0  0
 36 87  1  0  0  0
 39 88  1  0  0  0
 40 89  1  0  0  0
 41 90  1  0  0  0
 41 91  1  0  0  0
 41 92  1  0  0  0
 42 93  1  0  0  0
M  END
$$$$
