4uat_ligand
  -I-interpret- 

 30 29  0  0  0  0  0  0  0  0999 V2000
    6.1110    3.2070   48.0600 C   0  0  0  0  0
    5.6860    4.6300   48.0960 C   0  0  0  0  0
    6.4410    5.7190   47.4130 C   0  0  0  0  0
    7.7600    5.9280   48.1600 C   0  0  0  0  0
    8.4820    7.2410   47.7950 C   0  0  0  0  0
    6.7230    2.7360   46.7220 O   0  0  0  0  0
    4.6680    4.9550   48.7470 O   0  0  0  0  0
    5.6570    6.9140   47.3670 O   0  0  0  0  0
    7.5100    6.0080   49.5860 O   0  0  0  0  0
    8.6720    7.4010   46.4000 O   0  0  0  0  0
    6.3120    1.1600   46.1510 P   0  0  0  0  0
    8.1500    8.7440   45.6350 P   0  0  0  0  0
    7.4570    0.9270   45.2510 O   0  0  0  0  0
    6.4150    0.3670   47.4060 O   0  0  0  0  0
    4.9360    1.2900   45.6200 O   0  0  0  0  0
    8.8570    8.7270   44.3190 O   0  0  0  0  0
    8.5310    9.9040   46.5220 O   0  0  0  0  0
    6.6650    8.5720   45.4980 O   0  0  0  0  0
    5.2143    2.6087   48.2214 H   0  0  0  0  0
    6.8878    3.0935   48.8162 H   0  0  0  0  0
    6.6587    5.4459   46.3805 H   0  0  0  0  0
    8.3834    5.0804   47.8753 H   0  0  0  0  0
    9.4661    7.2193   48.2632 H   0  0  0  0  0
    7.8620    8.0676   48.1420 H   0  0  0  0  0
    4.8408    6.7418   46.8918 H   0  0  0  0  0
    7.0584    5.2119   49.8757 H   0  0  0  0  0
    5.6527    0.5477   47.9609 H   0  0  0  0  0
    4.3263    1.4371   46.3468 H   0  0  0  0  0
    8.0405    9.8503   47.3455 H   0  0  0  0  0
    6.2603    8.5901   46.3683 H   0  0  0  0  0
  1  2  1  0  0  0
  1  6  1  0  0  0
  2  3  1  0  0  0
  2  7  2  0  0  0
  3  4  1  0  0  0
  3  8  1  0  0  0
  4  5  1  0  0  0
  4  9  1  0  0  0
  5 10  1  0  0  0
  6 11  1  0  0  0
 10 12  1  0  0  0
 11 13  2  0  0  0
 11 14  1  0  0  0
 11 15  1  0  0  0
 12 16  2  0  0  0
 12 17  1  0  0  0
 12 18  1  0  0  0
  1 19  1  0  0  0
  1 20  1  0  0  0
  3 21  1  0  0  0
  4 22  1  0  0  0
  5 23  1  0  0  0
  5 24  1  0  0  0
  8 25  1  0  0  0
  9 26  1  0  0  0
 14 27  1  0  0  0
 15 28  1  0  0  0
 17 29  1  0  0  0
 18 30  1  0  0  0
M  END
$$$$
