### 
### Created by X-TOOL on Mon Sep 10 21:13:16 2018
### 

@<TRIPOS>MOLECULE
4uat_ligand
   26    25     1     0     0
SMALL
GAST_HUCK


@<TRIPOS>ATOM
      1 C1          6.1110    3.2070   48.0600 C.3       1 XBP         0.1536
      2 C2          5.6860    4.6300   48.0960 C.2       1 XBP         0.1665
      3 C3          6.4410    5.7190   47.4130 C.3       1 XBP         0.1584
      4 C4          7.7600    5.9280   48.1600 C.3       1 XBP         0.1246
      5 C5          8.4820    7.2410   47.7950 C.3       1 XBP         0.1089
      6 O1          6.7230    2.7360   46.7220 O.3       1 XBP        -0.2569
      7 O2          4.6680    4.9550   48.7470 O.2       1 XBP        -0.3859
      8 O3          5.6570    6.9140   47.3670 O.3       1 XBP        -0.3697
      9 O4          7.5100    6.0080   49.5860 O.3       1 XBP        -0.3841
     10 O5          8.6720    7.4010   46.4000 O.3       1 XBP        -0.2733
     11 P1          6.3120    1.1600   46.1510 P.3       1 XBP         0.2042
     12 P2          8.1500    8.7440   45.6350 P.3       1 XBP         0.2008
     13 O1P         7.4570    0.9270   45.2510 O.co2     1 XBP        -0.5536
     14 O2P         6.4150    0.3670   47.4060 O.co2     1 XBP        -0.5536
     15 O3P         4.9360    1.2900   45.6200 O.co2     1 XBP        -0.5536
     16 O4P         8.8570    8.7270   44.3190 O.co2     1 XBP        -0.5537
     17 O5P         8.5310    9.9040   46.5220 O.co2     1 XBP        -0.5537
     18 O6P         6.6650    8.5720   45.4980 O.co2     1 XBP        -0.5537
     19 H           5.2293    2.5833   48.2689 H         1 XBP         0.0850
     20 H           6.8622    3.0563   48.8493 H         1 XBP         0.0850
     21 H           6.6635    5.4105   46.3809 H         1 XBP         0.0857
     22 H           8.4219    5.0774   47.9402 H         1 XBP         0.0672
     23 H           9.4666    7.2473   48.2855 H         1 XBP         0.0641
     24 H           7.8822    8.0852   48.1658 H         1 XBP         0.0641
     25 H           6.1464    7.5955   46.9214 H         1 XBP         0.2135
     26 H           8.3365    6.0902   50.0472 H         1 XBP         0.2102
@<TRIPOS>BOND
     1    1    2 1  
     2    1    6 1  
     3    2    3 1  
     4    2    7 2  
     5    3    4 1  
     6    3    8 1  
     7    4    5 1  
     8    4    9 1  
     9    5   10 1  
    10    6   11 1  
    11   10   12 1  
    12   11   13 ar 
    13   11   14 ar 
    14   11   15 ar 
    15   12   16 ar 
    16   12   17 ar 
    17   12   18 ar 
    18    1   19 1  
    19    1   20 1  
    20    3   21 1  
    21    4   22 1  
    22    5   23 1  
    23    5   24 1  
    24    8   25 1  
    25    9   26 1  
@<TRIPOS>SUBSTRUCTURE
     1 XBP         1

