2w2u_ligand
  -I-interpret- 

187191  0  0  0  0  0  0  0  0999 V2000
   20.9910   -3.5290   53.2590 N   0  3  0  0  0
   21.6330   -3.8050   51.9370 C   0  0  0  0  0
   21.5870   -2.5730   51.0330 C   0  0  0  0  0
   20.6330   -1.7980   51.0660 O   0  0  0  0  0
   20.9870   -5.0140   51.2410 C   0  0  0  0  0
   21.5820   -5.3360   49.8650 C   0  0  0  0  0
   21.1050   -6.6770   49.3240 C   0  0  0  0  0
   21.7160   -6.9860   48.0280 N   0  0  0  0  0
   21.2280   -6.6040   46.8500 C   0  0  0  0  0
   20.1160   -5.8770   46.7880 N   0  0  0  0  0
   21.8550   -6.9410   45.7290 N   0  0  0  0  0
   22.6290   -2.4150   50.2240 N   0  0  0  0  0
   22.7990   -1.2440   49.3840 C   0  0  0  0  0
   23.1460   -1.6770   47.9670 C   0  0  0  0  0
   23.6110   -2.7990   47.7460 O   0  0  0  0  0
   23.9230   -0.3820   49.9540 C   0  0  0  0  0
   23.6550    1.1040   49.9340 C   0  0  0  0  0
   24.6480    1.8760   50.7850 C   0  0  0  0  0
   24.6540    1.6900   52.0190 O   0  0  0  0  0
   25.4220    2.6740   50.2200 O   0  0  0  0  0
   22.9060   -0.7950   47.0040 N   0  0  0  0  0
   23.3270   -1.0490   45.6300 C   0  0  0  0  0
   24.7280   -0.4940   45.4130 C   0  0  0  0  0
   24.9890    0.6770   45.6860 O   0  0  0  0  0
   22.3190   -0.4750   44.6320 C   0  0  0  0  0
   20.9400   -1.1450   44.6740 C   0  0  0  0  0
   20.0160   -0.5950   43.6090 C   0  0  0  0  0
   21.0920   -2.6520   44.5190 C   0  0  0  0  0
   25.6300   -1.3620   44.9580 N   0  0  0  0  0
   27.0420   -1.0180   44.7760 C   0  0  0  0  0
   27.5090   -1.5760   43.4320 C   0  0  0  0  0
   27.6800   -2.7900   43.2930 O   0  0  0  0  0
   27.9000   -1.5900   45.9150 C   0  0  0  0  0
   27.4790   -1.3960   47.3800 C   0  0  0  0  0
   28.1220   -2.4670   48.2630 C   0  0  0  0  0
   27.8250    0.0000   47.9020 C   0  0  0  0  0
   27.7050   -0.6970   42.4290 N   0  0  0  0  0
   27.6220    0.7580   42.5280 C   0  0  0  0  0
   26.1890    1.3050   42.5420 C   0  0  0  0  0
   25.2560    0.6490   42.0740 O   0  0  0  0  0
   28.3570    1.2310   41.2710 C   0  0  0  0  0
   28.1340    0.1550   40.2850 C   0  0  0  0  0
   28.0230   -1.1360   41.0570 C   0  0  0  0  0
   26.0560    2.5090   43.0890 N   0  0  0  0  0
   24.8230    3.2850   43.1330 C   0  0  0  0  0
   24.1480    3.3790   41.7600 C   0  0  0  0  0
   24.8290    3.4410   40.7280 O   0  0  0  0  0
   25.1890    4.6950   43.5940 C   0  0  0  0  0
   24.2240    5.3710   44.5370 C   0  0  0  0  0
   24.7200    6.7530   44.9740 C   0  0  0  0  0
   24.7020    7.0300   46.1890 O   0  0  0  0  0
   25.1360    7.5580   44.1100 O   0  0  0  0  0
   22.8150    3.3830   41.7470 N   0  0  0  0  0
   22.0650    3.7500   40.5420 C   0  0  0  0  0
   22.2600    5.2490   40.2980 C   0  0  0  0  0
   22.2130    6.0370   41.2510 O   0  0  0  0  0
   20.5710    3.4250   40.6800 C   0  0  0  0  0
   20.1170    1.9580   40.7530 C   0  0  0  0  0
   18.6510    1.8510   41.1470 C   0  0  0  0  0
   20.3690    1.2080   39.4470 C   0  0  0  0  0
   22.4920    5.6470   39.0300 N   0  0  0  0  0
   22.7490    7.0590   38.7430 C   0  0  0  0  0
   21.5430    7.9680   38.9930 C   0  0  0  0  0
   20.3990    7.6030   38.6930 O   0  0  0  0  0
   23.1240    7.0570   37.2570 C   0  0  0  0  0
   22.5200    5.8250   36.7030 C   0  0  0  0  0
   22.5400    4.8180   37.8100 C   0  0  0  0  0
   21.8130    9.1360   39.5640 N   0  0  0  0  0
   20.8020   10.1560   39.7540 C   0  0  0  0  0
   20.6100   10.8750   38.4280 C   0  0  0  0  0
   21.5690   11.0190   37.6590 O   0  0  0  0  0
   21.2290   11.1550   40.8340 C   0  0  0  0  0
   21.4460   10.5360   42.1810 C   0  0  0  0  0
   20.4150   10.0430   42.9500 N   0  0  0  0  0
   22.5780   10.3400   42.8990 C   0  0  0  0  0
   20.9020    9.5660   44.0810 C   0  0  0  0  0
   22.2110    9.7410   44.0790 N   0  0  0  0  0
   19.3660   11.3000   38.1360 N   0  0  0  0  0
   19.1190   12.1250   36.9550 C   0  0  0  0  0
   19.8080   13.4870   37.0710 C   0  0  0  0  0
   20.0710   13.9430   38.1920 O   0  0  0  0  0
   17.5940   12.2900   36.9550 C   0  0  0  0  0
   17.1720   12.0210   38.3380 C   0  0  0  0  0
   18.1230   11.0100   38.8710 C   0  0  0  0  0
   20.1160   14.1260   35.9230 N   0  0  0  0  0
   20.6820   15.4790   35.8690 C   0  0  0  0  0
   20.0330   16.4480   36.8490 C   0  0  0  0  0
   18.8240   16.3860   37.0610 O   0  0  0  0  0
   20.3730   15.9120   34.4400 C   0  0  0  0  0
   20.4700   14.6490   33.6630 C   0  0  0  0  0
   19.9600   13.5570   34.5680 C   0  0  0  0  0
   21.4417   -2.7234   53.6929 H   0  0  0  0  0
   20.0000   -3.3316   53.1198 H   0  0  0  0  0
   21.0949   -4.3444   53.8629 H   0  0  0  0  0
   22.6785   -4.0475   52.1271 H   0  0  0  0  0
   19.9346   -4.7742   51.0891 H   0  0  0  0  0
   21.1584   -5.8821   51.8776 H   0  0  0  0  0
   22.6661   -5.3813   49.9692 H   0  0  0  0  0
   21.2624   -4.5596   49.1699 H   0  0  0  0  0
   20.0241   -6.6295   49.1919 H   0  0  0  0  0
   21.3901   -7.4546   50.0326 H   0  0  0  0  0
   22.5769   -7.5330   48.0289 H   0  0  0  0  0
   19.7496   -5.5816   45.8831 H   0  0  0  0  0
   19.6296   -5.6148   47.6454 H   0  0  0  0  0
   22.7116   -7.4932   45.7700 H   0  0  0  0  0
   23.3387   -3.1469   50.1920 H   0  0  0  0  0
   21.8737   -0.6683   49.3610 H   0  0  0  0  0
   24.8003   -0.5534   49.3302 H   0  0  0  0  0
   24.0416   -0.6678   50.9992 H   0  0  0  0  0
   22.6570    1.2746   50.3377 H   0  0  0  0  0
   23.7469    1.4519   48.9051 H   0  0  0  0  0
   23.9848    1.0405   52.2468 H   0  0  0  0  0
   22.4200    0.0733   47.2280 H   0  0  0  0  0
   23.3588   -2.1247   45.4572 H   0  0  0  0  0
   22.7257   -0.6393   43.6342 H   0  0  0  0  0
   22.1743    0.5743   44.8891 H   0  0  0  0  0
   20.4888   -0.9248   45.6415 H   0  0  0  0  0
   19.8821    0.4756   43.7636 H   0  0  0  0  0
   20.4525   -0.7696   42.6256 H   0  0  0  0  0
   19.0503   -1.0963   43.6735 H   0  0  0  0  0
   21.5704   -2.8714   43.5645 H   0  0  0  0  0
   21.7059   -3.0395   45.3321 H   0  0  0  0  0
   20.1082   -3.1202   44.5499 H   0  0  0  0  0
   25.3242   -2.3071   44.7263 H   0  0  0  0  0
   27.1536    0.0662   44.7914 H   0  0  0  0  0
   28.8459   -1.0545   45.8340 H   0  0  0  0  0
   27.8614   -2.6689   45.7648 H   0  0  0  0  0
   26.3945   -1.4974   47.4213 H   0  0  0  0  0
   27.8014   -3.4533   47.9274 H   0  0  0  0  0
   29.2070   -2.3922   48.1909 H   0  0  0  0  0
   27.8141   -2.3160   49.2976 H   0  0  0  0  0
   28.9019    0.1547   47.8357 H   0  0  0  0  0
   27.3112    0.7493   47.2998 H   0  0  0  0  0
   27.5075    0.0870   48.9411 H   0  0  0  0  0
   28.0465    1.1111   43.4678 H   0  0  0  0  0
   29.4174    1.4007   41.4575 H   0  0  0  0  0
   27.9845    2.1925   40.9175 H   0  0  0  0  0
   28.9578    0.1084   39.5727 H   0  0  0  0  0
   27.2258    0.3402   39.7114 H   0  0  0  0  0
   27.2635   -1.8016   40.6469 H   0  0  0  0  0
   28.9373   -1.7277   41.0112 H   0  0  0  0  0
   26.8855    2.9243   43.5131 H   0  0  0  0  0
   24.1233    2.7950   43.8100 H   0  0  0  0  0
   25.2098    5.3095   42.6939 H   0  0  0  0  0
   26.1263    4.5982   44.1418 H   0  0  0  0  0
   24.1241    4.7483   45.4260 H   0  0  0  0  0
   23.2740    5.4986   44.0181 H   0  0  0  0  0
   25.0671    7.1565   43.2407 H   0  0  0  0  0
   22.3064    3.1254   42.5928 H   0  0  0  0  0
   22.4397    3.1704   39.6983 H   0  0  0  0  0
   20.1195    3.8084   39.7650 H   0  0  0  0  0
   20.2836    3.8510   41.6413 H   0  0  0  0  0
   20.7218    1.4858   41.5272 H   0  0  0  0  0
   18.5047    2.3087   42.1254 H   0  0  0  0  0
   18.0388    2.3674   40.4077 H   0  0  0  0  0
   18.3632    0.8005   41.1892 H   0  0  0  0  0
   19.8198    1.6923   38.6396 H   0  0  0  0  0
   21.4354    1.2213   39.2218 H   0  0  0  0  0
   20.0311    0.1769   39.5506 H   0  0  0  0  0
   23.5219    7.4593   39.3992 H   0  0  0  0  0
   24.2048    7.0721   37.1161 H   0  0  0  0  0
   22.7549    7.9480   36.7491 H   0  0  0  0  0
   23.0773    5.4686   35.8367 H   0  0  0  0  0
   21.5032    6.0072   36.3550 H   0  0  0  0  0
   21.7098    4.1143   37.7499 H   0  0  0  0  0
   23.4202    4.1760   37.7752 H   0  0  0  0  0
   22.7650    9.3214   39.8797 H   0  0  0  0  0
   19.8701    9.6947   40.0808 H   0  0  0  0  0
   20.4252   11.8839   40.9376 H   0  0  0  0  0
   22.1787   11.5872   40.5188 H   0  0  0  0  0
   23.5905   10.6076   42.5967 H   0  0  0  0  0
   20.3218    9.1058   44.8808 H   0  0  0  0  0
   19.5072   11.6770   36.0403 H   0  0  0  0  0
   17.1176   11.6075   36.2512 H   0  0  0  0  0
   17.2995   13.2891   36.6338 H   0  0  0  0  0
   16.1465   11.6531   38.3720 H   0  0  0  0  0
   17.1875   12.9307   38.9382 H   0  0  0  0  0
   18.2472   11.0771   39.9518 H   0  0  0  0  0
   17.7761    9.9871   38.7249 H   0  0  0  0  0
   21.7386   15.4809   36.1368 H   0  0  0  0  0
   20.6396   17.1948   37.3612 H   0  0  0  0  0
   21.0600   16.6773   34.0787 H   0  0  0  0  0
   19.3940   16.3826   34.3497 H   0  0  0  0  0
   21.4975   14.4556   33.3549 H   0  0  0  0  0
   19.8825   14.7058   32.7467 H   0  0  0  0  0
   18.9285   13.2817   34.3481 H   0  0  0  0  0
   20.5076   12.6229   34.4430 H   0  0  0  0  0
  1  2  1  0  0  0
  2  3  1  0  0  0
  2  5  1  0  0  0
  3  4  2  0  0  0
  3 12  1  0  0  0
  5  6  1  0  0  0
  6  7  1  0  0  0
  7  8  1  0  0  0
  8  9  1  0  0  0
  9 10  1  0  0  0
  9 11  2  0  0  0
 12 13  1  0  0  0
 13 14  1  0  0  0
 13 16  1  0  0  0
 14 15  2  0  0  0
 14 21  1  0  0  0
 16 17  1  0  0  0
 17 18  1  0  0  0
 18 19  1  0  0  0
 18 20  2  0  0  0
 21 22  1  0  0  0
 22 23  1  0  0  0
 22 25  1  0  0  0
 23 24  2  0  0  0
 23 29  1  0  0  0
 25 26  1  0  0  0
 26 27  1  0  0  0
 26 28  1  0  0  0
 29 30  1  0  0  0
 30 31  1  0  0  0
 30 33  1  0  0  0
 31 32  2  0  0  0
 31 37  1  0  0  0
 33 34  1  0  0  0
 34 35  1  0  0  0
 34 36  1  0  0  0
 37 38  1  0  0  0
 37 43  1  0  0  0
 38 39  1  0  0  0
 38 41  1  0  0  0
 39 40  2  0  0  0
 39 44  1  0  0  0
 41 42  1  0  0  0
 42 43  1  0  0  0
 44 45  1  0  0  0
 45 46  1  0  0  0
 45 48  1  0  0  0
 46 47  2  0  0  0
 46 53  1  0  0  0
 48 49  1  0  0  0
 49 50  1  0  0  0
 50 51  2  0  0  0
 50 52  1  0  0  0
 53 54  1  0  0  0
 54 55  1  0  0  0
 54 57  1  0  0  0
 55 56  2  0  0  0
 55 61  1  0  0  0
 57 58  1  0  0  0
 58 59  1  0  0  0
 58 60  1  0  0  0
 61 62  1  0  0  0
 61 67  1  0  0  0
 62 63  1  0  0  0
 62 65  1  0  0  0
 63 64  2  0  0  0
 63 68  1  0  0  0
 65 66  1  0  0  0
 66 67  1  0  0  0
 68 69  1  0  0  0
 69 70  1  0  0  0
 69 72  1  0  0  0
 70 71  2  0  0  0
 70 78  1  0  0  0
 72 73  1  0  0  0
 73 74  4  0  0  0
 73 75  4  0  0  0
 74 76  4  0  0  0
 75 77  4  0  0  0
 76 77  4  0  0  0
 78 79  1  0  0  0
 78 84  1  0  0  0
 79 80  1  0  0  0
 79 82  1  0  0  0
 80 81  2  0  0  0
 80 85  1  0  0  0
 82 83  1  0  0  0
 83 84  1  0  0  0
 85 86  1  0  0  0
 85 91  1  0  0  0
 86 87  1  0  0  0
 86 89  1  0  0  0
 87 88  2  0  0  0
 89 90  1  0  0  0
 90 91  1  0  0  0
  1 92  1  0  0  0
  1 93  1  0  0  0
  1 94  1  0  0  0
  2 95  1  0  0  0
  5 96  1  0  0  0
  5 97  1  0  0  0
  6 98  1  0  0  0
  6 99  1  0  0  0
  7100  1  0  0  0
  7101  1  0  0  0
  8102  1  0  0  0
 10103  1  0  0  0
 10104  1  0  0  0
 11105  1  0  0  0
 12106  1  0  0  0
 13107  1  0  0  0
 16108  1  0  0  0
 16109  1  0  0  0
 17110  1  0  0  0
 17111  1  0  0  0
 19112  1  0  0  0
 21113  1  0  0  0
 22114  1  0  0  0
 25115  1  0  0  0
 25116  1  0  0  0
 26117  1  0  0  0
 27118  1  0  0  0
 27119  1  0  0  0
 27120  1  0  0  0
 28121  1  0  0  0
 28122  1  0  0  0
 28123  1  0  0  0
 29124  1  0  0  0
 30125  1  0  0  0
 33126  1  0  0  0
 33127  1  0  0  0
 34128  1  0  0  0
 35129  1  0  0  0
 35130  1  0  0  0
 35131  1  0  0  0
 36132  1  0  0  0
 36133  1  0  0  0
 36134  1  0  0  0
 38135  1  0  0  0
 41136  1  0  0  0
 41137  1  0  0  0
 42138  1  0  0  0
 42139  1  0  0  0
 43140  1  0  0  0
 43141  1  0  0  0
 44142  1  0  0  0
 45143  1  0  0  0
 48144  1  0  0  0
 48145  1  0  0  0
 49146  1  0  0  0
 49147  1  0  0  0
 52148  1  0  0  0
 53149  1  0  0  0
 54150  1  0  0  0
 57151  1  0  0  0
 57152  1  0  0  0
 58153  1  0  0  0
 59154  1  0  0  0
 59155  1  0  0  0
 59156  1  0  0  0
 60157  1  0  0  0
 60158  1  0  0  0
 60159  1  0  0  0
 62160  1  0  0  0
 65161  1  0  0  0
 65162  1  0  0  0
 66163  1  0  0  0
 66164  1  0  0  0
 67165  1  0  0  0
 67166  1  0  0  0
 68167  1  0  0  0
 69168  1  0  0  0
 72169  1  0  0  0
 72170  1  0  0  0
 75171  1  0  0  0
 76172  1  0  0  0
 79173  1  0  0  0
 82174  1  0  0  0
 82175  1  0  0  0
 83176  1  0  0  0
 83177  1  0  0  0
 84178  1  0  0  0
 84179  1  0  0  0
 86180  1  0  0  0
 87181  1  0  0  0
 89182  1  0  0  0
 89183  1  0  0  0
 90184  1  0  0  0
 90185  1  0  0  0
 91186  1  0  0  0
 91187  1  0  0  0
M  END
$$$$
