### 
### Created by X-TOOL on Mon Sep 10 21:13:01 2018
### 

@<TRIPOS>MOLECULE
2w2u_ligand
  187   191     1     0     0
SMALL
GAST_HUCK


@<TRIPOS>ATOM
      1 N          20.9910   -3.5290   53.2590 N.4       1 ARG         0.2379
      2 CA         21.6330   -3.8050   51.9370 C.3       1 ARG         0.0651
      3 C          21.5870   -2.5730   51.0330 C.2       1 ARG         0.2267
      4 O          20.6330   -1.7980   51.0660 O.2       1 ARG        -0.3907
      5 CB         20.9870   -5.0140   51.2410 C.3       1 ARG         0.0110
      6 CG         21.5820   -5.3360   49.8650 C.3       1 ARG        -0.0125
      7 CD         21.1050   -6.6770   49.3240 C.3       1 ARG         0.0629
      8 NE         21.7160   -6.9860   48.0280 N.pl3     1 ARG        -0.2723
      9 CZ         21.2280   -6.6040   46.8500 C.cat     1 ARG         0.2882
     10 NH1        20.1160   -5.8770   46.7880 N.pl3     1 ARG        -0.2849
     11 NH2        21.8550   -6.9410   45.7290 N.pl3     1 ARG        -0.2849
     12 N          22.6290   -2.4150   50.2240 N.am      1 GLU        -0.2609
     13 CA         22.7990   -1.2440   49.3840 C.3       1 GLU         0.1326
     14 C          23.1460   -1.6770   47.9670 C.2       1 GLU         0.2040
     15 O          23.6110   -2.7990   47.7460 O.2       1 GLU        -0.3944
     16 CB         23.9230   -0.3820   49.9540 C.3       1 GLU        -0.0008
     17 CG         23.6550    1.1040   49.9340 C.3       1 GLU         0.0044
     18 CD         24.6480    1.8760   50.7850 C.2       1 GLU         0.0350
     19 OE1        24.6540    1.6900   52.0190 O.co2     1 GLU        -0.5690
     20 OE2        25.4220    2.6740   50.2200 O.co2     1 GLU        -0.5690
     21 N          22.9060   -0.7950   47.0040 N.am      1 LEU        -0.2637
     22 CA         23.3270   -1.0490   45.6300 C.3       1 LEU         0.1312
     23 C          24.7280   -0.4940   45.4130 C.2       1 LEU         0.2039
     24 O          24.9890    0.6770   45.6860 O.2       1 LEU        -0.3944
     25 CB         22.3190   -0.4750   44.6320 C.3       1 LEU        -0.0101
     26 CG         20.9400   -1.1450   44.6740 C.3       1 LEU        -0.0425
     27 CD1        20.0160   -0.5950   43.6090 C.3       1 LEU        -0.0625
     28 CD2        21.0920   -2.6520   44.5190 C.3       1 LEU        -0.0625
     29 N          25.6300   -1.3620   44.9580 N.am      1 LEU        -0.2637
     30 CA         27.0420   -1.0180   44.7760 C.3       1 LEU         0.1314
     31 C          27.5090   -1.5760   43.4320 C.2       1 LEU         0.2064
     32 O          27.6800   -2.7900   43.2930 O.2       1 LEU        -0.3942
     33 CB         27.9000   -1.5900   45.9150 C.3       1 LEU        -0.0101
     34 CG         27.4790   -1.3960   47.3800 C.3       1 LEU        -0.0425
     35 CD1        28.1220   -2.4670   48.2630 C.3       1 LEU        -0.0625
     36 CD2        27.8250    0.0000   47.9020 C.3       1 LEU        -0.0625
     37 N          27.7050   -0.6970   42.4290 N.am      1 PRO        -0.2498
     38 CA         27.6220    0.7580   42.5280 C.3       1 PRO         0.1338
     39 C          26.1890    1.3050   42.5420 C.2       1 PRO         0.2041
     40 O          25.2560    0.6490   42.0740 O.2       1 PRO        -0.3944
     41 CB         28.3570    1.2310   41.2710 C.3       1 PRO        -0.0104
     42 CG         28.1340    0.1550   40.2850 C.3       1 PRO        -0.0281
     43 CD         28.0230   -1.1360   41.0570 C.3       1 PRO         0.0369
     44 N          26.0560    2.5090   43.0890 N.am      1 GLU        -0.2636
     45 CA         24.8230    3.2850   43.1330 C.3       1 GLU         0.1325
     46 C          24.1480    3.3790   41.7600 C.2       1 GLU         0.2040
     47 O          24.8290    3.4410   40.7280 O.2       1 GLU        -0.3944
     48 CB         25.1890    4.6950   43.5940 C.3       1 GLU        -0.0008
     49 CG         24.2240    5.3710   44.5370 C.3       1 GLU         0.0044
     50 CD         24.7200    6.7530   44.9740 C.2       1 GLU         0.0350
     51 OE1        24.7020    7.0300   46.1890 O.co2     1 GLU        -0.5690
     52 OE2        25.1360    7.5580   44.1100 O.co2     1 GLU        -0.5690
     53 N          22.8150    3.3830   41.7470 N.am      1 LEU        -0.2637
     54 CA         22.0650    3.7500   40.5420 C.3       1 LEU         0.1314
     55 C          22.2600    5.2490   40.2980 C.2       1 LEU         0.2064
     56 O          22.2130    6.0370   41.2510 O.2       1 LEU        -0.3942
     57 CB         20.5710    3.4250   40.6800 C.3       1 LEU        -0.0101
     58 CG         20.1170    1.9580   40.7530 C.3       1 LEU        -0.0425
     59 CD1        18.6510    1.8510   41.1470 C.3       1 LEU        -0.0625
     60 CD2        20.3690    1.2080   39.4470 C.3       1 LEU        -0.0625
     61 N          22.4920    5.6470   39.0300 N.am      1 PRO        -0.2498
     62 CA         22.7490    7.0590   38.7430 C.3       1 PRO         0.1338
     63 C          21.5430    7.9680   38.9930 C.2       1 PRO         0.2042
     64 O          20.3990    7.6030   38.6930 O.2       1 PRO        -0.3944
     65 CB         23.1240    7.0570   37.2570 C.3       1 PRO        -0.0104
     66 CG         22.5200    5.8250   36.7030 C.3       1 PRO        -0.0281
     67 CD         22.5400    4.8180   37.8100 C.3       1 PRO         0.0369
     68 N          21.8130    9.1360   39.5640 N.am      1 HIS        -0.2625
     69 CA         20.8020   10.1560   39.7540 C.3       1 HIS         0.1371
     70 C          20.6100   10.8750   38.4280 C.2       1 HIS         0.2079
     71 O          21.5690   11.0190   37.6590 O.2       1 HIS        -0.3940
     72 CB         21.2290   11.1550   40.8340 C.3       1 HIS         0.0145
     73 CG         21.4460   10.5360   42.1810 C.2       1 HIS        -0.0027
     74 ND1        20.4150   10.0430   42.9500 N.2       1 HIS        -0.3252
     75 CD2        22.5780   10.3400   42.8990 C.2       1 HIS         0.0291
     76 CE1        20.9020    9.5660   44.0810 C.2       1 HIS         0.0907
     77 NE2        22.2110    9.7410   44.0790 N.pl3     1 HIS        -0.2752
     78 N          19.3660   11.3000   38.1360 N.am      1 PRO        -0.2497
     79 CA         19.1190   12.1250   36.9550 C.3       1 PRO         0.1340
     80 C          19.8080   13.4870   37.0710 C.2       1 PRO         0.2067
     81 O          20.0710   13.9430   38.1920 O.2       1 PRO        -0.3942
     82 CB         17.5940   12.2900   36.9550 C.3       1 PRO        -0.0104
     83 CG         17.1720   12.0210   38.3380 C.3       1 PRO        -0.0281
     84 CD         18.1230   11.0100   38.8710 C.3       1 PRO         0.0369
     85 N          20.1160   14.1260   35.9230 N.am      1 PRO        -0.2511
     86 CA         20.6820   15.4790   35.8690 C.3       1 PRO         0.1156
     87 C          20.0330   16.4480   36.8490 C.2       1 PRO         0.1247
     88 O          18.8240   16.3860   37.0610 O.2       1 PRO        -0.3725
     89 CB         20.3730   15.9120   34.4400 C.3       1 PRO        -0.0117
     90 CG         20.4700   14.6490   33.6630 C.3       1 PRO        -0.0281
     91 CD         19.9600   13.5570   34.5680 C.3       1 PRO         0.0370
     92 H1         21.0354   -4.3562   53.8333 H         1 ARG         0.2015
     93 H2         20.0273   -3.2700   53.1170 H         1 ARG         0.2015
     94 H3         21.4775   -2.7749   53.7179 H         1 ARG         0.2015
     95 H4         22.6896   -4.0483   52.1222 H         1 ARG         0.1098
     96 H5         19.9143   -4.8067   51.1135 H         1 ARG         0.0347
     97 H6         21.1160   -5.8944   51.8877 H         1 ARG         0.0347
     98 H7         22.6783   -5.3601   49.9514 H         1 ARG         0.0302
     99 H8         21.2870   -4.5456   49.1591 H         1 ARG         0.0302
    100 H9         20.0120   -6.6450   49.2044 H         1 ARG         0.0689
    101 H10        21.3724   -7.4666   50.0416 H         1 ARG         0.0689
    102 H11        22.5854   -7.5384   48.0289 H         1 ARG         0.2642
    103 H12        19.7426   -5.5840   45.8739 H         1 ARG         0.2615
    104 H13        19.6283   -5.6070   47.6541 H         1 ARG         0.2615
    105 H14        22.7166   -7.5039   45.7701 H         1 ARG         0.2615
    106 H15        21.4797   -6.6395   44.8184 H         1 ARG         0.2615
    107 H16        23.3248   -3.1326   50.1927 H         1 GLU         0.1885
    108 H17        21.8644   -0.6641   49.3689 H         1 GLU         0.0801
    109 H18        24.8326   -0.5734   49.3659 H         1 GLU         0.0330
    110 H19        24.0907   -0.6852   50.9980 H         1 GLU         0.0330
    111 H20        22.6409    1.2866   50.3191 H         1 GLU         0.0433
    112 H21        23.7233    1.4627   48.8964 H         1 GLU         0.0433
    113 H22        22.4295    0.0563   47.2236 H         1 LEU         0.1883
    114 H23        23.3656   -2.1378   45.4780 H         1 LEU         0.0800
    115 H24        22.7301   -0.5955   43.6188 H         1 LEU         0.0315
    116 H25        22.1890    0.5953   44.8502 H         1 LEU         0.0315
    117 H26        20.4888   -0.9400   45.6560 H         1 LEU         0.0298
    118 H27        19.0410   -1.1001   43.6731 H         1 LEU         0.0232
    119 H28        20.4554   -0.7707   42.6160 H         1 LEU         0.0232
    120 H29        19.8800    0.4855   43.7639 H         1 LEU         0.0232
    121 H30        21.7657   -3.0348   45.2998 H         1 LEU         0.0232
    122 H31        21.5131   -2.8781   43.5283 H         1 LEU         0.0232
    123 H32        20.1071   -3.1319   44.6171 H         1 LEU         0.0232
    124 H33        25.3302   -2.2886   44.7308 H         1 LEU         0.1883
    125 H34        27.1472    0.0769   44.7700 H         1 LEU         0.0800
    126 H35        28.8996   -1.1425   45.8122 H         1 LEU         0.0315
    127 H36        27.9650   -2.6751   45.7466 H         1 LEU         0.0315
    128 H37        26.3869   -1.5150   47.4352 H         1 LEU         0.0298
    129 H38        27.8120   -2.3156   49.3075 H         1 LEU         0.0232
    130 H39        29.2171   -2.3925   48.1911 H         1 LEU         0.0232
    131 H40        27.7992   -3.4629   47.9254 H         1 LEU         0.0232
    132 H41        27.3564    0.7588   47.2580 H         1 LEU         0.0232
    133 H42        28.9167    0.1348   47.8928 H         1 LEU         0.0232
    134 H43        27.4506    0.1101   48.9304 H         1 LEU         0.0232
    135 H44        28.1382    1.1033   43.4359 H         1 PRO         0.0802
    136 H45        29.4310    1.3568   41.4728 H         1 PRO         0.0313
    137 H46        27.9378    2.1818   40.9102 H         1 PRO         0.0313
    138 H47        28.9800    0.1041   39.5839 H         1 PRO         0.0287
    139 H48        27.2052    0.3416   39.7260 H         1 PRO         0.0287
    140 H49        27.2192   -1.7678   40.6511 H         1 PRO         0.0524
    141 H50        28.9728   -1.6903   41.0328 H         1 PRO         0.0524
    142 H51        26.8692    2.9162   43.5048 H         1 GLU         0.1883
    143 H52        24.1256    2.8225   43.8469 H         1 GLU         0.0801
    144 H53        25.2769    5.3266   42.6977 H         1 GLU         0.0330
    145 H54        26.1643    4.6379   44.0995 H         1 GLU         0.0330
    146 H55        24.0991    4.7402   45.4295 H         1 GLU         0.0433
    147 H56        23.2543    5.4858   44.0305 H         1 GLU         0.0433
    148 H57        22.3164    3.1305   42.5762 H         1 LEU         0.1883
    149 H58        22.4672    3.1879   39.6862 H         1 LEU         0.0800
    150 H59        20.0650    3.8732   39.8123 H         1 LEU         0.0315
    151 H60        20.2214    3.9139   41.6013 H         1 LEU         0.0315
    152 H61        20.7124    1.4684   41.5377 H         1 LEU         0.0298
    153 H62        18.3593    0.7913   41.1899 H         1 LEU         0.0232
    154 H63        18.0320    2.3718   40.4016 H         1 LEU         0.0232
    155 H64        18.5020    2.3125   42.1343 H         1 LEU         0.0232
    156 H65        21.4312    1.2934   39.1742 H         1 LEU         0.0232
    157 H66        19.7494    1.6430   38.6489 H         1 LEU         0.0232
    158 H67        20.1080    0.1474   39.5770 H         1 LEU         0.0232
    159 H68        23.5904    7.4186   39.3536 H         1 PRO         0.0802
    160 H69        24.2171    7.0383   37.1356 H         1 PRO         0.0313
    161 H70        22.7145    7.9460   36.7552 H         1 PRO         0.0313
    162 H71        23.1085    5.4629   35.8471 H         1 PRO         0.0287
    163 H72        21.4859    6.0181   36.3815 H         1 PRO         0.0287
    164 H73        21.6661    4.1525   37.7521 H         1 PRO         0.0524
    165 H74        23.4610    4.2174   37.7786 H         1 PRO         0.0524
    166 H75        22.7464    9.3178   39.8735 H         1 HIS         0.1885
    167 H76        19.8568    9.6823   40.0576 H         1 HIS         0.0817
    168 H77        20.4450   11.9209   40.9270 H         1 HIS         0.0420
    169 H78        22.1689   11.6292   40.5152 H         1 HIS         0.0420
    170 H79        23.5895   10.6074   42.5970 H         1 HIS         0.0729
    171 H80        20.3223    9.1062   44.8801 H         1 HIS         0.1199
    172 H81        22.8523    9.4720   44.8388 H         1 HIS         0.2361
    173 H82        19.4623   11.6168   36.0418 H         1 PRO         0.0802
    174 H83        17.1291   11.5713   36.2641 H         1 PRO         0.0313
    175 H84        17.3176   13.3131   36.6604 H         1 PRO         0.0313
    176 H85        16.1458   11.6251   38.3537 H         1 PRO         0.0287
    177 H86        17.2189   12.9422   38.9373 H         1 PRO         0.0287
    178 H87        18.2664   11.1355   39.9543 H         1 PRO         0.0524
    179 H88        17.7708    9.9888   38.6636 H         1 PRO         0.0524
    180 H89        21.7661   15.4512   36.0532 H         1 PRO         0.0792
    181 H90        20.6391   17.1942   37.3607 H         1 PRO         0.1373
    182 H91        21.1087   16.6488   34.0851 H         1 PRO         0.0314
    183 H92        19.3621   16.3399   34.3692 H         1 PRO         0.0314
    184 H93        21.5154   14.4538   33.3819 H         1 PRO         0.0287
    185 H94        19.8518   14.7115   32.7553 H         1 PRO         0.0287
    186 H95        18.9043   13.3323   34.3557 H         1 PRO         0.0524
    187 H96        20.5596   12.6417   34.4551 H         1 PRO         0.0524
@<TRIPOS>BOND
     1    1    2 1  
     2    2    3 1  
     3    2    5 1  
     4    3    4 2  
     5    3   12 am 
     6    5    6 1  
     7    6    7 1  
     8    7    8 1  
     9    8    9 ar 
    10    9   10 ar 
    11    9   11 ar 
    12   12   13 1  
    13   13   14 1  
    14   13   16 1  
    15   14   15 2  
    16   14   21 am 
    17   16   17 1  
    18   17   18 1  
    19   18   19 ar 
    20   18   20 ar 
    21   21   22 1  
    22   22   23 1  
    23   22   25 1  
    24   23   24 2  
    25   23   29 am 
    26   25   26 1  
    27   26   27 1  
    28   26   28 1  
    29   29   30 1  
    30   30   31 1  
    31   30   33 1  
    32   31   32 2  
    33   31   37 am 
    34   33   34 1  
    35   34   35 1  
    36   34   36 1  
    37   37   38 1  
    38   37   43 1  
    39   38   39 1  
    40   38   41 1  
    41   39   40 2  
    42   39   44 am 
    43   41   42 1  
    44   42   43 1  
    45   44   45 1  
    46   45   46 1  
    47   45   48 1  
    48   46   47 2  
    49   46   53 am 
    50   48   49 1  
    51   49   50 1  
    52   50   51 ar 
    53   50   52 ar 
    54   53   54 1  
    55   54   55 1  
    56   54   57 1  
    57   55   56 2  
    58   55   61 am 
    59   57   58 1  
    60   58   59 1  
    61   58   60 1  
    62   61   62 1  
    63   61   67 1  
    64   62   63 1  
    65   62   65 1  
    66   63   64 2  
    67   63   68 am 
    68   65   66 1  
    69   66   67 1  
    70   68   69 1  
    71   69   70 1  
    72   69   72 1  
    73   70   71 2  
    74   70   78 am 
    75   72   73 1  
    76   73   74 1  
    77   73   75 2  
    78   74   76 2  
    79   75   77 1  
    80   76   77 1  
    81   78   79 1  
    82   78   84 1  
    83   79   80 1  
    84   79   82 1  
    85   80   81 2  
    86   80   85 am 
    87   82   83 1  
    88   83   84 1  
    89   85   86 1  
    90   85   91 1  
    91   86   87 1  
    92   86   89 1  
    93   87   88 2  
    94   89   90 1  
    95   90   91 1  
    96    1   92 1  
    97    1   93 1  
    98    1   94 1  
    99    2   95 1  
   100    5   96 1  
   101    5   97 1  
   102    6   98 1  
   103    6   99 1  
   104    7  100 1  
   105    7  101 1  
   106    8  102 1  
   107   10  103 1  
   108   10  104 1  
   109   11  105 1  
   110   11  106 1  
   111   12  107 1  
   112   13  108 1  
   113   16  109 1  
   114   16  110 1  
   115   17  111 1  
   116   17  112 1  
   117   21  113 1  
   118   22  114 1  
   119   25  115 1  
   120   25  116 1  
   121   26  117 1  
   122   27  118 1  
   123   27  119 1  
   124   27  120 1  
   125   28  121 1  
   126   28  122 1  
   127   28  123 1  
   128   29  124 1  
   129   30  125 1  
   130   33  126 1  
   131   33  127 1  
   132   34  128 1  
   133   35  129 1  
   134   35  130 1  
   135   35  131 1  
   136   36  132 1  
   137   36  133 1  
   138   36  134 1  
   139   38  135 1  
   140   41  136 1  
   141   41  137 1  
   142   42  138 1  
   143   42  139 1  
   144   43  140 1  
   145   43  141 1  
   146   44  142 1  
   147   45  143 1  
   148   48  144 1  
   149   48  145 1  
   150   49  146 1  
   151   49  147 1  
   152   53  148 1  
   153   54  149 1  
   154   57  150 1  
   155   57  151 1  
   156   58  152 1  
   157   59  153 1  
   158   59  154 1  
   159   59  155 1  
   160   60  156 1  
   161   60  157 1  
   162   60  158 1  
   163   62  159 1  
   164   65  160 1  
   165   65  161 1  
   166   66  162 1  
   167   66  163 1  
   168   67  164 1  
   169   67  165 1  
   170   68  166 1  
   171   69  167 1  
   172   72  168 1  
   173   72  169 1  
   174   75  170 1  
   175   76  171 1  
   176   77  172 1  
   177   79  173 1  
   178   82  174 1  
   179   82  175 1  
   180   83  176 1  
   181   83  177 1  
   182   84  178 1  
   183   84  179 1  
   184   86  180 1  
   185   87  181 1  
   186   89  182 1  
   187   89  183 1  
   188   90  184 1  
   189   90  185 1  
   190   91  186 1  
   191   91  187 1  
@<TRIPOS>SUBSTRUCTURE
     1 ARG         1

