4o1l_ligand
  -I-interpret- 

 34 36  0  0  0  0  0  0  0  0999 V2000
   16.2100   22.5570   14.0030 C   0  0  0  0  0
   16.6050   21.6840   14.5540 C   0  0  0  0  0
   17.1140   20.6550   15.1040 C   0  0  0  0  0
   18.4510   20.6160   15.1380 C   0  0  0  0  0
   16.5630   19.6180   15.7730 C   0  0  0  0  0
   15.2920   19.1740   16.0760 C   0  0  0  0  0
   14.2260   19.8610   15.6540 N   0  0  0  0  0
   15.1020   18.0660   16.7810 N   0  0  0  0  0
   16.2170   17.3350   17.1990 C   0  0  0  0  0
   17.4870   17.7700   16.8410 N   0  0  0  0  0
   17.6400   18.9010   16.1820 C   0  0  0  0  0
   18.7740   19.5080   15.7860 N   0  0  0  0  0
   20.1190   18.9730   16.0500 C   0  0  0  0  0
   20.8750   19.8880   16.7590 O   0  0  0  0  0
   22.2680   19.4050   16.5980 C   0  0  0  0  0
   23.2530   20.5090   16.7360 C   0  0  0  0  0
   23.4180   20.6380   18.1180 O   0  0  0  0  0
   22.3270   18.8920   15.1770 C   0  0  0  0  0
   22.9330   17.6000   15.1980 O   0  0  0  0  0
   20.8710   18.8140   14.7560 C   0  0  0  0  0
   20.6100   17.5110   14.2200 O   0  0  0  0  0
   19.1373   21.3503   14.7162 H   0  0  0  0  0
   14.3520   20.7133   15.1081 H   0  0  0  0  0
   13.2865   19.5329   15.8779 H   0  0  0  0  0
   16.0919   16.4337   17.7991 H   0  0  0  0  0
   19.9839   18.0343   16.5872 H   0  0  0  0  0
   22.5110   18.6583   17.3540 H   0  0  0  0  0
   22.9086   21.4328   16.2712 H   0  0  0  0  0
   24.1912   20.2944   16.2243 H   0  0  0  0  0
   24.0475   21.3396   18.2999 H   0  0  0  0  0
   22.9055   19.5144   14.4943 H   0  0  0  0  0
   22.9802   17.2554   14.3032 H   0  0  0  0  0
   20.5977   19.5548   14.0046 H   0  0  0  0  0
   21.0876   17.4044   13.3941 H   0  0  0  0  0
  1  2  3  0  0  0
  2  3  1  0  0  0
  3  4  4  0  0  0
  3  5  4  0  0  0
  4 12  4  0  0  0
  5  6  4  0  0  0
  5 11  4  0  0  0
  6  7  1  0  0  0
  6  8  4  0  0  0
  8  9  4  0  0  0
  9 10  4  0  0  0
 10 11  4  0  0  0
 11 12  4  0  0  0
 12 13  1  0  0  0
 13 14  1  0  0  0
 13 20  1  0  0  0
 14 15  1  0  0  0
 15 16  1  0  0  0
 15 18  1  0  0  0
 16 17  1  0  0  0
 18 19  1  0  0  0
 18 20  1  0  0  0
 20 21  1  0  0  0
  4 22  1  0  0  0
  7 23  1  0  0  0
  7 24  1  0  0  0
  9 25  1  0  0  0
 13 26  1  0  0  0
 15 27  1  0  0  0
 16 28  1  0  0  0
 16 29  1  0  0  0
 17 30  1  0  0  0
 18 31  1  0  0  0
 19 32  1  0  0  0
 20 33  1  0  0  0
 21 34  1  0  0  0
M  END
$$$$
