6em7_ligand
  -I-interpret- 

273274  0  0  0  0  0  0  0  0999 V2000
   15.2660  -41.9920   16.9340 N   0  3  0  0  0
   14.6700  -41.1260   15.9110 C   0  0  0  0  0
   13.9820  -39.9470   16.5800 C   0  0  0  0  0
   13.5720  -40.0310   17.7460 O   0  0  0  0  0
   13.6490  -41.8680   15.0460 C   0  0  0  0  0
   12.5070  -42.1780   15.8500 O   0  0  0  0  0
   14.2260  -43.1320   14.4160 C   0  0  0  0  0
   13.8410  -38.8380   15.8510 N   0  0  0  0  0
   13.1770  -37.6740   16.4140 C   0  0  0  0  0
   11.7240  -38.0000   16.7620 C   0  0  0  0  0
   11.2200  -37.5900   17.8150 O   0  0  0  0  0
   13.2560  -36.5000   15.4360 C   0  0  0  0  0
   14.6390  -36.2810   15.1570 O   0  0  0  0  0
   12.6710  -35.2510   16.0500 C   0  0  0  0  0
   11.0420  -38.7550   15.8980 N   0  0  0  0  0
    9.6900  -39.2220   16.1840 C   0  0  0  0  0
    9.6340  -39.9860   17.5000 C   0  0  0  0  0
    8.7690  -39.7160   18.3470 O   0  0  0  0  0
    9.2210  -40.1170   15.0160 C   0  0  0  0  0
    7.9770  -40.9530   15.3000 C   0  0  0  0  0
    8.0640  -42.3110   15.6230 C   0  0  0  0  0
    6.7350  -40.3720   15.2710 C   0  0  0  0  0
    6.9390  -43.0390   15.8870 C   0  0  0  0  0
    5.5700  -41.1120   15.5420 C   0  0  0  0  0
    5.6960  -42.4400   15.8580 C   0  0  0  0  0
    4.5970  -43.2110   16.1440 O   0  0  0  0  0
   10.5340  -40.9510   17.6970 N   0  0  0  0  0
   10.5220  -41.7230   18.9370 C   0  0  0  0  0
   10.7400  -40.8290   20.1530 C   0  0  0  0  0
   10.1240  -41.0240   21.2120 O   0  0  0  0  0
   11.5720  -42.8290   18.9040 C   0  0  0  0  0
   11.6070  -39.8230   20.0150 N   0  0  0  0  0
   11.8540  -38.9010   21.1110 C   0  0  0  0  0
   10.6040  -38.0740   21.4080 C   0  0  0  0  0
   10.2720  -37.8400   22.5810 O   0  0  0  0  0
   13.0640  -38.0220   20.8000 C   0  0  0  0  0
   14.3760  -38.8030   20.7660 C   0  0  0  0  0
   14.4680  -39.8720   21.4070 O   0  0  0  0  0
   15.3410  -38.3200   20.1210 O   0  0  0  0  0
    9.8820  -37.6400   20.3720 N   0  0  0  0  0
    8.6310  -36.9290   20.6220 C   0  0  0  0  0
    7.6090  -37.8200   21.3350 C   0  0  0  0  0
    6.9830  -37.4110   22.3220 O   0  0  0  0  0
    8.0460  -36.3750   19.3220 C   0  0  0  0  0
    6.7260  -35.6710   19.5270 C   0  0  0  0  0
    6.6570  -34.5340   20.3040 C   0  0  0  0  0
    5.5490  -36.1980   19.0270 C   0  0  0  0  0
    5.4410  -33.8850   20.5060 C   0  0  0  0  0
    4.3380  -35.5430   19.2290 C   0  0  0  0  0
    4.2940  -34.3990   19.9720 C   0  0  0  0  0
    7.4330  -39.0520   20.8470 N   0  0  0  0  0
    6.3770  -39.9470   21.3510 C   0  0  0  0  0
    6.6130  -40.3170   22.8120 C   0  0  0  0  0
    5.6590  -40.5680   23.5600 O   0  0  0  0  0
    6.2660  -41.1840   20.4100 C   0  0  0  0  0
    5.7410  -40.7720   19.0140 C   0  0  0  0  0
    5.3980  -42.3020   20.9860 C   0  0  0  0  0
    4.3770  -40.1820   18.9920 C   0  0  0  0  0
    7.8680  -40.3320   23.2440 N   0  0  0  0  0
    8.2580  -40.6200   24.6140 C   0  0  0  0  0
    8.2580  -39.3790   25.5010 C   0  0  0  0  0
    8.4630  -39.5010   26.7130 O   0  0  0  0  0
    9.6440  -41.2720   24.6300 C   0  0  0  0  0
    8.0310  -38.1940   24.9370 N   0  0  0  0  0
    8.0370  -36.9580   25.6920 C   0  0  0  0  0
    6.7170  -36.7580   26.4320 C   0  0  0  0  0
    5.7130  -37.4240   26.1800 O   0  0  0  0  0
    8.2800  -35.7530   24.7840 C   0  0  0  0  0
    7.0800  -35.3690   24.1100 O   0  0  0  0  0
    6.7310  -35.7860   27.3340 N   0  0  0  0  0
    5.5690  -35.4400   28.1380 C   0  0  0  0  0
    4.5480  -34.5440   27.4850 C   0  0  0  0  0
    3.5560  -34.2130   28.1380 O   0  0  0  0  0
    4.7420  -34.1330   26.2380 N   0  0  0  0  0
    3.8890  -33.1150   25.6250 C   0  0  0  0  0
    3.2550  -33.6060   24.3170 C   0  0  0  0  0
    3.1700  -32.8650   23.3270 O   0  0  0  0  0
    4.6100  -31.7700   25.5070 C   0  0  0  0  0
    5.0680  -31.2190   26.8650 C   0  0  0  0  0
    5.6860  -29.8370   26.7340 C   0  0  0  0  0
    4.7590  -28.8500   26.1800 N   0  0  0  0  0
    3.9300  -28.0880   26.8880 C   0  0  0  0  0
    3.1540  -27.2210   26.2390 N   0  0  0  0  0
    3.8670  -28.1880   28.2160 N   0  0  0  0  0
    2.7910  -34.8660   24.3090 N   0  0  0  0  0
    2.1100  -35.4480   23.1520 C   0  0  0  0  0
    0.5910  -35.3510   23.2160 C   0  0  0  0  0
   -0.0490  -35.6450   22.2030 O   0  0  0  0  0
    2.5010  -36.9260   22.9570 C   0  0  0  0  0
    1.9160  -37.7710   23.9650 O   0  0  0  0  0
    4.0220  -37.1090   22.9270 C   0  0  0  0  0
    0.0180  -34.9420   24.3600 N   0  0  0  0  0
   -1.4150  -34.7680   24.5010 C   0  0  0  0  0
   -1.8310  -33.3270   24.2300 C   0  0  0  0  0
   -1.0340  -32.4750   23.8430 O   0  0  0  0  0
   -3.1060  -33.0420   24.4680 N   0  0  0  0  0
   -3.6280  -31.7050   24.2120 C   0  0  0  0  0
   -2.8710  -30.6790   25.0500 C   0  0  0  0  0
   -2.6550  -30.8620   26.2570 O   0  0  0  0  0
   -5.1280  -31.6290   24.5230 C   0  0  0  0  0
   -5.9950  -32.5180   23.6300 C   0  0  0  0  0
   -7.4450  -32.5770   24.0660 C   0  0  0  0  0
   -8.1900  -31.3670   23.7540 N   0  0  0  0  0
   -8.5420  -30.4150   24.6210 C   0  0  0  0  0
   -8.1790  -30.4670   25.8980 N   0  0  0  0  0
   -9.2750  -29.3840   24.1990 N   0  0  0  0  0
   -2.4890  -29.5760   24.4130 N   0  0  0  0  0
   -1.6700  -28.5390   25.0300 C   0  0  0  0  0
   -2.5120  -27.3220   25.3900 C   0  0  0  0  0
   -3.2870  -26.8330   24.5700 O   0  0  0  0  0
   -0.5500  -28.1240   24.0770 C   0  0  0  0  0
    0.4100  -29.2860   23.7980 C   0  0  0  0  0
    1.1960  -29.1250   22.4920 C   0  0  0  0  0
    0.3060  -29.1910   21.3460 N   0  0  0  0  0
    0.7050  -29.3570   20.0920 C   0  0  0  0  0
   -0.1790  -29.3360   19.1180 N   0  0  0  0  0
    1.9880  -29.5100   19.7990 N   0  0  0  0  0
   -2.3570  -26.8500   26.6230 N   0  0  0  0  0
   -3.0860  -25.7010   27.1320 C   0  0  0  0  0
   -2.3180  -24.4140   26.8920 C   0  0  0  0  0
   -1.0890  -24.3960   26.7750 O   0  0  0  0  0
   -3.3050  -25.8480   28.6340 C   0  0  0  0  0
   -3.9540  -27.0680   28.8780 O   0  0  0  0  0
   -3.0700  -23.3200   26.8360 N   0  0  0  0  0
   -2.4710  -22.0100   26.7200 C   0  0  0  0  0
   -1.7800  -21.6490   28.0240 C   0  0  0  0  0
   -2.1630  -22.1100   29.1070 O   0  0  0  0  0
   -3.5490  -20.9700   26.4250 C   0  0  0  0  0
   -0.7560  -20.8100   27.9170 N   0  0  0  0  0
   -0.0190  -20.3550   29.0900 C   0  0  0  0  0
   -0.8750  -19.3840   29.9030 C   0  0  0  0  0
   -0.6060  -19.1760   31.0800 O   0  0  0  0  0
    1.3650  -19.7610   28.7370 C   0  0  0  0  0
    1.2160  -18.4600   27.9400 C   0  0  0  0  0
    2.2070  -20.7710   27.9680 C   0  0  0  0  0
    2.5220  -17.7440   27.6520 C   0  0  0  0  0
   -1.8480  -18.7980   29.4090 O   0  0  0  0  0
   15.9373  -41.4552   17.4832 H   0  0  0  0  0
   14.5318  -42.3483   17.5459 H   0  0  0  0  0
   15.7419  -42.7726   16.4817 H   0  0  0  0  0
   15.4781  -40.7865   15.2630 H   0  0  0  0  0
   13.3626  -41.2190   14.2185 H   0  0  0  0  0
   12.1602  -41.3704   16.2362 H   0  0  0  0  0
   14.5264  -43.8240   15.2028 H   0  0  0  0  0
   13.4692  -43.6010   13.7872 H   0  0  0  0  0
   15.0932  -42.8708   13.8095 H   0  0  0  0  0
   14.2000  -38.8072   14.8967 H   0  0  0  0  0
   13.6861  -37.3897   17.3349 H   0  0  0  0  0
   12.6925  -36.7271   14.5310 H   0  0  0  0  0
   14.7284  -35.5480   14.5435 H   0  0  0  0  0
   11.6259  -35.4278   16.3042 H   0  0  0  0  0
   13.2275  -34.9961   16.9519 H   0  0  0  0  0
   12.7387  -34.4305   15.3356 H   0  0  0  0  0
   11.4785  -39.0126   15.0129 H   0  0  0  0  0
    9.0275  -38.3622   16.2835 H   0  0  0  0  0
   10.0306  -40.8181   14.8134 H   0  0  0  0  0
    8.9693  -39.4502   14.1913 H   0  0  0  0  0
    9.0404  -42.7937   15.6645 H   0  0  0  0  0
    6.6487  -39.3120   15.0323 H   0  0  0  0  0
    7.0234  -44.1000   16.1221 H   0  0  0  0  0
    4.5884  -40.6399   15.5016 H   0  0  0  0  0
    3.8053  -42.6710   16.0876 H   0  0  0  0  0
   11.2319  -41.1501   16.9803 H   0  0  0  0  0
    9.5364  -42.1805   19.0228 H   0  0  0  0  0
   11.3638  -43.5012   18.0716 H   0  0  0  0  0
   12.5600  -42.3865   18.7771 H   0  0  0  0  0
   11.5398  -43.3868   19.8399 H   0  0  0  0  0
   12.1011  -39.7003   19.1312 H   0  0  0  0  0
   12.0851  -39.4700   22.0115 H   0  0  0  0  0
   13.1430  -37.2744   21.5893 H   0  0  0  0  0
   12.9121  -37.5850   19.8131 H   0  0  0  0  0
   15.0665  -37.5011   19.7020 H   0  0  0  0  0
   10.2005  -37.8032   19.4169 H   0  0  0  0  0
    8.8600  -36.0915   21.2810 H   0  0  0  0  0
    7.8751  -37.2148   18.6485 H   0  0  0  0  0
    8.7528  -35.6485   18.9210 H   0  0  0  0  0
    7.5626  -34.1392   20.7646 H   0  0  0  0  0
    5.5702  -37.1346   18.4698 H   0  0  0  0  0
    5.4050  -32.9659   21.0909 H   0  0  0  0  0
    3.4231  -35.9442   18.7931 H   0  0  0  0  0
    3.3421  -33.8950   20.1394 H   0  0  0  0  0
    8.0482  -39.3822   20.1035 H   0  0  0  0  0
    5.4163  -39.4322   21.3370 H   0  0  0  0  0
    7.2766  -41.5811   20.3150 H   0  0  0  0  0
    5.6945  -41.6837   18.4184 H   0  0  0  0  0
    6.4180  -40.0028   18.6424 H   0  0  0  0  0
    5.8249  -42.6423   21.9294 H   0  0  0  0  0
    4.3894  -41.9257   21.1569 H   0  0  0  0  0
    5.3627  -43.1327   20.2811 H   0  0  0  0  0
    3.6636  -40.9044   19.3886 H   0  0  0  0  0
    4.3624  -39.2808   19.6050 H   0  0  0  0  0
    4.1082  -39.9296   17.9663 H   0  0  0  0  0
    8.6066  -40.1282   22.5707 H   0  0  0  0  0
    7.5149  -41.3043   25.0235 H   0  0  0  0  0
    9.6141  -42.2003   24.0594 H   0  0  0  0  0
   10.3691  -40.5922   24.1825 H   0  0  0  0  0
    9.9316  -41.4859   25.6594 H   0  0  0  0  0
    7.8458  -38.1554   23.9347 H   0  0  0  0  0
    8.8499  -37.0337   26.4142 H   0  0  0  0  0
    9.0286  -36.0221   24.0389 H   0  0  0  0  0
    8.6201  -34.9174   25.3957 H   0  0  0  0  0
    7.2586  -34.6119   23.5473 H   0  0  0  0  0
    7.5933  -35.2584   27.4699 H   0  0  0  0  0
    5.9486  -34.8903   28.9993 H   0  0  0  0  0
    5.0571  -36.3784   28.3513 H   0  0  0  0  0
    5.5044  -34.5368   25.6939 H   0  0  0  0  0
    3.0481  -32.9350   26.2948 H   0  0  0  0  0
    3.9114  -31.0537   25.0746 H   0  0  0  0  0
    5.4969  -31.9197   24.8913 H   0  0  0  0  0
    5.8210  -31.8938   27.2722 H   0  0  0  0  0
    4.1968  -31.1444   27.5159 H   0  0  0  0  0
    6.5351  -29.9146   26.0550 H   0  0  0  0  0
    5.9709  -29.5034   27.7318 H   0  0  0  0  0
    4.7475  -28.7368   25.1664 H   0  0  0  0  0
    3.2043  -27.1532   25.2225 H   0  0  0  0  0
    3.2217  -27.5985   28.7418 H   0  0  0  0  0
    4.4641  -28.8540   28.7062 H   0  0  0  0  0
    2.9183  -35.4402   25.1424 H   0  0  0  0  0
    2.4439  -34.8504   22.3038 H   0  0  0  0  0
    2.1021  -37.2289   21.9889 H   0  0  0  0  0
    2.1809  -38.6809   23.8114 H   0  0  0  0  0
    4.4401  -36.5307   22.1031 H   0  0  0  0  0
    4.4471  -36.7618   23.8687 H   0  0  0  0  0
    4.2570  -38.1642   22.7880 H   0  0  0  0  0
    0.6155  -34.7456   25.1630 H   0  0  0  0  0
   -1.6951  -35.0222   25.5233 H   0  0  0  0  0
   -1.9143  -35.4136   23.7785 H   0  0  0  0  0
   -3.7258  -33.7651   24.8332 H   0  0  0  0  0
   -3.4868  -31.4826   23.1543 H   0  0  0  0  0
   -5.4411  -30.5986   24.3546 H   0  0  0  0  0
   -5.2631  -31.9718   25.5488 H   0  0  0  0  0
   -5.5938  -33.5300   23.6852 H   0  0  0  0  0
   -5.9710  -32.0971   22.6248 H   0  0  0  0  0
   -7.4584  -32.7019   25.1487 H   0  0  0  0  0
   -7.9165  -33.4011   23.5307 H   0  0  0  0  0
   -8.4694  -31.2336   22.7821 H   0  0  0  0  0
   -7.6175  -31.2481   26.2372 H   0  0  0  0  0
   -9.5484  -28.6509   24.8534 H   0  0  0  0  0
   -9.5622  -29.3285   23.2219 H   0  0  0  0  0
   -2.7834  -29.4489   23.4447 H   0  0  0  0  0
   -1.2392  -28.9451   25.9452 H   0  0  0  0  0
    0.0139  -27.3138   24.5392 H   0  0  0  0  0
   -0.9976  -27.8119   23.1334 H   0  0  0  0  0
   -0.1880  -30.1933   23.7122 H   0  0  0  0  0
    1.1317  -29.3195   24.6142 H   0  0  0  0  0
    1.9260  -29.9311   22.4183 H   0  0  0  0  0
    1.6929  -28.1549   22.4970 H   0  0  0  0  0
   -0.6957  -29.1036   21.5175 H   0  0  0  0  0
   -1.1666  -29.1925   19.3287 H   0  0  0  0  0
    2.2808  -29.6099   18.8270 H   0  0  0  0  0
    2.6830  -29.5279   20.5454 H   0  0  0  0  0
   -1.6941  -27.3171   27.2417 H   0  0  0  0  0
   -4.0398  -25.6576   26.6061 H   0  0  0  0  0
   -3.9168  -25.0238   29.0009 H   0  0  0  0  0
   -2.3457  -25.8296   29.1511 H   0  0  0  0  0
   -4.0966  -27.1701   29.8218 H   0  0  0  0  0
   -4.0856  -23.4061   26.8755 H   0  0  0  0  0
   -1.7449  -22.0234   25.9072 H   0  0  0  0  0
   -4.0486  -21.2217   25.4895 H   0  0  0  0  0
   -4.2767  -20.9627   27.2365 H   0  0  0  0  0
   -3.0887  -19.9857   26.3392 H   0  0  0  0  0
   -0.4790  -20.4765   26.9937 H   0  0  0  0  0
    0.1917  -21.2278   29.7080 H   0  0  0  0  0
    1.8792  -19.5288   29.6696 H   0  0  0  0  0
    0.6089  -17.7848   28.5430 H   0  0  0  0  0
    0.7788  -18.7246   26.9772 H   0  0  0  0  0
    2.3518  -21.6618   28.5793 H   0  0  0  0  0
    1.6943  -21.0416   27.0449 H   0  0  0  0  0
    3.1752  -20.3298   27.7314 H   0  0  0  0  0
    3.0084  -17.4857   28.5927 H   0  0  0  0  0
    3.1733  -18.3981   27.0724 H   0  0  0  0  0
    2.3194  -16.8355   27.0848 H   0  0  0  0  0
   -1.9402  -19.0533   28.4882 H   0  0  0  0  0
  1  2  1  0  0  0
  2  3  1  0  0  0
  2  5  1  0  0  0
  3  4  2  0  0  0
  3  8  1  0  0  0
  5  6  1  0  0  0
  5  7  1  0  0  0
  8  9  1  0  0  0
  9 10  1  0  0  0
  9 12  1  0  0  0
 10 11  2  0  0  0
 10 15  1  0  0  0
 12 13  1  0  0  0
 12 14  1  0  0  0
 15 16  1  0  0  0
 16 17  1  0  0  0
 16 19  1  0  0  0
 17 18  2  0  0  0
 17 27  1  0  0  0
 19 20  1  0  0  0
 20 21  4  0  0  0
 20 22  4  0  0  0
 21 23  4  0  0  0
 22 24  4  0  0  0
 23 25  4  0  0  0
 24 25  4  0  0  0
 25 26  1  0  0  0
 27 28  1  0  0  0
 28 29  1  0  0  0
 28 31  1  0  0  0
 29 30  2  0  0  0
 29 32  1  0  0  0
 32 33  1  0  0  0
 33 34  1  0  0  0
 33 36  1  0  0  0
 34 35  2  0  0  0
 34 40  1  0  0  0
 36 37  1  0  0  0
 37 38  2  0  0  0
 37 39  1  0  0  0
 40 41  1  0  0  0
 41 42  1  0  0  0
 41 44  1  0  0  0
 42 43  2  0  0  0
 42 51  1  0  0  0
 44 45  1  0  0  0
 45 46  4  0  0  0
 45 47  4  0  0  0
 46 48  4  0  0  0
 47 49  4  0  0  0
 48 50  4  0  0  0
 49 50  4  0  0  0
 51 52  1  0  0  0
 52 53  1  0  0  0
 52 55  1  0  0  0
 53 54  2  0  0  0
 53 59  1  0  0  0
 55 56  1  0  0  0
 55 57  1  0  0  0
 56 58  1  0  0  0
 59 60  1  0  0  0
 60 61  1  0  0  0
 60 63  1  0  0  0
 61 62  2  0  0  0
 61 64  1  0  0  0
 64 65  1  0  0  0
 65 66  1  0  0  0
 65 68  1  0  0  0
 66 67  2  0  0  0
 66 70  1  0  0  0
 68 69  1  0  0  0
 70 71  1  0  0  0
 71 72  1  0  0  0
 72 73  2  0  0  0
 72 74  1  0  0  0
 74 75  1  0  0  0
 75 76  1  0  0  0
 75 78  1  0  0  0
 76 77  2  0  0  0
 76 85  1  0  0  0
 78 79  1  0  0  0
 79 80  1  0  0  0
 80 81  1  0  0  0
 81 82  1  0  0  0
 82 83  2  0  0  0
 82 84  1  0  0  0
 85 86  1  0  0  0
 86 87  1  0  0  0
 86 89  1  0  0  0
 87 88  2  0  0  0
 87 92  1  0  0  0
 89 90  1  0  0  0
 89 91  1  0  0  0
 92 93  1  0  0  0
 93 94  1  0  0  0
 94 95  2  0  0  0
 94 96  1  0  0  0
 96 97  1  0  0  0
 97 98  1  0  0  0
 97100  1  0  0  0
 98 99  2  0  0  0
 98107  1  0  0  0
100101  1  0  0  0
101102  1  0  0  0
102103  1  0  0  0
103104  1  0  0  0
104105  2  0  0  0
104106  1  0  0  0
107108  1  0  0  0
108109  1  0  0  0
108111  1  0  0  0
109110  2  0  0  0
109118  1  0  0  0
111112  1  0  0  0
112113  1  0  0  0
113114  1  0  0  0
114115  1  0  0  0
115116  2  0  0  0
115117  1  0  0  0
118119  1  0  0  0
119120  1  0  0  0
119122  1  0  0  0
120121  2  0  0  0
120124  1  0  0  0
122123  1  0  0  0
124125  1  0  0  0
125126  1  0  0  0
125128  1  0  0  0
126127  2  0  0  0
126129  1  0  0  0
129130  1  0  0  0
130131  1  0  0  0
130133  1  0  0  0
131132  2  0  0  0
131137  1  0  0  0
133134  1  0  0  0
133135  1  0  0  0
134136  1  0  0  0
  1138  1  0  0  0
  1139  1  0  0  0
  1140  1  0  0  0
  2141  1  0  0  0
  5142  1  0  0  0
  6143  1  0  0  0
  7144  1  0  0  0
  7145  1  0  0  0
  7146  1  0  0  0
  8147  1  0  0  0
  9148  1  0  0  0
 12149  1  0  0  0
 13150  1  0  0  0
 14151  1  0  0  0
 14152  1  0  0  0
 14153  1  0  0  0
 15154  1  0  0  0
 16155  1  0  0  0
 19156  1  0  0  0
 19157  1  0  0  0
 21158  1  0  0  0
 22159  1  0  0  0
 23160  1  0  0  0
 24161  1  0  0  0
 26162  1  0  0  0
 27163  1  0  0  0
 28164  1  0  0  0
 31165  1  0  0  0
 31166  1  0  0  0
 31167  1  0  0  0
 32168  1  0  0  0
 33169  1  0  0  0
 36170  1  0  0  0
 36171  1  0  0  0
 39172  1  0  0  0
 40173  1  0  0  0
 41174  1  0  0  0
 44175  1  0  0  0
 44176  1  0  0  0
 46177  1  0  0  0
 47178  1  0  0  0
 48179  1  0  0  0
 49180  1  0  0  0
 50181  1  0  0  0
 51182  1  0  0  0
 52183  1  0  0  0
 55184  1  0  0  0
 56185  1  0  0  0
 56186  1  0  0  0
 57187  1  0  0  0
 57188  1  0  0  0
 57189  1  0  0  0
 58190  1  0  0  0
 58191  1  0  0  0
 58192  1  0  0  0
 59193  1  0  0  0
 60194  1  0  0  0
 63195  1  0  0  0
 63196  1  0  0  0
 63197  1  0  0  0
 64198  1  0  0  0
 65199  1  0  0  0
 68200  1  0  0  0
 68201  1  0  0  0
 69202  1  0  0  0
 70203  1  0  0  0
 71204  1  0  0  0
 71205  1  0  0  0
 74206  1  0  0  0
 75207  1  0  0  0
 78208  1  0  0  0
 78209  1  0  0  0
 79210  1  0  0  0
 79211  1  0  0  0
 80212  1  0  0  0
 80213  1  0  0  0
 81214  1  0  0  0
 83215  1  0  0  0
 84216  1  0  0  0
 84217  1  0  0  0
 85218  1  0  0  0
 86219  1  0  0  0
 89220  1  0  0  0
 90221  1  0  0  0
 91222  1  0  0  0
 91223  1  0  0  0
 91224  1  0  0  0
 92225  1  0  0  0
 93226  1  0  0  0
 93227  1  0  0  0
 96228  1  0  0  0
 97229  1  0  0  0
100230  1  0  0  0
100231  1  0  0  0
101232  1  0  0  0
101233  1  0  0  0
102234  1  0  0  0
102235  1  0  0  0
103236  1  0  0  0
105237  1  0  0  0
106238  1  0  0  0
106239  1  0  0  0
107240  1  0  0  0
108241  1  0  0  0
111242  1  0  0  0
111243  1  0  0  0
112244  1  0  0  0
112245  1  0  0  0
113246  1  0  0  0
113247  1  0  0  0
114248  1  0  0  0
116249  1  0  0  0
117250  1  0  0  0
117251  1  0  0  0
118252  1  0  0  0
119253  1  0  0  0
122254  1  0  0  0
122255  1  0  0  0
123256  1  0  0  0
124257  1  0  0  0
125258  1  0  0  0
128259  1  0  0  0
128260  1  0  0  0
128261  1  0  0  0
129262  1  0  0  0
130263  1  0  0  0
133264  1  0  0  0
134265  1  0  0  0
134266  1  0  0  0
135267  1  0  0  0
135268  1  0  0  0
135269  1  0  0  0
136270  1  0  0  0
136271  1  0  0  0
136272  1  0  0  0
137273  1  0  0  0
M  END
$$$$
