### 
### Created by X-TOOL on Mon Aug  2 16:10:41 2021
### 

@<TRIPOS>MOLECULE
6em7_ligand
  274   275     1     0     0
SMALL
GAST_HUCK


@<TRIPOS>ATOM
      1 N          15.2660  -41.9920   16.9340 N.4       1 THR         0.2398
      2 CA         14.6700  -41.1260   15.9110 C.3       1 THR         0.0910
      3 C          13.9820  -39.9470   16.5800 C.2       1 THR         0.2293
      4 O          13.5720  -40.0310   17.7460 O.2       1 THR        -0.3906
      5 CB         13.6490  -41.8680   15.0460 C.3       1 THR         0.1120
      6 OG1        12.5070  -42.1780   15.8500 O.3       1 THR        -0.3840
      7 CG2        14.2260  -43.1320   14.4160 C.3       1 THR        -0.0314
      8 N          13.8410  -38.8380   15.8510 N.am      1 THR        -0.2585
      9 CA         13.1770  -37.6740   16.4140 C.3       1 THR         0.1566
     10 C          11.7240  -38.0000   16.7620 C.2       1 THR         0.2066
     11 O          11.2200  -37.5900   17.8150 O.2       1 THR        -0.3943
     12 CB         13.2560  -36.5000   15.4360 C.3       1 THR         0.0924
     13 OG1        14.6390  -36.2810   15.1570 O.3       1 THR        -0.3874
     14 CG2        12.6710  -35.2510   16.0500 C.3       1 THR        -0.0346
     15 N          11.0420  -38.7550   15.8980 N.am      1 THR        -0.2621
     16 CA          9.6900  -39.2220   16.1840 C.3       1 THR         0.1390
     17 C           9.6340  -39.9860   17.5000 C.2       1 THR         0.2057
     18 O           8.7690  -39.7160   18.3470 O.2       1 THR        -0.3942
     19 CB          9.2210  -40.1170   15.0160 C.3       1 THR         0.0163
     20 CG          7.9770  -40.9530   15.3000 C.ar      1 THR        -0.0493
     21 CD1         8.0640  -42.3110   15.6230 C.ar      1 THR        -0.0685
     22 CD2         6.7350  -40.3720   15.2710 C.ar      1 THR        -0.0685
     23 CE1         6.9390  -43.0390   15.8870 C.ar      1 THR        -0.0398
     24 CE2         5.5700  -41.1120   15.5420 C.ar      1 THR        -0.0398
     25 CZ          5.6960  -42.4400   15.8580 C.ar      1 THR         0.0805
     26 OH          4.5970  -43.2110   16.1440 O.3       1 THR        -0.3376
     27 N          10.5340  -40.9510   17.6970 N.am      1 THR        -0.2639
     28 CA         10.5220  -41.7230   18.9370 C.3       1 THR         0.1282
     29 C          10.7400  -40.8290   20.1530 C.2       1 THR         0.2037
     30 O          10.1240  -41.0240   21.2120 O.2       1 THR        -0.3944
     31 CB         11.5720  -42.8290   18.9040 C.3       1 THR        -0.0244
     32 N          11.6070  -39.8230   20.0150 N.am      1 THR        -0.2622
     33 CA         11.8540  -38.9010   21.1110 C.3       1 THR         0.1423
     34 C          10.6040  -38.0740   21.4080 C.2       1 THR         0.2057
     35 O          10.2720  -37.8400   22.5810 O.2       1 THR        -0.3943
     36 CB         13.0640  -38.0220   20.8000 C.3       1 THR         0.0406
     37 CG         14.3760  -38.8030   20.7660 C.2       1 THR         0.0393
     38 OD1        14.4680  -39.8720   21.4070 O.co2     1 THR        -0.5688
     39 OD2        15.3410  -38.3200   20.1210 O.co2     1 THR        -0.5688
     40 N           9.8820  -37.6400   20.3720 N.am      1 THR        -0.2618
     41 CA          8.6310  -36.9290   20.6220 C.3       1 THR         0.1404
     42 C           7.6090  -37.8200   21.3350 C.2       1 THR         0.2060
     43 O           6.9830  -37.4110   22.3220 O.2       1 THR        -0.3942
     44 CB          8.0460  -36.3750   19.3220 C.3       1 THR         0.0214
     45 CG          6.7260  -35.6710   19.5270 C.ar      1 THR        -0.0386
     46 CD1         6.6570  -34.5340   20.3040 C.ar      1 THR        -0.0601
     47 CD2         5.5490  -36.1980   19.0270 C.ar      1 THR        -0.0601
     48 CE1         5.4410  -33.8850   20.5060 C.ar      1 THR        -0.0686
     49 CE2         4.3380  -35.5430   19.2290 C.ar      1 THR        -0.0686
     50 CZ          4.2940  -34.3990   19.9720 C.ar      1 THR        -0.0687
     51 N           7.4330  -39.0520   20.8470 N.am      1 THR        -0.2633
     52 CA          6.3770  -39.9470   21.3510 C.3       1 THR         0.1335
     53 C           6.6130  -40.3170   22.8120 C.2       1 THR         0.2041
     54 O           5.6590  -40.5680   23.5600 O.2       1 THR        -0.3944
     55 CB          6.2660  -41.1840   20.4100 C.3       1 THR        -0.0037
     56 CG1         5.7410  -40.7720   19.0140 C.3       1 THR        -0.0491
     57 CG2         5.3980  -42.3020   20.9860 C.3       1 THR        -0.0582
     58 CD1         4.3770  -40.1820   18.9920 C.3       1 THR        -0.0648
     59 N           7.8680  -40.3320   23.2440 N.am      1 THR        -0.2640
     60 CA          8.2580  -40.6200   24.6140 C.3       1 THR         0.1282
     61 C           8.2580  -39.3790   25.5010 C.2       1 THR         0.2037
     62 O           8.4630  -39.5010   26.7130 O.2       1 THR        -0.3944
     63 CB          9.6440  -41.2720   24.6300 C.3       1 THR        -0.0244
     64 N           8.0310  -38.1940   24.9370 N.am      1 THR        -0.2616
     65 CA          8.0370  -36.9580   25.6920 C.3       1 THR         0.1539
     66 C           6.7170  -36.7580   26.4320 C.2       1 THR         0.2060
     67 O           5.7130  -37.4240   26.1800 O.2       1 THR        -0.3943
     68 CB          8.2800  -35.7530   24.7840 C.3       1 THR         0.0843
     69 OG          7.0800  -35.3690   24.1100 O.3       1 THR        -0.3903
     70 N           6.7310  -35.7860   27.3340 N.am      1 THR        -0.2663
     71 CA          5.5690  -35.4400   28.1380 C.3       1 THR         0.1201
     72 C           4.5480  -34.5440   27.4850 C.2       1 THR         0.2007
     73 O           3.5560  -34.2130   28.1380 O.2       1 THR        -0.3947
     74 N           4.7420  -34.1330   26.2380 N.am      1 THR        -0.2640
     75 CA          3.8890  -33.1150   25.6250 C.3       1 THR         0.1311
     76 C           3.2550  -33.6060   24.3170 C.2       1 THR         0.2040
     77 O           3.1700  -32.8650   23.3270 O.2       1 THR        -0.3944
     78 CB          4.6100  -31.7700   25.5070 C.3       1 THR        -0.0092
     79 CG          5.0680  -31.2190   26.8650 C.3       1 THR        -0.0156
     80 CD          5.6860  -29.8370   26.7340 C.3       1 THR         0.0627
     81 NE          4.7590  -28.8500   26.1800 N.pl3     1 THR        -0.2723
     82 CZ          3.9300  -28.0880   26.8880 C.cat     1 THR         0.2882
     83 NH1         3.1540  -27.2210   26.2390 N.pl3     1 THR        -0.2849
     84 NH2         3.8670  -28.1880   28.2160 N.pl3     1 THR        -0.2849
     85 N           2.7910  -34.8660   24.3090 N.am      1 THR        -0.2613
     86 CA          2.1100  -35.4480   23.1520 C.3       1 THR         0.1565
     87 C           0.5910  -35.3510   23.2160 C.2       1 THR         0.2063
     88 O          -0.0490  -35.6450   22.2030 O.2       1 THR        -0.3943
     89 CB          2.5010  -36.9260   22.9570 C.3       1 THR         0.0924
     90 OG1         1.9160  -37.7710   23.9650 O.3       1 THR        -0.3874
     91 CG2         4.0220  -37.1090   22.9270 C.3       1 THR        -0.0346
     92 N           0.0180  -34.9420   24.3600 N.am      1 THR        -0.2663
     93 CA         -1.4150  -34.7680   24.5010 C.3       1 THR         0.1201
     94 C          -1.8310  -33.3270   24.2300 C.2       1 THR         0.2007
     95 O          -1.0340  -32.4750   23.8430 O.2       1 THR        -0.3947
     96 N          -3.1060  -33.0420   24.4680 N.am      1 THR        -0.2640
     97 CA         -3.6280  -31.7050   24.2120 C.3       1 THR         0.1311
     98 C          -2.8710  -30.6790   25.0500 C.2       1 THR         0.2039
     99 O          -2.6550  -30.8620   26.2570 O.2       1 THR        -0.3944
    100 CB         -5.1280  -31.6290   24.5230 C.3       1 THR        -0.0092
    101 CG         -5.9950  -32.5180   23.6300 C.3       1 THR        -0.0156
    102 CD         -7.4450  -32.5770   24.0660 C.3       1 THR         0.0627
    103 NE         -8.1900  -31.3670   23.7540 N.pl3     1 THR        -0.2723
    104 CZ         -8.5420  -30.4150   24.6210 C.cat     1 THR         0.2882
    105 NH1        -8.1790  -30.4670   25.8980 N.pl3     1 THR        -0.2849
    106 NH2        -9.2750  -29.3840   24.1990 N.pl3     1 THR        -0.2849
    107 N          -2.4890  -29.5760   24.4130 N.am      1 THR        -0.2637
    108 CA         -1.6700  -28.5390   25.0300 C.3       1 THR         0.1311
    109 C          -2.5120  -27.3220   25.3900 C.2       1 THR         0.2040
    110 O          -3.2870  -26.8330   24.5700 O.2       1 THR        -0.3944
    111 CB         -0.5500  -28.1240   24.0770 C.3       1 THR        -0.0092
    112 CG          0.4100  -29.2860   23.7980 C.3       1 THR        -0.0156
    113 CD          1.1960  -29.1250   22.4920 C.3       1 THR         0.0627
    114 NE          0.3060  -29.1910   21.3460 N.pl3     1 THR        -0.2723
    115 CZ          0.7050  -29.3570   20.0920 C.cat     1 THR         0.2882
    116 NH1        -0.1790  -29.3360   19.1180 N.pl3     1 THR        -0.2849
    117 NH2         1.9880  -29.5100   19.7990 N.pl3     1 THR        -0.2849
    118 N          -2.3570  -26.8500   26.6230 N.am      1 THR        -0.2616
    119 CA         -3.0860  -25.7010   27.1320 C.3       1 THR         0.1539
    120 C          -2.3180  -24.4140   26.8920 C.2       1 THR         0.2062
    121 O          -1.0890  -24.3960   26.7750 O.2       1 THR        -0.3943
    122 CB         -3.3050  -25.8480   28.6340 C.3       1 THR         0.0843
    123 OG         -3.9540  -27.0680   28.8780 O.3       1 THR        -0.3903
    124 N          -3.0700  -23.3200   26.8360 N.am      1 THR        -0.2639
    125 CA         -2.4710  -22.0100   26.7200 C.3       1 THR         0.1282
    126 C          -1.7800  -21.6490   28.0240 C.2       1 THR         0.2031
    127 O          -2.1630  -22.1100   29.1070 O.2       1 THR        -0.3944
    128 CB         -3.5490  -20.9700   26.4250 C.3       1 THR        -0.0244
    129 N          -0.7560  -20.8100   27.9170 N.am      1 THR        -0.2692
    130 CA         -0.0190  -20.3550   29.0900 C.3       1 THR         0.0969
    131 C          -0.8750  -19.3840   29.9030 C.2       1 THR         0.0604
    132 O          -0.6060  -19.1760   31.0800 O.co2     1 THR        -0.5666
    133 CB          1.3650  -19.7610   28.7370 C.3       1 THR        -0.0092
    134 CG1         1.2160  -18.4600   27.9400 C.3       1 THR        -0.0497
    135 CG2         2.2070  -20.7710   27.9680 C.3       1 THR        -0.0588
    136 CD1         2.5220  -17.7440   27.6520 C.3       1 THR        -0.0649
    137 OXT        -1.8480  -18.7980   29.4090 O.co2     1 THR        -0.5666
    138 H1         15.9296  -41.4625   17.4774 H         1 THR         0.2016
    139 H2         15.7366  -42.7639   16.4882 H         1 THR         0.2016
    140 H3         14.5414  -42.3447   17.5394 H         1 THR         0.2016
    141 H4         15.4743  -40.7520   15.2604 H         1 THR         0.1125
    142 H5         13.3346  -41.1983   14.2320 H         1 THR         0.0674
    143 H6         12.1263  -41.3731   16.1811 H         1 THR         0.2102
    144 H7         13.4530  -43.6241   13.8074 H         1 THR         0.0258
    145 H8         14.5598  -43.8174   15.2089 H         1 THR         0.0258
    146 H9         15.0811  -42.8659   13.7773 H         1 THR         0.0258
    147 H10        14.1929  -38.8078   14.9155 H         1 THR         0.1885
    148 H11        13.6981  -37.3896   17.3400 H         1 THR         0.0826
    149 H12        12.7137  -36.7443   14.5107 H         1 THR         0.0639
    150 H13        14.7274  -35.5557   14.5500 H         1 THR         0.2101
    151 H14        12.7387  -34.4222   15.3300 H         1 THR         0.0257
    152 H15        13.2318  -34.9926   16.9603 H         1 THR         0.0257
    153 H16        11.6162  -35.4281   16.3070 H         1 THR         0.0257
    154 H17        11.4700  -39.0076   15.0302 H         1 THR         0.1885
    155 H18         9.0218  -38.3514   16.2584 H         1 THR         0.0821
    156 H19        10.0420  -40.8035   14.7618 H         1 THR         0.0453
    157 H20         9.0058  -39.4678   14.1545 H         1 THR         0.0453
    158 H21         9.0351  -42.7910   15.6643 H         1 THR         0.0530
    159 H22         6.6492  -39.3178   15.0337 H         1 THR         0.0530
    160 H23         7.0229  -44.0941   16.1208 H         1 THR         0.0525
    161 H24         4.5938  -40.6425   15.5019 H         1 THR         0.0525
    162 H25         4.8758  -44.0982   16.3381 H         1 THR         0.2458
    163 H26        11.2182  -41.1462   16.9943 H         1 THR         0.1883
    164 H27         9.5322  -42.1932   19.0325 H         1 THR         0.0797
    165 H28        11.5405  -43.3927   19.8480 H         1 THR         0.0277
    166 H29        12.5697  -42.3838   18.7760 H         1 THR         0.0277
    167 H30        11.3630  -43.5081   18.0643 H         1 THR         0.0277
    168 H31        12.0915  -39.7027   19.1485 H         1 THR         0.1884
    169 H32        12.0879  -39.4911   22.0093 H         1 THR         0.0819
    170 H33        13.1396  -37.2433   21.5732 H         1 THR         0.0478
    171 H34        12.9114  -37.5502   19.8181 H         1 THR         0.0478
    172 H35        10.1943  -37.8000   19.4356 H         1 THR         0.1885
    173 H36         8.8551  -36.0783   21.2824 H         1 THR         0.0823
    174 H37         7.8941  -37.2093   18.6214 H         1 THR         0.0474
    175 H38         8.7622  -35.6600   18.8910 H         1 THR         0.0474
    176 H39         7.5576  -34.1414   20.7621 H         1 THR         0.0557
    177 H40         5.5701  -37.1295   18.4729 H         1 THR         0.0557
    178 H41         5.4052  -32.9710   21.0877 H         1 THR         0.0599
    179 H42         3.4281  -35.9420   18.7955 H         1 THR         0.0599
    180 H43         3.3474  -33.8977   20.1385 H         1 THR         0.0559
    181 H44         8.0362  -39.3758   20.1181 H         1 THR         0.1883
    182 H45         5.4206  -39.4057   21.3034 H         1 THR         0.0803
    183 H46         7.2810  -41.5882   20.2825 H         1 THR         0.0345
    184 H47         5.7327  -41.6686   18.3768 H         1 THR         0.0267
    185 H48         6.4376  -40.0309   18.5951 H         1 THR         0.0267
    186 H49         5.7787  -42.5878   21.9776 H         1 THR         0.0235
    187 H50         5.4302  -43.1736   20.3157 H         1 THR         0.0235
    188 H51         4.3603  -41.9494   21.0794 H         1 THR         0.0235
    189 H52         4.1046  -39.9268   17.9573 H         1 THR         0.0230
    190 H53         4.3609  -39.2724   19.6103 H         1 THR         0.0230
    191 H54         3.6560  -40.9101   19.3920 H         1 THR         0.0230
    192 H55         8.5921  -40.1322   22.5839 H         1 THR         0.1883
    193 H56         7.5316  -41.3334   25.0304 H         1 THR         0.0797
    194 H57         9.9354  -41.4883   25.6684 H         1 THR         0.0277
    195 H58        10.3768  -40.5869   24.1787 H         1 THR         0.0277
    196 H59         9.6151  -42.2090   24.0545 H         1 THR         0.0277
    197 H60         7.8494  -38.1562   23.9543 H         1 THR         0.1884
    198 H61         8.8503  -37.0112   26.4307 H         1 THR         0.0823
    199 H62         9.0443  -36.0138   24.0371 H         1 THR         0.0606
    200 H63         8.6358  -34.9093   25.3935 H         1 THR         0.0606
    201 H64         6.7706  -36.0935   23.5791 H         1 THR         0.2097
    202 H65         7.5764  -35.2688   27.4672 H         1 THR         0.1881
    203 H66         5.9283  -34.9328   29.0455 H         1 THR         0.0763
    204 H67         5.0636  -36.3763   28.4169 H         1 THR         0.0763
    205 H68         5.4895  -34.5289   25.7046 H         1 THR         0.1883
    206 H69         3.0535  -32.9501   26.3212 H         1 THR         0.0800
    207 H70         3.9250  -31.0433   25.0459 H         1 THR         0.0313
    208 H71         5.4934  -31.9000   24.8645 H         1 THR         0.0313
    209 H72         5.8147  -31.9037   27.2936 H         1 THR         0.0301
    210 H73         4.1986  -31.1580   27.5361 H         1 THR         0.0301
    211 H74         6.5624  -29.9054   26.0728 H         1 THR         0.0689
    212 H75         6.0044  -29.4987   27.7311 H         1 THR         0.0689
    213 H76         4.7474  -28.7357   25.1564 H         1 THR         0.2642
    214 H77         2.5033  -26.6192   26.7637 H         1 THR         0.2615
    215 H78         3.2048  -27.1525   25.2125 H         1 THR         0.2615
    216 H79         4.4700  -28.8605   28.7110 H         1 THR         0.2615
    217 H80         3.2154  -27.5927   28.7470 H         1 THR         0.2615
    218 H81         2.9158  -35.4289   25.1261 H         1 THR         0.1884
    219 H82         2.4419  -34.8868   22.2661 H         1 THR         0.0826
    220 H83         2.1057  -37.2458   21.9816 H         1 THR         0.0639
    221 H84         2.2158  -37.4932   24.8226 H         1 THR         0.2101
    222 H85         4.2605  -38.1736   22.7867 H         1 THR         0.0257
    223 H86         4.4523  -36.7590   23.8769 H         1 THR         0.0257
    224 H87         4.4452  -36.5259   22.0958 H         1 THR         0.0257
    225 H88         0.6038  -34.7495   25.1472 H         1 THR         0.1881
    226 H89        -1.7090  -35.0383   25.5259 H         1 THR         0.0763
    227 H90        -1.9275  -35.4286   23.7862 H         1 THR         0.0763
    228 H91        -3.7136  -33.7509   24.8261 H         1 THR         0.1883
    229 H92        -3.4796  -31.4704   23.1476 H         1 THR         0.0800
    230 H93        -5.4553  -30.5866   24.3952 H         1 THR         0.0313
    231 H94        -5.2804  -31.9356   25.5683 H         1 THR         0.0313
    232 H95        -5.5835  -33.5380   23.6486 H         1 THR         0.0301
    233 H96        -5.9554  -32.1253   22.6033 H         1 THR         0.0301
    234 H97        -7.4761  -32.7352   25.1541 H         1 THR         0.0689
    235 H98        -7.9280  -33.4249   23.5582 H         1 THR         0.0689
    236 H99        -8.4722  -31.2323   22.7726 H         1 THR         0.2642
    237 H100       -8.4646  -29.7186   26.5455 H         1 THR         0.2615
    238 H101       -7.6120  -31.2557   26.2405 H         1 THR         0.2615
    239 H102       -9.5651  -29.3280   23.2123 H         1 THR         0.2615
    240 H103       -9.5511  -28.6437   24.8598 H         1 THR         0.2615
    241 H104       -2.7777  -29.4514   23.4637 H         1 THR         0.1883
    242 H105       -1.2236  -28.9441   25.9501 H         1 THR         0.0800
    243 H106        0.0144  -27.2947   24.5284 H         1 THR         0.0313
    244 H107       -0.9939  -27.7913   23.1271 H         1 THR         0.0313
    245 H108       -0.1750  -30.2157   23.7406 H         1 THR         0.0301
    246 H109        1.1263  -29.3542   24.6300 H         1 THR         0.0301
    247 H110        1.9412  -29.9306   22.4173 H         1 THR         0.0689
    248 H111        1.7078  -28.1513   22.4962 H         1 THR         0.0689
    249 H112       -0.7055  -29.1027   21.5192 H         1 THR         0.2642
    250 H113        0.1262  -29.4645   18.1427 H         1 THR         0.2615
    251 H114       -1.1763  -29.1911   19.3307 H         1 THR         0.2615
    252 H115        2.6898  -29.5281   20.5527 H         1 THR         0.2615
    253 H116        2.2836  -29.6109   18.8175 H         1 THR         0.2615
    254 H117       -1.7071  -27.3080   27.2296 H         1 THR         0.1884
    255 H118       -4.0594  -25.6429   26.6229 H         1 THR         0.0823
    256 H119       -3.9275  -25.0182   29.0000 H         1 THR         0.0606
    257 H120       -2.3349  -25.8350   29.1523 H         1 THR         0.0606
    258 H121       -4.0951  -27.1691   29.8120 H         1 THR         0.2097
    259 H122       -4.0657  -23.4044   26.8747 H         1 THR         0.1883
    260 H123       -1.7346  -22.0168   25.9029 H         1 THR         0.0797
    261 H124       -3.0856  -19.9761   26.3382 H         1 THR         0.0277
    262 H125       -4.2841  -20.9616   27.2433 H         1 THR         0.0277
    263 H126       -4.0539  -21.2228   25.4810 H         1 THR         0.0277
    264 H127       -0.4844  -20.4831   27.0118 H         1 THR         0.1875
    265 H128        0.1654  -21.2369   29.7210 H         1 THR         0.0729
    266 H129        1.8858  -19.5274   29.6773 H         1 THR         0.0338
    267 H130        0.5700  -17.7785   28.5129 H         1 THR         0.0267
    268 H131        0.7364  -18.6989   26.9793 H         1 THR         0.0267
    269 H132        2.3005  -21.6949   28.5576 H         1 THR         0.0234
    270 H133        3.2068  -20.3507   27.7842 H         1 THR         0.0234
    271 H134        1.7218  -20.9968   27.0070 H         1 THR         0.0234
    272 H135        2.3188  -16.8269   27.0795 H         1 THR         0.0230
    273 H136        3.1803  -18.4031   27.0670 H         1 THR         0.0230
    274 H137        3.0139  -17.4827   28.6006 H         1 THR         0.0230
@<TRIPOS>BOND
     1    1    2 1  
     2    2    3 1  
     3    2    5 1  
     4    3    4 2  
     5    3    8 am 
     6    5    6 1  
     7    5    7 1  
     8    8    9 1  
     9    9   10 1  
    10    9   12 1  
    11   10   11 2  
    12   10   15 am 
    13   12   13 1  
    14   12   14 1  
    15   15   16 1  
    16   16   17 1  
    17   16   19 1  
    18   17   18 2  
    19   17   27 am 
    20   19   20 1  
    21   20   21 ar 
    22   20   22 ar 
    23   21   23 ar 
    24   22   24 ar 
    25   23   25 ar 
    26   24   25 ar 
    27   25   26 1  
    28   27   28 1  
    29   28   29 1  
    30   28   31 1  
    31   29   30 2  
    32   29   32 am 
    33   32   33 1  
    34   33   34 1  
    35   33   36 1  
    36   34   35 2  
    37   34   40 am 
    38   36   37 1  
    39   37   38 ar 
    40   37   39 ar 
    41   40   41 1  
    42   41   42 1  
    43   41   44 1  
    44   42   43 2  
    45   42   51 am 
    46   44   45 1  
    47   45   46 ar 
    48   45   47 ar 
    49   46   48 ar 
    50   47   49 ar 
    51   48   50 ar 
    52   49   50 ar 
    53   51   52 1  
    54   52   53 1  
    55   52   55 1  
    56   53   54 2  
    57   53   59 am 
    58   55   56 1  
    59   55   57 1  
    60   56   58 1  
    61   59   60 1  
    62   60   61 1  
    63   60   63 1  
    64   61   62 2  
    65   61   64 am 
    66   64   65 1  
    67   65   66 1  
    68   65   68 1  
    69   66   67 2  
    70   66   70 am 
    71   68   69 1  
    72   70   71 1  
    73   71   72 1  
    74   72   73 2  
    75   72   74 am 
    76   74   75 1  
    77   75   76 1  
    78   75   78 1  
    79   76   77 2  
    80   76   85 am 
    81   78   79 1  
    82   79   80 1  
    83   80   81 1  
    84   81   82 ar 
    85   82   83 ar 
    86   82   84 ar 
    87   85   86 1  
    88   86   87 1  
    89   86   89 1  
    90   87   88 2  
    91   87   92 am 
    92   89   90 1  
    93   89   91 1  
    94   92   93 1  
    95   93   94 1  
    96   94   95 2  
    97   94   96 am 
    98   96   97 1  
    99   97   98 1  
   100   97  100 1  
   101   98   99 2  
   102   98  107 am 
   103  100  101 1  
   104  101  102 1  
   105  102  103 1  
   106  103  104 ar 
   107  104  105 ar 
   108  104  106 ar 
   109  107  108 1  
   110  108  109 1  
   111  108  111 1  
   112  109  110 2  
   113  109  118 am 
   114  111  112 1  
   115  112  113 1  
   116  113  114 1  
   117  114  115 ar 
   118  115  116 ar 
   119  115  117 ar 
   120  118  119 1  
   121  119  120 1  
   122  119  122 1  
   123  120  121 2  
   124  120  124 am 
   125  122  123 1  
   126  124  125 1  
   127  125  126 1  
   128  125  128 1  
   129  126  127 2  
   130  126  129 am 
   131  129  130 1  
   132  130  131 1  
   133  130  133 1  
   134  131  132 ar 
   135  131  137 ar 
   136  133  134 1  
   137  133  135 1  
   138  134  136 1  
   139    1  138 1  
   140    1  139 1  
   141    1  140 1  
   142    2  141 1  
   143    5  142 1  
   144    6  143 1  
   145    7  144 1  
   146    7  145 1  
   147    7  146 1  
   148    8  147 1  
   149    9  148 1  
   150   12  149 1  
   151   13  150 1  
   152   14  151 1  
   153   14  152 1  
   154   14  153 1  
   155   15  154 1  
   156   16  155 1  
   157   19  156 1  
   158   19  157 1  
   159   21  158 1  
   160   22  159 1  
   161   23  160 1  
   162   24  161 1  
   163   26  162 1  
   164   27  163 1  
   165   28  164 1  
   166   31  165 1  
   167   31  166 1  
   168   31  167 1  
   169   32  168 1  
   170   33  169 1  
   171   36  170 1  
   172   36  171 1  
   173   40  172 1  
   174   41  173 1  
   175   44  174 1  
   176   44  175 1  
   177   46  176 1  
   178   47  177 1  
   179   48  178 1  
   180   49  179 1  
   181   50  180 1  
   182   51  181 1  
   183   52  182 1  
   184   55  183 1  
   185   56  184 1  
   186   56  185 1  
   187   57  186 1  
   188   57  187 1  
   189   57  188 1  
   190   58  189 1  
   191   58  190 1  
   192   58  191 1  
   193   59  192 1  
   194   60  193 1  
   195   63  194 1  
   196   63  195 1  
   197   63  196 1  
   198   64  197 1  
   199   65  198 1  
   200   68  199 1  
   201   68  200 1  
   202   69  201 1  
   203   70  202 1  
   204   71  203 1  
   205   71  204 1  
   206   74  205 1  
   207   75  206 1  
   208   78  207 1  
   209   78  208 1  
   210   79  209 1  
   211   79  210 1  
   212   80  211 1  
   213   80  212 1  
   214   81  213 1  
   215   83  214 1  
   216   83  215 1  
   217   84  216 1  
   218   84  217 1  
   219   85  218 1  
   220   86  219 1  
   221   89  220 1  
   222   90  221 1  
   223   91  222 1  
   224   91  223 1  
   225   91  224 1  
   226   92  225 1  
   227   93  226 1  
   228   93  227 1  
   229   96  228 1  
   230   97  229 1  
   231  100  230 1  
   232  100  231 1  
   233  101  232 1  
   234  101  233 1  
   235  102  234 1  
   236  102  235 1  
   237  103  236 1  
   238  105  237 1  
   239  105  238 1  
   240  106  239 1  
   241  106  240 1  
   242  107  241 1  
   243  108  242 1  
   244  111  243 1  
   245  111  244 1  
   246  112  245 1  
   247  112  246 1  
   248  113  247 1  
   249  113  248 1  
   250  114  249 1  
   251  116  250 1  
   252  116  251 1  
   253  117  252 1  
   254  117  253 1  
   255  118  254 1  
   256  119  255 1  
   257  122  256 1  
   258  122  257 1  
   259  123  258 1  
   260  124  259 1  
   261  125  260 1  
   262  128  261 1  
   263  128  262 1  
   264  128  263 1  
   265  129  264 1  
   266  130  265 1  
   267  133  266 1  
   268  134  267 1  
   269  134  268 1  
   270  135  269 1  
   271  135  270 1  
   272  135  271 1  
   273  136  272 1  
   274  136  273 1  
   275  136  274 1  
@<TRIPOS>SUBSTRUCTURE
     1 THR         1

