5mat_ligand
  -I-interpret- 

 65 70  0  0  0  0  0  0  0  0999 V2000
   -4.3320    5.9670   18.4040 C   0  0  0  0  0
   -3.2540    6.7720   18.6550 C   0  0  0  0  0
   -3.1320    7.9980   18.0260 C   0  0  0  0  0
   -4.0810    8.4270   17.1410 C   0  0  0  0  0
   -5.2160    7.6290   16.8400 C   0  0  0  0  0
   -5.3410    6.3630   17.4940 C   0  0  0  0  0
   -6.2310    8.0460   15.9250 C   0  0  0  0  0
   -7.3060    7.2140   15.6830 C   0  0  0  0  0
   -7.4310    5.9780   16.3140 C   0  0  0  0  0
   -6.4770    5.5580   17.2090 C   0  0  0  0  0
   -6.1150    9.3920   15.2280 C   0  0  0  0  0
   -8.3320    9.7180   14.2560 C   0  0  0  0  0
   -7.7530    3.7220   18.0840 C   0  0  0  0  0
   -6.5140    8.9760   12.8400 C   0  0  0  0  0
   -7.4940    8.9620   11.7840 C   0  0  0  0  0
   -8.7900    9.3240   12.1050 C   0  0  0  0  0
   -7.3360    8.6120   10.3970 C   0  0  0  0  0
   -8.5030    8.7080    9.7160 C   0  0  0  0  0
   -8.6680    8.4250    8.2520 C   0  0  0  0  0
   -7.3210    8.4430    7.5330 C   0  0  0  0  0
   -6.3020    7.6160    8.3010 C   0  0  0  0  0
   -6.0700    8.1780    9.7060 C   0  0  0  0  0
   -6.3300    8.3850    5.3340 C   0  0  0  0  0
   -6.4990    8.0270    3.8800 C   0  0  0  0  0
   -7.0460    8.8260    2.8530 C   0  0  0  0  0
   -6.1440    6.8710    3.2770 C   0  0  0  0  0
   -5.5260    5.6100    3.7510 C   0  0  0  0  0
   -7.5910   10.2130    2.9450 C   0  0  0  0  0
   -7.0240    9.3770   14.0730 N   0  0  0  0  0
   -9.2450    9.7100   13.3330 N   0  0  0  0  0
   -7.4890    7.9930    6.1340 N   0  3  0  0  0
   -7.0390    8.2050    1.7100 N   0  0  0  0  0
   -6.4980    4.3690   17.8850 O   0  0  0  0  0
   -6.4550    6.9360    1.9660 O   0  0  0  0  0
   -5.3280    8.6870   12.7150 O   0  0  0  0  0
   -9.8250    9.2330   10.7190 S   0  0  0  0  0
   -4.4147    5.0065   18.9126 H   0  0  0  0  0
   -2.4859    6.4447   19.3557 H   0  0  0  0  0
   -2.2691    8.6291   18.2386 H   0  0  0  0  0
   -3.9646    9.3974   16.6585 H   0  0  0  0  0
   -8.0764    7.5321   14.9806 H   0  0  0  0  0
   -8.2890    5.3418   16.0967 H   0  0  0  0  0
   -5.0893    9.5628   14.9012 H   0  0  0  0  0
   -6.3835   10.1975   15.9115 H   0  0  0  0  0
   -8.6351   10.0217   15.2580 H   0  0  0  0  0
   -8.4124    4.3780   18.6523 H   0  0  0  0  0
   -8.2039    3.5011   17.1165 H   0  0  0  0  0
   -7.5987    2.7941   18.6347 H   0  0  0  0  0
   -9.3054    9.1952    7.8177 H   0  0  0  0  0
   -9.1120    7.4363    8.1359 H   0  0  0  0  0
   -6.9353    9.4618    7.4973 H   0  0  0  0  0
   -5.3570    7.6405    7.7583 H   0  0  0  0  0
   -6.6817    6.5985    8.3939 H   0  0  0  0  0
   -5.6248    7.3847   10.3065 H   0  0  0  0  0
   -5.4338    9.0574    9.6058 H   0  0  0  0  0
   -6.2159    9.4665    5.4072 H   0  0  0  0  0
   -5.4577    7.8547    5.7160 H   0  0  0  0  0
   -4.5472    5.8253    4.1796 H   0  0  0  0  0
   -6.1644    5.1566    4.5093 H   0  0  0  0  0
   -5.4135    4.9240    2.9115 H   0  0  0  0  0
   -8.4265   10.2280    3.6449 H   0  0  0  0  0
   -6.8092   10.8866    3.2959 H   0  0  0  0  0
   -7.9338   10.5333    1.9611 H   0  0  0  0  0
   -8.3259    8.4253    5.7428 H   0  0  0  0  0
   -7.5766    6.9769    6.1187 H   0  0  0  0  0
  1  2  4  0  0  0
  6  1  4  0  0  0
  3  2  4  0  0  0
  4  3  4  0  0  0
  5  4  4  0  0  0
  5  6  4  0  0  0
  7  5  4  0  0  0
  6 10  4  0  0  0
  7  8  4  0  0  0
 11  7  1  0  0  0
  8  9  4  0  0  0
  9 10  4  0  0  0
 10 33  1  0  0  0
 29 11  1  0  0  0
 29 12  1  0  0  0
 30 12  2  0  0  0
 33 13  1  0  0  0
 15 14  1  0  0  0
 14 29  1  0  0  0
 14 35  2  0  0  0
 15 16  4  0  0  0
 17 15  4  0  0  0
 16 30  1  0  0  0
 36 16  4  0  0  0
 18 17  4  0  0  0
 22 17  1  0  0  0
 19 18  1  0  0  0
 18 36  4  0  0  0
 20 19  1  0  0  0
 20 21  1  0  0  0
 31 20  1  0  0  0
 21 22  1  0  0  0
 23 24  1  0  0  0
 23 31  1  0  0  0
 24 25  4  0  0  0
 24 26  4  0  0  0
 25 28  1  0  0  0
 25 32  4  0  0  0
 26 27  1  0  0  0
 26 34  4  0  0  0
 32 34  4  0  0  0
  1 37  1  0  0  0
  2 38  1  0  0  0
  3 39  1  0  0  0
  4 40  1  0  0  0
  8 41  1  0  0  0
  9 42  1  0  0  0
 11 43  1  0  0  0
 11 44  1  0  0  0
 12 45  1  0  0  0
 13 46  1  0  0  0
 13 47  1  0  0  0
 13 48  1  0  0  0
 19 49  1  0  0  0
 19 50  1  0  0  0
 20 51  1  0  0  0
 21 52  1  0  0  0
 21 53  1  0  0  0
 22 54  1  0  0  0
 22 55  1  0  0  0
 23 56  1  0  0  0
 23 57  1  0  0  0
 27 58  1  0  0  0
 27 59  1  0  0  0
 27 60  1  0  0  0
 28 61  1  0  0  0
 28 62  1  0  0  0
 28 63  1  0  0  0
 31 64  1  0  0  0
 31 65  1  0  0  0
M  END
$$$$
