3qti_ligand
  -I-interpret- 

 42 46  0  0  0  0  0  0  0  0999 V2000
   12.8950   26.7010  -15.7680 C   0  0  0  0  0
   12.2710   27.4330  -14.8030 N   0  0  0  0  0
   12.2100   25.6260  -16.3870 C   0  0  0  0  0
   16.2280   22.6330  -17.6010 N   0  0  0  0  0
   12.8310   24.8610  -17.4040 C   0  0  0  0  0
   17.1110   23.5310  -17.0700 N   0  0  0  0  0
   14.1710   25.1290  -17.7900 C   0  0  0  0  0
   20.1790   25.8430  -15.3800 N   0  0  0  0  0
   14.8480   24.3290  -18.8940 C   0  0  0  0  0
   20.7550   24.8170  -14.7140 N   0  0  0  0  0
   15.1780   22.9410  -18.4430 C   0  0  0  0  0
   15.1800   20.6930  -18.0700 N   0  0  0  0  0
   18.0450   22.9740  -16.2770 C   0  0  0  0  0
   19.0320   23.9190  -15.7360 C   0  0  0  0  0
   19.1550   25.3070  -16.0280 C   0  0  0  0  0
   20.0930   23.6300  -14.9220 C   0  0  0  0  0
   21.9520   25.0550  -13.9380 C   0  0  0  0  0
   18.1130   21.5670  -16.0080 C   0  0  0  0  0
   17.1980   20.7030  -16.5620 C   0  0  0  0  0
   16.1870   21.2340  -17.4020 C   0  0  0  0  0
   14.5490   21.7550  -18.7070 C   0  0  0  0  0
   14.8910   26.1790  -17.1570 C   0  0  0  0  0
   14.2540   26.9650  -16.1600 C   0  0  0  0  0
   14.9670   27.9880  -15.4960 C   0  0  0  0  0
   14.3150   28.7300  -14.4810 C   0  0  0  0  0
   12.9660   28.4180  -14.1810 C   0  0  0  0  0
   11.1932   25.3852  -16.0767 H   0  0  0  0  0
   12.2765   24.0607  -17.8940 H   0  0  0  0  0
   15.7754   24.8330  -19.1662 H   0  0  0  0  0
   14.1650   24.2633  -19.7409 H   0  0  0  0  0
   18.4933   25.8569  -16.6972 H   0  0  0  0  0
   20.3603   22.6533  -14.5187 H   0  0  0  0  0
   22.7399   25.4273  -14.5928 H   0  0  0  0  0
   21.7412   25.7937  -13.1647 H   0  0  0  0  0
   22.2739   24.1228  -13.4738 H   0  0  0  0  0
   18.8974   21.1789  -15.3583 H   0  0  0  0  0
   17.2489   19.6331  -16.3597 H   0  0  0  0  0
   13.6651   21.6556  -19.3370 H   0  0  0  0  0
   15.9256   26.3796  -17.4352 H   0  0  0  0  0
   16.0023   28.2028  -15.7606 H   0  0  0  0  0
   14.8380   29.5213  -13.9441 H   0  0  0  0  0
   12.4603   28.9997  -13.4103 H   0  0  0  0  0
  1  2  4  0  0  0
  3  1  4  0  0  0
  1 23  4  0  0  0
  2 26  4  0  0  0
  5  3  4  0  0  0
  6  4  4  0  0  0
  4 11  4  0  0  0
  4 20  4  0  0  0
  7  5  4  0  0  0
 13  6  4  0  0  0
  9  7  1  0  0  0
  7 22  4  0  0  0
  8 10  4  0  0  0
 15  8  4  0  0  0
 11  9  1  0  0  0
 10 16  4  0  0  0
 10 17  1  0  0  0
 11 21  4  0  0  0
 20 12  4  0  0  0
 12 21  4  0  0  0
 14 13  1  0  0  0
 13 18  4  0  0  0
 14 15  4  0  0  0
 14 16  4  0  0  0
 18 19  4  0  0  0
 19 20  4  0  0  0
 22 23  4  0  0  0
 23 24  4  0  0  0
 24 25  4  0  0  0
 25 26  4  0  0  0
  3 27  1  0  0  0
  5 28  1  0  0  0
  9 29  1  0  0  0
  9 30  1  0  0  0
 15 31  1  0  0  0
 16 32  1  0  0  0
 17 33  1  0  0  0
 17 34  1  0  0  0
 17 35  1  0  0  0
 18 36  1  0  0  0
 19 37  1  0  0  0
 21 38  1  0  0  0
 22 39  1  0  0  0
 24 40  1  0  0  0
 25 41  1  0  0  0
 26 42  1  0  0  0
M  END
$$$$
