4crd_ligand
  -I-interpret- 

 54 57  0  0  0  0  0  0  0  0999 V2000
  -28.7200  -54.6420   -7.9940 C   0  0  0  0  0
  -27.0810  -56.1420   -7.1260 C   0  0  0  0  0
  -18.6650  -48.7450  -10.5310 C   0  0  0  0  0
  -29.5810  -55.0110   -6.9850 C   0  0  0  0  0
  -27.9340  -56.5190   -6.0890 C   0  0  0  0  0
  -18.7880  -47.3690  -10.6480 C   0  0  0  0  0
  -21.0900  -47.6150  -11.3120 C   0  0  0  0  0
  -18.7110  -51.6950  -11.3670 C   0  0  0  0  0
  -27.4650  -55.2140   -8.0860 C   0  0  0  0  0
  -20.9900  -48.9900  -11.2100 C   0  0  0  0  0
  -19.7720  -49.5220  -10.8190 C   0  0  0  0  0
  -29.2010  -55.9470   -6.0450 C   0  0  0  0  0
  -19.9970  -46.8150  -11.0340 C   0  0  0  0  0
  -26.6170  -54.8020   -9.2100 C   0  0  0  0  0
  -25.6130  -55.5300   -9.8050 C   0  0  0  0  0
  -25.8020  -53.5970  -10.8050 C   0  0  0  0  0
  -24.2570  -50.9040  -10.3800 C   0  0  0  0  0
  -30.1150  -57.2880   -4.1790 C   0  0  0  0  0
  -31.1040  -58.0850   -2.2570 C   0  0  0  0  0
  -22.2070  -49.8260  -11.5270 C   0  0  0  0  0
  -25.5010  -52.5350  -11.7840 C   0  0  0  0  0
  -22.9820  -50.0930  -10.2390 C   0  0  0  0  0
  -18.8200  -52.9220  -10.9180 N   0  0  0  0  0
  -26.7230  -53.5940   -9.8510 N   0  0  0  0  0
  -19.8060  -52.9120   -9.9620 N   0  0  0  0  0
  -20.2870  -51.6720   -9.8360 N   0  0  0  0  0
  -25.1050  -54.7710  -10.8050 N   0  0  0  0  0
  -19.6110  -50.9150  -10.7020 N   0  0  0  0  0
  -30.1660  -56.2280   -5.0580 N   0  0  0  0  0
  -24.2910  -51.7770  -11.4370 N   0  0  0  0  0
  -25.1770  -50.8170   -9.5690 O   0  0  0  0  0
  -29.1900  -58.0850   -4.0230 O   0  0  0  0  0
  -31.2540  -57.3070   -3.4530 O   0  0  0  0  0
  -20.1530  -45.1050  -11.1750 Cl  0  0  0  0  0
  -24.9510  -57.1060   -9.5010 Cl  0  0  0  0  0
  -29.0297  -53.8946   -8.7244 H   0  0  0  0  0
  -26.0876  -56.5868   -7.1848 H   0  0  0  0  0
  -17.7243  -49.2004  -10.2214 H   0  0  0  0  0
  -30.5716  -54.5598   -6.9282 H   0  0  0  0  0
  -27.6172  -57.2403   -5.3356 H   0  0  0  0  0
  -17.9347  -46.7245  -10.4366 H   0  0  0  0  0
  -22.0337  -47.1599  -11.6126 H   0  0  0  0  0
  -18.0200  -51.3564  -12.1390 H   0  0  0  0  0
  -30.8467  -59.1105   -2.5221 H   0  0  0  0  0
  -30.3110  -57.6570   -1.6437 H   0  0  0  0  0
  -32.0407  -58.0766   -1.6997 H   0  0  0  0  0
  -21.8956  -50.7723  -11.9694 H   0  0  0  0  0
  -22.8435  -49.2925  -12.2330 H   0  0  0  0  0
  -26.3411  -51.8406  -11.7961 H   0  0  0  0  0
  -25.3361  -53.0071  -12.7525 H   0  0  0  0  0
  -22.3191  -50.6767   -9.6003 H   0  0  0  0  0
  -23.2825  -49.1174   -9.8568 H   0  0  0  0  0
  -30.9649  -55.5976   -4.9885 H   0  0  0  0  0
  -23.4500  -51.9041  -12.0000 H   0  0  0  0  0
  1  4  4  0  0  0
  9  1  4  0  0  0
  2  5  4  0  0  0
  9  2  4  0  0  0
  3  6  4  0  0  0
 11  3  4  0  0  0
  4 12  4  0  0  0
  5 12  4  0  0  0
 13  6  4  0  0  0
 10  7  4  0  0  0
  7 13  4  0  0  0
  8 23  4  0  0  0
 28  8  4  0  0  0
 14  9  1  0  0  0
 10 11  4  0  0  0
 20 10  1  0  0  0
 11 28  1  0  0  0
 12 29  1  0  0  0
 13 34  1  0  0  0
 15 14  4  0  0  0
 24 14  4  0  0  0
 27 15  4  0  0  0
 15 35  1  0  0  0
 21 16  1  0  0  0
 16 24  4  0  0  0
 16 27  4  0  0  0
 17 22  1  0  0  0
 30 17  1  0  0  0
 17 31  2  0  0  0
 29 18  1  0  0  0
 18 32  2  0  0  0
 18 33  1  0  0  0
 33 19  1  0  0  0
 22 20  1  0  0  0
 21 30  1  0  0  0
 23 25  4  0  0  0
 25 26  4  0  0  0
 26 28  4  0  0  0
  1 36  1  0  0  0
  2 37  1  0  0  0
  3 38  1  0  0  0
  4 39  1  0  0  0
  5 40  1  0  0  0
  6 41  1  0  0  0
  7 42  1  0  0  0
  8 43  1  0  0  0
 19 44  1  0  0  0
 19 45  1  0  0  0
 19 46  1  0  0  0
 20 47  1  0  0  0
 20 48  1  0  0  0
 21 49  1  0  0  0
 21 50  1  0  0  0
 22 51  1  0  0  0
 22 52  1  0  0  0
 29 53  1  0  0  0
 30 54  1  0  0  0
M  END
$$$$
