4bb2_ligand
  -I-interpret- 

 53 56  0  0  0  0  0  0  0  0999 V2000
  -30.5220   -8.7000    2.1330 C   0  0  0  0  0
  -30.6380   -7.5620    3.1480 C   0  0  0  0  0
  -30.3490   -8.0960    4.5340 C   0  0  0  0  0
  -30.9020   -7.6230    5.5140 O   0  0  0  0  0
  -29.3840   -9.2000    4.7130 C   0  0  0  0  0
  -28.8290   -9.8330    3.6670 C   0  0  0  0  0
  -27.7490  -10.8570    3.9560 C   0  0  0  0  0
  -28.0890  -12.1850    3.2840 C   0  0  0  0  0
  -28.4180  -12.0050    1.8040 C   0  0  0  0  0
  -29.5140  -10.9350    1.5620 C   0  0  0  0  0
  -29.2490   -9.5640    2.2300 C   0  0  0  0  0
  -29.8880  -10.8250    0.0680 C   0  0  0  0  0
  -30.2290  -12.1680   -0.5910 C   0  0  0  0  0
  -29.1680  -13.2350   -0.3160 C   0  0  0  0  0
  -28.8900  -13.3260    1.1840 C   0  0  0  0  0
  -28.0950  -14.6140    1.3900 C   0  0  0  0  0
  -28.7090  -15.5360    0.3290 C   0  0  0  0  0
  -29.6290  -14.6680   -0.5550 C   0  0  0  0  0
  -27.9060  -12.9240   -1.1410 C   0  0  0  0  0
  -28.0960   -8.8020    1.5700 C   0  0  0  0  0
  -29.6780  -15.0840   -2.0140 C   0  0  0  0  0
  -28.7980  -15.8070   -2.4700 O   0  0  0  0  0
  -30.8250  -14.6120   -2.8740 C   0  0  0  0  0
  -30.5001   -8.2317    1.1490 H   0  0  0  0  0
  -31.3613   -9.3685    2.3250 H   0  0  0  0  0
  -31.6463   -7.1490    3.1192 H   0  0  0  0  0
  -29.9205   -6.7792    2.9018 H   0  0  0  0  0
  -29.1149   -9.5095    5.7229 H   0  0  0  0  0
  -27.6804  -11.0092    5.0331 H   0  0  0  0  0
  -26.7984  -10.4929    3.5664 H   0  0  0  0  0
  -28.9636  -12.6056    3.7803 H   0  0  0  0  0
  -27.2223  -12.8411    3.3645 H   0  0  0  0  0
  -27.4945  -11.6707    1.3312 H   0  0  0  0  0
  -30.3942  -11.3046    2.0881 H   0  0  0  0  0
  -29.0205  -10.4203   -0.4533 H   0  0  0  0  0
  -30.7772  -10.1980    0.0028 H   0  0  0  0  0
  -30.2812  -12.0125   -1.6686 H   0  0  0  0  0
  -31.1751  -12.5172   -0.1775 H   0  0  0  0  0
  -29.7851  -13.4336    1.7967 H   0  0  0  0  0
  -28.1675  -15.0105    2.4027 H   0  0  0  0  0
  -27.0189  -14.4814    1.2782 H   0  0  0  0  0
  -29.2763  -16.3384    0.8005 H   0  0  0  0  0
  -27.9281  -16.0019   -0.2721 H   0  0  0  0  0
  -30.6751  -14.7931   -0.2755 H   0  0  0  0  0
  -28.1576  -12.9242   -2.2016 H   0  0  0  0  0
  -27.5206  -11.9445   -0.8579 H   0  0  0  0  0
  -27.1494  -13.6839   -0.9456 H   0  0  0  0  0
  -27.1830   -9.3930    1.6425 H   0  0  0  0  0
  -28.3330   -8.6243    0.5210 H   0  0  0  0  0
  -27.9543   -7.8483    2.0784 H   0  0  0  0  0
  -30.4351  -14.0363   -3.7135 H   0  0  0  0  0
  -31.3759  -15.4749   -3.2482 H   0  0  0  0  0
  -31.4894  -13.9851   -2.2793 H   0  0  0  0  0
  1  2  1  0  0  0
  1 11  1  0  0  0
  2  3  1  0  0  0
  3  4  2  0  0  0
  3  5  1  0  0  0
  5  6  2  0  0  0
  6  7  1  0  0  0
  6 11  1  0  0  0
  7  8  1  0  0  0
  8  9  1  0  0  0
  9 10  1  0  0  0
  9 15  1  0  0  0
 10 11  1  0  0  0
 10 12  1  0  0  0
 11 20  1  0  0  0
 12 13  1  0  0  0
 13 14  1  0  0  0
 14 15  1  0  0  0
 14 18  1  0  0  0
 14 19  1  0  0  0
 15 16  1  0  0  0
 16 17  1  0  0  0
 17 18  1  0  0  0
 18 21  1  0  0  0
 21 22  2  0  0  0
 21 23  1  0  0  0
  1 24  1  0  0  0
  1 25  1  0  0  0
  2 26  1  0  0  0
  2 27  1  0  0  0
  5 28  1  0  0  0
  7 29  1  0  0  0
  7 30  1  0  0  0
  8 31  1  0  0  0
  8 32  1  0  0  0
  9 33  1  0  0  0
 10 34  1  0  0  0
 12 35  1  0  0  0
 12 36  1  0  0  0
 13 37  1  0  0  0
 13 38  1  0  0  0
 15 39  1  0  0  0
 16 40  1  0  0  0
 16 41  1  0  0  0
 17 42  1  0  0  0
 17 43  1  0  0  0
 18 44  1  0  0  0
 19 45  1  0  0  0
 19 46  1  0  0  0
 19 47  1  0  0  0
 20 48  1  0  0  0
 20 49  1  0  0  0
 20 50  1  0  0  0
 23 51  1  0  0  0
 23 52  1  0  0  0
 23 53  1  0  0  0
M  END
$$$$
