4umr_ligand
  -I-interpret- 

 36 38  0  0  0  0  0  0  0  0999 V2000
   30.5320   17.6170   17.1050 F   0  0  0  0  0
   30.4750   16.4780   16.3580 C   0  0  0  0  0
   31.6470   15.8670   16.0090 C   0  0  0  0  0
   31.5950   14.7050   15.2600 C   0  0  0  0  0
   30.3670   14.1790   14.8700 C   0  0  0  0  0
   29.1950   14.8350   15.2400 C   0  0  0  0  0
   29.2520   15.9950   15.9930 C   0  0  0  0  0
   30.3250   12.9250   14.0520 C   0  0  0  0  0
   31.1990   12.6820   13.2200 O   0  0  0  0  0
   29.2810   12.0920   14.2900 N   0  0  0  0  0
   28.8420   10.9750   13.5410 C   0  0  0  0  0
   29.4560   10.5940   12.3550 C   0  0  0  0  0
   28.9890    9.5030   11.6470 C   0  0  0  0  0
   27.8940    8.7760   12.1080 C   0  0  0  0  0
   27.4060    7.5880   11.3190 C   0  0  0  0  0
   26.4950    6.6960   12.1470 C   0  0  0  0  0
   25.4740    7.5040   12.8250 N   0  3  0  0  0
   26.0890    8.3800   13.8290 C   0  0  0  0  0
   27.2690    9.1540   13.2980 C   0  0  0  0  0
   27.7500   10.2550   14.0040 C   0  0  0  0  0
   32.6048   16.2876   16.3152 H   0  0  0  0  0
   32.5180   14.2003   14.9747 H   0  0  0  0  0
   28.2288   14.4330   14.9351 H   0  0  0  0  0
   28.3390   16.5120   16.2883 H   0  0  0  0  0
   28.7359   12.3003   15.1266 H   0  0  0  0  0
   30.3103   11.1582   11.9808 H   0  0  0  0  0
   29.4816    9.2090   10.7202 H   0  0  0  0  0
   28.2720    7.0019   11.0113 H   0  0  0  0  0
   26.8403    7.9546   10.4624 H   0  0  0  0  0
   27.0912    6.1735   12.8951 H   0  0  0  0  0
   26.0037    5.9790   11.4892 H   0  0  0  0  0
   24.8151    6.8800   13.2908 H   0  0  0  0  0
   24.9960    8.0805   12.1325 H   0  0  0  0  0
   26.4465    7.7496   14.6432 H   0  0  0  0  0
   25.3353    9.1015   14.1444 H   0  0  0  0  0
   27.2622   10.5543   14.9317 H   0  0  0  0  0
  1  2  1  0  0  0
  2  3  4  0  0  0
  2  7  4  0  0  0
  3  4  4  0  0  0
  4  5  4  0  0  0
  5  6  4  0  0  0
  5  8  1  0  0  0
  6  7  4  0  0  0
  8  9  2  0  0  0
  8 10  1  0  0  0
 10 11  1  0  0  0
 11 12  4  0  0  0
 11 20  4  0  0  0
 12 13  4  0  0  0
 13 14  4  0  0  0
 14 15  1  0  0  0
 14 19  4  0  0  0
 15 16  1  0  0  0
 16 17  1  0  0  0
 17 18  1  0  0  0
 18 19  1  0  0  0
 19 20  4  0  0  0
  3 21  1  0  0  0
  4 22  1  0  0  0
  6 23  1  0  0  0
  7 24  1  0  0  0
 10 25  1  0  0  0
 12 26  1  0  0  0
 13 27  1  0  0  0
 15 28  1  0  0  0
 15 29  1  0  0  0
 16 30  1  0  0  0
 16 31  1  0  0  0
 17 32  1  0  0  0
 17 33  1  0  0  0
 18 34  1  0  0  0
 18 35  1  0  0  0
 20 36  1  0  0  0
M  END
$$$$
