5hfj_ligand
  -I-interpret- 

 51 53  0  0  0  0  0  0  0  0999 V2000
  -26.6490    7.0040  -14.4630 N   0  3  0  0  0
  -25.2910    7.3710  -14.0760 C   0  0  0  0  0
  -25.0530    7.2830  -12.5720 C   0  0  0  0  0
  -23.9190    7.4120  -12.1120 O   0  0  0  0  0
  -25.9780    7.0870  -11.7850 O   0  0  0  0  0
  -24.9400    8.7700  -14.5630 C   0  0  0  0  0
  -25.4150    9.1130  -15.9680 C   0  0  0  0  0
  -24.9390   10.8010  -16.4110 S   0  0  0  0  0
  -26.5660   11.5650  -16.6450 C   0  0  0  0  0
  -24.3350   10.6680  -18.1130 C   0  0  0  0  0
  -22.8620   10.2800  -18.2210 C   0  0  0  0  0
  -22.5280   10.0850  -19.5780 O   0  0  0  0  0
  -21.8940   11.3320  -17.6990 C   0  0  0  0  0
  -21.1200   10.7580  -16.6760 O   0  0  0  0  0
  -20.9700   11.6610  -18.8550 C   0  0  0  0  0
  -19.6280   11.6840  -18.4290 O   0  0  0  0  0
  -21.2000   10.5020  -19.8040 C   0  0  0  0  0
  -21.0140   10.8470  -21.2220 N   0  0  0  0  0
  -21.0500   12.0760  -21.8270 C   0  0  0  0  0
  -20.8250   11.8980  -23.1520 N   0  0  0  0  0
  -20.6530   10.5780  -23.3920 C   0  0  0  0  0
  -20.4020    9.8450  -24.5440 C   0  0  0  0  0
  -20.2780   10.4510  -25.7210 N   0  0  0  0  0
  -20.2670    8.4740  -24.4560 N   0  0  0  0  0
  -20.3890    7.8310  -23.2420 C   0  0  0  0  0
  -20.6410    8.5650  -22.1060 N   0  0  0  0  0
  -20.7670    9.9110  -22.1830 C   0  0  0  0  0
  -26.8557    6.0644  -14.1241 H   0  0  0  0  0
  -27.3084    7.6666  -14.0549 H   0  0  0  0  0
  -26.7290    7.0253  -15.4796 H   0  0  0  0  0
  -24.6394    6.6409  -14.5561 H   0  0  0  0  0
  -23.2985    7.5583  -12.8297 H   0  0  0  0  0
  -23.8517    8.8288  -14.5802 H   0  0  0  0  0
  -25.4368    9.4673  -13.8884 H   0  0  0  0  0
  -26.5016    9.0335  -16.0014 H   0  0  0  0  0
  -24.9554    8.4210  -16.6737 H   0  0  0  0  0
  -27.1018   11.0407  -17.4363 H   0  0  0  0  0
  -27.1330   11.5009  -15.7163 H   0  0  0  0  0
  -26.4381   12.6113  -16.9226 H   0  0  0  0  0
  -24.4451   11.6501  -18.5728 H   0  0  0  0  0
  -24.9127    9.8828  -18.6006 H   0  0  0  0  0
  -22.7598    9.3822  -17.6114 H   0  0  0  0  0
  -22.4164   12.2116  -17.3227 H   0  0  0  0  0
  -20.5041   11.4117  -16.3371 H   0  0  0  0  0
  -21.1639   12.6375  -19.2989 H   0  0  0  0  0
  -19.0604   11.8937  -19.1743 H   0  0  0  0  0
  -20.4644    9.7221  -19.6073 H   0  0  0  0  0
  -21.2283   13.0296  -21.3300 H   0  0  0  0  0
  -20.3673   11.4651  -25.7844 H   0  0  0  0  0
  -20.0936    9.9018  -26.5605 H   0  0  0  0  0
  -20.2863    6.7475  -23.1829 H   0  0  0  0  0
  1  2  1  0  0  0
  2  3  1  0  0  0
  2  6  1  0  0  0
  3  4  1  0  0  0
  3  5  2  0  0  0
  6  7  1  0  0  0
  7  8  1  0  0  0
  8  9  1  0  0  0
  8 10  1  0  0  0
 10 11  1  0  0  0
 11 12  1  0  0  0
 11 13  1  0  0  0
 12 17  1  0  0  0
 13 14  1  0  0  0
 13 15  1  0  0  0
 15 16  1  0  0  0
 15 17  1  0  0  0
 17 18  1  0  0  0
 18 19  4  0  0  0
 18 27  4  0  0  0
 19 20  4  0  0  0
 20 21  4  0  0  0
 21 22  4  0  0  0
 21 27  4  0  0  0
 22 23  1  0  0  0
 22 24  4  0  0  0
 24 25  4  0  0  0
 25 26  4  0  0  0
 26 27  4  0  0  0
  1 28  1  0  0  0
  1 29  1  0  0  0
  1 30  1  0  0  0
  2 31  1  0  0  0
  4 32  1  0  0  0
  6 33  1  0  0  0
  6 34  1  0  0  0
  7 35  1  0  0  0
  7 36  1  0  0  0
  9 37  1  0  0  0
  9 38  1  0  0  0
  9 39  1  0  0  0
 10 40  1  0  0  0
 10 41  1  0  0  0
 11 42  1  0  0  0
 13 43  1  0  0  0
 14 44  1  0  0  0
 15 45  1  0  0  0
 16 46  1  0  0  0
 17 47  1  0  0  0
 19 48  1  0  0  0
 23 49  1  0  0  0
 23 50  1  0  0  0
 25 51  1  0  0  0
M  END
$$$$
