3ipb_ligand
  -I-interpret- 

 87 90  0  0  0  0  0  0  0  0999 V2000
   19.0260   45.3840   64.0310 O   0  0  0  0  0
   23.2920   43.2810   33.3820 O   0  0  0  0  0
   18.8520   43.6890   65.4620 O   0  0  0  0  0
   23.3450   43.8680   35.5360 O   0  0  0  0  0
   19.8540   43.8850   58.8970 Cl  0  0  0  0  0
   23.8960   40.3090   60.2760 Cl  0  0  0  0  0
   21.9550   45.0740   41.6060 Cl  0  0  0  0  0
   20.8970   39.6190   41.4380 Cl  0  0  0  0  0
   23.7510   44.0030   64.9520 C   0  0  0  0  0
   19.3920   40.8250   35.3070 C   0  0  0  0  0
   23.0860   45.0690   65.5160 C   0  0  0  0  0
   19.7240   41.1920   34.0060 C   0  0  0  0  0
   23.0070   43.0570   64.2800 C   0  0  0  0  0
   20.1730   41.2340   36.3910 C   0  0  0  0  0
   21.7150   45.2410   65.4590 C   0  0  0  0  0
   20.8510   41.9790   33.8000 C   0  0  0  0  0
   20.4780   43.0140   61.3490 C   0  0  0  0  0
   22.2240   41.4740   61.8420 C   0  0  0  0  0
   21.9680   43.5180   39.3860 C   0  0  0  0  0
   21.5400   41.1680   39.2720 C   0  0  0  0  0
   21.2180   42.5120   50.5820 C   0  0  0  0  0
   21.4320   41.6590   51.8970 C   0  0  0  0  0
   22.0430   42.0770   49.3230 C   0  0  0  0  0
   21.4250   42.5100   53.2030 C   0  0  0  0  0
   21.4050   42.3710   47.9480 C   0  0  0  0  0
   21.1500   41.6960   54.4980 C   0  0  0  0  0
   22.2680   42.0370   46.6430 C   0  0  0  0  0
   21.5420   42.5100   55.7710 C   0  0  0  0  0
   21.3950   42.2600   45.3370 C   0  0  0  0  0
   21.0870   41.9320   57.1530 C   0  0  0  0  0
   22.1170   42.4730   43.9650 C   0  0  0  0  0
   20.9320   42.3170   63.5560 N   0  0  0  0  0
   22.0900   42.4450   37.2470 N   0  0  0  0  0
   22.1490   42.0710   58.1820 O   0  0  0  0  0
   21.1990   42.2350   42.7940 O   0  0  0  0  0
   19.5010   44.4650   64.7320 C   0  0  0  0  0
   22.8500   43.2480   34.5670 C   0  0  0  0  0
   21.1910   42.2670   62.2690 C   0  0  0  0  0
   21.8450   42.3610   38.5980 C   0  0  0  0  0
   20.7930   42.9380   59.9900 C   0  0  0  0  0
   22.5620   41.3860   60.5050 C   0  0  0  0  0
   21.7650   43.5400   40.7700 C   0  0  0  0  0
   21.3180   41.1370   40.6590 C   0  0  0  0  0
   21.6310   43.2120   64.2150 C   0  0  0  0  0
   21.3040   42.0260   36.2030 C   0  0  0  0  0
   20.9930   44.2990   64.7830 C   0  0  0  0  0
   21.6280   42.3910   34.8780 C   0  0  0  0  0
   21.8390   42.1190   59.5270 C   0  0  0  0  0
   21.4510   42.3210   41.4280 C   0  0  0  0  0
   19.7373   45.8308   63.5663 H   0  0  0  0  0
   22.7449   42.7255   32.8220 H   0  0  0  0  0
   24.8339   43.9101   65.0346 H   0  0  0  0  0
   18.5098   40.2095   35.4827 H   0  0  0  0  0
   23.6756   45.8222   66.0386 H   0  0  0  0  0
   19.1116   40.8682   33.1644 H   0  0  0  0  0
   23.4919   42.2024   63.8082 H   0  0  0  0  0
   19.8932   40.9288   37.3993 H   0  0  0  0  0
   21.2302   46.0938   65.9343 H   0  0  0  0  0
   21.1276   42.2751   32.7881 H   0  0  0  0  0
   19.6691   43.6630   61.6847 H   0  0  0  0  0
   22.7920   40.8995   62.5738 H   0  0  0  0  0
   22.2368   44.4511   38.8909 H   0  0  0  0  0
   21.4736   40.2402   38.7037 H   0  0  0  0  0
   21.5456   43.5235   50.8222 H   0  0  0  0  0
   20.1691   42.3909   50.3116 H   0  0  0  0  0
   22.4103   41.1842   51.8223 H   0  0  0  0  0
   20.6060   40.9510   51.9646 H   0  0  0  0  0
   22.1410   40.9932   49.3854 H   0  0  0  0  0
   22.9693   42.6506   49.3554 H   0  0  0  0  0
   20.6199   43.2384   53.1059 H   0  0  0  0  0
   22.4181   42.9476   53.3050 H   0  0  0  0  0
   21.2450   43.4489   47.9246 H   0  0  0  0  0
   20.5266   41.7282   47.8899 H   0  0  0  0  0
   21.7481   40.7852   54.4698 H   0  0  0  0  0
   20.0853   41.4675   54.5456 H   0  0  0  0  0
   22.5890   40.9961   46.6842 H   0  0  0  0  0
   23.1348   42.6971   46.6098 H   0  0  0  0  0
   21.0428   43.4740   55.6730 H   0  0  0  0  0
   22.6317   42.5168   55.7957 H   0  0  0  0  0
   20.8557   43.1901   45.5166 H   0  0  0  0  0
   20.8317   41.3348   45.2159 H   0  0  0  0  0
   20.8673   40.8719   57.0267 H   0  0  0  0  0
   20.2105   42.4877   57.4863 H   0  0  0  0  0
   22.9393   41.7604   43.9009 H   0  0  0  0  0
   22.4616   43.5061   43.9205 H   0  0  0  0  0
   20.2454   41.7113   64.0056 H   0  0  0  0  0
   22.9761   42.8774   36.9858 H   0  0  0  0  0
 36  1  1  0  0  0
 37  2  1  0  0  0
 36  3  2  0  0  0
 37  4  2  0  0  0
 40  5  1  0  0  0
 41  6  1  0  0  0
 42  7  1  0  0  0
 43  8  1  0  0  0
  9 11  4  0  0  0
 13  9  4  0  0  0
 10 12  4  0  0  0
 14 10  4  0  0  0
 11 15  4  0  0  0
 12 16  4  0  0  0
 44 13  4  0  0  0
 45 14  4  0  0  0
 15 46  4  0  0  0
 16 47  4  0  0  0
 17 38  4  0  0  0
 40 17  4  0  0  0
 18 38  4  0  0  0
 41 18  4  0  0  0
 19 39  4  0  0  0
 42 19  4  0  0  0
 39 20  4  0  0  0
 20 43  4  0  0  0
 21 22  1  0  0  0
 23 21  1  0  0  0
 22 24  1  0  0  0
 25 23  1  0  0  0
 24 26  1  0  0  0
 27 25  1  0  0  0
 26 28  1  0  0  0
 29 27  1  0  0  0
 28 30  1  0  0  0
 31 29  1  0  0  0
 30 34  1  0  0  0
 35 31  1  0  0  0
 38 32  1  0  0  0
 32 44  1  0  0  0
 39 33  1  0  0  0
 33 45  1  0  0  0
 34 48  1  0  0  0
 49 35  1  0  0  0
 46 36  1  0  0  0
 47 37  1  0  0  0
 48 40  4  0  0  0
 48 41  4  0  0  0
 42 49  4  0  0  0
 43 49  4  0  0  0
 44 46  4  0  0  0
 45 47  4  0  0  0
  1 50  1  0  0  0
  2 51  1  0  0  0
  9 52  1  0  0  0
 10 53  1  0  0  0
 11 54  1  0  0  0
 12 55  1  0  0  0
 13 56  1  0  0  0
 14 57  1  0  0  0
 15 58  1  0  0  0
 16 59  1  0  0  0
 17 60  1  0  0  0
 18 61  1  0  0  0
 19 62  1  0  0  0
 20 63  1  0  0  0
 21 64  1  0  0  0
 21 65  1  0  0  0
 22 66  1  0  0  0
 22 67  1  0  0  0
 23 68  1  0  0  0
 23 69  1  0  0  0
 24 70  1  0  0  0
 24 71  1  0  0  0
 25 72  1  0  0  0
 25 73  1  0  0  0
 26 74  1  0  0  0
 26 75  1  0  0  0
 27 76  1  0  0  0
 27 77  1  0  0  0
 28 78  1  0  0  0
 28 79  1  0  0  0
 29 80  1  0  0  0
 29 81  1  0  0  0
 30 82  1  0  0  0
 30 83  1  0  0  0
 31 84  1  0  0  0
 31 85  1  0  0  0
 32 86  1  0  0  0
 33 87  1  0  0  0
M  END
$$$$
