### 
### Created by X-TOOL on Mon Sep 10 21:13:03 2018
### 

@<TRIPOS>MOLECULE
3ipb_ligand
   85    88     1     0     0
SMALL
GAST_HUCK


@<TRIPOS>ATOM
      1 OAA        19.0260   45.3840   64.0310 O.co2     1 JZD        -0.5648
      2 OAB        23.2920   43.2810   33.3820 O.co2     1 JZD        -0.5648
      3 OAC        18.8520   43.6890   65.4620 O.co2     1 JZD        -0.5648
      4 OAD        23.3450   43.8680   35.5360 O.co2     1 JZD        -0.5648
      5 CLAE       19.8540   43.8850   58.8970 Cl        1 JZD        -0.0816
      6 CLAF       23.8960   40.3090   60.2760 Cl        1 JZD        -0.0816
      7 CLAG       21.9550   45.0740   41.6060 Cl        1 JZD        -0.0816
      8 CLAH       20.8970   39.6190   41.4380 Cl        1 JZD        -0.0816
      9 CAI        23.7510   44.0030   64.9520 C.ar      1 JZD        -0.0700
     10 CAJ        19.3920   40.8250   35.3070 C.ar      1 JZD        -0.0700
     11 CAK        23.0860   45.0690   65.5160 C.ar      1 JZD        -0.0707
     12 CAL        19.7240   41.1920   34.0060 C.ar      1 JZD        -0.0707
     13 CAM        23.0070   43.0570   64.2800 C.ar      1 JZD        -0.0366
     14 CAN        20.1730   41.2340   36.3910 C.ar      1 JZD        -0.0366
     15 CAO        21.7150   45.2410   65.4590 C.ar      1 JZD        -0.0583
     16 CAP        20.8510   41.9790   33.8000 C.ar      1 JZD        -0.0583
     17 CAQ        20.4780   43.0140   61.3490 C.ar      1 JZD        -0.0334
     18 CAR        22.2240   41.4740   61.8420 C.ar      1 JZD        -0.0334
     19 CAS        21.9680   43.5180   39.3860 C.ar      1 JZD        -0.0334
     20 CAT        21.5400   41.1680   39.2720 C.ar      1 JZD        -0.0334
     21 CAU        21.2180   42.5120   50.5820 C.3       1 JZD        -0.0531
     22 CAV        21.4320   41.6590   51.8970 C.3       1 JZD        -0.0531
     23 CAW        22.0430   42.0770   49.3230 C.3       1 JZD        -0.0531
     24 CAX        21.4250   42.5100   53.2030 C.3       1 JZD        -0.0530
     25 CAY        21.4050   42.3710   47.9480 C.3       1 JZD        -0.0530
     26 CAZ        21.1500   41.6960   54.4980 C.3       1 JZD        -0.0506
     27 CBA        22.2680   42.0370   46.6430 C.3       1 JZD        -0.0506
     28 CBB        21.5420   42.5100   55.7710 C.3       1 JZD        -0.0253
     29 CBC        21.3950   42.2600   45.3370 C.3       1 JZD        -0.0253
     30 CBD        21.0870   41.9320   57.1530 C.3       1 JZD         0.0684
     31 CBE        22.1170   42.4730   43.9650 C.3       1 JZD         0.0684
     32 NBF        20.9320   42.3170   63.5560 N.pl3     1 JZD        -0.2782
     33 NBG        22.0900   42.4450   37.2470 N.pl3     1 JZD        -0.2782
     34 OBH        22.1490   42.0710   58.1820 O.3       1 JZD        -0.3238
     35 OBI        21.1990   42.2350   42.7940 O.3       1 JZD        -0.3238
     36 CBJ        19.5010   44.4650   64.7320 C.2       1 JZD         0.0566
     37 CBK        22.8500   43.2480   34.5670 C.2       1 JZD         0.0566
     38 CBL        21.1910   42.2670   62.2690 C.ar      1 JZD         0.0495
     39 CBM        21.8450   42.3610   38.5980 C.ar      1 JZD         0.0495
     40 CBN        20.7930   42.9380   59.9900 C.ar      1 JZD         0.0593
     41 CBO        22.5620   41.3860   60.5050 C.ar      1 JZD         0.0593
     42 CBP        21.7650   43.5400   40.7700 C.ar      1 JZD         0.0593
     43 CBQ        21.3180   41.1370   40.6590 C.ar      1 JZD         0.0593
     44 CBR        21.6310   43.2120   64.2150 C.ar      1 JZD         0.0708
     45 CBS        21.3040   42.0260   36.2030 C.ar      1 JZD         0.0708
     46 CBT        20.9930   44.2990   64.7830 C.ar      1 JZD         0.0312
     47 CBU        21.6280   42.3910   34.8780 C.ar      1 JZD         0.0312
     48 CBV        21.8390   42.1190   59.5270 C.ar      1 JZD         0.1078
     49 CBW        21.4510   42.3210   41.4280 C.ar      1 JZD         0.1078
     50 H1         24.8279   43.9106   65.0341 H         1 JZD         0.0606
     51 H2         18.5146   40.2129   35.4818 H         1 JZD         0.0606
     52 H3         23.6723   45.8181   66.0357 H         1 JZD         0.0518
     53 H4         19.1150   40.8700   33.1691 H         1 JZD         0.0518
     54 H5         23.4893   42.2071   63.8108 H         1 JZD         0.0534
     55 H6         19.8948   40.9305   37.3938 H         1 JZD         0.0534
     56 H7         21.2329   46.0891   65.9317 H         1 JZD         0.0618
     57 H8         21.1261   42.2734   32.7937 H         1 JZD         0.0618
     58 H9         19.6736   43.6594   61.6828 H         1 JZD         0.0513
     59 H10        22.7889   40.9027   62.5698 H         1 JZD         0.0513
     60 H11        22.2353   44.4460   38.8936 H         1 JZD         0.0513
     61 H12        21.4739   40.2453   38.7068 H         1 JZD         0.0513
     62 H13        21.4851   43.5539   50.8126 H         1 JZD         0.0265
     63 H14        20.1516   42.4567   50.3179 H         1 JZD         0.0265
     64 H15        22.4012   41.1440   51.8232 H         1 JZD         0.0265
     65 H16        20.6251   40.9144   51.9633 H         1 JZD         0.0265
     66 H17        22.2081   40.9915   49.3899 H         1 JZD         0.0265
     67 H18        23.0110   42.5982   49.3609 H         1 JZD         0.0265
     68 H19        20.6447   43.2795   53.1081 H         1 JZD         0.0265
     69 H20        22.4075   42.9944   53.3033 H         1 JZD         0.0265
     70 H21        21.1668   43.4445   47.9188 H         1 JZD         0.0265
     71 H22        20.4749   41.7871   47.8854 H         1 JZD         0.0265
     72 H23        21.7395   40.7677   54.4702 H         1 JZD         0.0266
     73 H24        20.0792   41.4490   54.5459 H         1 JZD         0.0266
     74 H25        22.5986   40.9887   46.6844 H         1 JZD         0.0266
     75 H26        23.1469   42.6976   46.6097 H         1 JZD         0.0266
     76 H27        21.1037   43.5139   55.6708 H         1 JZD         0.0291
     77 H28        22.6390   42.5890   55.7895 H         1 JZD         0.0291
     78 H29        20.7723   43.1493   45.5142 H         1 JZD         0.0291
     79 H30        20.7493   41.3763   45.2269 H         1 JZD         0.0291
     80 H31        20.8454   40.8658   57.0316 H         1 JZD         0.0610
     81 H32        20.1914   42.4749   57.4893 H         1 JZD         0.0610
     82 H33        22.9640   41.7743   43.8985 H         1 JZD         0.0610
     83 H34        22.4899   43.5068   43.9180 H         1 JZD         0.0610
     84 H35        20.2387   41.7054   64.0100 H         1 JZD         0.2065
     85 H36        22.9848   42.8816   36.9832 H         1 JZD         0.2065
@<TRIPOS>BOND
     1   36    1 ar 
     2   37    2 ar 
     3   36    3 ar 
     4   37    4 ar 
     5   40    5 1  
     6   41    6 1  
     7   42    7 1  
     8   43    8 1  
     9    9   11 ar 
    10   13    9 ar 
    11   10   12 ar 
    12   14   10 ar 
    13   11   15 ar 
    14   12   16 ar 
    15   44   13 ar 
    16   45   14 ar 
    17   15   46 ar 
    18   16   47 ar 
    19   17   38 ar 
    20   40   17 ar 
    21   18   38 ar 
    22   41   18 ar 
    23   19   39 ar 
    24   42   19 ar 
    25   39   20 ar 
    26   20   43 ar 
    27   21   22 1  
    28   23   21 1  
    29   22   24 1  
    30   25   23 1  
    31   24   26 1  
    32   27   25 1  
    33   26   28 1  
    34   29   27 1  
    35   28   30 1  
    36   31   29 1  
    37   30   34 1  
    38   35   31 1  
    39   38   32 1  
    40   32   44 1  
    41   39   33 1  
    42   33   45 1  
    43   34   48 1  
    44   49   35 1  
    45   46   36 1  
    46   47   37 1  
    47   48   40 ar 
    48   48   41 ar 
    49   42   49 ar 
    50   43   49 ar 
    51   44   46 ar 
    52   45   47 ar 
    53    9   50 1  
    54   10   51 1  
    55   11   52 1  
    56   12   53 1  
    57   13   54 1  
    58   14   55 1  
    59   15   56 1  
    60   16   57 1  
    61   17   58 1  
    62   18   59 1  
    63   19   60 1  
    64   20   61 1  
    65   21   62 1  
    66   21   63 1  
    67   22   64 1  
    68   22   65 1  
    69   23   66 1  
    70   23   67 1  
    71   24   68 1  
    72   24   69 1  
    73   25   70 1  
    74   25   71 1  
    75   26   72 1  
    76   26   73 1  
    77   27   74 1  
    78   27   75 1  
    79   28   76 1  
    80   28   77 1  
    81   29   78 1  
    82   29   79 1  
    83   30   80 1  
    84   30   81 1  
    85   31   82 1  
    86   31   83 1  
    87   32   84 1  
    88   33   85 1  
@<TRIPOS>SUBSTRUCTURE
     1 JZD         1

