3d2r_ligand
  -I-interpret- 

 42 44  0  0  0  0  0  0  0  0999 V2000
  -21.4650    5.3780   26.8680 P   0  0  0  0  0
  -20.9120    5.2790   28.3320 O   0  0  0  0  0
  -22.8020    4.8120   26.7120 O   0  0  0  0  0
  -21.3250    6.7530   26.3230 O   0  0  0  0  0
  -19.2740    4.6920   24.9660 P   0  0  0  0  0
  -19.6610    5.8800   24.1220 O   0  0  0  0  0
  -18.8000    3.3610   24.4170 O   0  0  0  0  0
  -20.4730    4.3680   26.0100 O   0  0  0  0  0
  -18.0690    5.2780   25.9200 O   0  0  0  0  0
  -17.6290    4.4310   27.0070 C   0  0  0  0  0
  -17.0160    5.2200   28.1780 C   0  0  0  0  0
  -15.8370    5.8360   27.6930 O   0  0  0  0  0
  -17.8370    6.4340   28.6420 C   0  0  0  0  0
  -18.8850    6.0910   29.5670 O   0  0  0  0  0
  -16.8040    7.3450   29.2270 C   0  0  0  0  0
  -16.4950    6.8590   30.5380 O   0  0  0  0  0
  -15.5910    7.0780   28.3350 C   0  0  0  0  0
  -15.3970    8.1520   27.3390 N   0  0  0  0  0
  -15.7080    8.1030   26.0150 C   0  0  0  0  0
  -15.3340    9.2410   25.3880 N   0  0  0  0  0
  -14.7890   10.0470   26.3530 C   0  0  0  0  0
  -14.2450   11.3730   26.4020 C   0  0  0  0  0
  -14.2150   12.1620   25.2540 N   0  0  0  0  0
  -13.6850   11.7930   27.5970 N   0  0  0  0  0
  -13.7530   11.1090   28.7440 C   0  0  0  0  0
  -14.2860    9.8880   28.7750 N   0  0  0  0  0
  -14.7950    9.3100   27.6250 C   0  0  0  0  0
  -20.0343    5.6663   28.3682 H   0  0  0  0  0
  -20.4257    7.0600   26.4594 H   0  0  0  0  0
  -18.6137    2.7638   25.1452 H   0  0  0  0  0
  -16.8588    3.7654   26.6171 H   0  0  0  0  0
  -18.5017    3.8997   27.3867 H   0  0  0  0  0
  -16.9152    4.4990   28.9893 H   0  0  0  0  0
  -18.3898    6.9010   27.8269 H   0  0  0  0  0
  -19.3603    6.8860   29.8194 H   0  0  0  0  0
  -17.1013    8.3922   29.2818 H   0  0  0  0  0
  -15.8324    7.4254   30.9401 H   0  0  0  0  0
  -14.6775    7.0489   28.9289 H   0  0  0  0  0
  -16.1938    7.2590   25.5254 H   0  0  0  0  0
  -14.5808   11.7970   24.3746 H   0  0  0  0  0
  -13.8272   13.1046   25.2930 H   0  0  0  0  0
  -13.3690   11.5542   29.6619 H   0  0  0  0  0
  1  2  1  0  0  0
  1  3  2  0  0  0
  1  4  1  0  0  0
  8  1  1  0  0  0
  5  6  2  0  0  0
  5  7  1  0  0  0
  5  8  1  0  0  0
  5  9  1  0  0  0
  9 10  1  0  0  0
 10 11  1  0  0  0
 11 12  1  0  0  0
 11 13  1  0  0  0
 12 17  1  0  0  0
 13 14  1  0  0  0
 13 15  1  0  0  0
 15 16  1  0  0  0
 15 17  1  0  0  0
 17 18  1  0  0  0
 18 19  4  0  0  0
 18 27  4  0  0  0
 19 20  4  0  0  0
 20 21  4  0  0  0
 21 22  4  0  0  0
 21 27  4  0  0  0
 22 23  1  0  0  0
 22 24  4  0  0  0
 24 25  4  0  0  0
 25 26  4  0  0  0
 26 27  4  0  0  0
  2 28  1  0  0  0
  4 29  1  0  0  0
  7 30  1  0  0  0
 10 31  1  0  0  0
 10 32  1  0  0  0
 11 33  1  0  0  0
 13 34  1  0  0  0
 14 35  1  0  0  0
 15 36  1  0  0  0
 16 37  1  0  0  0
 17 38  1  0  0  0
 19 39  1  0  0  0
 23 40  1  0  0  0
 23 41  1  0  0  0
 25 42  1  0  0  0
M  END
$$$$
