### 
### Created by X-TOOL on Mon Sep 10 21:12:57 2018
### 

@<TRIPOS>MOLECULE
3d2r_ligand
   39    41     1     0     0
SMALL
GAST_HUCK


@<TRIPOS>ATOM
      1 PB        -21.4650    5.3780   26.8680 P.3       1 ADP         0.2069
      2 O1B       -20.9120    5.2790   28.3320 O.co2     1 ADP        -0.5891
      3 O2B       -22.8020    4.8120   26.7120 O.co2     1 ADP        -0.5891
      4 O3B       -21.3250    6.7530   26.3230 O.co2     1 ADP        -0.5891
      5 PA        -19.2740    4.6920   24.9660 P.3       1 ADP         0.3276
      6 O1A       -19.6610    5.8800   24.1220 O.co2     1 ADP        -0.5556
      7 O2A       -18.8000    3.3610   24.4170 O.co2     1 ADP        -0.5556
      8 O3A       -20.4730    4.3680   26.0100 O.3       1 ADP        -0.1548
      9 O5'       -18.0690    5.2780   25.9200 O.3       1 ADP        -0.2436
     10 C5'       -17.6290    4.4310   27.0070 C.3       1 ADP         0.1132
     11 C4'       -17.0160    5.2200   28.1780 C.3       1 ADP         0.1189
     12 O4'       -15.8370    5.8360   27.6930 O.3       1 ADP        -0.3364
     13 C3'       -17.8370    6.4340   28.6420 C.3       1 ADP         0.1149
     14 O3'       -18.8850    6.0910   29.5670 O.3       1 ADP        -0.3864
     15 C2'       -16.8040    7.3450   29.2270 C.3       1 ADP         0.1385
     16 O2'       -16.4950    6.8590   30.5380 O.3       1 ADP        -0.3836
     17 C1'       -15.5910    7.0780   28.3350 C.3       1 ADP         0.2010
     18 N9        -15.3970    8.1520   27.3390 N.pl3     1 ADP        -0.1919
     19 C8        -15.7080    8.1030   26.0150 C.2       1 ADP         0.1123
     20 N7        -15.3340    9.2410   25.3880 N.2       1 ADP        -0.2958
     21 C5        -14.7890   10.0470   26.3530 C.ar      1 ADP         0.1045
     22 C6        -14.2450   11.3730   26.4020 C.ar      1 ADP         0.1298
     23 N6        -14.2150   12.1620   25.2540 N.pl3     1 ADP        -0.3152
     24 N1        -13.6850   11.7930   27.5970 N.ar      1 ADP        -0.2698
     25 C2        -13.7530   11.1090   28.7440 C.ar      1 ADP         0.0533
     26 N3        -14.2860    9.8880   28.7750 N.ar      1 ADP        -0.2714
     27 C4        -14.7950    9.3100   27.6250 C.ar      1 ADP         0.1613
     28 H1        -16.8721    3.7320   26.6217 H         1 ADP         0.0648
     29 H2        -18.4943    3.8645   27.3816 H         1 ADP         0.0648
     30 H3        -16.8174    4.5401   29.0196 H         1 ADP         0.0651
     31 H4        -18.3050    6.9177   27.7719 H         1 ADP         0.0648
     32 H5        -19.4838    5.4806   29.1532 H         1 ADP         0.2100
     33 H6        -17.1112    8.4012   29.2371 H         1 ADP         0.0676
     34 H7        -17.2821    6.8636   31.0699 H         1 ADP         0.2101
     35 H8        -14.6857    7.0042   28.9554 H         1 ADP         0.0996
     36 H9        -16.1933    7.2597   25.5258 H         1 ADP         0.1349
     37 H10       -13.8234   13.1139   25.2934 H         1 ADP         0.1820
     38 H11       -14.5844   11.7934   24.3660 H         1 ADP         0.1820
     39 H12       -13.3711   11.5517   29.6568 H         1 ADP         0.0996
@<TRIPOS>BOND
     1    1    2 ar 
     2    1    3 ar 
     3    1    4 ar 
     4    8    1 1  
     5    5    6 ar 
     6    5    7 ar 
     7    5    8 1  
     8    5    9 1  
     9    9   10 1  
    10   10   11 1  
    11   11   12 1  
    12   11   13 1  
    13   12   17 1  
    14   13   14 1  
    15   13   15 1  
    16   15   16 1  
    17   15   17 1  
    18   17   18 1  
    19   18   19 1  
    20   18   27 1  
    21   19   20 2  
    22   20   21 1  
    23   21   22 ar 
    24   21   27 ar 
    25   22   23 1  
    26   22   24 ar 
    27   24   25 ar 
    28   25   26 ar 
    29   26   27 ar 
    30   10   28 1  
    31   10   29 1  
    32   11   30 1  
    33   13   31 1  
    34   14   32 1  
    35   15   33 1  
    36   16   34 1  
    37   17   35 1  
    38   19   36 1  
    39   23   37 1  
    40   23   38 1  
    41   25   39 1  
@<TRIPOS>SUBSTRUCTURE
     1 ADP         1

