1tpw_ligand
  -I-interpret- 

 16 15  0  0  0  0  0  0  0  0999 V2000
   23.5110   30.2180   18.4800 C   0  0  0  0  0
   24.6930   31.1730   18.6660 C   0  0  0  0  0
   23.1110   30.1470   17.2260 N   0  0  0  0  0
   22.0640   29.3220   16.8830 O   0  0  0  0  0
   23.0650   29.5380   19.3960 O   0  0  0  0  0
   24.5710   32.0020   19.8200 O   0  0  0  0  0
   25.2880   34.0300   21.0850 O   0  0  0  0  0
   26.2220   33.5850   18.8230 O   0  0  0  0  0
   26.9070   32.1410   20.8130 O   0  0  0  0  0
   25.8280   32.9410   20.1530 P   0  0  0  0  0
   24.7302   31.8255   17.7937 H   0  0  0  0  0
   25.5906   30.5669   18.7888 H   0  0  0  0  0
   23.5775   30.7035   16.5097 H   0  0  0  0  0
   21.9020   29.3881   15.9391 H   0  0  0  0  0
   24.5996   34.5237   20.6333 H   0  0  0  0  0
   25.4749   34.0755   18.4725 H   0  0  0  0  0
  1  2  1  0  0  0
  1  3  1  0  0  0
  1  5  2  0  0  0
  2  6  1  0  0  0
  3  4  1  0  0  0
  6 10  1  0  0  0
 10  9  2  0  0  0
 10  8  1  0  0  0
 10  7  1  0  0  0
  2 11  1  0  0  0
  2 12  1  0  0  0
  3 13  1  0  0  0
  4 14  1  0  0  0
  7 15  1  0  0  0
  8 16  1  0  0  0
M  END
$$$$
