### 
### Created by X-TOOL on Mon Sep 10 21:13:01 2018
### 

@<TRIPOS>MOLECULE
3ex3_ligand
   32    33     1     0     0
SMALL
GAST_HUCK


@<TRIPOS>ATOM
      1 N1          5.2610    7.9310   25.9600 N.am      1 U5P        -0.1592
      2 C2          4.4150    8.8730   25.4940 C.2       1 U5P         0.3328
      3 N3          3.8210    8.7070   24.2910 N.am      1 U5P        -0.1865
      4 C4          3.9250    7.5570   23.5900 C.2       1 U5P         0.1822
      5 C5          4.8030    6.5710   24.0840 C.2       1 U5P         0.0062
      6 C6          5.4680    6.7710   25.3010 C.2       1 U5P         0.0591
      7 O2          4.2600    9.9510   26.0770 O.2       1 U5P        -0.3815
      8 O4          3.2650    7.4480   22.4660 O.2       1 U5P        -0.4124
      9 C1'         5.8260    8.0840   27.3170 C.3       1 U5P         0.2059
     10 C2'         6.7290    9.2630   27.5500 C.3       1 U5P         0.1387
     11 O2'         8.0640    8.8270   27.4220 O.3       1 U5P        -0.3836
     12 C3'         6.3830    9.5860   29.0190 C.3       1 U5P         0.1149
     13 C4'         4.8910    9.3060   29.1230 C.3       1 U5P         0.1182
     14 O3'         7.1540    8.8690   30.0840 O.3       1 U5P        -0.3864
     15 O4'         4.6420    8.2800   28.0690 O.3       1 U5P        -0.3363
     16 C5'         4.0790   10.6200   28.9110 C.3       1 U5P         0.1072
     17 O5'         4.3130   11.4020   30.1080 O.3       1 U5P        -0.2734
     18 P           3.5480   12.8280   30.2290 P.3       1 U5P         0.2008
     19 O1P         2.1640   12.5540   30.7950 O.co2     1 U5P        -0.5537
     20 O2P         3.4760   13.5600   28.9000 O.co2     1 U5P        -0.5537
     21 O3P         4.3910   13.5850   31.2330 O.co2     1 U5P        -0.5537
     22 H1          3.2870    9.4604   23.9074 H         1 U5P         0.2259
     23 H2          4.9645    5.6537   23.5197 H         1 U5P         0.0258
     24 H3          6.1346    6.0104   25.7049 H         1 U5P         0.1178
     25 H4          6.3571    7.1674   27.6131 H         1 U5P         0.0997
     26 H5          6.5240   10.1060   26.8738 H         1 U5P         0.0676
     27 H6          8.1998    8.4785   26.5488 H         1 U5P         0.2101
     28 H7          6.5584   10.6602   29.1778 H         1 U5P         0.0648
     29 H8          4.6433    8.8943   30.1125 H         1 U5P         0.0650
     30 H9          6.8534    9.1557   30.9383 H         1 U5P         0.2100
     31 H10         3.0076   10.3984   28.7972 H         1 U5P         0.0639
     32 H11         4.4388   11.1577   28.0214 H         1 U5P         0.0639
@<TRIPOS>BOND
     1    1    2 am 
     2    1    6 1  
     3    1    9 1  
     4    2    3 am 
     5    2    7 2  
     6    3    4 am 
     7    4    5 1  
     8    4    8 2  
     9    5    6 2  
    10    9   10 1  
    11    9   15 1  
    12   10   11 1  
    13   10   12 1  
    14   12   13 1  
    15   12   14 1  
    16   13   15 1  
    17   13   16 1  
    18   16   17 1  
    19   17   18 1  
    20   18   19 ar 
    21   18   20 ar 
    22   18   21 ar 
    23    3   22 1  
    24    5   23 1  
    25    6   24 1  
    26    9   25 1  
    27   10   26 1  
    28   11   27 1  
    29   12   28 1  
    30   13   29 1  
    31   14   30 1  
    32   16   31 1  
    33   16   32 1  
@<TRIPOS>SUBSTRUCTURE
     1 U5P         1

