5k7h_ligand
  -I-interpret- 

 98100  0  0  0  0  0  0  0  0999 V2000
   36.1220   -9.6490  -26.5670 O   0  0  0  0  0
   37.2830   -8.7810  -26.1170 P   0  0  0  0  0
   37.0320   -7.3340  -26.5350 O   0  0  0  0  0
   38.5590   -9.2670  -26.7560 O   0  0  0  0  0
   37.4090   -8.8610  -24.4770 O   0  0  0  0  0
   38.6990   -8.9140  -23.8670 C   0  0  0  0  0
   39.1110   -7.4020  -23.3240 C   0  0  0  0  0
   38.7390   -6.3990  -24.2800 O   0  0  0  0  0
   38.3870   -7.2840  -22.2310 C   0  0  0  0  0
   38.8930   -6.2830  -21.3350 N   0  0  0  0  0
   40.0260   -6.3060  -20.6650 C   0  0  0  0  0
   40.1280   -5.1980  -19.9420 N   0  0  0  0  0
   39.0170   -4.4510  -20.1560 C   0  0  0  0  0
   38.2350   -5.1370  -21.0360 C   0  0  0  0  0
   37.0430   -4.6250  -21.4430 N   0  0  0  0  0
   36.6390   -3.4610  -20.9840 C   0  0  0  0  0
   37.3690   -2.7590  -20.1220 N   0  0  0  0  0
   38.5400   -3.2030  -19.6930 C   0  0  0  0  0
   39.3260   -2.4090  -18.7440 N   0  0  0  0  0
   38.4880   -8.6970  -21.5650 O   0  0  0  0  0
   38.6390   -9.6760  -22.7930 C   0  0  0  0  0
   39.9410  -10.5010  -22.6310 C   0  0  0  0  0
   41.0360   -9.5890  -22.5640 O   0  0  0  0  0
   42.4960  -10.1400  -23.0520 P   0  0  0  0  0
   43.0670   -9.2150  -24.0890 O   0  0  0  0  0
   43.4320  -10.2200  -21.8660 O   0  0  0  0  0
   42.2880  -11.6360  -23.7050 O   0  0  0  0  0
   43.4370  -12.8070  -23.6850 P   0  0  0  0  0
   44.0050  -12.9300  -25.0830 O   0  0  0  0  0
   44.5330  -12.4260  -22.7140 O   0  0  0  0  0
   42.7460  -14.2470  -23.2290 O   0  0  0  0  0
   41.8510  -14.8310  -24.1370 C   0  0  0  0  0
   40.5780  -15.3250  -23.3990 C   0  0  0  0  0
   39.5500  -15.7160  -24.4910 C   0  0  0  0  0
   40.9250  -16.5690  -22.5820 C   0  0  0  0  0
   39.9700  -14.1800  -22.5480 C   0  0  0  0  0
   38.6010  -14.2340  -22.6400 O   0  0  0  0  0
   40.3400  -14.2690  -21.0510 C   0  0  0  0  0
   41.4770  -14.3020  -20.7060 O   0  0  0  0  0
   39.2480  -14.2990  -20.0360 N   0  0  0  0  0
   39.5340  -14.3790  -18.5880 C   0  0  0  0  0
   39.5630  -15.8610  -18.1320 C   0  0  0  0  0
   38.3490  -16.6020  -18.5830 C   0  0  0  0  0
   37.3060  -16.0620  -18.6390 O   0  0  0  0  0
   38.4480  -18.0190  -18.9580 N   0  0  0  0  0
   37.2220  -18.7350  -19.4110 C   0  0  0  0  0
   36.9310  -18.3800  -20.9140 C   0  0  0  0  0
   35.6480  -19.5200  -21.5340 S   0  0  0  0  0
   36.3580  -21.1820  -21.5100 C   0  0  0  0  0
   37.4830  -21.3340  -21.2140 O   0  0  0  0  0
   35.4760  -22.4020  -21.8940 C   0  0  0  0  0
   34.9920  -23.2170  -20.6770 C   0  0  0  0  0
   36.1340  -23.5830  -19.6870 C   0  0  0  0  0
   34.3010  -24.4760  -21.1740 C   0  0  0  0  0
   35.3122   -9.3357  -26.1576 H   0  0  0  0  0
   36.2199   -7.0213  -26.1297 H   0  0  0  0  0
   39.4144   -9.2926  -24.5971 H   0  0  0  0  0
   40.1812   -7.2777  -23.1587 H   0  0  0  0  0
   39.2747   -6.4976  -25.0705 H   0  0  0  0  0
   37.3681   -6.9731  -22.4620 H   0  0  0  0  0
   40.7634   -7.1080  -20.6988 H   0  0  0  0  0
   35.6816   -3.0613  -21.3184 H   0  0  0  0  0
   40.2259   -2.7556  -18.4116 H   0  0  0  0  0
   38.9730   -1.5100  -18.4161 H   0  0  0  0  0
   37.8076  -10.3773  -22.8647 H   0  0  0  0  0
   40.0657  -11.1773  -23.4767 H   0  0  0  0  0
   39.8954  -11.1017  -21.7226 H   0  0  0  0  0
   43.0620  -10.8121  -21.2072 H   0  0  0  0  0
   43.3035  -13.1718  -25.6921 H   0  0  0  0  0
   42.3359  -15.6811  -24.6169 H   0  0  0  0  0
   41.5644  -14.0879  -24.8812 H   0  0  0  0  0
   39.3271  -14.8448  -25.1070 H   0  0  0  0  0
   39.9674  -16.5064  -25.1148 H   0  0  0  0  0
   38.6351  -16.0708  -24.0165 H   0  0  0  0  0
   41.2894  -17.3502  -23.2491 H   0  0  0  0  0
   41.6981  -16.3206  -21.8549 H   0  0  0  0  0
   40.0342  -16.9203  -22.0614 H   0  0  0  0  0
   40.3773  -13.2489  -22.9420 H   0  0  0  0  0
   38.2180  -13.5273  -22.1151 H   0  0  0  0  0
   38.2779  -14.2634  -20.3492 H   0  0  0  0  0
   38.7540  -13.8510  -18.0395 H   0  0  0  0  0
   40.5045  -13.9244  -18.3893 H   0  0  0  0  0
   39.5942  -15.8842  -17.0427 H   0  0  0  0  0
   40.4391  -16.3381  -18.5713 H   0  0  0  0  0
   39.3430  -18.5058  -18.9090 H   0  0  0  0  0
   36.3756  -18.4298  -18.7958 H   0  0  0  0  0
   37.3736  -19.8101  -19.3151 H   0  0  0  0  0
   37.8407  -18.4836  -21.5055 H   0  0  0  0  0
   36.5858  -17.3492  -20.9946 H   0  0  0  0  0
   36.0827  -23.0640  -22.5119 H   0  0  0  0  0
   34.5925  -22.0201  -22.4055 H   0  0  0  0  0
   34.2980  -22.5908  -20.1164 H   0  0  0  0  0
   36.8846  -24.1802  -20.2049 H   0  0  0  0  0
   36.5923  -22.6691  -19.3091 H   0  0  0  0  0
   35.7228  -24.1554  -18.8555 H   0  0  0  0  0
   33.4499  -24.2001  -21.7966 H   0  0  0  0  0
   35.0044  -25.0680  -21.7595 H   0  0  0  0  0
   33.9548  -25.0597  -20.3211 H   0  0  0  0  0
  1  2  1  0  0  0
  2  3  1  0  0  0
  2  4  2  0  0  0
  2  5  1  0  0  0
  5  6  1  0  0  0
  6  7  1  0  0  0
  6 21  1  0  0  0
  7  8  1  0  0  0
  7  9  1  0  0  0
  9 10  1  0  0  0
  9 20  1  0  0  0
 10 11  4  0  0  0
 10 14  4  0  0  0
 11 12  4  0  0  0
 12 13  4  0  0  0
 13 14  4  0  0  0
 13 18  4  0  0  0
 14 15  4  0  0  0
 15 16  4  0  0  0
 16 17  4  0  0  0
 17 18  4  0  0  0
 18 19  1  0  0  0
 20 21  1  0  0  0
 21 22  1  0  0  0
 22 23  1  0  0  0
 23 24  1  0  0  0
 24 25  2  0  0  0
 24 26  1  0  0  0
 24 27  1  0  0  0
 27 28  1  0  0  0
 28 29  1  0  0  0
 28 30  2  0  0  0
 28 31  1  0  0  0
 31 32  1  0  0  0
 32 33  1  0  0  0
 33 34  1  0  0  0
 33 35  1  0  0  0
 33 36  1  0  0  0
 36 37  1  0  0  0
 36 38  1  0  0  0
 38 39  2  0  0  0
 38 40  1  0  0  0
 40 41  1  0  0  0
 41 42  1  0  0  0
 42 43  1  0  0  0
 43 44  2  0  0  0
 43 45  1  0  0  0
 45 46  1  0  0  0
 46 47  1  0  0  0
 47 48  1  0  0  0
 48 49  1  0  0  0
 49 50  2  0  0  0
 49 51  1  0  0  0
 51 52  1  0  0  0
 52 53  1  0  0  0
 52 54  1  0  0  0
  1 55  1  0  0  0
  3 56  1  0  0  0
  6 57  1  0  0  0
  7 58  1  0  0  0
  8 59  1  0  0  0
  9 60  1  0  0  0
 11 61  1  0  0  0
 16 62  1  0  0  0
 19 63  1  0  0  0
 19 64  1  0  0  0
 21 65  1  0  0  0
 22 66  1  0  0  0
 22 67  1  0  0  0
 26 68  1  0  0  0
 29 69  1  0  0  0
 32 70  1  0  0  0
 32 71  1  0  0  0
 34 72  1  0  0  0
 34 73  1  0  0  0
 34 74  1  0  0  0
 35 75  1  0  0  0
 35 76  1  0  0  0
 35 77  1  0  0  0
 36 78  1  0  0  0
 37 79  1  0  0  0
 40 80  1  0  0  0
 41 81  1  0  0  0
 41 82  1  0  0  0
 42 83  1  0  0  0
 42 84  1  0  0  0
 45 85  1  0  0  0
 46 86  1  0  0  0
 46 87  1  0  0  0
 47 88  1  0  0  0
 47 89  1  0  0  0
 51 90  1  0  0  0
 51 91  1  0  0  0
 52 92  1  0  0  0
 53 93  1  0  0  0
 53 94  1  0  0  0
 53 95  1  0  0  0
 54 96  1  0  0  0
 54 97  1  0  0  0
 54 98  1  0  0  0
M  END
$$$$
