### 
### Created by X-TOOL on Mon Sep 10 21:13:28 2018
### 

@<TRIPOS>MOLECULE
5k7h_ligand
   94    96     1     0     0
SMALL
GAST_HUCK


@<TRIPOS>ATOM
      1 O9         36.1220   -9.6490  -26.5670 O.co2     1 IVC        -0.5537
      2 P1         37.2830   -8.7810  -26.1170 P.3       1 IVC         0.2013
      3 O5         37.0320   -7.3340  -26.5350 O.co2     1 IVC        -0.5537
      4 O6         38.5590   -9.2670  -26.7560 O.co2     1 IVC        -0.5537
      5 O2         37.4090   -8.8610  -24.4770 O.3       1 IVC        -0.2674
      6 C1         38.6990   -8.9140  -23.8670 C.3       1 IVC         0.1487
      7 C2         39.1110   -7.4020  -23.3240 C.3       1 IVC         0.1432
      8 O3         38.7390   -6.3990  -24.2800 O.3       1 IVC        -0.3832
      9 C4         38.3870   -7.2840  -22.2310 C.3       1 IVC         0.2013
     10 N1         38.8930   -6.2830  -21.3350 N.pl3     1 IVC        -0.1919
     11 C7         40.0260   -6.3060  -20.6650 C.2       1 IVC         0.1123
     12 N2         40.1280   -5.1980  -19.9420 N.2       1 IVC        -0.2958
     13 C8         39.0170   -4.4510  -20.1560 C.ar      1 IVC         0.1045
     14 C6         38.2350   -5.1370  -21.0360 C.ar      1 IVC         0.1613
     15 N3         37.0430   -4.6250  -21.4430 N.ar      1 IVC        -0.2714
     16 C15        36.6390   -3.4610  -20.9840 C.ar      1 IVC         0.0533
     17 N4         37.3690   -2.7590  -20.1220 N.ar      1 IVC        -0.2698
     18 C12        38.5400   -3.2030  -19.6930 C.ar      1 IVC         0.1298
     19 N5         39.3260   -2.4090  -18.7440 N.pl3     1 IVC        -0.3152
     20 O1         38.4880   -8.6970  -21.5650 O.3       1 IVC        -0.3360
     21 C3         38.6390   -9.6760  -22.7930 C.3       1 IVC         0.1235
     22 C5         39.9410  -10.5010  -22.6310 C.3       1 IVC         0.1131
     23 O4         41.0360   -9.5890  -22.5640 O.3       1 IVC        -0.2476
     24 P2         42.4960  -10.1400  -23.0520 P.3       1 IVC         0.2972
     25 O12        43.0670   -9.2150  -24.0890 O.co2     1 IVC        -0.6127
     26 O10        43.4320  -10.2200  -21.8660 O.co2     1 IVC        -0.6127
     27 O7         42.2880  -11.6360  -23.7050 O.3       1 IVC        -0.1319
     28 P3         43.4370  -12.8070  -23.6850 P.3       1 IVC         0.2971
     29 O14        44.0050  -12.9300  -25.0830 O.co2     1 IVC        -0.6127
     30 O13        44.5330  -12.4260  -22.7140 O.co2     1 IVC        -0.6127
     31 O8         42.7460  -14.2470  -23.2290 O.3       1 IVC        -0.2496
     32 C11        41.8510  -14.8310  -24.1370 C.3       1 IVC         0.0936
     33 C9         40.5780  -15.3250  -23.3990 C.3       1 IVC         0.0367
     34 C13        39.5500  -15.7160  -24.4910 C.3       1 IVC        -0.0528
     35 C14        40.9250  -16.5690  -22.5820 C.3       1 IVC        -0.0528
     36 C10        39.9700  -14.1800  -22.5480 C.3       1 IVC         0.1510
     37 O11        38.6010  -14.2340  -22.6400 O.3       1 IVC        -0.3708
     38 C16        40.3400  -14.2690  -21.0510 C.2       1 IVC         0.2057
     39 O15        41.4770  -14.3020  -20.7060 O.2       1 IVC        -0.3942
     40 N6         39.2480  -14.2990  -20.0360 N.am      1 IVC        -0.2826
     41 C17        39.5340  -14.3790  -18.5880 C.3       1 IVC         0.0477
     42 C18        39.5630  -15.8610  -18.1320 C.3       1 IVC         0.0574
     43 C19        38.3490  -16.6020  -18.5830 C.2       1 IVC         0.1779
     44 O16        37.3060  -16.0620  -18.6390 O.2       1 IVC        -0.3970
     45 N7         38.4480  -18.0190  -18.9580 N.am      1 IVC        -0.2860
     46 C20        37.2220  -18.7350  -19.4110 C.3       1 IVC         0.0422
     47 C21        36.9310  -18.3800  -20.9140 C.3       1 IVC         0.0336
     48 S1         35.6480  -19.5200  -21.5340 S.3       1 IVC        -0.0482
     49 C22        36.3580  -21.1820  -21.5100 C.2       1 IVC         0.1644
     50 O17        37.4830  -21.3340  -21.2140 O.2       1 IVC        -0.3791
     51 C23        35.4760  -22.4020  -21.8940 C.3       1 IVC         0.0340
     52 C24        34.9920  -23.2170  -20.6770 C.3       1 IVC        -0.0300
     53 C25        36.1340  -23.5830  -19.6870 C.3       1 IVC        -0.0605
     54 C26        34.3010  -24.4760  -21.1740 C.3       1 IVC        -0.0605
     55 H1         39.4447   -9.2943  -24.5807 H         1 IVC         0.0704
     56 H2         40.1869   -7.3316  -23.1059 H         1 IVC         0.0680
     57 H3         37.7999   -6.4295  -24.4201 H         1 IVC         0.2101
     58 H4         37.3445   -7.0442  -22.4872 H         1 IVC         0.0996
     59 H5         40.7627   -7.1073  -20.6988 H         1 IVC         0.1349
     60 H6         35.6869   -3.0635  -21.3166 H         1 IVC         0.0996
     61 H7         38.9696   -1.5011  -18.4129 H         1 IVC         0.1820
     62 H8         40.2347   -2.7590  -18.4083 H         1 IVC         0.1820
     63 H9         37.7757  -10.3548  -22.8550 H         1 IVC         0.0654
     64 H10        40.0670  -11.1726  -23.4930 H         1 IVC         0.0648
     65 H11        39.8935  -11.0956  -21.7068 H         1 IVC         0.0648
     66 H12        42.3393  -15.6851  -24.6289 H         1 IVC         0.0628
     67 H13        41.5650  -14.0861  -24.8942 H         1 IVC         0.0628
     68 H14        38.6261  -16.0742  -24.0134 H         1 IVC         0.0238
     69 H15        39.9700  -16.5137  -25.1212 H         1 IVC         0.0238
     70 H16        39.3241  -14.8376  -25.1134 H         1 IVC         0.0238
     71 H17        41.6547  -16.3040  -21.8027 H         1 IVC         0.0238
     72 H18        41.3571  -17.3338  -23.2441 H         1 IVC         0.0238
     73 H19        40.0130  -16.9645  -22.1110 H         1 IVC         0.0238
     74 H20        40.3303  -13.2198  -22.9457 H         1 IVC         0.0844
     75 H21        38.2220  -13.5346  -22.1205 H         1 IVC         0.2133
     76 H22        38.2970  -14.2641  -20.3431 H         1 IVC         0.1853
     77 H23        38.7509  -13.8426  -18.0322 H         1 IVC         0.0545
     78 H24        40.5109  -13.9163  -18.3839 H         1 IVC         0.0545
     79 H25        39.6136  -15.8949  -17.0337 H         1 IVC         0.0522
     80 H26        40.4546  -16.3467  -18.5553 H         1 IVC         0.0522
     81 H27        39.3255  -18.4962  -18.9100 H         1 IVC         0.1851
     82 H28        36.3677  -18.4276  -18.7900 H         1 IVC         0.0529
     83 H29        37.3744  -19.8200  -19.3138 H         1 IVC         0.0529
     84 H30        37.8496  -18.4954  -21.5080 H         1 IVC         0.0424
     85 H31        36.5740  -17.3423  -20.9887 H         1 IVC         0.0424
     86 H32        36.0634  -23.0651  -22.5461 H         1 IVC         0.0506
     87 H33        34.5946  -22.0363  -22.4412 H         1 IVC         0.0506
     88 H34        34.2581  -22.6070  -20.1299 H         1 IVC         0.0321
     89 H35        35.7202  -24.1607  -18.8474 H         1 IVC         0.0234
     90 H36        36.5974  -22.6615  -19.3049 H         1 IVC         0.0234
     91 H37        36.8922  -24.1857  -20.2084 H         1 IVC         0.0234
     92 H38        33.4967  -24.2014  -21.8724 H         1 IVC         0.0234
     93 H39        33.8742  -25.0217  -20.3196 H         1 IVC         0.0234
     94 H40        35.0318  -25.1161  -21.6899 H         1 IVC         0.0234
@<TRIPOS>BOND
     1    1    2 ar 
     2    2    3 ar 
     3    2    4 ar 
     4    2    5 1  
     5    5    6 1  
     6    6    7 1  
     7    6   21 1  
     8    7    8 1  
     9    7    9 1  
    10    9   10 1  
    11    9   20 1  
    12   10   11 1  
    13   10   14 1  
    14   11   12 2  
    15   12   13 1  
    16   13   14 ar 
    17   13   18 ar 
    18   14   15 ar 
    19   15   16 ar 
    20   16   17 ar 
    21   17   18 ar 
    22   18   19 1  
    23   20   21 1  
    24   21   22 1  
    25   22   23 1  
    26   23   24 1  
    27   24   25 ar 
    28   24   26 ar 
    29   24   27 1  
    30   27   28 1  
    31   28   29 ar 
    32   28   30 ar 
    33   28   31 1  
    34   31   32 1  
    35   32   33 1  
    36   33   34 1  
    37   33   35 1  
    38   33   36 1  
    39   36   37 1  
    40   36   38 1  
    41   38   39 2  
    42   38   40 am 
    43   40   41 1  
    44   41   42 1  
    45   42   43 1  
    46   43   44 2  
    47   43   45 am 
    48   45   46 1  
    49   46   47 1  
    50   47   48 1  
    51   48   49 1  
    52   49   50 2  
    53   49   51 1  
    54   51   52 1  
    55   52   53 1  
    56   52   54 1  
    57    6   55 1  
    58    7   56 1  
    59    8   57 1  
    60    9   58 1  
    61   11   59 1  
    62   16   60 1  
    63   19   61 1  
    64   19   62 1  
    65   21   63 1  
    66   22   64 1  
    67   22   65 1  
    68   32   66 1  
    69   32   67 1  
    70   34   68 1  
    71   34   69 1  
    72   34   70 1  
    73   35   71 1  
    74   35   72 1  
    75   35   73 1  
    76   36   74 1  
    77   37   75 1  
    78   40   76 1  
    79   41   77 1  
    80   41   78 1  
    81   42   79 1  
    82   42   80 1  
    83   45   81 1  
    84   46   82 1  
    85   46   83 1  
    86   47   84 1  
    87   47   85 1  
    88   51   86 1  
    89   51   87 1  
    90   52   88 1  
    91   53   89 1  
    92   53   90 1  
    93   53   91 1  
    94   54   92 1  
    95   54   93 1  
    96   54   94 1  
@<TRIPOS>SUBSTRUCTURE
     1 IVC         1

