3ff3_ligand
  -I-interpret- 

 20 19  0  0  0  0  0  0  0  0999 V2000
   18.5190   44.0390   18.2280 N   0  3  0  0  0
   18.0780   42.6780   18.8070 C   0  0  0  0  0
   19.1260   41.6470   18.5890 C   0  0  0  0  0
   19.1020   40.6040   19.2510 O   0  0  0  0  0
   16.7470   42.2250   18.2460 C   0  0  0  0  0
   16.8200   42.1600   16.7150 C   0  0  0  0  0
   15.6380   41.4760   16.0340 C   0  0  0  0  0
   14.9140   40.7360   16.7170 O   0  0  0  0  0
   15.4510   41.7030   14.7940 O   0  0  0  0  0
   19.9510   41.8590   17.6290 O   0  0  0  0  0
   19.4172   44.3041   18.6322 H   0  0  0  0  0
   18.6099   43.9628   17.2149 H   0  0  0  0  0
   17.8203   44.7464   18.4556 H   0  0  0  0  0
   17.9437   42.8117   19.8804 H   0  0  0  0  0
   15.9733   42.9347   18.5390 H   0  0  0  0  0
   16.5104   41.2353   18.6368 H   0  0  0  0  0
   17.7045   41.5722   16.4695 H   0  0  0  0  0
   16.8317   43.1902   16.3592 H   0  0  0  0  0
   16.1294   42.3020   14.4736 H   0  0  0  0  0
   19.7911   42.7296   17.2575 H   0  0  0  0  0
  1  2  1  0  0  0
  2  3  1  0  0  0
  2  5  1  0  0  0
  3  4  2  0  0  0
  3 10  1  0  0  0
  5  6  1  0  0  0
  6  7  1  0  0  0
  7  8  2  0  0  0
  7  9  1  0  0  0
  1 11  1  0  0  0
  1 12  1  0  0  0
  1 13  1  0  0  0
  2 14  1  0  0  0
  5 15  1  0  0  0
  5 16  1  0  0  0
  6 17  1  0  0  0
  6 18  1  0  0  0
  9 19  1  0  0  0
 10 20  1  0  0  0
M  END
$$$$
