3ai8_ligand
  -I-interpret- 

 20 21  0  0  0  0  0  0  0  0999 V2000
  -35.2770  -12.1250  -47.1160 C   0  0  0  0  0
  -35.9260  -13.1970  -47.4940 N   0  0  0  0  0
  -35.7410  -14.2060  -46.9770 O   0  0  0  0  0
  -34.5660  -11.5700  -47.9520 C   0  0  0  0  0
  -34.6930  -10.2250  -44.2450 N   0  0  0  0  0
  -36.5930  -13.0610  -48.2110 O   0  0  0  0  0
  -33.8090  -10.5030  -47.6160 C   0  0  0  0  0
  -33.1100   -8.9350  -45.9840 O   0  0  0  0  0
  -33.8550  -10.0430  -46.3770 C   0  0  0  0  0
  -34.6490  -10.6740  -45.5070 C   0  0  0  0  0
  -35.4620  -10.8200  -43.4390 C   0  0  0  0  0
  -36.2170  -11.8780  -43.7940 C   0  0  0  0  0
  -36.1640  -12.3110  -44.9660 C   0  0  0  0  0
  -35.3530  -11.7010  -45.8820 C   0  0  0  0  0
  -34.5465  -11.9434  -48.9759 H   0  0  0  0  0
  -33.1676  -10.0266  -48.3575 H   0  0  0  0  0
  -33.2736   -8.7538  -45.0556 H   0  0  0  0  0
  -35.5173  -10.4619  -42.4110 H   0  0  0  0  0
  -36.8708  -12.3541  -43.0633 H   0  0  0  0  0
  -36.7636  -13.1736  -45.2568 H   0  0  0  0  0
  1  2  1  0  0  0
  4  1  4  0  0  0
  1 14  4  0  0  0
  2  3  2  0  0  0
  2  6  2  0  0  0
  7  4  4  0  0  0
 10  5  4  0  0  0
  5 11  4  0  0  0
  9  7  4  0  0  0
  9  8  1  0  0  0
  9 10  4  0  0  0
 10 14  4  0  0  0
 11 12  4  0  0  0
 12 13  4  0  0  0
 13 14  4  0  0  0
  4 15  1  0  0  0
  7 16  1  0  0  0
  8 17  1  0  0  0
 11 18  1  0  0  0
 12 19  1  0  0  0
 13 20  1  0  0  0
M  END
$$$$
