### 
### Created by X-TOOL on Mon Sep 10 21:12:53 2018
### 

@<TRIPOS>MOLECULE
2h6k_ligand
  163   162     1     0     0
SMALL
GAST_HUCK


@<TRIPOS>ATOM
      1 N           4.4440    6.3190   46.0610 N.4       1 ALA         0.2377
      2 CA          5.8440    5.8260   46.0840 C.3       1 ALA         0.0621
      3 C           6.4940    5.9250   44.7130 C.2       1 ALA         0.2264
      4 O           7.6810    6.2090   44.6460 O.2       1 ALA        -0.3907
      5 CB          5.9210    4.3640   46.6060 C.3       1 ALA        -0.0040
      6 N           5.7490    5.6870   43.6240 N.am      1 ARG        -0.2610
      7 CA          6.3910    5.5690   42.2910 C.3       1 ARG         0.1312
      8 C           7.1680    6.8310   41.9320 C.2       1 ARG         0.2040
      9 O           8.1750    6.7840   41.2120 O.2       1 ARG        -0.3944
     10 CB          5.3590    5.2630   41.1900 C.3       1 ARG        -0.0092
     11 CG          5.9540    5.1210   39.7960 C.3       1 ARG        -0.0156
     12 CD          4.8830    4.8390   38.7180 C.3       1 ARG         0.0627
     13 NE          4.0680    3.6370   38.9660 N.pl3     1 ARG        -0.2723
     14 CZ          4.3290    2.4220   38.4830 C.cat     1 ARG         0.2882
     15 NH1         5.4090    2.2050   37.7350 N.pl3     1 ARG        -0.2849
     16 NH2         3.4980    1.4190   38.7390 N.pl3     1 ARG        -0.2849
     17 N           6.7230    7.9580   42.4680 N.am      1 THR        -0.2613
     18 CA          7.3400    9.2490   42.1500 C.3       1 THR         0.1565
     19 C           8.6290    9.5030   42.9420 C.2       1 THR         0.2065
     20 O           9.2830   10.5460   42.7620 O.2       1 THR        -0.3943
     21 CB          6.3460   10.4200   42.3430 C.3       1 THR         0.0924
     22 OG1         5.9820   10.5170   43.7190 O.3       1 THR        -0.3874
     23 CG2         5.0870   10.2280   41.5000 C.3       1 THR        -0.0346
     24 N           9.0030    8.5440   43.7930 N.am      1 MLZ        -0.2637
     25 CA         10.2400    8.6090   44.5850 C.3       1 MLZ         0.1310
     26 CB          9.9000    8.5460   46.0670 C.3       1 MLZ        -0.0122
     27 CG          9.2570    9.8540   46.5280 C.3       1 MLZ        -0.0440
     28 CD          8.8880    9.7460   48.0010 C.3       1 MLZ        -0.0124
     29 CE          7.9920   10.9020   48.4330 C.3       1 MLZ        -0.0339
     30 NZ          7.4310   10.6910   49.7590 N.4       1 MLZ         0.2248
     31 CM          6.2660    9.8260   49.9140 C.3       1 MLZ        -0.0449
     32 C          11.1300    7.4520   44.2120 C.2       1 MLZ         0.2039
     33 O          10.6380    6.4280   43.7570 O.2       1 MLZ        -0.3944
     34 N          12.4410    7.5940   44.3850 N.am      1 GLN        -0.2636
     35 CA         13.3600    6.4900   44.0910 C.3       1 GLN         0.1330
     36 C          13.3990    5.5160   45.2680 C.2       1 GLN         0.2041
     37 O          13.6780    5.9260   46.3920 O.2       1 GLN        -0.3944
     38 CB         14.7730    7.0140   43.8670 C.3       1 GLN         0.0045
     39 CG         14.8630    8.1690   42.9260 C.3       1 GLN         0.0412
     40 CD         16.2570    8.6990   42.8300 C.2       1 GLN         0.1737
     41 OE1        17.2270    7.9750   43.0840 O.2       1 GLN        -0.3973
     42 NE2        16.3820    9.9670   42.4450 N.am      1 GLN        -0.3009
     43 N          13.1280    4.2360   45.0080 N.am      1 THR        -0.2613
     44 CA         13.0460    3.2300   46.0800 C.3       1 THR         0.1565
     45 C          13.8290    1.9490   45.7780 C.2       1 THR         0.2065
     46 O          13.7010    0.9530   46.4940 O.2       1 THR        -0.3943
     47 CB         11.5800    2.8210   46.3780 C.3       1 THR         0.0924
     48 OG1        10.9290    2.4240   45.1610 O.3       1 THR        -0.3874
     49 CG2        10.7920    3.9730   47.0560 C.3       1 THR        -0.0346
     50 N          14.6380    1.9570   44.7240 N.am      1 ALA        -0.2639
     51 CA         15.3290    0.7260   44.3370 C.3       1 ALA         0.1282
     52 C          16.8320    0.7540   44.5690 C.2       1 ALA         0.2036
     53 O          17.4630    1.8100   44.4950 O.2       1 ALA        -0.3944
     54 CB         15.0310    0.3960   42.8900 C.3       1 ALA        -0.0244
     55 N          17.4030   -0.4220   44.8270 N.am      1 ARG        -0.2637
     56 CA         18.8560   -0.5910   44.7590 C.3       1 ARG         0.1310
     57 C          19.3310   -0.2650   43.3360 C.2       1 ARG         0.2033
     58 O          18.5160   -0.1710   42.3960 O.2       1 ARG        -0.3944
     59 CB         19.2570   -2.0240   45.1190 C.3       1 ARG        -0.0092
     60 CG         18.6210   -3.0580   44.2300 C.3       1 ARG        -0.0156
     61 CD         19.0910   -4.4550   44.5460 C.3       1 ARG         0.0627
     62 NE         18.3750   -5.4450   43.7370 N.pl3     1 ARG        -0.2723
     63 CZ         18.8550   -6.0120   42.6320 C.cat     1 ARG         0.2882
     64 NH1        20.0730   -5.6970   42.1910 N.pl3     1 ARG        -0.2849
     65 NH2        18.1200   -6.9030   41.9720 N.pl3     1 ARG        -0.2849
     66 N          20.6430   -0.1040   43.1830 N.am      1 LYS        -0.2695
     67 CA         21.2480    0.1920   41.8890 C.3       1 LYS         0.0944
     68 C          20.9610   -0.9260   40.8830 C.2       1 LYS         0.0601
     69 O          21.1590   -2.1160   41.1700 O.co2     1 LYS        -0.5666
     70 CB         22.7570    0.4130   42.0500 C.3       1 LYS        -0.0177
     71 CG         23.3860    1.2350   40.9350 C.3       1 LYS        -0.0446
     72 CD         24.5720    2.0820   41.4340 C.3       1 LYS        -0.0125
     73 CE         25.7100    1.2260   41.9700 C.3       1 LYS        -0.0354
     74 NZ         26.9270    2.0480   42.2290 N.4       1 LYS         0.2185
     75 OXT        20.5140   -0.6540   39.7640 O.co2     1 LYS        -0.5666
     76 H1          4.0445    6.2393   46.9830 H         1 ALA         0.2015
     77 H2          3.9043    5.7678   45.4122 H         1 ALA         0.2015
     78 H3          4.4325    7.2847   45.7722 H         1 ALA         0.2015
     79 H4          6.4125    6.4646   46.7761 H         1 ALA         0.1095
     80 H5          6.9693    4.0309   46.6101 H         1 ALA         0.0310
     81 H6          5.3306    3.7085   45.9490 H         1 ALA         0.0310
     82 H7          5.5176    4.3179   47.6283 H         1 ALA         0.0310
     83 H8          4.7576    5.5887   43.7101 H         1 ARG         0.1884
     84 H9          7.1020    4.7308   42.3346 H         1 ARG         0.0800
     85 H10         4.6243    6.0814   41.1693 H         1 ARG         0.0313
     86 H11         4.8515    4.3211   41.4455 H         1 ARG         0.0313
     87 H12         6.6738    4.2893   39.8033 H         1 ARG         0.0301
     88 H13         6.4753    6.0548   39.5387 H         1 ARG         0.0301
     89 H14         5.3929    4.7148   37.7513 H         1 ARG         0.0689
     90 H15         4.2089    5.7068   38.6682 H         1 ARG         0.0689
     91 H16         3.2320    3.7435   39.5582 H         1 ARG         0.2642
     92 H17         5.6000    1.2619   37.3675 H         1 ARG         0.2615
     93 H18         6.0535    2.9802   37.5238 H         1 ARG         0.2615
     94 H19         2.6604    1.5788   39.3168 H         1 ARG         0.2615
     95 H20         3.6908    0.4809   38.3599 H         1 ARG         0.2615
     96 H21         5.9506    7.9272   43.1023 H         1 THR         0.1884
     97 H22         7.6129    9.2208   41.0848 H         1 THR         0.0826
     98 H23         6.8383   11.3540   42.0345 H         1 THR         0.0639
     99 H24         5.3722   11.2362   43.8341 H         1 THR         0.2101
    100 H25         4.4050   11.0759   41.6612 H         1 THR         0.0257
    101 H26         4.5869    9.2939   41.7953 H         1 THR         0.0257
    102 H27         5.3623   10.1761   40.4363 H         1 THR         0.0257
    103 H28         8.4132    7.7431   43.8965 H         1 MLZ         0.1883
    104 H29        10.7618    9.5536   44.3718 H         1 MLZ         0.0800
    105 H30        10.8216    8.3740   46.6423 H         1 MLZ         0.0312
    106 H31         9.1984    7.7171   46.2420 H         1 MLZ         0.0312
    107 H32         8.3500   10.0455   45.9358 H         1 MLZ         0.0269
    108 H33         9.9680   10.6816   46.3878 H         1 MLZ         0.0269
    109 H34         9.8084    9.7614   48.6032 H         1 MLZ         0.0317
    110 H35         8.3559    8.7980   48.1687 H         1 MLZ         0.0317
    111 H36         7.1683   11.0020   47.7108 H         1 MLZ         0.0814
    112 H37         8.5862   11.8277   48.4420 H         1 MLZ         0.0814
    113 H38         7.1734   11.5975   50.1166 H         1 MLZ         0.2011
    114 H39         8.1646   10.3007   50.3296 H         1 MLZ         0.2011
    115 H40         5.9805    9.7821   50.9754 H         1 MLZ         0.0777
    116 H41         6.5105    8.8143   49.5580 H         1 MLZ         0.0777
    117 H42         5.4288   10.2295   49.3256 H         1 MLZ         0.0777
    118 H43        12.8041    8.4637   44.7194 H         1 GLN         0.1883
    119 H44        13.0154    5.9650   43.1879 H         1 GLN         0.0801
    120 H45        15.3837    6.1933   43.4628 H         1 GLN         0.0337
    121 H46        15.1803    7.3301   44.8387 H         1 GLN         0.0337
    122 H47        14.2007    8.9715   43.2829 H         1 GLN         0.0504
    123 H48        14.5371    7.8413   41.9278 H         1 GLN         0.0504
    124 H49        17.2902   10.3773   42.3624 H         1 GLN         0.1814
    125 H50        15.5677   10.5094   42.2383 H         1 GLN         0.1814
    126 H51        12.9767    3.9525   44.0610 H         1 THR         0.1884
    127 H52        13.4713    3.6846   46.9869 H         1 THR         0.0826
    128 H53        11.5934    1.9621   47.0651 H         1 THR         0.0639
    129 H54        10.9349    3.1502   44.5486 H         1 THR         0.2101
    130 H55         9.7600    3.6461   47.2511 H         1 THR         0.0257
    131 H56        10.7795    4.8495   46.3915 H         1 THR         0.0257
    132 H57        11.2778    4.2400   48.0061 H         1 THR         0.0257
    133 H58        14.7737    2.7974   44.1993 H         1 ALA         0.1883
    134 H59        14.9208   -0.0836   44.9598 H         1 ALA         0.0797
    135 H60        15.5546   -0.5299   42.6098 H         1 ALA         0.0277
    136 H61        15.3745    1.2202   42.2477 H         1 ALA         0.0277
    137 H62        13.9474    0.2577   42.7611 H         1 ALA         0.0277
    138 H63        16.8288   -1.2034   45.0715 H         1 ARG         0.1883
    139 H64        19.3317    0.1016   45.4689 H         1 ARG         0.0800
    140 H65        18.9536   -2.2216   46.1577 H         1 ARG         0.0313
    141 H66        20.3500   -2.1134   45.0329 H         1 ARG         0.0313
    142 H67        18.8736   -2.8284   43.1843 H         1 ARG         0.0301
    143 H68        17.5298   -3.0142   44.3618 H         1 ARG         0.0301
    144 H69        18.9112   -4.6628   45.6111 H         1 ARG         0.0689
    145 H70        20.1680   -4.5287   44.3347 H         1 ARG         0.0689
    146 H71        17.4322   -5.7223   44.0454 H         1 ARG         0.2642
    147 H72        20.4410   -6.1376   41.3358 H         1 ARG         0.2615
    148 H73        20.6460   -5.0130   42.7054 H         1 ARG         0.2615
    149 H74        17.1788   -7.1472   42.3118 H         1 ARG         0.2615
    150 H75        18.4921   -7.3487   41.1212 H         1 ARG         0.2615
    151 H76        21.2356   -0.1890   43.9840 H         1 LYS         0.1875
    152 H77        20.8026    1.1212   41.5041 H         1 LYS         0.0726
    153 H78        23.2496   -0.5702   42.0746 H         1 LYS         0.0305
    154 H79        22.9303    0.9339   43.0032 H         1 LYS         0.0305
    155 H80        22.6224    1.9069   40.5163 H         1 LYS         0.0269
    156 H81        23.7438    0.5523   40.1502 H         1 LYS         0.0269
    157 H82        24.2195    2.7448   42.2379 H         1 LYS         0.0317
    158 H83        24.9497    2.6886   40.5977 H         1 LYS         0.0317
    159 H84        25.9529    0.4483   41.2310 H         1 LYS         0.0813
    160 H85        25.3906    0.7519   42.9098 H         1 LYS         0.0813
    161 H86        27.6629    1.4567   42.5824 H         1 LYS         0.1994
    162 H87        26.7128    2.7605   42.9090 H         1 LYS         0.1994
    163 H88        27.2281    2.4823   41.3707 H         1 LYS         0.1994
@<TRIPOS>BOND
     1    1    2 1  
     2    2    3 1  
     3    2    5 1  
     4    3    4 2  
     5    3    6 am 
     6    6    7 1  
     7    7    8 1  
     8    7   10 1  
     9    8    9 2  
    10    8   17 am 
    11   10   11 1  
    12   11   12 1  
    13   12   13 1  
    14   13   14 ar 
    15   14   15 ar 
    16   14   16 ar 
    17   17   18 1  
    18   18   19 1  
    19   18   21 1  
    20   19   20 2  
    21   19   24 am 
    22   21   22 1  
    23   21   23 1  
    24   24   25 1  
    25   25   26 1  
    26   25   32 1  
    27   26   27 1  
    28   27   28 1  
    29   28   29 1  
    30   29   30 1  
    31   30   31 1  
    32   32   33 2  
    33   32   34 am 
    34   34   35 1  
    35   35   36 1  
    36   35   38 1  
    37   36   37 2  
    38   36   43 am 
    39   38   39 1  
    40   39   40 1  
    41   40   41 2  
    42   40   42 am 
    43   43   44 1  
    44   44   45 1  
    45   44   47 1  
    46   45   46 2  
    47   45   50 am 
    48   47   48 1  
    49   47   49 1  
    50   50   51 1  
    51   51   52 1  
    52   51   54 1  
    53   52   53 2  
    54   52   55 am 
    55   55   56 1  
    56   56   57 1  
    57   56   59 1  
    58   57   58 2  
    59   57   66 am 
    60   59   60 1  
    61   60   61 1  
    62   61   62 1  
    63   62   63 ar 
    64   63   64 ar 
    65   63   65 ar 
    66   66   67 1  
    67   67   68 1  
    68   67   70 1  
    69   68   69 ar 
    70   68   75 ar 
    71   70   71 1  
    72   71   72 1  
    73   72   73 1  
    74   73   74 1  
    75    1   76 1  
    76    1   77 1  
    77    1   78 1  
    78    2   79 1  
    79    5   80 1  
    80    5   81 1  
    81    5   82 1  
    82    6   83 1  
    83    7   84 1  
    84   10   85 1  
    85   10   86 1  
    86   11   87 1  
    87   11   88 1  
    88   12   89 1  
    89   12   90 1  
    90   13   91 1  
    91   15   92 1  
    92   15   93 1  
    93   16   94 1  
    94   16   95 1  
    95   17   96 1  
    96   18   97 1  
    97   21   98 1  
    98   22   99 1  
    99   23  100 1  
   100   23  101 1  
   101   23  102 1  
   102   24  103 1  
   103   25  104 1  
   104   26  105 1  
   105   26  106 1  
   106   27  107 1  
   107   27  108 1  
   108   28  109 1  
   109   28  110 1  
   110   29  111 1  
   111   29  112 1  
   112   30  113 1  
   113   30  114 1  
   114   31  115 1  
   115   31  116 1  
   116   31  117 1  
   117   34  118 1  
   118   35  119 1  
   119   38  120 1  
   120   38  121 1  
   121   39  122 1  
   122   39  123 1  
   123   42  124 1  
   124   42  125 1  
   125   43  126 1  
   126   44  127 1  
   127   47  128 1  
   128   48  129 1  
   129   49  130 1  
   130   49  131 1  
   131   49  132 1  
   132   50  133 1  
   133   51  134 1  
   134   54  135 1  
   135   54  136 1  
   136   54  137 1  
   137   55  138 1  
   138   56  139 1  
   139   59  140 1  
   140   59  141 1  
   141   60  142 1  
   142   60  143 1  
   143   61  144 1  
   144   61  145 1  
   145   62  146 1  
   146   64  147 1  
   147   64  148 1  
   148   65  149 1  
   149   65  150 1  
   150   66  151 1  
   151   67  152 1  
   152   70  153 1  
   153   70  154 1  
   154   71  155 1  
   155   71  156 1  
   156   72  157 1  
   157   72  158 1  
   158   73  159 1  
   159   73  160 1  
   160   74  161 1  
   161   74  162 1  
   162   74  163 1  
@<TRIPOS>SUBSTRUCTURE
     1 ALA         1

