2h6k_ligand
  -I-interpret- 

162161  0  0  0  0  0  0  0  0999 V2000
    4.4440    6.3190   46.0610 N   0  3  0  0  0
    5.8440    5.8260   46.0840 C   0  0  0  0  0
    6.4940    5.9250   44.7130 C   0  0  0  0  0
    7.6810    6.2090   44.6460 O   0  0  0  0  0
    5.9210    4.3640   46.6060 C   0  0  0  0  0
    5.7490    5.6870   43.6240 N   0  0  0  0  0
    6.3910    5.5690   42.2910 C   0  0  0  0  0
    7.1680    6.8310   41.9320 C   0  0  0  0  0
    8.1750    6.7840   41.2120 O   0  0  0  0  0
    5.3590    5.2630   41.1900 C   0  0  0  0  0
    5.9540    5.1210   39.7960 C   0  0  0  0  0
    4.8830    4.8390   38.7180 C   0  0  0  0  0
    4.0680    3.6370   38.9660 N   0  0  0  0  0
    4.3290    2.4220   38.4830 C   0  0  0  0  0
    5.4090    2.2050   37.7350 N   0  0  0  0  0
    3.4980    1.4190   38.7390 N   0  0  0  0  0
    6.7230    7.9580   42.4680 N   0  0  0  0  0
    7.3400    9.2490   42.1500 C   0  0  0  0  0
    8.6290    9.5030   42.9420 C   0  0  0  0  0
    9.2830   10.5460   42.7620 O   0  0  0  0  0
    6.3460   10.4200   42.3430 C   0  0  0  0  0
    5.9820   10.5170   43.7190 O   0  0  0  0  0
    5.0870   10.2280   41.5000 C   0  0  0  0  0
    9.0030    8.5440   43.7930 N   0  0  0  0  0
   10.2400    8.6090   44.5850 C   0  0  0  0  0
    9.9000    8.5460   46.0670 C   0  0  0  0  0
    9.2570    9.8540   46.5280 C   0  0  0  0  0
    8.8880    9.7460   48.0010 C   0  0  0  0  0
    7.9920   10.9020   48.4330 C   0  0  0  0  0
    7.4310   10.6910   49.7590 N   0  3  0  0  0
    6.2660    9.8260   49.9140 C   0  0  0  0  0
   11.1300    7.4520   44.2120 C   0  0  0  0  0
   10.6380    6.4280   43.7570 O   0  0  0  0  0
   12.4410    7.5940   44.3850 N   0  0  0  0  0
   13.3600    6.4900   44.0910 C   0  0  0  0  0
   13.3990    5.5160   45.2680 C   0  0  0  0  0
   13.6780    5.9260   46.3920 O   0  0  0  0  0
   14.7730    7.0140   43.8670 C   0  0  0  0  0
   14.8630    8.1690   42.9260 C   0  0  0  0  0
   16.2570    8.6990   42.8300 C   0  0  0  0  0
   17.2270    7.9750   43.0840 O   0  0  0  0  0
   16.3820    9.9670   42.4450 N   0  0  0  0  0
   13.1280    4.2360   45.0080 N   0  0  0  0  0
   13.0460    3.2300   46.0800 C   0  0  0  0  0
   13.8290    1.9490   45.7780 C   0  0  0  0  0
   13.7010    0.9530   46.4940 O   0  0  0  0  0
   11.5800    2.8210   46.3780 C   0  0  0  0  0
   10.9290    2.4240   45.1610 O   0  0  0  0  0
   10.7920    3.9730   47.0560 C   0  0  0  0  0
   14.6380    1.9570   44.7240 N   0  0  0  0  0
   15.3290    0.7260   44.3370 C   0  0  0  0  0
   16.8320    0.7540   44.5690 C   0  0  0  0  0
   17.4630    1.8100   44.4950 O   0  0  0  0  0
   15.0310    0.3960   42.8900 C   0  0  0  0  0
   17.4030   -0.4220   44.8270 N   0  0  0  0  0
   18.8560   -0.5910   44.7590 C   0  0  0  0  0
   19.3310   -0.2650   43.3360 C   0  0  0  0  0
   18.5160   -0.1710   42.3960 O   0  0  0  0  0
   19.2570   -2.0240   45.1190 C   0  0  0  0  0
   18.6210   -3.0580   44.2300 C   0  0  0  0  0
   19.0910   -4.4550   44.5460 C   0  0  0  0  0
   18.3750   -5.4450   43.7370 N   0  0  0  0  0
   18.8550   -6.0120   42.6320 C   0  0  0  0  0
   20.0730   -5.6970   42.1910 N   0  0  0  0  0
   18.1200   -6.9030   41.9720 N   0  0  0  0  0
   20.6430   -0.1040   43.1830 N   0  0  0  0  0
   21.2480    0.1920   41.8890 C   0  0  0  0  0
   20.9610   -0.9260   40.8830 C   0  0  0  0  0
   21.1590   -2.1160   41.1700 O   0  0  0  0  0
   22.7570    0.4130   42.0500 C   0  0  0  0  0
   23.3860    1.2350   40.9350 C   0  0  0  0  0
   24.5720    2.0820   41.4340 C   0  0  0  0  0
   25.7100    1.2260   41.9700 C   0  0  0  0  0
   26.9270    2.0480   42.2290 N   0  3  0  0  0
   20.5140   -0.6540   39.7640 O   0  0  0  0  0
    4.4282    7.2783   45.7146 H   0  0  0  0  0
    3.8858    5.7255   45.4474 H   0  0  0  0  0
    4.0593    6.2908   47.0053 H   0  0  0  0  0
    6.3949    6.4683   46.7711 H   0  0  0  0  0
    5.3990    3.7042   45.9130 H   0  0  0  0  0
    6.9653    4.0610   46.6814 H   0  0  0  0  0
    5.4525    4.3052   47.5884 H   0  0  0  0  0
    4.7378    5.5867   43.7119 H   0  0  0  0  0
    7.0897    4.7347   42.3527 H   0  0  0  0  0
    4.6649    6.1028   41.1585 H   0  0  0  0  0
    4.8965    4.3082   41.4402 H   0  0  0  0  0
    6.6449    4.2781   39.8107 H   0  0  0  0  0
    6.4444    6.0611   39.5435 H   0  0  0  0  0
    5.4111    4.6779   37.7782 H   0  0  0  0  0
    4.2025    5.6905   38.7141 H   0  0  0  0  0
    3.2402    3.7425   39.5525 H   0  0  0  0  0
    5.5930    1.2732   37.3632 H   0  0  0  0  0
    6.0523    2.9706   37.5339 H   0  0  0  0  0
    2.6636    1.5794   39.3033 H   0  0  0  0  0
    5.9351    7.9266   43.1150 H   0  0  0  0  0
    7.6137    9.1983   41.0961 H   0  0  0  0  0
    6.8385   11.3368   42.0188 H   0  0  0  0  0
    5.3657   11.2438   43.8353 H   0  0  0  0  0
    5.3612   10.1767   40.4463 H   0  0  0  0  0
    4.5924    9.3021   41.7936 H   0  0  0  0  0
    4.4120   11.0687   41.6606 H   0  0  0  0  0
    8.4014    7.7271   43.8986 H   0  0  0  0  0
   10.7597    9.5448   44.3793 H   0  0  0  0  0
   10.8174    8.3849   46.6331 H   0  0  0  0  0
    9.1976    7.7294   46.2336 H   0  0  0  0  0
    8.3583   10.0439   45.9411 H   0  0  0  0  0
    9.9614   10.6741   46.3889 H   0  0  0  0  0
    9.8036    9.7768   48.5916 H   0  0  0  0  0
    8.3486    8.8117   48.1563 H   0  0  0  0  0
    7.1686   10.9788   47.7229 H   0  0  0  0  0
    8.5952   11.8095   48.4586 H   0  0  0  0  0
    7.1113   11.6131   50.0556 H   0  0  0  0  0
    8.1718   10.2256   50.2835 H   0  0  0  0  0
    5.4372   10.2269   49.3304 H   0  0  0  0  0
    6.5095    8.8240   49.5609 H   0  0  0  0  0
    5.9841    9.7834   50.9661 H   0  0  0  0  0
   12.8114    8.4811   44.7261 H   0  0  0  0  0
   13.0038    5.9881   43.1914 H   0  0  0  0  0
   15.3494    6.1995   43.4283 H   0  0  0  0  0
   15.1417    7.3599   44.8327 H   0  0  0  0  0
   14.2185    8.9653   43.2982 H   0  0  0  0  0
   14.5565    7.8296   41.9366 H   0  0  0  0  0
   17.3089   10.3816   42.3482 H   0  0  0  0  0
   15.5509   10.5241   42.2468 H   0  0  0  0  0
   12.9737    3.9468   44.0421 H   0  0  0  0  0
   13.4921    3.7217   46.9445 H   0  0  0  0  0
   11.5983    1.9807   47.0720 H   0  0  0  0  0
   10.0225    2.1721   45.3518 H   0  0  0  0  0
   11.2744    4.2367   47.9972 H   0  0  0  0  0
   10.7804    4.8408   46.3966 H   0  0  0  0  0
    9.7696    3.6479   47.2488 H   0  0  0  0  0
   14.7764    2.8142   44.1888 H   0  0  0  0  0
   14.9409   -0.0538   44.9923 H   0  0  0  0  0
   13.9570    0.2593   42.7636 H   0  0  0  0  0
   15.3718    1.2135   42.2546 H   0  0  0  0  0
   15.5504   -0.5216   42.6135 H   0  0  0  0  0
   16.8173   -1.2190   45.0764 H   0  0  0  0  0
   19.3234    0.0844   45.4756 H   0  0  0  0  0
   18.9228   -2.2144   46.1389 H   0  0  0  0  0
   20.3374   -2.1048   44.9994 H   0  0  0  0  0
   18.8984   -2.8338   43.2000 H   0  0  0  0  0
   17.5431   -3.0211   44.3875 H   0  0  0  0  0
   18.8988   -4.6589   45.5994 H   0  0  0  0  0
   20.1556   -4.5248   44.3229 H   0  0  0  0  0
   17.4414   -5.7196   44.0424 H   0  0  0  0  0
   20.4404   -6.1390   41.3484 H   0  0  0  0  0
   20.6375   -5.0140   42.6962 H   0  0  0  0  0
   17.1910   -7.1504   42.3127 H   0  0  0  0  0
   21.2475   -0.1907   44.0000 H   0  0  0  0  0
   20.8045    1.1085   41.4999 H   0  0  0  0  0
   21.5043   -2.1753   42.0638 H   0  0  0  0  0
   23.2305   -0.5686   42.0339 H   0  0  0  0  0
   22.9054    0.9628   42.9794 H   0  0  0  0  0
   22.6269    1.9121   40.5434 H   0  0  0  0  0
   23.7566    0.5475   40.1747 H   0  0  0  0  0
   24.2158    2.7166   42.2455 H   0  0  0  0  0
   24.9521    2.6599   40.5916 H   0  0  0  0  0
   25.9544    0.4670   41.2269 H   0  0  0  0  0
   25.3913    0.7710   42.9078 H   0  0  0  0  0
   27.6709    1.4487   42.5866 H   0  0  0  0  0
   27.2306    2.4870   41.3598 H   0  0  0  0  0
   26.7090    2.7686   42.9172 H   0  0  0  0  0
  1  2  1  0  0  0
  2  3  1  0  0  0
  2  5  1  0  0  0
  3  4  2  0  0  0
  3  6  1  0  0  0
  6  7  1  0  0  0
  7  8  1  0  0  0
  7 10  1  0  0  0
  8  9  2  0  0  0
  8 17  1  0  0  0
 10 11  1  0  0  0
 11 12  1  0  0  0
 12 13  1  0  0  0
 13 14  1  0  0  0
 14 15  1  0  0  0
 14 16  2  0  0  0
 17 18  1  0  0  0
 18 19  1  0  0  0
 18 21  1  0  0  0
 19 20  2  0  0  0
 19 24  1  0  0  0
 21 22  1  0  0  0
 21 23  1  0  0  0
 24 25  1  0  0  0
 25 26  1  0  0  0
 25 32  1  0  0  0
 26 27  1  0  0  0
 27 28  1  0  0  0
 28 29  1  0  0  0
 29 30  1  0  0  0
 30 31  1  0  0  0
 32 33  2  0  0  0
 32 34  1  0  0  0
 34 35  1  0  0  0
 35 36  1  0  0  0
 35 38  1  0  0  0
 36 37  2  0  0  0
 36 43  1  0  0  0
 38 39  1  0  0  0
 39 40  1  0  0  0
 40 41  2  0  0  0
 40 42  1  0  0  0
 43 44  1  0  0  0
 44 45  1  0  0  0
 44 47  1  0  0  0
 45 46  2  0  0  0
 45 50  1  0  0  0
 47 48  1  0  0  0
 47 49  1  0  0  0
 50 51  1  0  0  0
 51 52  1  0  0  0
 51 54  1  0  0  0
 52 53  2  0  0  0
 52 55  1  0  0  0
 55 56  1  0  0  0
 56 57  1  0  0  0
 56 59  1  0  0  0
 57 58  2  0  0  0
 57 66  1  0  0  0
 59 60  1  0  0  0
 60 61  1  0  0  0
 61 62  1  0  0  0
 62 63  1  0  0  0
 63 64  1  0  0  0
 63 65  2  0  0  0
 66 67  1  0  0  0
 67 68  1  0  0  0
 67 70  1  0  0  0
 68 69  1  0  0  0
 68 75  2  0  0  0
 70 71  1  0  0  0
 71 72  1  0  0  0
 72 73  1  0  0  0
 73 74  1  0  0  0
  1 76  1  0  0  0
  1 77  1  0  0  0
  1 78  1  0  0  0
  2 79  1  0  0  0
  5 80  1  0  0  0
  5 81  1  0  0  0
  5 82  1  0  0  0
  6 83  1  0  0  0
  7 84  1  0  0  0
 10 85  1  0  0  0
 10 86  1  0  0  0
 11 87  1  0  0  0
 11 88  1  0  0  0
 12 89  1  0  0  0
 12 90  1  0  0  0
 13 91  1  0  0  0
 15 92  1  0  0  0
 15 93  1  0  0  0
 16 94  1  0  0  0
 17 95  1  0  0  0
 18 96  1  0  0  0
 21 97  1  0  0  0
 22 98  1  0  0  0
 23 99  1  0  0  0
 23100  1  0  0  0
 23101  1  0  0  0
 24102  1  0  0  0
 25103  1  0  0  0
 26104  1  0  0  0
 26105  1  0  0  0
 27106  1  0  0  0
 27107  1  0  0  0
 28108  1  0  0  0
 28109  1  0  0  0
 29110  1  0  0  0
 29111  1  0  0  0
 30112  1  0  0  0
 30113  1  0  0  0
 31114  1  0  0  0
 31115  1  0  0  0
 31116  1  0  0  0
 34117  1  0  0  0
 35118  1  0  0  0
 38119  1  0  0  0
 38120  1  0  0  0
 39121  1  0  0  0
 39122  1  0  0  0
 42123  1  0  0  0
 42124  1  0  0  0
 43125  1  0  0  0
 44126  1  0  0  0
 47127  1  0  0  0
 48128  1  0  0  0
 49129  1  0  0  0
 49130  1  0  0  0
 49131  1  0  0  0
 50132  1  0  0  0
 51133  1  0  0  0
 54134  1  0  0  0
 54135  1  0  0  0
 54136  1  0  0  0
 55137  1  0  0  0
 56138  1  0  0  0
 59139  1  0  0  0
 59140  1  0  0  0
 60141  1  0  0  0
 60142  1  0  0  0
 61143  1  0  0  0
 61144  1  0  0  0
 62145  1  0  0  0
 64146  1  0  0  0
 64147  1  0  0  0
 65148  1  0  0  0
 66149  1  0  0  0
 67150  1  0  0  0
 69151  1  0  0  0
 70152  1  0  0  0
 70153  1  0  0  0
 71154  1  0  0  0
 71155  1  0  0  0
 72156  1  0  0  0
 72157  1  0  0  0
 73158  1  0  0  0
 73159  1  0  0  0
 74160  1  0  0  0
 74161  1  0  0  0
 74162  1  0  0  0
M  END
$$$$
