4giu_ligand
  -I-interpret- 

 36 37  0  0  0  0  0  0  0  0999 V2000
    4.3200  -31.6260   34.1030 O   0  0  0  0  0
    4.0050  -30.6840   33.3320 C   0  0  0  0  0
    4.8890  -29.8660   32.9480 O   0  0  0  0  0
    2.6240  -30.5550   32.7840 C   0  0  0  0  0
    1.9640  -31.7180   32.4050 C   0  0  0  0  0
    0.6980  -31.6590   31.8510 C   0  0  0  0  0
    0.0820  -30.4330   31.6730 C   0  0  0  0  0
    0.7250  -29.2580   32.0430 C   0  0  0  0  0
   -0.0060  -27.9720   31.7950 C   0  0  0  0  0
    2.0040  -29.3100   32.6110 C   0  0  0  0  0
    2.7010  -28.1110   33.0000 N   0  0  0  0  0
    2.2700  -27.2750   34.0960 C   0  0  0  0  0
    3.0800  -26.2070   34.4850 C   0  0  0  0  0
    4.3740  -25.9430   33.7750 C   0  0  0  0  0
    5.0370  -26.8910   33.2740 O   0  0  0  0  0
    4.8000  -24.7580   33.6710 O   0  0  0  0  0
    1.0710  -27.4990   34.7760 C   0  0  0  0  0
    0.6770  -26.6670   35.8090 C   0  0  0  0  0
   -0.6160  -26.8970   36.5310 C   0  0  0  0  0
    1.4890  -25.6100   36.1910 C   0  0  0  0  0
    2.6890  -25.3800   35.5320 C   0  0  0  0  0
    4.4892  -29.2131   32.3688 H   0  0  0  0  0
    2.4480  -32.6845   32.5455 H   0  0  0  0  0
    0.1872  -32.5755   31.5556 H   0  0  0  0  0
   -0.9167  -30.3884   31.2386 H   0  0  0  0  0
   -0.2097  -27.8711   30.7290 H   0  0  0  0  0
   -0.9460  -27.9776   32.3468 H   0  0  0  0  0
    0.6083  -27.1360   32.1296 H   0  0  0  0  0
    3.5351  -27.8407   32.4788 H   0  0  0  0  0
    4.1853  -24.1592   34.1014 H   0  0  0  0  0
    0.4382  -28.3390   34.4897 H   0  0  0  0  0
   -1.4423  -26.8340   35.8229 H   0  0  0  0  0
   -0.6036  -27.8857   36.9898 H   0  0  0  0  0
   -0.7392  -26.1380   37.3036 H   0  0  0  0  0
    1.1846  -24.9585   37.0102 H   0  0  0  0  0
    3.3260  -24.5494   35.8360 H   0  0  0  0  0
  1  2  2  0  0  0
  2  3  1  0  0  0
  2  4  1  0  0  0
  4  5  4  0  0  0
  4 10  4  0  0  0
  5  6  4  0  0  0
  6  7  4  0  0  0
  7  8  4  0  0  0
  8  9  1  0  0  0
  8 10  4  0  0  0
 10 11  1  0  0  0
 11 12  1  0  0  0
 12 13  4  0  0  0
 12 17  4  0  0  0
 13 14  1  0  0  0
 13 21  4  0  0  0
 14 15  2  0  0  0
 14 16  1  0  0  0
 17 18  4  0  0  0
 18 19  1  0  0  0
 18 20  4  0  0  0
 20 21  4  0  0  0
  3 22  1  0  0  0
  5 23  1  0  0  0
  6 24  1  0  0  0
  7 25  1  0  0  0
  9 26  1  0  0  0
  9 27  1  0  0  0
  9 28  1  0  0  0
 11 29  1  0  0  0
 16 30  1  0  0  0
 17 31  1  0  0  0
 19 32  1  0  0  0
 19 33  1  0  0  0
 19 34  1  0  0  0
 20 35  1  0  0  0
 21 36  1  0  0  0
M  END
$$$$
