5fb1_ligand
  -I-interpret- 

137136  0  0  0  0  0  0  0  0999 V2000
    2.6490    2.5500  -11.8270 N   0  3  0  0  0
    2.1410    3.8960  -12.0890 C   0  0  0  0  0
    0.7730    3.8250  -12.7520 C   0  0  0  0  0
    0.5460    2.9820  -13.6170 O   0  0  0  0  0
    3.1210    4.6760  -12.9650 C   0  0  0  0  0
   -0.1390    4.7000  -12.3410 N   0  0  0  0  0
   -1.4530    4.7650  -12.9720 C   0  0  0  0  0
   -1.3580    5.3350  -14.3830 C   0  0  0  0  0
   -0.4990    6.1660  -14.6870 O   0  0  0  0  0
   -2.4020    5.6240  -12.1320 C   0  0  0  0  0
   -2.7070    4.9970  -10.7660 C   0  0  0  0  0
   -3.5960    5.8880   -9.9190 C   0  0  0  0  0
   -2.9760    7.1940   -9.7250 N   0  0  0  0  0
   -3.5390    8.3580  -10.0300 C   0  0  0  0  0
   -4.7650    8.4100  -10.5420 N   0  0  0  0  0
   -2.8700    9.4820   -9.8170 N   0  0  0  0  0
   -2.2800    4.9120  -15.2420 N   0  0  0  0  0
   -2.2580    5.3190  -16.6370 C   0  0  0  0  0
   -3.6720    5.5720  -17.1420 C   0  0  0  0  0
   -4.6530    5.0490  -16.6050 O   0  0  0  0  0
   -1.5690    4.2610  -17.5090 C   0  0  0  0  0
   -1.4580    4.7410  -18.8490 O   0  0  0  0  0
   -2.3630    2.9530  -17.5050 C   0  0  0  0  0
   -3.7700    6.3970  -18.1860 N   0  0  0  0  0
   -5.0360    6.5610  -18.8900 C   0  0  0  0  0
   -4.7490    6.9780  -20.3220 C   0  0  0  0  0
   -3.6900    7.5160  -20.6330 O   0  0  0  0  0
   -5.9570    7.5830  -18.2110 C   0  0  0  0  0
   -5.3900    9.0070  -18.1370 C   0  0  0  0  0
   -6.4680    9.9540  -17.6040 C   0  0  0  0  0
   -5.9200   11.3050  -17.1760 C   0  0  0  0  0
   -7.0590   12.1870  -16.7350 N   0  3  0  0  0
   -5.7200    6.7290  -21.1870 N   0  0  0  0  0
   -5.6560    7.1000  -22.5920 C   0  0  0  0  0
   -6.5420    8.3240  -22.8010 C   0  0  0  0  0
   -7.7290    8.2810  -22.4810 O   0  0  0  0  0
   -6.1310    5.9400  -23.4690 C   0  0  0  0  0
   -5.9870    6.1800  -24.9490 C   0  0  0  0  0
   -4.5460    6.1110  -25.3870 C   0  0  0  0  0
   -3.7360    5.4140  -24.7680 O   0  0  0  0  0
   -4.2060    6.8420  -26.4490 N   0  0  0  0  0
   -5.9660    9.4110  -23.3180 N   0  0  0  0  0
   -6.7020   10.6410  -23.5890 C   0  0  0  0  0
   -6.6460   10.9560  -25.0770 C   0  0  0  0  0
   -5.8500   10.3870  -25.8270 O   0  0  0  0  0
   -6.1490   11.8270  -22.7810 C   0  0  0  0  0
   -4.8440   12.1790  -23.2630 O   0  0  0  0  0
   -6.0570   11.4710  -21.3180 C   0  0  0  0  0
   -7.4930   11.8910  -25.5040 N   0  0  0  0  0
   -7.6770   12.1520  -26.9250 C   0  0  0  0  0
   -8.1560   13.5800  -27.1360 C   0  0  0  0  0
   -9.0210   14.0760  -26.4040 O   0  0  0  0  0
   -8.6810   11.1750  -27.5560 C   0  0  0  0  0
   -7.5810   14.2290  -28.1390 N   0  0  0  0  0
   -8.0470   15.5240  -28.5920 C   0  0  0  0  0
   -9.4580   15.4170  -29.1660 C   0  0  0  0  0
  -10.3970   15.9910  -28.6220 O   0  0  0  0  0
   -7.0770   16.0820  -29.6290 C   0  0  0  0  0
   -7.6410   17.1500  -30.5260 C   0  0  0  0  0
   -6.6100   17.5340  -31.5600 C   0  0  0  0  0
   -7.1900   18.3210  -32.6420 N   0  0  0  0  0
   -6.4760   18.9170  -33.5910 C   0  0  0  0  0
   -5.1500   18.8140  -33.5870 N   0  0  0  0  0
   -7.0850   19.6170  -34.5410 N   0  0  0  0  0
   -9.6700   14.7560  -30.1780 O   0  0  0  0  0
    1.9835    2.0446  -11.2421 H   0  0  0  0  0
    2.7704    2.0557  -12.7109 H   0  0  0  0  0
    3.5461    2.6141  -11.3459 H   0  0  0  0  0
    2.0383    4.4194  -11.1384 H   0  0  0  0  0
    3.2199    4.1780  -13.9295 H   0  0  0  0  0
    2.7463    5.6886  -13.1142 H   0  0  0  0  0
    4.0932    4.7156  -12.4738 H   0  0  0  0  0
    0.0826    5.3348  -11.5740 H   0  0  0  0  0
   -1.8442    3.7496  -13.0355 H   0  0  0  0  0
   -3.3416    5.7181  -12.6764 H   0  0  0  0  0
   -1.9212    6.5871  -11.9604 H   0  0  0  0  0
   -1.7643    4.8543  -10.2378 H   0  0  0  0  0
   -3.2278    4.0539  -10.9319 H   0  0  0  0  0
   -3.7435    5.4185   -8.9464 H   0  0  0  0  0
   -4.5505    6.0217  -10.4280 H   0  0  0  0  0
   -2.0382    7.2152   -9.3244 H   0  0  0  0  0
   -5.1853    9.3114  -10.7684 H   0  0  0  0  0
   -5.2852    7.5485  -10.7083 H   0  0  0  0  0
   -1.9303    9.4491   -9.4217 H   0  0  0  0  0
   -3.0184    4.2887  -14.9153 H   0  0  0  0  0
   -1.6876    6.2453  -16.7061 H   0  0  0  0  0
   -0.5770    4.0706  -17.0993 H   0  0  0  0  0
   -1.0266    4.0764  -19.3911 H   0  0  0  0  0
   -2.4347    2.5761  -16.4848 H   0  0  0  0  0
   -3.3634    3.1355  -17.8974 H   0  0  0  0  0
   -1.8545    2.2189  -18.1300 H   0  0  0  0  0
   -2.9499    6.9188  -18.4950 H   0  0  0  0  0
   -5.5626    5.6068  -18.8700 H   0  0  0  0  0
   -6.1032    7.2459  -17.1848 H   0  0  0  0  0
   -6.8679    7.6347  -18.8074 H   0  0  0  0  0
   -5.0811    9.3288  -19.1316 H   0  0  0  0  0
   -4.5285    9.0224  -17.4694 H   0  0  0  0  0
   -6.9144    9.4858  -16.7267 H   0  0  0  0  0
   -7.1824   10.1274  -18.4088 H   0  0  0  0  0
   -5.4012   11.7705  -18.0140 H   0  0  0  0  0
   -5.2216   11.1705  -16.3500 H   0  0  0  0  0
   -6.6930   13.0945  -16.4473 H   0  0  0  0  0
   -7.7104   12.3119  -17.5099 H   0  0  0  0  0
   -7.5421   11.7496  -15.9503 H   0  0  0  0  0
   -6.5566    6.2521  -20.8506 H   0  0  0  0  0
   -4.6286    7.3317  -22.8728 H   0  0  0  0  0
   -7.1936    5.8019  -23.2691 H   0  0  0  0  0
   -5.5111    5.0779  -23.2228 H   0  0  0  0  0
   -6.3672    7.1764  -25.1741 H   0  0  0  0  0
   -6.5444    5.4071  -25.4783 H   0  0  0  0  0
   -3.2418    6.8405  -26.7817 H   0  0  0  0  0
   -4.9101    7.4027  -26.9288 H   0  0  0  0  0
   -4.9693    9.3806  -23.5327 H   0  0  0  0  0
   -7.7366   10.4860  -23.2829 H   0  0  0  0  0
   -6.8266   12.6722  -22.9015 H   0  0  0  0  0
   -4.5052   12.9194  -22.7545 H   0  0  0  0  0
   -7.0490   11.2182  -20.9438 H   0  0  0  0  0
   -5.3920   10.6163  -21.1945 H   0  0  0  0  0
   -5.6637   12.3222  -20.7623 H   0  0  0  0  0
   -8.0229   12.4346  -24.8228 H   0  0  0  0  0
   -6.7128   12.0102  -27.4131 H   0  0  0  0  0
   -8.3163   10.1546  -27.4380 H   0  0  0  0  0
   -9.6461   11.2769  -27.0597 H   0  0  0  0  0
   -8.7904   11.4028  -28.6163 H   0  0  0  0  0
   -6.7825   13.8016  -28.6082 H   0  0  0  0  0
   -8.0851   16.2071  -27.7435 H   0  0  0  0  0
  -10.0778   16.4630  -27.8494 H   0  0  0  0  0
   -6.7953   15.2492  -30.2734 H   0  0  0  0  0
   -6.2570   16.5396  -29.0755 H   0  0  0  0  0
   -7.9018   18.0248  -29.9303 H   0  0  0  0  0
   -8.5332   16.7718  -31.0251 H   0  0  0  0  0
   -6.1973   16.6197  -31.9863 H   0  0  0  0  0
   -5.8449   18.1373  -31.0714 H   0  0  0  0  0
   -8.2047   18.4199  -32.6722 H   0  0  0  0  0
   -4.6006   19.2727  -34.3137 H   0  0  0  0  0
   -4.6824   18.2763  -32.8572 H   0  0  0  0  0
   -8.1018   19.6976  -34.5427 H   0  0  0  0  0
  1  2  1  0  0  0
  2  3  1  0  0  0
  2  5  1  0  0  0
  3  4  2  0  0  0
  3  6  1  0  0  0
  6  7  1  0  0  0
  7  8  1  0  0  0
  7 10  1  0  0  0
  8  9  2  0  0  0
  8 17  1  0  0  0
 10 11  1  0  0  0
 11 12  1  0  0  0
 12 13  1  0  0  0
 13 14  1  0  0  0
 14 15  1  0  0  0
 14 16  2  0  0  0
 17 18  1  0  0  0
 18 19  1  0  0  0
 18 21  1  0  0  0
 19 20  2  0  0  0
 19 24  1  0  0  0
 21 22  1  0  0  0
 21 23  1  0  0  0
 24 25  1  0  0  0
 25 26  1  0  0  0
 25 28  1  0  0  0
 26 27  2  0  0  0
 26 33  1  0  0  0
 28 29  1  0  0  0
 29 30  1  0  0  0
 30 31  1  0  0  0
 31 32  1  0  0  0
 33 34  1  0  0  0
 34 35  1  0  0  0
 34 37  1  0  0  0
 35 36  2  0  0  0
 35 42  1  0  0  0
 37 38  1  0  0  0
 38 39  1  0  0  0
 39 40  2  0  0  0
 39 41  1  0  0  0
 42 43  1  0  0  0
 43 44  1  0  0  0
 43 46  1  0  0  0
 44 45  2  0  0  0
 44 49  1  0  0  0
 46 47  1  0  0  0
 46 48  1  0  0  0
 49 50  1  0  0  0
 50 51  1  0  0  0
 50 53  1  0  0  0
 51 52  2  0  0  0
 51 54  1  0  0  0
 54 55  1  0  0  0
 55 56  1  0  0  0
 55 58  1  0  0  0
 56 57  1  0  0  0
 56 65  2  0  0  0
 58 59  1  0  0  0
 59 60  1  0  0  0
 60 61  1  0  0  0
 61 62  1  0  0  0
 62 63  1  0  0  0
 62 64  2  0  0  0
  1 66  1  0  0  0
  1 67  1  0  0  0
  1 68  1  0  0  0
  2 69  1  0  0  0
  5 70  1  0  0  0
  5 71  1  0  0  0
  5 72  1  0  0  0
  6 73  1  0  0  0
  7 74  1  0  0  0
 10 75  1  0  0  0
 10 76  1  0  0  0
 11 77  1  0  0  0
 11 78  1  0  0  0
 12 79  1  0  0  0
 12 80  1  0  0  0
 13 81  1  0  0  0
 15 82  1  0  0  0
 15 83  1  0  0  0
 16 84  1  0  0  0
 17 85  1  0  0  0
 18 86  1  0  0  0
 21 87  1  0  0  0
 22 88  1  0  0  0
 23 89  1  0  0  0
 23 90  1  0  0  0
 23 91  1  0  0  0
 24 92  1  0  0  0
 25 93  1  0  0  0
 28 94  1  0  0  0
 28 95  1  0  0  0
 29 96  1  0  0  0
 29 97  1  0  0  0
 30 98  1  0  0  0
 30 99  1  0  0  0
 31100  1  0  0  0
 31101  1  0  0  0
 32102  1  0  0  0
 32103  1  0  0  0
 32104  1  0  0  0
 33105  1  0  0  0
 34106  1  0  0  0
 37107  1  0  0  0
 37108  1  0  0  0
 38109  1  0  0  0
 38110  1  0  0  0
 41111  1  0  0  0
 41112  1  0  0  0
 42113  1  0  0  0
 43114  1  0  0  0
 46115  1  0  0  0
 47116  1  0  0  0
 48117  1  0  0  0
 48118  1  0  0  0
 48119  1  0  0  0
 49120  1  0  0  0
 50121  1  0  0  0
 53122  1  0  0  0
 53123  1  0  0  0
 53124  1  0  0  0
 54125  1  0  0  0
 55126  1  0  0  0
 57127  1  0  0  0
 58128  1  0  0  0
 58129  1  0  0  0
 59130  1  0  0  0
 59131  1  0  0  0
 60132  1  0  0  0
 60133  1  0  0  0
 61134  1  0  0  0
 63135  1  0  0  0
 63136  1  0  0  0
 64137  1  0  0  0
M  END
$$$$
