### 
### Created by X-TOOL on Mon Sep 10 21:13:27 2018
### 

@<TRIPOS>MOLECULE
5fb1_ligand
  138   137     1     0     0
SMALL
GAST_HUCK


@<TRIPOS>ATOM
      1 N           2.6490    2.5500  -11.8270 N.4       1 ALA         0.2377
      2 CA          2.1410    3.8960  -12.0890 C.3       1 ALA         0.0621
      3 C           0.7730    3.8250  -12.7520 C.2       1 ALA         0.2264
      4 O           0.5460    2.9820  -13.6170 O.2       1 ALA        -0.3907
      5 CB          3.1210    4.6760  -12.9650 C.3       1 ALA        -0.0040
      6 N          -0.1390    4.7000  -12.3410 N.am      1 ARG        -0.2610
      7 CA         -1.4530    4.7650  -12.9720 C.3       1 ARG         0.1312
      8 C          -1.3580    5.3350  -14.3830 C.2       1 ARG         0.2040
      9 O          -0.4990    6.1660  -14.6870 O.2       1 ARG        -0.3944
     10 CB         -2.4020    5.6240  -12.1320 C.3       1 ARG        -0.0092
     11 CG         -2.7070    4.9970  -10.7660 C.3       1 ARG        -0.0156
     12 CD         -3.5960    5.8880   -9.9190 C.3       1 ARG         0.0627
     13 NE         -2.9760    7.1940   -9.7250 N.pl3     1 ARG        -0.2723
     14 CZ         -3.5390    8.3580  -10.0300 C.cat     1 ARG         0.2882
     15 NH1        -4.7650    8.4100  -10.5420 N.pl3     1 ARG        -0.2849
     16 NH2        -2.8700    9.4820   -9.8170 N.pl3     1 ARG        -0.2849
     17 N          -2.2800    4.9120  -15.2420 N.am      1 THR        -0.2613
     18 CA         -2.2580    5.3190  -16.6370 C.3       1 THR         0.1565
     19 C          -3.6720    5.5720  -17.1420 C.2       1 THR         0.2065
     20 O          -4.6530    5.0490  -16.6050 O.2       1 THR        -0.3943
     21 CB         -1.5690    4.2610  -17.5090 C.3       1 THR         0.0924
     22 OG1        -1.4580    4.7410  -18.8490 O.3       1 THR        -0.3874
     23 CG2        -2.3630    2.9530  -17.5050 C.3       1 THR        -0.0346
     24 N          -3.7700    6.3970  -18.1860 N.am      1 LYS        -0.2637
     25 CA         -5.0360    6.5610  -18.8900 C.3       1 LYS         0.1310
     26 C          -4.7490    6.9780  -20.3220 C.2       1 LYS         0.2039
     27 O          -3.6900    7.5160  -20.6330 O.2       1 LYS        -0.3944
     28 CB         -5.9570    7.5830  -18.2110 C.3       1 LYS        -0.0122
     29 CG         -5.3900    9.0070  -18.1370 C.3       1 LYS        -0.0440
     30 CD         -6.4680    9.9540  -17.6040 C.3       1 LYS        -0.0124
     31 CE         -5.9200   11.3050  -17.1760 C.3       1 LYS        -0.0354
     32 NZ         -7.0590   12.1870  -16.7350 N.4       1 LYS         0.2185
     33 N          -5.7200    6.7290  -21.1870 N.am      1 GLN        -0.2636
     34 CA         -5.6560    7.1000  -22.5920 C.3       1 GLN         0.1330
     35 C          -6.5420    8.3240  -22.8010 C.2       1 GLN         0.2041
     36 O          -7.7290    8.2810  -22.4810 O.2       1 GLN        -0.3944
     37 CB         -6.1310    5.9400  -23.4690 C.3       1 GLN         0.0045
     38 CG         -5.9870    6.1800  -24.9490 C.3       1 GLN         0.0412
     39 CD         -4.5460    6.1110  -25.3870 C.2       1 GLN         0.1737
     40 OE1        -3.7360    5.4140  -24.7680 O.2       1 GLN        -0.3973
     41 NE2        -4.2060    6.8420  -26.4490 N.am      1 GLN        -0.3009
     42 N          -5.9660    9.4110  -23.3180 N.am      1 THR        -0.2613
     43 CA         -6.7020   10.6410  -23.5890 C.3       1 THR         0.1565
     44 C          -6.6460   10.9560  -25.0770 C.2       1 THR         0.2065
     45 O          -5.8500   10.3870  -25.8270 O.2       1 THR        -0.3943
     46 CB         -6.1490   11.8270  -22.7810 C.3       1 THR         0.0924
     47 OG1        -4.8440   12.1790  -23.2630 O.3       1 THR        -0.3874
     48 CG2        -6.0570   11.4710  -21.3180 C.3       1 THR        -0.0346
     49 N          -7.4930   11.8910  -25.5040 N.am      1 ALA        -0.2639
     50 CA         -7.6770   12.1520  -26.9250 C.3       1 ALA         0.1282
     51 C          -8.1560   13.5800  -27.1360 C.2       1 ALA         0.2031
     52 O          -9.0210   14.0760  -26.4040 O.2       1 ALA        -0.3944
     53 CB         -8.6810   11.1750  -27.5560 C.3       1 ALA        -0.0244
     54 N          -7.5810   14.2290  -28.1390 N.am      1 ARG        -0.2695
     55 CA         -8.0470   15.5240  -28.5920 C.3       1 ARG         0.0945
     56 C          -9.4580   15.4170  -29.1660 C.2       1 ARG         0.0601
     57 O         -10.3970   15.9910  -28.6220 O.co2     1 ARG        -0.5666
     58 CB         -7.0770   16.0820  -29.6290 C.3       1 ARG        -0.0148
     59 CG         -7.6410   17.1500  -30.5260 C.3       1 ARG        -0.0162
     60 CD         -6.6100   17.5340  -31.5600 C.3       1 ARG         0.0627
     61 NE         -7.1900   18.3210  -32.6420 N.pl3     1 ARG        -0.2723
     62 CZ         -6.4760   18.9170  -33.5910 C.cat     1 ARG         0.2882
     63 NH1        -5.1500   18.8140  -33.5870 N.pl3     1 ARG        -0.2849
     64 NH2        -7.0850   19.6170  -34.5410 N.pl3     1 ARG        -0.2849
     65 OXT        -9.6700   14.7560  -30.1780 O.co2     1 ARG        -0.5666
     66 H1          3.5544    2.6121  -11.3884 H         1 ALA         0.2015
     67 H2          2.7307    2.0465  -12.6964 H         1 ALA         0.2015
     68 H3          2.0121    2.0636  -11.2156 H         1 ALA         0.2015
     69 H4          2.0366    4.4227  -11.1290 H         1 ALA         0.1095
     70 H5          2.7233    5.6845  -13.1516 H         1 ALA         0.0310
     71 H6          3.2544    4.1515  -13.9226 H         1 ALA         0.0310
     72 H7          4.0905    4.7535  -12.4512 H         1 ALA         0.0310
     73 H8          0.0783    5.3223  -11.5890 H         1 ARG         0.1884
     74 H9         -1.8605    3.7451  -13.0332 H         1 ARG         0.0800
     75 H10        -3.3464    5.7477  -12.6822 H         1 ARG         0.0313
     76 H11        -1.9388    6.6089  -11.9726 H         1 ARG         0.0313
     77 H12        -1.7598    4.8296  -10.2323 H         1 ARG         0.0301
     78 H13        -3.2149    4.0339  -10.9224 H         1 ARG         0.0301
     79 H14        -3.7550    5.4140   -8.9392 H         1 ARG         0.0689
     80 H15        -4.5641    6.0187  -10.4246 H         1 ARG         0.0689
     81 H16        -2.0290    7.2154   -9.3205 H         1 ARG         0.2642
     82 H17        -5.1883    9.3200  -10.7734 H         1 ARG         0.2615
     83 H18        -5.2914    7.5402  -10.7072 H         1 ARG         0.2615
     84 H19        -1.9199    9.4486   -9.4206 H         1 ARG         0.2615
     85 H20        -3.3001   10.3890  -10.0478 H         1 ARG         0.2615
     86 H21        -3.0039    4.3010  -14.9217 H         1 THR         0.1884
     87 H22        -1.6876    6.2564  -16.7139 H         1 THR         0.0826
     88 H23        -0.5625    4.0696  -17.1087 H         1 THR         0.0639
     89 H24        -0.9439    5.5398  -18.8565 H         1 THR         0.2101
     90 H25        -1.8508    2.2113  -18.1355 H         1 THR         0.0257
     91 H26        -3.3729    3.1358  -17.9008 H         1 THR         0.0257
     92 H27        -2.4360    2.5715  -16.4759 H         1 THR         0.0257
     93 H28        -2.9660    6.9086  -18.4890 H         1 LYS         0.1883
     94 H29        -5.5540    5.5907  -18.9011 H         1 LYS         0.0800
     95 H30        -6.1535    7.2387  -17.1849 H         1 LYS         0.0312
     96 H31        -6.9019    7.6192  -18.7729 H         1 LYS         0.0312
     97 H32        -5.0798    9.3316  -19.1412 H         1 LYS         0.0269
     98 H33        -4.5215    9.0220  -17.4621 H         1 LYS         0.0269
     99 H34        -6.9501    9.4814  -16.7356 H         1 LYS         0.0317
    100 H35        -7.2147   10.1146  -18.3956 H         1 LYS         0.0317
    101 H36        -5.3980   11.7748  -18.0226 H         1 LYS         0.0813
    102 H37        -5.2165   11.1686  -16.3415 H         1 LYS         0.0813
    103 H38        -6.6984   13.0842  -16.4504 H         1 LYS         0.1994
    104 H39        -7.5372   11.7557  -15.9595 H         1 LYS         0.1994
    105 H40        -7.7035   12.3112  -17.5000 H         1 LYS         0.1994
    106 H41        -6.5402    6.2615  -20.8572 H         1 GLN         0.1883
    107 H42        -4.6183    7.3493  -22.8586 H         1 GLN         0.0801
    108 H43        -7.1937    5.7572  -23.2519 H         1 GLN         0.0337
    109 H44        -5.5442    5.0474  -23.2065 H         1 GLN         0.0337
    110 H45        -6.3852    7.1769  -25.1890 H         1 GLN         0.0504
    111 H46        -6.5616    5.4151  -25.4919 H         1 GLN         0.0504
    112 H47        -3.2629    6.8325  -26.7814 H         1 GLN         0.1814
    113 H48        -4.8941    7.3998  -26.9131 H         1 GLN         0.1814
    114 H49        -4.9889    9.3812  -23.5285 H         1 THR         0.1884
    115 H50        -7.7522   10.4865  -23.3005 H         1 THR         0.0826
    116 H51        -6.8239   12.6873  -22.9007 H         1 THR         0.0639
    117 H52        -4.5088   12.9117  -22.7598 H         1 THR         0.2101
    118 H53        -5.6602   12.3294  -20.7560 H         1 THR         0.0257
    119 H54        -5.3860   10.6085  -21.1920 H         1 THR         0.0257
    120 H55        -7.0576   11.2156  -20.9391 H         1 THR         0.0257
    121 H56        -8.0125   12.4240  -24.8362 H         1 ALA         0.1883
    122 H57        -6.7068   12.0266  -27.4280 H         1 ALA         0.0797
    123 H58        -8.7923   11.4039  -28.6261 H         1 ALA         0.0277
    124 H59        -9.6555   11.2769  -27.0560 H         1 ALA         0.0277
    125 H60        -8.3140   10.1448  -27.4377 H         1 ALA         0.0277
    126 H61        -6.7982   13.8100  -28.5990 H         1 ARG         0.1875
    127 H62        -8.0733   16.2092  -27.7319 H         1 ARG         0.0726
    128 H63        -6.7403   15.2485  -30.2629 H         1 ARG         0.0307
    129 H64        -6.2151   16.5074  -29.0942 H         1 ARG         0.0307
    130 H65        -7.9039   18.0328  -29.9248 H         1 ARG         0.0301
    131 H66        -8.5412   16.7682  -31.0299 H         1 ARG         0.0301
    132 H67        -6.1719   16.6177  -31.9824 H         1 ARG         0.0689
    133 H68        -5.8216   18.1265  -31.0728 H         1 ARG         0.0689
    134 H69        -8.2147   18.4209  -32.6725 H         1 ARG         0.2642
    135 H70        -4.5954   19.2755  -34.3221 H         1 ARG         0.2615
    136 H71        -4.6777   18.2727  -32.8488 H         1 ARG         0.2615
    137 H72        -8.1119   19.6966  -34.5439 H         1 ARG         0.2615
    138 H73        -6.5305   20.0803  -35.2750 H         1 ARG         0.2615
@<TRIPOS>BOND
     1    1    2 1  
     2    2    3 1  
     3    2    5 1  
     4    3    4 2  
     5    3    6 am 
     6    6    7 1  
     7    7    8 1  
     8    7   10 1  
     9    8    9 2  
    10    8   17 am 
    11   10   11 1  
    12   11   12 1  
    13   12   13 1  
    14   13   14 ar 
    15   14   15 ar 
    16   14   16 ar 
    17   17   18 1  
    18   18   19 1  
    19   18   21 1  
    20   19   20 2  
    21   19   24 am 
    22   21   22 1  
    23   21   23 1  
    24   24   25 1  
    25   25   26 1  
    26   25   28 1  
    27   26   27 2  
    28   26   33 am 
    29   28   29 1  
    30   29   30 1  
    31   30   31 1  
    32   31   32 1  
    33   33   34 1  
    34   34   35 1  
    35   34   37 1  
    36   35   36 2  
    37   35   42 am 
    38   37   38 1  
    39   38   39 1  
    40   39   40 2  
    41   39   41 am 
    42   42   43 1  
    43   43   44 1  
    44   43   46 1  
    45   44   45 2  
    46   44   49 am 
    47   46   47 1  
    48   46   48 1  
    49   49   50 1  
    50   50   51 1  
    51   50   53 1  
    52   51   52 2  
    53   51   54 am 
    54   54   55 1  
    55   55   56 1  
    56   55   58 1  
    57   56   57 ar 
    58   56   65 ar 
    59   58   59 1  
    60   59   60 1  
    61   60   61 1  
    62   61   62 ar 
    63   62   63 ar 
    64   62   64 ar 
    65    1   66 1  
    66    1   67 1  
    67    1   68 1  
    68    2   69 1  
    69    5   70 1  
    70    5   71 1  
    71    5   72 1  
    72    6   73 1  
    73    7   74 1  
    74   10   75 1  
    75   10   76 1  
    76   11   77 1  
    77   11   78 1  
    78   12   79 1  
    79   12   80 1  
    80   13   81 1  
    81   15   82 1  
    82   15   83 1  
    83   16   84 1  
    84   16   85 1  
    85   17   86 1  
    86   18   87 1  
    87   21   88 1  
    88   22   89 1  
    89   23   90 1  
    90   23   91 1  
    91   23   92 1  
    92   24   93 1  
    93   25   94 1  
    94   28   95 1  
    95   28   96 1  
    96   29   97 1  
    97   29   98 1  
    98   30   99 1  
    99   30  100 1  
   100   31  101 1  
   101   31  102 1  
   102   32  103 1  
   103   32  104 1  
   104   32  105 1  
   105   33  106 1  
   106   34  107 1  
   107   37  108 1  
   108   37  109 1  
   109   38  110 1  
   110   38  111 1  
   111   41  112 1  
   112   41  113 1  
   113   42  114 1  
   114   43  115 1  
   115   46  116 1  
   116   47  117 1  
   117   48  118 1  
   118   48  119 1  
   119   48  120 1  
   120   49  121 1  
   121   50  122 1  
   122   53  123 1  
   123   53  124 1  
   124   53  125 1  
   125   54  126 1  
   126   55  127 1  
   127   58  128 1  
   128   58  129 1  
   129   59  130 1  
   130   59  131 1  
   131   60  132 1  
   132   60  133 1  
   133   61  134 1  
   134   63  135 1  
   135   63  136 1  
   136   64  137 1  
   137   64  138 1  
@<TRIPOS>SUBSTRUCTURE
     1 ALA         1

