5eg4_ligand
  -I-interpret- 

117122  0  0  0  0  0  0  0  0999 V2000
  -23.7280  -13.8470  -27.2560 C   0  0  0  0  0
  -24.0430  -15.3180  -27.2660 C   0  0  0  0  0
  -23.0280  -16.2690  -27.2530 C   0  0  0  0  0
  -23.3180  -17.6190  -27.2050 C   0  0  0  0  0
  -24.6380  -18.0470  -27.1660 C   0  0  0  0  0
  -25.6580  -17.1070  -27.2080 C   0  0  0  0  0
  -22.1900  -13.7890  -29.2860 C   0  0  0  0  0
  -18.2380   -7.7070  -32.8020 N   0  0  0  0  0
  -23.7270  -19.8510  -25.1240 O   0  0  0  0  0
  -19.8430  -13.2620  -29.7450 C   0  0  0  0  0
  -19.4560   -8.7050  -34.4410 N   0  0  0  0  0
  -30.4790  -17.4250  -27.9350 O   0  0  0  0  0
  -19.5770  -12.0990  -30.6710 C   0  0  0  0  0
  -24.9660  -19.4130  -26.9810 N   0  0  0  0  0
  -25.3500  -12.7900  -35.4360 O   0  0  0  0  0
  -18.4920  -11.2540  -30.4790 C   0  0  0  0  0
  -27.3590  -20.8510  -24.4980 N   0  3  0  0  0
  -26.7710  -14.3990  -34.2140 O   0  0  0  0  0
  -18.2840  -10.1650  -31.3040 C   0  0  0  0  0
  -29.7260  -19.4470  -24.8610 N   0  3  0  0  0
  -23.8450  -11.9730  -31.0240 O   0  0  0  0  0
  -19.1590   -9.8940  -32.3590 C   0  0  0  0  0
  -29.6270  -15.5870  -26.9050 N   0  0  0  0  0
  -18.9440   -8.7270  -33.2310 C   0  0  0  0  0
  -25.4060  -12.7680  -32.9970 N   0  0  0  0  0
  -20.2420  -10.7460  -32.5550 C   0  0  0  0  0
  -24.3570  -14.7310  -34.3020 N   0  0  0  0  0
  -20.4440  -11.8310  -31.7240 C   0  0  0  0  0
  -24.5990  -13.4940  -29.5500 N   0  0  0  0  0
  -25.3580  -15.7590  -27.2530 C   0  0  0  0  0
  -24.5800  -20.1860  -25.9430 C   0  0  0  0  0
  -25.3130  -21.4980  -25.8300 C   0  0  0  0  0
  -26.0330  -21.5650  -24.5010 C   0  0  0  0  0
  -27.3020  -19.3820  -24.2190 C   0  0  0  0  0
  -28.4660  -18.6910  -24.9700 C   0  0  0  0  0
  -30.8760  -18.7400  -25.4610 C   0  0  0  0  0
  -30.7570  -17.2260  -25.5680 C   0  0  0  0  0
  -30.2590  -16.7760  -26.9150 C   0  0  0  0  0
  -28.9000  -14.9760  -27.9510 C   0  0  0  0  0
  -28.5200  -15.6380  -29.1110 C   0  0  0  0  0
  -27.9240  -14.9400  -30.1450 C   0  0  0  0  0
  -27.7130  -13.5700  -30.0610 C   0  0  0  0  0
  -28.0960  -12.9210  -28.8970 C   0  0  0  0  0
  -28.6780  -13.6110  -27.8510 C   0  0  0  0  0
  -27.1150  -12.8040  -31.2160 C   0  0  0  0  0
  -25.7370  -13.3040  -31.6780 C   0  0  0  0  0
  -22.9180  -14.4610  -34.4620 C   0  0  0  0  0
  -22.1340  -15.1630  -33.3600 C   0  0  0  0  0
  -20.6280  -14.9810  -33.5410 C   0  0  0  0  0
  -20.1790  -15.4510  -34.9130 C   0  0  0  0  0
  -20.9520  -14.7360  -36.0030 C   0  0  0  0  0
  -22.4560  -14.9320  -35.8310 C   0  0  0  0  0
  -24.6380  -12.8610  -30.7210 C   0  0  0  0  0
  -29.5710  -20.7620  -25.4900 C   0  0  0  0  0
  -28.1170  -21.0790  -25.7580 C   0  0  0  0  0
  -23.4750  -13.2590  -28.6540 C   0  0  0  0  0
  -21.0960  -13.0770  -29.0270 N   0  0  0  0  0
  -22.2110  -14.7730  -30.0340 O   0  0  0  0  0
  -25.5550  -13.6600  -34.3220 S   0  0  0  0  0
  -22.8147  -13.7134  -26.6763 H   0  0  0  0  0
  -24.5925  -13.3316  -26.8374 H   0  0  0  0  0
  -21.9879  -15.9442  -27.2811 H   0  0  0  0  0
  -22.5089  -18.3493  -27.1977 H   0  0  0  0  0
  -26.6982  -17.4328  -27.2055 H   0  0  0  0  0
  -18.0880   -6.8999  -33.4074 H   0  0  0  0  0
  -19.0304  -13.3275  -29.0215 H   0  0  0  0  0
  -19.9096  -14.1744  -30.3377 H   0  0  0  0  0
  -19.3044   -7.8966  -35.0443 H   0  0  0  0  0
  -20.0050   -9.4963  -34.7769 H   0  0  0  0  0
  -25.5458  -19.8520  -27.6962 H   0  0  0  0  0
  -17.7941  -11.4525  -29.6656 H   0  0  0  0  0
  -27.8469  -21.2736  -23.7082 H   0  0  0  0  0
  -17.4293   -9.5113  -31.1300 H   0  0  0  0  0
  -29.9256  -19.5505  -23.8661 H   0  0  0  0  0
  -29.6798  -15.0614  -26.0325 H   0  0  0  0  0
  -25.0734  -11.8070  -33.0766 H   0  0  0  0  0
  -20.9376  -10.5553  -33.3722 H   0  0  0  0  0
  -24.6227  -15.7059  -34.1631 H   0  0  0  0  0
  -21.2969  -12.4874  -31.8968 H   0  0  0  0  0
  -25.3465  -14.1350  -29.2840 H   0  0  0  0  0
  -26.1681  -15.0301  -27.2787 H   0  0  0  0  0
  -24.5987  -22.3186  -25.8964 H   0  0  0  0  0
  -26.0388  -21.5780  -26.6393 H   0  0  0  0  0
  -26.2269  -22.6160  -24.2866 H   0  0  0  0  0
  -25.3981  -21.0791  -23.7601 H   0  0  0  0  0
  -26.3488  -18.9765  -24.5584 H   0  0  0  0  0
  -27.3940  -19.2039  -23.1476 H   0  0  0  0  0
  -28.6207  -17.7083  -24.5246 H   0  0  0  0  0
  -28.1987  -18.6279  -26.0248 H   0  0  0  0  0
  -31.7255  -18.9318  -24.8055 H   0  0  0  0  0
  -30.9603  -19.1105  -26.4826 H   0  0  0  0  0
  -30.0398  -16.8929  -24.8178 H   0  0  0  0  0
  -31.7497  -16.8010  -25.4192 H   0  0  0  0  0
  -28.6919  -16.7101  -29.2066 H   0  0  0  0  0
  -27.6140  -15.4749  -31.0427 H   0  0  0  0  0
  -27.9350  -11.8468  -28.8055 H   0  0  0  0  0
  -28.9639  -13.0799  -26.9431 H   0  0  0  0  0
  -26.9814  -11.7763  -30.8783 H   0  0  0  0  0
  -27.7940  -12.9240  -32.0602 H   0  0  0  0  0
  -25.7939  -14.3921  -31.7074 H   0  0  0  0  0
  -22.7398  -13.3885  -34.3844 H   0  0  0  0  0
  -22.3603  -16.2285  -33.4005 H   0  0  0  0  0
  -22.4214  -14.7295  -32.4021 H   0  0  0  0  0
  -20.1127  -15.5730  -32.7846 H   0  0  0  0  0
  -20.3912  -13.9217  -33.4415 H   0  0  0  0  0
  -20.3618  -16.5224  -34.9959 H   0  0  0  0  0
  -19.1179  -15.2313  -35.0312 H   0  0  0  0  0
  -20.6552  -15.1475  -36.9677 H   0  0  0  0  0
  -20.7308  -13.6703  -35.9451 H   0  0  0  0  0
  -22.9725  -14.3479  -36.5927 H   0  0  0  0  0
  -22.6821  -15.9938  -35.9284 H   0  0  0  0  0
  -30.1043  -20.7555  -26.4406 H   0  0  0  0  0
  -29.9706  -21.5178  -24.8139 H   0  0  0  0  0
  -28.0098  -22.1146  -26.0807 H   0  0  0  0  0
  -27.7313  -20.4389  -26.5515 H   0  0  0  0  0
  -23.3608  -12.1847  -28.5095 H   0  0  0  0  0
  -21.1371  -12.3702  -28.2928 H   0  0  0  0  0
  2  1  1  0  0  0
  1 56  1  0  0  0
  3  2  4  0  0  0
 30  2  4  0  0  0
  4  3  4  0  0  0
  5  4  4  0  0  0
  5  6  4  0  0  0
 14  5  1  0  0  0
  6 30  4  0  0  0
 56  7  1  0  0  0
  7 57  1  0  0  0
  7 58  2  0  0  0
 24  8  2  0  0  0
 31  9  2  0  0  0
 10 13  1  0  0  0
 57 10  1  0  0  0
 24 11  1  0  0  0
 38 12  2  0  0  0
 13 16  4  0  0  0
 13 28  4  0  0  0
 31 14  1  0  0  0
 59 15  2  0  0  0
 16 19  4  0  0  0
 17 33  1  0  0  0
 34 17  1  0  0  0
 17 55  1  0  0  0
 59 18  2  0  0  0
 19 22  4  0  0  0
 20 35  1  0  0  0
 36 20  1  0  0  0
 20 54  1  0  0  0
 53 21  2  0  0  0
 22 24  1  0  0  0
 26 22  4  0  0  0
 23 38  1  0  0  0
 39 23  1  0  0  0
 46 25  1  0  0  0
 25 59  1  0  0  0
 28 26  4  0  0  0
 27 47  1  0  0  0
 59 27  1  0  0  0
 29 53  1  0  0  0
 56 29  1  0  0  0
 32 31  1  0  0  0
 33 32  1  0  0  0
 35 34  1  0  0  0
 37 36  1  0  0  0
 38 37  1  0  0  0
 40 39  4  0  0  0
 44 39  4  0  0  0
 41 40  4  0  0  0
 42 41  4  0  0  0
 42 43  4  0  0  0
 45 42  1  0  0  0
 43 44  4  0  0  0
 45 46  1  0  0  0
 46 53  1  0  0  0
 47 48  1  0  0  0
 47 52  1  0  0  0
 48 49  1  0  0  0
 49 50  1  0  0  0
 50 51  1  0  0  0
 51 52  1  0  0  0
 54 55  1  0  0  0
  1 60  1  0  0  0
  1 61  1  0  0  0
  3 62  1  0  0  0
  4 63  1  0  0  0
  6 64  1  0  0  0
  8 65  1  0  0  0
 10 66  1  0  0  0
 10 67  1  0  0  0
 11 68  1  0  0  0
 11 69  1  0  0  0
 14 70  1  0  0  0
 16 71  1  0  0  0
 17 72  1  0  0  0
 19 73  1  0  0  0
 20 74  1  0  0  0
 23 75  1  0  0  0
 25 76  1  0  0  0
 26 77  1  0  0  0
 27 78  1  0  0  0
 28 79  1  0  0  0
 29 80  1  0  0  0
 30 81  1  0  0  0
 32 82  1  0  0  0
 32 83  1  0  0  0
 33 84  1  0  0  0
 33 85  1  0  0  0
 34 86  1  0  0  0
 34 87  1  0  0  0
 35 88  1  0  0  0
 35 89  1  0  0  0
 36 90  1  0  0  0
 36 91  1  0  0  0
 37 92  1  0  0  0
 37 93  1  0  0  0
 40 94  1  0  0  0
 41 95  1  0  0  0
 43 96  1  0  0  0
 44 97  1  0  0  0
 45 98  1  0  0  0
 45 99  1  0  0  0
 46100  1  0  0  0
 47101  1  0  0  0
 48102  1  0  0  0
 48103  1  0  0  0
 49104  1  0  0  0
 49105  1  0  0  0
 50106  1  0  0  0
 50107  1  0  0  0
 51108  1  0  0  0
 51109  1  0  0  0
 52110  1  0  0  0
 52111  1  0  0  0
 54112  1  0  0  0
 54113  1  0  0  0
 55114  1  0  0  0
 55115  1  0  0  0
 56116  1  0  0  0
 57117  1  0  0  0
M  END
$$$$
