### 
### Created by X-TOOL on Mon Sep 10 21:13:27 2018
### 

@<TRIPOS>MOLECULE
5eg4_ligand
  118   123     1     0     0
SMALL
GAST_HUCK


@<TRIPOS>ATOM
      1 C10       -23.7280  -13.8470  -27.2560 C.3       1 5N7         0.0146
      2 C11       -24.0430  -15.3180  -27.2660 C.ar      1 5N7        -0.0531
      3 C12       -23.0280  -16.2690  -27.2530 C.ar      1 5N7        -0.0730
      4 C13       -23.3180  -17.6190  -27.2050 C.ar      1 5N7        -0.0473
      5 C14       -24.6380  -18.0470  -27.1660 C.ar      1 5N7         0.0596
      6 C15       -25.6580  -17.1070  -27.2080 C.ar      1 5N7        -0.0473
      7 C1        -22.1900  -13.7890  -29.2860 C.2       1 5N7         0.2052
      8 N1        -18.2380   -7.7070  -32.8020 N.pl3     1 5N7        -0.2729
      9 O1        -23.7270  -19.8510  -25.1240 O.2       1 5N7        -0.3856
     10 C2        -19.8430  -13.2620  -29.7450 C.3       1 5N7         0.0645
     11 N2        -19.4560   -8.7050  -34.4410 N.pl3     1 5N7        -0.2729
     12 O2        -30.4790  -17.4250  -27.9350 O.2       1 5N7        -0.3856
     13 C3        -19.5770  -12.0990  -30.6710 C.ar      1 5N7        -0.0210
     14 N3        -24.9660  -19.4130  -26.9810 N.am      1 5N7        -0.2376
     15 O3        -25.3500  -12.7900  -35.4360 O.2       1 5N7        -0.1354
     16 C4        -18.4920  -11.2540  -30.4790 C.ar      1 5N7        -0.0584
     17 N4        -27.3590  -20.8510  -24.4980 N.4       1 5N7         0.2444
     18 O4        -26.7710  -14.3990  -34.2140 O.2       1 5N7        -0.1354
     19 C5        -18.2840  -10.1650  -31.3040 C.ar      1 5N7        -0.0633
     20 N5        -29.7260  -19.4470  -24.8610 N.4       1 5N7         0.2444
     21 O5        -23.8450  -11.9730  -31.0240 O.2       1 5N7        -0.3947
     22 C6        -19.1590   -9.8940  -32.3590 C.ar      1 5N7         0.0188
     23 N6        -29.6270  -15.5870  -26.9050 N.am      1 5N7        -0.2376
     24 C7        -18.9440   -8.7270  -33.2310 C.cat     1 5N7         0.2318
     25 N7        -25.4060  -12.7680  -32.9970 N.am      1 5N7        -0.2118
     26 C8        -20.2420  -10.7460  -32.5550 C.ar      1 5N7        -0.0633
     27 N8        -24.3570  -14.7310  -34.3020 N.am      1 5N7        -0.2322
     28 C9        -20.4440  -11.8310  -31.7240 C.ar      1 5N7        -0.0584
     29 N9        -24.5990  -13.4940  -29.5500 N.am      1 5N7        -0.2624
     30 C16       -25.3580  -15.7590  -27.2530 C.ar      1 5N7        -0.0730
     31 C17       -24.5800  -20.1860  -25.9430 C.2       1 5N7         0.2069
     32 C18       -25.3130  -21.4980  -25.8300 C.3       1 5N7         0.0828
     33 C19       -26.0330  -21.5650  -24.5010 C.3       1 5N7        -0.0140
     34 C20       -27.3020  -19.3820  -24.2190 C.3       1 5N7         0.0096
     35 C21       -28.4660  -18.6910  -24.9700 C.3       1 5N7         0.0096
     36 C22       -30.8760  -18.7400  -25.4610 C.3       1 5N7        -0.0140
     37 C23       -30.7570  -17.2260  -25.5680 C.3       1 5N7         0.0828
     38 C24       -30.2590  -16.7760  -26.9150 C.2       1 5N7         0.2069
     39 C25       -28.9000  -14.9760  -27.9510 C.ar      1 5N7         0.0596
     40 C26       -28.5200  -15.6380  -29.1110 C.ar      1 5N7        -0.0473
     41 C27       -27.9240  -14.9400  -30.1450 C.ar      1 5N7        -0.0731
     42 C28       -27.7130  -13.5700  -30.0610 C.ar      1 5N7        -0.0535
     43 C29       -28.0960  -12.9210  -28.8970 C.ar      1 5N7        -0.0731
     44 C30       -28.6780  -13.6110  -27.8510 C.ar      1 5N7        -0.0473
     45 C31       -27.1150  -12.8040  -31.2160 C.3       1 5N7         0.0111
     46 C32       -25.7370  -13.3040  -31.6780 C.3       1 5N7         0.1351
     47 C33       -22.9180  -14.4610  -34.4620 C.3       1 5N7         0.0391
     48 C34       -22.1340  -15.1630  -33.3600 C.3       1 5N7        -0.0332
     49 C35       -20.6280  -14.9810  -33.5410 C.3       1 5N7        -0.0513
     50 C36       -20.1790  -15.4510  -34.9130 C.3       1 5N7        -0.0529
     51 C37       -20.9520  -14.7360  -36.0030 C.3       1 5N7        -0.0513
     52 C38       -22.4560  -14.9320  -35.8310 C.3       1 5N7        -0.0332
     53 C39       -24.6380  -12.8610  -30.7210 C.2       1 5N7         0.2019
     54 C40       -29.5710  -20.7620  -25.4900 C.3       1 5N7         0.0096
     55 C41       -28.1170  -21.0790  -25.7580 C.3       1 5N7         0.0096
     56 C         -23.4750  -13.2590  -28.6540 C.3       1 5N7         0.1385
     57 N         -21.0960  -13.0770  -29.0270 N.am      1 5N7        -0.2736
     58 O         -22.2110  -14.7730  -30.0340 O.2       1 5N7        -0.3942
     59 S         -25.5550  -13.6600  -34.3220 S.o2      1 5N7         0.1183
     60 H1        -22.8272  -13.6890  -26.6447 H         1 5N7         0.0446
     61 H2        -24.5766  -13.3133  -26.8033 H         1 5N7         0.0446
     62 H3        -21.9936  -15.9460  -27.2810 H         1 5N7         0.0520
     63 H4        -22.5133  -18.3453  -27.1978 H         1 5N7         0.0487
     64 H5        -26.6924  -17.4310  -27.2055 H         1 5N7         0.0487
     65 H6        -17.8355   -7.7216  -31.8540 H         1 5N7         0.3180
     66 H7        -18.0865   -6.8920  -33.4134 H         1 5N7         0.3180
     67 H8        -19.0201  -13.3404  -29.0193 H         1 5N7         0.0683
     68 H9        -19.8999  -14.1878  -30.3363 H         1 5N7         0.0683
     69 H10       -20.0104   -9.5040  -34.7802 H         1 5N7         0.3180
     70 H11       -19.3029   -7.8887  -35.0502 H         1 5N7         0.3180
     71 H12       -25.5345  -19.8434  -27.6821 H         1 5N7         0.2234
     72 H13       -17.7979  -11.4515  -29.6701 H         1 5N7         0.0557
     73 H14       -27.8937  -21.2636  -23.7497 H         1 5N7         0.2039
     74 H15       -17.4340   -9.5149  -31.1310 H         1 5N7         0.0599
     75 H16       -29.9222  -19.5817  -23.8815 H         1 5N7         0.2039
     76 H17       -29.6788  -15.0717  -26.0496 H         1 5N7         0.2234
     77 H18       -25.0800  -11.8259  -33.0750 H         1 5N7         0.1720
     78 H19       -20.9338  -10.5563  -33.3677 H         1 5N7         0.0599
     79 H20       -24.6175  -15.6868  -34.1658 H         1 5N7         0.1689
     80 H21       -21.2922  -12.4838  -31.8959 H         1 5N7         0.0557
     81 H22       -25.3318  -14.1225  -29.2893 H         1 5N7         0.1885
     82 H23       -26.1636  -15.0342  -27.2786 H         1 5N7         0.0520
     83 H24       -24.5928  -22.3267  -25.8982 H         1 5N7         0.0560
     84 H25       -26.0448  -21.5800  -26.6472 H         1 5N7         0.0560
     85 H26       -26.2066  -22.6224  -24.2523 H         1 5N7         0.0841
     86 H27       -25.3903  -21.1086  -23.7338 H         1 5N7         0.0841
     87 H28       -26.3418  -18.9753  -24.5692 H         1 5N7         0.0868
     88 H29       -27.4023  -19.2060  -23.1378 H         1 5N7         0.0868
     89 H30       -28.6166  -17.6882  -24.5437 H         1 5N7         0.0868
     90 H31       -28.1977  -18.6011  -26.0330 H         1 5N7         0.0868
     91 H32       -31.7628  -18.9639  -24.8499 H         1 5N7         0.0841
     92 H33       -31.0207  -19.1372  -26.4765 H         1 5N7         0.0841
     93 H34       -30.0557  -16.8728  -24.7977 H         1 5N7         0.0560
     94 H35       -31.7480  -16.7819  -25.3930 H         1 5N7         0.0560
     95 H36       -28.6910  -16.7042  -29.2060 H         1 5N7         0.0487
     96 H37       -27.6157  -15.4720  -31.0378 H         1 5N7         0.0520
     97 H38       -27.9359  -11.8528  -28.8061 H         1 5N7         0.0520
     98 H39       -28.9623  -13.0828  -26.9481 H         1 5N7         0.0487
     99 H40       -27.0127  -11.7518  -30.9121 H         1 5N7         0.0441
    100 H41       -27.8074  -12.8740  -32.0679 H         1 5N7         0.0441
    101 H42       -25.7588  -14.4028  -31.7241 H         1 5N7         0.0774
    102 H43       -22.7467  -13.3773  -34.3834 H         1 5N7         0.0512
    103 H44       -22.3694  -16.2373  -33.3827 H         1 5N7         0.0283
    104 H45       -22.4304  -14.7431  -32.3875 H         1 5N7         0.0283
    105 H46       -20.1011  -15.5645  -32.7717 H         1 5N7         0.0266
    106 H47       -20.3792  -13.9155  -33.4276 H         1 5N7         0.0266
    107 H48       -20.3522  -16.5339  -34.9984 H         1 5N7         0.0265
    108 H49       -19.1061  -15.2405  -35.0337 H         1 5N7         0.0265
    109 H50       -20.6473  -15.1367  -36.9811 H         1 5N7         0.0266
    110 H51       -20.7228  -13.6610  -35.9596 H         1 5N7         0.0266
    111 H52       -22.9838  -14.3564  -36.6056 H         1 5N7         0.0283
    112 H53       -22.6937  -16.0002  -35.9421 H         1 5N7         0.0283
    113 H54       -30.1202  -20.7696  -26.4431 H         1 5N7         0.0868
    114 H55       -29.9869  -21.5297  -24.8210 H         1 5N7         0.0868
    115 H56       -28.0149  -22.1286  -26.0708 H         1 5N7         0.0868
    116 H57       -27.7311  -20.4210  -26.5505 H         1 5N7         0.0868
    117 H58       -23.3631  -12.1713  -28.5346 H         1 5N7         0.0820
    118 H59       -21.1363  -12.3840  -28.3072 H         1 5N7         0.1878
@<TRIPOS>BOND
     1    2    1 1  
     2    1   56 1  
     3    3    2 ar 
     4   30    2 ar 
     5    4    3 ar 
     6    5    4 ar 
     7    5    6 ar 
     8   14    5 1  
     9    6   30 ar 
    10   56    7 1  
    11    7   57 am 
    12    7   58 2  
    13   24    8 ar 
    14   31    9 2  
    15   10   13 1  
    16   57   10 1  
    17   24   11 ar 
    18   38   12 2  
    19   13   16 ar 
    20   13   28 ar 
    21   31   14 am 
    22   59   15 2  
    23   16   19 ar 
    24   17   33 1  
    25   34   17 1  
    26   17   55 1  
    27   59   18 2  
    28   19   22 ar 
    29   20   35 1  
    30   36   20 1  
    31   20   54 1  
    32   53   21 2  
    33   22   24 1  
    34   26   22 ar 
    35   23   38 am 
    36   39   23 1  
    37   46   25 1  
    38   25   59 am 
    39   28   26 ar 
    40   27   47 1  
    41   59   27 am 
    42   29   53 am 
    43   56   29 1  
    44   32   31 1  
    45   33   32 1  
    46   35   34 1  
    47   37   36 1  
    48   38   37 1  
    49   40   39 ar 
    50   44   39 ar 
    51   41   40 ar 
    52   42   41 ar 
    53   42   43 ar 
    54   45   42 1  
    55   43   44 ar 
    56   45   46 1  
    57   46   53 1  
    58   47   48 1  
    59   47   52 1  
    60   48   49 1  
    61   49   50 1  
    62   50   51 1  
    63   51   52 1  
    64   54   55 1  
    65    1   60 1  
    66    1   61 1  
    67    3   62 1  
    68    4   63 1  
    69    6   64 1  
    70    8   65 1  
    71    8   66 1  
    72   10   67 1  
    73   10   68 1  
    74   11   69 1  
    75   11   70 1  
    76   14   71 1  
    77   16   72 1  
    78   17   73 1  
    79   19   74 1  
    80   20   75 1  
    81   23   76 1  
    82   25   77 1  
    83   26   78 1  
    84   27   79 1  
    85   28   80 1  
    86   29   81 1  
    87   30   82 1  
    88   32   83 1  
    89   32   84 1  
    90   33   85 1  
    91   33   86 1  
    92   34   87 1  
    93   34   88 1  
    94   35   89 1  
    95   35   90 1  
    96   36   91 1  
    97   36   92 1  
    98   37   93 1  
    99   37   94 1  
   100   40   95 1  
   101   41   96 1  
   102   43   97 1  
   103   44   98 1  
   104   45   99 1  
   105   45  100 1  
   106   46  101 1  
   107   47  102 1  
   108   48  103 1  
   109   48  104 1  
   110   49  105 1  
   111   49  106 1  
   112   50  107 1  
   113   50  108 1  
   114   51  109 1  
   115   51  110 1  
   116   52  111 1  
   117   52  112 1  
   118   54  113 1  
   119   54  114 1  
   120   55  115 1  
   121   55  116 1  
   122   56  117 1  
   123   57  118 1  
@<TRIPOS>SUBSTRUCTURE
     1 5N7         1

