3eq9_ligand
  -I-interpret- 

 68 72  0  0  0  0  0  0  0  0999 V2000
    6.7440   38.1680   30.7220 C   0  0  0  0  0
    7.1820   38.0560   29.5730 O   0  0  0  0  0
    7.6940   38.2630   31.8950 C   0  0  0  0  0
    9.0810   38.5680   31.3660 C   0  0  0  0  0
   10.1520   38.6190   32.4500 C   0  0  0  0  0
   10.1560   37.5050   33.3370 N   0  0  0  0  0
   10.6020   36.1990   32.9980 C   0  0  0  0  0
   10.4010   35.3480   34.0980 N   0  0  0  0  0
    9.7930   36.0700   35.2320 C   0  0  0  0  0
    9.6680   37.5380   34.6350 C   0  0  0  0  0
   11.0640   35.8510   31.9010 O   0  0  0  0  0
    9.2620   38.5580   35.1950 O   0  0  0  0  0
    8.4160   35.4860   35.5500 C   0  0  0  0  0
    8.2880   34.1110   35.8350 C   0  0  0  0  0
    7.0280   33.5530   36.0790 C   0  0  0  0  0
    5.8820   34.3580   36.0430 C   0  0  0  0  0
    5.9990   35.7250   35.7640 C   0  0  0  0  0
    7.2580   36.2900   35.5190 C   0  0  0  0  0
   10.6540   36.0640   36.4920 C   0  0  0  0  0
   11.9640   35.5490   36.4560 C   0  0  0  0  0
   12.7500   35.5340   37.6160 C   0  0  0  0  0
   12.2400   36.0300   38.8210 C   0  0  0  0  0
   10.9370   36.5450   38.8630 C   0  0  0  0  0
   10.1450   36.5630   37.7070 C   0  0  0  0  0
    5.4360   38.0270   31.0040 N   0  0  0  0  0
    4.4110   37.7760   29.9780 C   0  0  0  0  0
    4.2940   38.9110   28.9610 C   0  0  0  0  0
    4.5910   40.0650   29.2680 O   0  0  0  0  0
    3.1210   37.5880   30.7850 C   0  0  0  0  0
    3.3940   38.2390   32.1010 C   0  0  0  0  0
    4.8590   38.0860   32.3590 C   0  0  0  0  0
    3.8410   38.6000   27.7360 N   0  0  0  0  0
    3.7540   39.6040   26.6560 C   0  0  0  0  0
    3.4400   37.2680   27.2730 C   0  0  0  0  0
    2.8640   37.5470   25.8790 C   0  0  0  0  0
    3.5880   38.7670   25.4150 C   0  0  0  0  0
    7.7035   37.3212   32.4437 H   0  0  0  0  0
    7.3715   39.0539   32.5722 H   0  0  0  0  0
    9.0428   39.5520   30.8986 H   0  0  0  0  0
    9.3512   37.7669   30.6779 H   0  0  0  0  0
    9.9500   39.5039   33.0536 H   0  0  0  0  0
   11.1166   38.6233   31.9424 H   0  0  0  0  0
   10.6444   34.3575   34.1109 H   0  0  0  0  0
    9.1756   33.4790   35.8654 H   0  0  0  0  0
    6.9380   32.4890   36.2977 H   0  0  0  0  0
    4.9014   33.9210   36.2318 H   0  0  0  0  0
    5.1078   36.3520   35.7372 H   0  0  0  0  0
    7.3423   37.3552   35.3036 H   0  0  0  0  0
   12.3686   35.1602   35.5215 H   0  0  0  0  0
   13.7633   35.1341   37.5795 H   0  0  0  0  0
   12.8528   36.0160   39.7223 H   0  0  0  0  0
   10.5376   36.9336   39.7998 H   0  0  0  0  0
    9.1324   36.9642   37.7481 H   0  0  0  0  0
    4.6542   36.9080   29.3652 H   0  0  0  0  0
    2.8645   36.5348   30.8994 H   0  0  0  0  0
    2.2611   38.0324   30.2838 H   0  0  0  0  0
    2.8088   37.7734   32.8940 H   0  0  0  0  0
    3.1106   39.2913   32.0805 H   0  0  0  0  0
    5.2682   38.9019   32.9548 H   0  0  0  0  0
    5.0909   37.2022   32.9533 H   0  0  0  0  0
    4.6315   40.2491   26.6120 H   0  0  0  0  0
    2.9325   40.3055   26.8012 H   0  0  0  0  0
    2.7227   36.7875   27.9383 H   0  0  0  0  0
    4.2685   36.5600   27.2540 H   0  0  0  0  0
    1.7846   37.6966   25.9046 H   0  0  0  0  0
    3.0054   36.7048   25.2017 H   0  0  0  0  0
    4.5462   38.5230   24.9564 H   0  0  0  0  0
    3.0383   39.2962   24.6366 H   0  0  0  0  0
  1  2  2  0  0  0
  1  3  1  0  0  0
  1 25  1  0  0  0
  3  4  1  0  0  0
  4  5  1  0  0  0
  5  6  1  0  0  0
  6  7  1  0  0  0
  6 10  1  0  0  0
  7  8  1  0  0  0
  7 11  2  0  0  0
  8  9  1  0  0  0
  9 10  1  0  0  0
  9 13  1  0  0  0
  9 19  1  0  0  0
 10 12  2  0  0  0
 13 14  4  0  0  0
 13 18  4  0  0  0
 14 15  4  0  0  0
 15 16  4  0  0  0
 16 17  4  0  0  0
 17 18  4  0  0  0
 19 20  4  0  0  0
 19 24  4  0  0  0
 20 21  4  0  0  0
 21 22  4  0  0  0
 22 23  4  0  0  0
 23 24  4  0  0  0
 25 26  1  0  0  0
 25 31  1  0  0  0
 26 27  1  0  0  0
 26 29  1  0  0  0
 27 28  2  0  0  0
 27 32  1  0  0  0
 29 30  1  0  0  0
 30 31  1  0  0  0
 32 33  1  0  0  0
 32 34  1  0  0  0
 33 36  1  0  0  0
 34 35  1  0  0  0
 35 36  1  0  0  0
  3 37  1  0  0  0
  3 38  1  0  0  0
  4 39  1  0  0  0
  4 40  1  0  0  0
  5 41  1  0  0  0
  5 42  1  0  0  0
  8 43  1  0  0  0
 14 44  1  0  0  0
 15 45  1  0  0  0
 16 46  1  0  0  0
 17 47  1  0  0  0
 18 48  1  0  0  0
 20 49  1  0  0  0
 21 50  1  0  0  0
 22 51  1  0  0  0
 23 52  1  0  0  0
 24 53  1  0  0  0
 26 54  1  0  0  0
 29 55  1  0  0  0
 29 56  1  0  0  0
 30 57  1  0  0  0
 30 58  1  0  0  0
 31 59  1  0  0  0
 31 60  1  0  0  0
 33 61  1  0  0  0
 33 62  1  0  0  0
 34 63  1  0  0  0
 34 64  1  0  0  0
 35 65  1  0  0  0
 35 66  1  0  0  0
 36 67  1  0  0  0
 36 68  1  0  0  0
M  END
$$$$
