4g9c_ligand
  -I-interpret- 

 55 58  0  0  0  0  0  0  0  0999 V2000
   40.4680  -26.5080   -2.9310 C   0  0  0  0  0
   41.1710  -25.2370   -3.1680 C   0  0  0  0  0
   41.0490  -27.5820   -3.0940 O   0  0  0  0  0
   41.6220  -24.8870   -4.4320 C   0  0  0  0  0
   42.2900  -23.6640   -4.6400 C   0  0  0  0  0
   42.5000  -22.7970   -3.5660 C   0  0  0  0  0
   42.0460  -23.1520   -2.2910 C   0  0  0  0  0
   41.3770  -24.3800   -2.0990 C   0  0  0  0  0
   40.9310  -24.7290   -0.8670 F   0  0  0  0  0
   41.4150  -25.7260   -5.4660 F   0  0  0  0  0
   42.7360  -23.3050   -5.9410 N   0  0  0  0  0
   39.1890  -26.3770   -2.5310 N   0  0  0  0  0
   42.0750  -23.4640   -7.1060 C   0  0  0  0  0
   42.6800  -23.0430   -8.1500 C   0  0  0  0  0
   40.9540  -23.9600   -7.2080 O   0  0  0  0  0
   44.0500  -22.7710   -8.2430 C   0  0  0  0  0
   44.5860  -22.3020   -9.4670 C   0  0  0  0  0
   43.7360  -22.1150  -10.5800 C   0  0  0  0  0
   42.3640  -22.3950  -10.4620 C   0  0  0  0  0
   41.8500  -22.8550   -9.2520 C   0  0  0  0  0
   41.4260  -22.1980  -11.6540 C   0  0  0  0  0
   41.1860  -23.5280  -12.3950 C   0  0  0  0  0
   40.0790  -21.6310  -11.1860 C   0  0  0  0  0
   38.2430  -27.3880   -2.2180 C   0  0  0  0  0
   38.6350  -28.7260   -2.0100 C   0  0  0  0  0
   37.6300  -29.6490   -1.7030 C   0  0  0  0  0
   36.3390  -29.2220   -1.6190 C   0  0  0  0  0
   35.8920  -27.9570   -1.8060 N   0  0  0  0  0
   36.8770  -27.0680   -2.1040 C   0  0  0  0  0
   37.6470  -31.0100   -1.4430 C   0  0  0  0  0
   36.4330  -31.4770   -1.1970 N   0  0  0  0  0
   35.6300  -30.3720   -1.3060 N   0  0  0  0  0
   42.0080  -21.2400  -12.6030 C   0  0  0  0  0
   42.4640  -20.4840  -13.3480 N   0  0  0  0  0
   38.7550  -31.7950   -1.4370 O   0  0  0  0  0
   38.5860  -33.1820   -1.1530 C   0  0  0  0  0
   43.0149  -21.8487   -3.7199 H   0  0  0  0  0
   42.2087  -22.4813   -1.4473 H   0  0  0  0  0
   43.6608  -22.8788   -6.0004 H   0  0  0  0  0
   38.8532  -25.4181   -2.4403 H   0  0  0  0  0
   44.6992  -22.9190   -7.3800 H   0  0  0  0  0
   45.6511  -22.0859   -9.5502 H   0  0  0  0  0
   44.1424  -21.7554  -11.5253 H   0  0  0  0  0
   40.7849  -23.0705   -9.1667 H   0  0  0  0  0
   42.1372  -23.9165  -12.7589 H   0  0  0  0  0
   40.7360  -24.2475  -11.7109 H   0  0  0  0  0
   40.5157  -23.3573  -13.2374 H   0  0  0  0  0
   39.6191  -22.3247  -10.4822 H   0  0  0  0  0
   40.2407  -20.6699  -10.6978 H   0  0  0  0  0
   39.4238  -21.4971  -12.0468 H   0  0  0  0  0
   39.6793  -29.0291   -2.0854 H   0  0  0  0  0
   36.5870  -26.0300   -2.2668 H   0  0  0  0  0
   38.1483  -33.2978   -0.1615 H   0  0  0  0  0
   37.9252  -33.6261   -1.8974 H   0  0  0  0  0
   39.5558  -33.6787   -1.1838 H   0  0  0  0  0
  1  2  1  0  0  0
  1  3  2  0  0  0
  1 12  1  0  0  0
  2  4  4  0  0  0
  2  8  4  0  0  0
  4  5  4  0  0  0
  4 10  1  0  0  0
  5  6  4  0  0  0
  5 11  1  0  0  0
  6  7  4  0  0  0
  7  8  4  0  0  0
  8  9  1  0  0  0
 11 13  1  0  0  0
 12 24  1  0  0  0
 13 14  1  0  0  0
 13 15  2  0  0  0
 14 16  4  0  0  0
 14 20  4  0  0  0
 16 17  4  0  0  0
 17 18  4  0  0  0
 18 19  4  0  0  0
 19 20  4  0  0  0
 19 21  1  0  0  0
 21 22  1  0  0  0
 21 23  1  0  0  0
 21 33  1  0  0  0
 24 25  4  0  0  0
 24 29  4  0  0  0
 25 26  4  0  0  0
 26 27  4  0  0  0
 26 30  4  0  0  0
 27 28  4  0  0  0
 27 32  4  0  0  0
 28 29  4  0  0  0
 30 31  4  0  0  0
 30 35  1  0  0  0
 31 32  4  0  0  0
 33 34  3  0  0  0
 35 36  1  0  0  0
  6 37  1  0  0  0
  7 38  1  0  0  0
 11 39  1  0  0  0
 12 40  1  0  0  0
 16 41  1  0  0  0
 17 42  1  0  0  0
 18 43  1  0  0  0
 20 44  1  0  0  0
 22 45  1  0  0  0
 22 46  1  0  0  0
 22 47  1  0  0  0
 23 48  1  0  0  0
 23 49  1  0  0  0
 23 50  1  0  0  0
 25 51  1  0  0  0
 29 52  1  0  0  0
 36 53  1  0  0  0
 36 54  1  0  0  0
 36 55  1  0  0  0
M  END
$$$$
