5jzi_ligand
  -I-interpret- 

156155  0  0  0  0  0  0  0  0999 V2000
  -84.1530   73.5870   33.7230 N   0  3  0  0  0
  -83.5270   72.6370   32.7650 C   0  0  0  0  0
  -84.3380   72.6150   31.4720 C   0  0  0  0  0
  -85.5650   72.5520   31.5010 O   0  0  0  0  0
  -83.4370   71.2400   33.3810 C   0  0  0  0  0
  -82.5110   70.2950   32.6440 C   0  0  0  0  0
  -82.0580   69.1560   33.5400 C   0  0  0  0  0
  -80.9870   68.3140   32.8690 C   0  0  0  0  0
  -80.5360   67.1860   33.7280 N   0  3  0  0  0
  -83.6450   72.6680   30.3410 N   0  0  0  0  0
  -84.2980   72.7730   29.0410 C   0  0  0  0  0
  -85.0260   71.5050   28.6480 C   0  0  0  0  0
  -84.8600   70.4570   29.2690 O   0  0  0  0  0
  -83.2770   73.1140   27.9570 C   0  0  0  0  0
  -82.6740   74.5140   28.0010 C   0  0  0  0  0
  -81.4990   74.5990   27.0490 C   0  0  0  0  0
  -83.7230   75.5480   27.6470 C   0  0  0  0  0
  -85.8350   71.6190   27.6030 N   0  0  0  0  0
  -86.5320   70.4740   27.0490 C   0  0  0  0  0
  -85.5320   69.5730   26.3500 C   0  0  0  0  0
  -84.8180   70.0050   25.4470 O   0  0  0  0  0
  -87.6230   70.9160   26.0520 C   0  0  0  0  0
  -88.1910   69.7220   25.2880 C   0  0  0  0  0
  -88.7240   71.6540   26.7770 C   0  0  0  0  0
  -85.4940   68.3150   26.7720 N   0  0  0  0  0
  -84.6500   67.3180   26.1350 C   0  0  0  0  0
  -85.4650   66.5670   25.0980 C   0  0  0  0  0
  -84.9240   66.0600   24.1160 O   0  0  0  0  0
  -84.0800   66.3660   27.1650 C   0  0  0  0  0
  -86.7740   66.5110   25.3270 N   0  0  0  0  0
  -87.6880   65.8150   24.4340 C   0  0  0  0  0
  -88.9860   66.6060   24.2800 C   0  0  0  0  0
  -89.6860   66.8600   25.2580 O   0  0  0  0  0
  -87.9660   64.4100   24.9660 C   0  0  0  0  0
  -88.3630   63.3500   23.9410 C   0  0  0  0  0
  -87.6010   62.0570   24.1920 C   0  0  0  0  0
  -89.8570   63.1110   23.9840 C   0  0  0  0  0
  -89.3000   66.9930   23.0480 N   0  0  0  0  0
  -90.5180   67.7290   22.7690 C   0  0  0  0  0
  -90.3550   68.7850   21.6930 C   0  0  0  0  0
  -91.3090   69.1130   20.9880 O   0  0  0  0  0
  -89.1510   69.3310   21.5720 N   0  0  0  0  0
  -88.8870   70.3680   20.5830 C   0  0  0  0  0
  -88.9510   69.8020   19.1670 C   0  0  0  0  0
  -88.0910   69.0240   18.7520 O   0  0  0  0  0
  -87.5150   71.0390   20.8000 C   0  0  0  0  0
  -87.3850   71.5670   22.2320 C   0  0  0  0  0
  -87.3120   72.1730   19.7960 C   0  0  0  0  0
  -88.4360   72.5970   22.6170 C   0  0  0  0  0
  -89.9870   70.2000   18.4390 N   0  0  0  0  0
  -90.1430   69.8390   17.0410 C   0  0  0  0  0
  -90.1730   71.1020   16.2070 C   0  0  0  0  0
  -90.3190   72.2010   16.7410 O   0  0  0  0  0
  -91.4240   69.0350   16.8240 C   0  0  0  0  0
  -91.3830   67.6770   17.4930 C   0  0  0  0  0
  -91.2410   66.6490   16.8310 O   0  0  0  0  0
  -91.4990   67.6670   18.8130 N   0  0  0  0  0
  -90.0300   70.9470   14.8970 N   0  0  0  0  0
  -90.1010   72.0800   13.9890 C   0  0  0  0  0
  -91.5530   72.3310   13.5900 C   0  0  0  0  0
  -92.4060   71.4600   13.7490 O   0  0  0  0  0
  -89.2400   71.8310   12.7670 C   0  0  0  0  0
  -91.8240   73.5270   13.0760 N   0  0  0  0  0
  -93.1770   73.9150   12.6840 C   0  0  0  0  0
  -93.5750   73.3470   11.3220 C   0  0  0  0  0
  -94.7520   73.3340   10.9560 O   0  0  0  0  0
  -93.3250   75.4500   12.6430 C   0  0  0  0  0
  -93.0660   76.0400   14.0170 C   0  0  0  0  0
  -92.3850   76.0580   11.6110 C   0  0  0  0  0
  -92.7300   72.8950   10.5520 O   0  0  0  0  0
  -84.2053   74.5124   33.2972 H   0  0  0  0  0
  -85.0925   73.2645   33.9549 H   0  0  0  0  0
  -83.5890   73.6333   34.5716 H   0  0  0  0  0
  -82.5127   72.9652   32.5381 H   0  0  0  0  0
  -84.4363   70.8064   33.3422 H   0  0  0  0  0
  -83.0400   71.3581   34.3892 H   0  0  0  0  0
  -81.6321   70.8525   32.3204 H   0  0  0  0  0
  -83.0487   69.8750   31.7939 H   0  0  0  0  0
  -82.9171   68.5190   33.7506 H   0  0  0  0  0
  -81.6424   69.5796   34.4543 H   0  0  0  0  0
  -80.1271   68.9543   32.6721 H   0  0  0  0  0
  -81.4086   67.8958   31.9550 H   0  0  0  0  0
  -79.8195   66.6515   33.2367 H   0  0  0  0  0
  -80.1504   67.5552   34.5971 H   0  0  0  0  0
  -81.3300   66.5808   33.9370 H   0  0  0  0  0
  -82.6264   72.6343   30.3823 H   0  0  0  0  0
  -85.0358   73.5702   29.1315 H   0  0  0  0  0
  -83.8112   73.0466   27.0093 H   0  0  0  0  0
  -82.4453   72.4240   28.0999 H   0  0  0  0  0
  -82.3200   74.7174   29.0116 H   0  0  0  0  0
  -80.7422   73.8714   27.3421 H   0  0  0  0  0
  -81.8379   74.3844   26.0355 H   0  0  0  0  0
  -81.0743   75.6021   27.0867 H   0  0  0  0  0
  -84.0994   75.3528   26.6428 H   0  0  0  0  0
  -84.5439   75.4903   28.3617 H   0  0  0  0  0
  -83.2778   76.5423   27.6826 H   0  0  0  0  0
  -85.9705   72.5362   27.1778 H   0  0  0  0  0
  -87.0170   69.9338   27.8620 H   0  0  0  0  0
  -87.1666   71.5887   25.3259 H   0  0  0  0  0
  -87.3902   69.2330   24.7333 H   0  0  0  0  0
  -88.6296   69.0162   25.9934 H   0  0  0  0  0
  -88.9571   70.0675   24.5939 H   0  0  0  0  0
  -89.1682   70.9975   27.5251 H   0  0  0  0  0
  -88.3083   72.5351   27.2658 H   0  0  0  0  0
  -89.4870   71.9600   26.0613 H   0  0  0  0  0
  -86.0733   68.0405   27.5654 H   0  0  0  0  0
  -83.8124   67.8125   25.6430 H   0  0  0  0  0
  -83.4838   66.9264   27.8851 H   0  0  0  0  0
  -84.8960   65.8608   27.6818 H   0  0  0  0  0
  -83.4513   65.6278   26.6670 H   0  0  0  0  0
  -87.1496   66.9712   26.1562 H   0  0  0  0  0
  -87.2271   65.7276   23.4501 H   0  0  0  0  0
  -88.8177   64.5085   25.6390 H   0  0  0  0  0
  -87.0292   64.0657   25.4042 H   0  0  0  0  0
  -88.1026   63.7108   22.9460 H   0  0  0  0  0
  -86.5306   62.2461   24.1113 H   0  0  0  0  0
  -87.8319   61.6889   25.1916 H   0  0  0  0  0
  -87.8966   61.3131   23.4522 H   0  0  0  0  0
  -90.1403   62.7682   24.9792 H   0  0  0  0  0
  -90.3790   64.0403   23.7561 H   0  0  0  0  0
  -90.1237   62.3529   23.2476 H   0  0  0  0  0
  -88.6686   66.7667   22.2795 H   0  0  0  0  0
  -90.8094   68.2395   23.6869 H   0  0  0  0  0
  -91.2593   67.0127   22.4148 H   0  0  0  0  0
  -88.3963   69.0186   22.1830 H   0  0  0  0  0
  -89.6634   71.1226   20.7092 H   0  0  0  0  0
  -86.7410   70.2879   20.6419 H   0  0  0  0  0
  -86.4139   72.0563   22.3066 H   0  0  0  0  0
  -87.5105   70.7153   22.9006 H   0  0  0  0  0
  -87.3557   71.7721   18.7833 H   0  0  0  0  0
  -88.0969   72.9178   19.9275 H   0  0  0  0  0
  -86.3391   72.6351   19.9636 H   0  0  0  0  0
  -88.3612   73.4569   21.9513 H   0  0  0  0  0
  -89.4275   72.1529   22.5289 H   0  0  0  0  0
  -88.2698   72.9168   23.6457 H   0  0  0  0  0
  -90.7007   70.7815   18.8781 H   0  0  0  0  0
  -89.3017   69.2152   16.7388 H   0  0  0  0  0
  -91.5416   68.8763   15.7521 H   0  0  0  0  0
  -92.2497   69.5976   17.2596 H   0  0  0  0  0
  -91.4722   66.7827   19.3206 H   0  0  0  0  0
  -91.6151   68.5436   19.3214 H   0  0  0  0  0
  -89.8669   70.0136   14.5193 H   0  0  0  0  0
  -89.7203   72.9679   14.4938 H   0  0  0  0  0
  -88.2048   71.6873   13.0766 H   0  0  0  0  0
  -89.5935   70.9384   12.2508 H   0  0  0  0  0
  -89.3046   72.6889   12.0977 H   0  0  0  0  0
  -91.0632   74.1948   12.9514 H   0  0  0  0  0
  -93.8411   73.4978   13.4410 H   0  0  0  0  0
  -95.3042   73.7121   11.6443 H   0  0  0  0  0
  -94.3470   75.6893   12.3491 H   0  0  0  0  0
  -93.7841   75.6312   14.7278 H   0  0  0  0  0
  -92.0544   75.7874   14.3346 H   0  0  0  0  0
  -93.1741   77.1237   13.9719 H   0  0  0  0  0
  -91.3552   75.8110   11.8693 H   0  0  0  0  0
  -92.6203   75.6558   10.6256 H   0  0  0  0  0
  -92.5089   77.1409   11.6019 H   0  0  0  0  0
  1  2  1  0  0  0
  2  3  1  0  0  0
  2  5  1  0  0  0
  3  4  2  0  0  0
  3 10  1  0  0  0
  5  6  1  0  0  0
  6  7  1  0  0  0
  7  8  1  0  0  0
  8  9  1  0  0  0
 10 11  1  0  0  0
 11 12  1  0  0  0
 11 14  1  0  0  0
 12 13  2  0  0  0
 12 18  1  0  0  0
 14 15  1  0  0  0
 15 16  1  0  0  0
 15 17  1  0  0  0
 18 19  1  0  0  0
 19 20  1  0  0  0
 19 22  1  0  0  0
 20 21  2  0  0  0
 20 25  1  0  0  0
 22 23  1  0  0  0
 22 24  1  0  0  0
 25 26  1  0  0  0
 26 27  1  0  0  0
 26 29  1  0  0  0
 27 28  2  0  0  0
 27 30  1  0  0  0
 30 31  1  0  0  0
 31 32  1  0  0  0
 31 34  1  0  0  0
 32 33  2  0  0  0
 32 38  1  0  0  0
 34 35  1  0  0  0
 35 36  1  0  0  0
 35 37  1  0  0  0
 38 39  1  0  0  0
 39 40  1  0  0  0
 40 41  2  0  0  0
 40 42  1  0  0  0
 42 43  1  0  0  0
 43 44  1  0  0  0
 43 46  1  0  0  0
 44 45  2  0  0  0
 44 50  1  0  0  0
 46 47  1  0  0  0
 46 48  1  0  0  0
 47 49  1  0  0  0
 50 51  1  0  0  0
 51 52  1  0  0  0
 51 54  1  0  0  0
 52 53  2  0  0  0
 52 58  1  0  0  0
 54 55  1  0  0  0
 55 56  2  0  0  0
 55 57  1  0  0  0
 58 59  1  0  0  0
 59 60  1  0  0  0
 59 62  1  0  0  0
 60 61  2  0  0  0
 60 63  1  0  0  0
 63 64  1  0  0  0
 64 65  1  0  0  0
 64 67  1  0  0  0
 65 66  1  0  0  0
 65 70  2  0  0  0
 67 68  1  0  0  0
 67 69  1  0  0  0
  1 71  1  0  0  0
  1 72  1  0  0  0
  1 73  1  0  0  0
  2 74  1  0  0  0
  5 75  1  0  0  0
  5 76  1  0  0  0
  6 77  1  0  0  0
  6 78  1  0  0  0
  7 79  1  0  0  0
  7 80  1  0  0  0
  8 81  1  0  0  0
  8 82  1  0  0  0
  9 83  1  0  0  0
  9 84  1  0  0  0
  9 85  1  0  0  0
 10 86  1  0  0  0
 11 87  1  0  0  0
 14 88  1  0  0  0
 14 89  1  0  0  0
 15 90  1  0  0  0
 16 91  1  0  0  0
 16 92  1  0  0  0
 16 93  1  0  0  0
 17 94  1  0  0  0
 17 95  1  0  0  0
 17 96  1  0  0  0
 18 97  1  0  0  0
 19 98  1  0  0  0
 22 99  1  0  0  0
 23100  1  0  0  0
 23101  1  0  0  0
 23102  1  0  0  0
 24103  1  0  0  0
 24104  1  0  0  0
 24105  1  0  0  0
 25106  1  0  0  0
 26107  1  0  0  0
 29108  1  0  0  0
 29109  1  0  0  0
 29110  1  0  0  0
 30111  1  0  0  0
 31112  1  0  0  0
 34113  1  0  0  0
 34114  1  0  0  0
 35115  1  0  0  0
 36116  1  0  0  0
 36117  1  0  0  0
 36118  1  0  0  0
 37119  1  0  0  0
 37120  1  0  0  0
 37121  1  0  0  0
 38122  1  0  0  0
 39123  1  0  0  0
 39124  1  0  0  0
 42125  1  0  0  0
 43126  1  0  0  0
 46127  1  0  0  0
 47128  1  0  0  0
 47129  1  0  0  0
 48130  1  0  0  0
 48131  1  0  0  0
 48132  1  0  0  0
 49133  1  0  0  0
 49134  1  0  0  0
 49135  1  0  0  0
 50136  1  0  0  0
 51137  1  0  0  0
 54138  1  0  0  0
 54139  1  0  0  0
 57140  1  0  0  0
 57141  1  0  0  0
 58142  1  0  0  0
 59143  1  0  0  0
 62144  1  0  0  0
 62145  1  0  0  0
 62146  1  0  0  0
 63147  1  0  0  0
 64148  1  0  0  0
 66149  1  0  0  0
 67150  1  0  0  0
 68151  1  0  0  0
 68152  1  0  0  0
 68153  1  0  0  0
 69154  1  0  0  0
 69155  1  0  0  0
 69156  1  0  0  0
M  END
$$$$
