### 
### Created by X-TOOL on Mon Sep 10 21:12:52 2018
### 

@<TRIPOS>MOLECULE
1wc6_ligand
   44    46     1     0     0
SMALL
GAST_HUCK


@<TRIPOS>ATOM
      1 PG          5.4520   28.2450   48.3670 P.3       1 TAT         0.2077
      2 O1G         6.2800   27.0610   48.7580 O.co2     1 TAT        -0.5891
      3 O2G         4.5670   27.8840   47.2100 O.co2     1 TAT        -0.5891
      4 O3G         6.3630   29.3600   47.9770 O.co2     1 TAT        -0.5891
      5 PB          4.9440   29.7720   50.6530 P.3       1 TAT         0.3753
      6 O1B         5.1850   29.0370   51.9700 O.co2     1 TAT        -0.5491
      7 O2B         6.2500   30.5050   50.2610 O.co2     1 TAT        -0.5491
      8 O3B         4.5120   28.6910   49.5680 O.3       1 TAT        -0.1478
      9 PA          3.5440   32.2320   50.0240 P.3       1 TAT         0.3723
     10 S1A         4.6250   33.6560   50.9120 S.3       1 TAT        -0.0009
     11 O2A         3.9790   32.0600   48.5510 O.2       1 TAT        -0.5210
     12 O3A         3.7230   30.8380   50.8600 O.3       1 TAT        -0.0900
     13 O5          2.0320   32.6510   50.1070 O.3       1 TAT        -0.2185
     14 C5          1.0940   32.2090   49.1230 C.3       1 TAT         0.1221
     15 C4          0.4640   33.3960   48.4800 C.3       1 TAT         0.1203
     16 O4          0.1750   34.4420   49.4890 O.3       1 TAT        -0.3363
     17 C3          1.3810   34.0930   47.4880 C.3       1 TAT         0.1151
     18 O3          1.4650   33.3800   46.2630 O.3       1 TAT        -0.3864
     19 C2          0.7230   35.4200   47.3750 C.3       1 TAT         0.1385
     20 O2         -0.3890   35.3770   46.4500 O.3       1 TAT        -0.3836
     21 C1          0.2600   35.7250   48.7980 C.3       1 TAT         0.2010
     22 N9          1.2170   36.6100   49.4920 N.pl3     1 TAT        -0.1919
     23 C8          2.0390   36.3390   50.5380 C.2       1 TAT         0.1123
     24 N7          2.7760   37.3960   50.9370 N.2       1 TAT        -0.2958
     25 C5          2.3920   38.3690   50.0980 C.ar      1 TAT         0.1045
     26 C6          2.7700   39.7240   49.9780 C.ar      1 TAT         0.1298
     27 N6          3.6560   40.2900   50.7790 N.pl3     1 TAT        -0.3152
     28 N1          2.1630   40.4960   48.9590 N.ar      1 TAT        -0.2698
     29 C2          1.2220   39.8790   48.1220 C.ar      1 TAT         0.0533
     30 N3          0.8100   38.6170   48.1740 N.ar      1 TAT        -0.2714
     31 C4          1.4230   37.9120   49.1720 C.ar      1 TAT         0.1613
     32 H1          4.3276   33.7537   51.8702 H         1 TAT         0.1317
     33 H2          0.3178   31.5956   49.6038 H         1 TAT         0.0665
     34 H3          1.6146   31.6106   48.3609 H         1 TAT         0.0665
     35 H4         -0.4613   33.0766   47.9782 H         1 TAT         0.0652
     36 H5          2.3961   34.2008   47.8979 H         1 TAT         0.0648
     37 H6          0.5998   33.3136   45.8766 H         1 TAT         0.2100
     38 H7          1.4427   36.1791   47.0346 H         1 TAT         0.0676
     39 H8         -0.7895   36.2368   46.3979 H         1 TAT         0.2101
     40 H9         -0.7278   36.2085   48.7746 H         1 TAT         0.0996
     41 H10         2.0979   35.3597   51.0108 H         1 TAT         0.1349
     42 H11         3.9022   41.2825   50.6552 H         1 TAT         0.1820
     43 H12         4.1003   39.7386   51.5270 H         1 TAT         0.1820
     44 H13         0.7832   40.4991   47.3487 H         1 TAT         0.0996
@<TRIPOS>BOND
     1    1    2 ar 
     2    1    3 ar 
     3    1    4 ar 
     4    8    1 1  
     5    5    6 ar 
     6    5    7 ar 
     7    5    8 1  
     8   12    5 1  
     9    9   10 1  
    10    9   11 2  
    11    9   12 1  
    12    9   13 1  
    13   13   14 1  
    14   14   15 1  
    15   15   16 1  
    16   15   17 1  
    17   16   21 1  
    18   17   18 1  
    19   17   19 1  
    20   19   20 1  
    21   19   21 1  
    22   21   22 1  
    23   22   23 1  
    24   22   31 1  
    25   23   24 2  
    26   24   25 1  
    27   25   26 ar 
    28   25   31 ar 
    29   26   27 1  
    30   26   28 ar 
    31   28   29 ar 
    32   29   30 ar 
    33   30   31 ar 
    34   10   32 1  
    35   14   33 1  
    36   14   34 1  
    37   15   35 1  
    38   17   36 1  
    39   18   37 1  
    40   19   38 1  
    41   20   39 1  
    42   21   40 1  
    43   23   41 1  
    44   27   42 1  
    45   27   43 1  
    46   29   44 1  
@<TRIPOS>SUBSTRUCTURE
     1 TAT         1

