1wc6_ligand
  -I-interpret- 

 47 49  0  0  0  0  0  0  0  0999 V2000
    5.4520   28.2450   48.3670 P   0  0  0  0  0
    6.2800   27.0610   48.7580 O   0  0  0  0  0
    4.5670   27.8840   47.2100 O   0  0  0  0  0
    6.3630   29.3600   47.9770 O   0  0  0  0  0
    4.9440   29.7720   50.6530 P   0  0  0  0  0
    5.1850   29.0370   51.9700 O   0  0  0  0  0
    6.2500   30.5050   50.2610 O   0  0  0  0  0
    4.5120   28.6910   49.5680 O   0  0  0  0  0
    3.5440   32.2320   50.0240 P   0  0  0  0  0
    4.6250   33.6560   50.9120 S   0  0  0  0  0
    3.9790   32.0600   48.5510 O   0  0  0  0  0
    3.7230   30.8380   50.8600 O   0  0  0  0  0
    2.0320   32.6510   50.1070 O   0  0  0  0  0
    1.0940   32.2090   49.1230 C   0  0  0  0  0
    0.4640   33.3960   48.4800 C   0  0  0  0  0
    0.1750   34.4420   49.4890 O   0  0  0  0  0
    1.3810   34.0930   47.4880 C   0  0  0  0  0
    1.4650   33.3800   46.2630 O   0  0  0  0  0
    0.7230   35.4200   47.3750 C   0  0  0  0  0
   -0.3890   35.3770   46.4500 O   0  0  0  0  0
    0.2600   35.7250   48.7980 C   0  0  0  0  0
    1.2170   36.6100   49.4920 N   0  0  0  0  0
    2.0390   36.3390   50.5380 C   0  0  0  0  0
    2.7760   37.3960   50.9370 N   0  0  0  0  0
    2.3920   38.3690   50.0980 C   0  0  0  0  0
    2.7700   39.7240   49.9780 C   0  0  0  0  0
    3.6560   40.2900   50.7790 N   0  0  0  0  0
    2.1630   40.4960   48.9590 N   0  0  0  0  0
    1.2220   39.8790   48.1220 C   0  0  0  0  0
    0.8100   38.6170   48.1740 N   0  0  0  0  0
    1.4230   37.9120   49.1720 C   0  0  0  0  0
    5.7022   26.3373   49.0110 H   0  0  0  0  0
    3.9833   27.1664   47.4668 H   0  0  0  0  0
    6.1167   30.9735   49.4337 H   0  0  0  0  0
    4.2326   33.7848   52.1762 H   0  0  0  0  0
    0.3256   31.5988   49.5977 H   0  0  0  0  0
    1.6081   31.6137   48.3685 H   0  0  0  0  0
   -0.4254   33.0026   47.9878 H   0  0  0  0  0
    2.4256   34.1643   47.7909 H   0  0  0  0  0
    2.0502   33.8467   45.6619 H   0  0  0  0  0
    1.3904   36.1878   46.9837 H   0  0  0  0  0
   -0.7938   36.2459   46.3974 H   0  0  0  0  0
   -0.7003   36.2405   48.7856 H   0  0  0  0  0
    2.0979   35.3588   51.0112 H   0  0  0  0  0
    4.0960   39.7440   51.5197 H   0  0  0  0  0
    3.8998   41.2728   50.6564 H   0  0  0  0  0
    0.7808   40.5025   47.3444 H   0  0  0  0  0
  1  2  1  0  0  0
  1  3  1  0  0  0
  1  4  2  0  0  0
  8  1  1  0  0  0
  5  6  2  0  0  0
  5  7  1  0  0  0
  5  8  1  0  0  0
 12  5  1  0  0  0
  9 10  1  0  0  0
  9 11  2  0  0  0
  9 12  1  0  0  0
  9 13  1  0  0  0
 13 14  1  0  0  0
 14 15  1  0  0  0
 15 16  1  0  0  0
 15 17  1  0  0  0
 16 21  1  0  0  0
 17 18  1  0  0  0
 17 19  1  0  0  0
 19 20  1  0  0  0
 19 21  1  0  0  0
 21 22  1  0  0  0
 22 23  4  0  0  0
 22 31  4  0  0  0
 23 24  4  0  0  0
 24 25  4  0  0  0
 25 26  4  0  0  0
 25 31  4  0  0  0
 26 27  1  0  0  0
 26 28  4  0  0  0
 28 29  4  0  0  0
 29 30  4  0  0  0
 30 31  4  0  0  0
  2 32  1  0  0  0
  3 33  1  0  0  0
  7 34  1  0  0  0
 10 35  1  0  0  0
 14 36  1  0  0  0
 14 37  1  0  0  0
 15 38  1  0  0  0
 17 39  1  0  0  0
 18 40  1  0  0  0
 19 41  1  0  0  0
 20 42  1  0  0  0
 21 43  1  0  0  0
 23 44  1  0  0  0
 27 45  1  0  0  0
 27 46  1  0  0  0
 29 47  1  0  0  0
M  END
$$$$
