1pdq_ligand
  -I-interpret- 

154153  0  0  0  0  0  0  0  0999 V2000
   11.4690   36.0520   15.9720 N   0  3  0  0  0
   10.2860   35.7130   15.1320 C   0  0  0  0  0
    9.6090   34.4350   15.6130 C   0  0  0  0  0
    8.3930   34.2870   15.4920 O   0  0  0  0  0
   10.7060   35.5450   13.6680 C   0  0  0  0  0
   11.8650   34.5820   13.3790 C   0  0  0  0  0
   11.8300   34.1530   11.9210 C   0  0  0  0  0
   13.1860   35.2540   13.7110 C   0  0  0  0  0
   10.4010   33.5150   16.1560 N   0  0  0  0  0
    9.8730   32.2500   16.6580 C   0  0  0  0  0
    9.3870   32.4130   18.0930 C   0  0  0  0  0
    8.5190   31.6690   18.5550 O   0  0  0  0  0
   10.9440   31.1700   16.5890 C   0  0  0  0  0
    9.9530   33.3920   18.7900 N   0  0  0  0  0
    9.5820   33.6630   20.1720 C   0  0  0  0  0
    8.1300   34.1310   20.2400 C   0  0  0  0  0
    7.7150   34.9980   19.4780 O   0  0  0  0  0
   10.4850   34.7470   20.7800 C   0  0  0  0  0
   11.8570   34.3610   20.6350 O   0  0  0  0  0
   10.1730   34.9320   22.2580 C   0  0  0  0  0
    7.3640   33.5450   21.1570 N   0  0  0  0  0
    5.9580   33.8900   21.3330 C   0  0  0  0  0
    5.7210   34.3680   22.7630 C   0  0  0  0  0
    5.8140   33.5940   23.7090 O   0  0  0  0  0
    5.0910   32.6680   21.0470 C   0  0  0  0  0
    5.3240   32.0470   19.6880 C   0  0  0  0  0
    4.6060   30.7170   19.5770 C   0  0  0  0  0
    5.0430   29.9570   18.3350 C   0  0  0  0  0
    6.4990   29.6210   18.4030 N   0  3  0  0  0
    5.3980   35.6440   22.9160 N   0  0  0  0  0
    5.1820   36.2230   24.2340 C   0  0  0  0  0
    3.8530   35.8470   24.8880 C   0  0  0  0  0
    2.8420   35.6450   24.2200 O   0  0  0  0  0
    5.2920   37.7440   24.1420 C   0  0  0  0  0
    3.8780   35.7740   26.2120 N   0  0  0  0  0
    2.6960   35.4700   27.0010 C   0  0  0  0  0
    2.9430   36.0330   28.3980 C   0  0  0  0  0
    4.0820   36.1090   28.8600 O   0  0  0  0  0
    2.4660   33.9600   27.0520 C   0  0  0  0  0
    1.8720   36.4470   29.0580 N   0  0  0  0  0
    1.9670   37.0130   30.3940 C   0  0  0  0  0
    1.7970   35.9140   31.4460 C   0  0  0  0  0
    0.9730   35.0160   31.2800 O   0  0  0  0  0
    0.8720   38.0700   30.5580 C   0  0  0  0  0
    1.1010   39.0780   31.6600 C   0  0  0  0  0
   -0.0400   40.0890   31.7200 C   0  0  0  0  0
   -0.1420   40.9020   30.5110 N   0  0  0  0  0
    0.7300   41.8430   30.1630 C   0  0  0  0  0
    1.7810   42.0930   30.9330 N   0  0  0  0  0
    0.5460   42.5430   29.0520 N   0  0  0  0  0
    2.5810   35.9790   32.5200 N   0  0  0  0  0
    2.4710   34.9880   33.5900 C   0  0  0  0  0
    3.8500   34.4670   34.0020 C   0  0  0  0  0
    3.7820   33.1360   34.7570 C   0  0  0  0  0
    5.1130   32.7070   35.3750 C   0  0  0  0  0
    6.2190   32.5820   34.3340 C   0  0  0  0  0
    7.3170   31.6620   34.8060 N   0  3  0  0  0
    1.7890   35.6380   34.7930 C   0  0  0  0  0
    2.3530   36.5260   35.4310 O   0  0  0  0  0
    8.1210   31.2060   33.6400 C   0  0  0  0  0
    6.9190   30.4040   35.4950 C   0  0  0  0  0
    8.2300   32.4040   35.7270 C   0  0  0  0  0
    0.5780   35.1800   35.0970 N   0  0  0  0  0
   -0.2100   35.7150   36.2060 C   0  0  0  0  0
    0.2770   35.2620   37.5830 C   0  0  0  0  0
    1.2980   34.5870   37.7060 O   0  0  0  0  0
   -1.6810   35.3240   36.0330 C   0  0  0  0  0
   -1.8410   33.9150   36.0190 O   0  0  0  0  0
   -0.4152   35.6036   38.6661 O   0  0  0  0  0
   11.8971   36.9098   15.6238 H   0  0  0  0  0
   11.1710   36.1872   16.9381 H   0  0  0  0  0
   12.1459   35.2903   15.9271 H   0  0  0  0  0
    9.5748   36.5345   15.2187 H   0  0  0  0  0
   11.0487   36.5274   13.3432 H   0  0  0  0  0
    9.8387   35.1272   13.1567 H   0  0  0  0  0
   11.7620   33.6934   14.0017 H   0  0  0  0  0
   11.9500   35.0286   11.2830 H   0  0  0  0  0
   12.6407   33.4496   11.7310 H   0  0  0  0  0
   10.8743   33.6744   11.7073 H   0  0  0  0  0
   14.0031   34.5558   13.5295 H   0  0  0  0  0
   13.3124   36.1348   13.0815 H   0  0  0  0  0
   13.1872   35.5520   14.7595 H   0  0  0  0  0
   11.4022   33.6978   16.2234 H   0  0  0  0  0
    9.0305   31.9517   16.0341 H   0  0  0  0  0
   11.2609   31.0400   15.5542 H   0  0  0  0  0
   11.7981   31.4677   17.1972 H   0  0  0  0  0
   10.5370   30.2319   16.9663 H   0  0  0  0  0
   10.6666   33.9694   18.3453 H   0  0  0  0  0
    9.7030   32.7406   20.7400 H   0  0  0  0  0
   10.3035   35.6865   20.2580 H   0  0  0  0  0
   12.4208   35.0387   21.0151 H   0  0  0  0  0
    9.1314   35.2318   22.3734 H   0  0  0  0  0
   10.3425   33.9926   22.7842 H   0  0  0  0  0
   10.8225   35.7037   22.6713 H   0  0  0  0  0
    7.7744   32.8299   21.7575 H   0  0  0  0  0
    5.6930   34.6885   20.6400 H   0  0  0  0  0
    4.0522   32.9967   21.0766 H   0  0  0  0  0
    5.3424   31.9137   21.7926 H   0  0  0  0  0
    6.3932   31.8826   19.5542 H   0  0  0  0  0
    4.9392   32.7203   18.9221 H   0  0  0  0  0
    3.5344   30.9051   19.5102 H   0  0  0  0  0
    4.8478   30.1172   20.4544 H   0  0  0  0  0
    4.8671   30.5827   17.4600 H   0  0  0  0  0
    4.4712   29.0313   18.2700 H   0  0  0  0  0
    6.7690   29.1125   17.5610 H   0  0  0  0  0
    7.0425   30.4815   18.4709 H   0  0  0  0  0
    6.6749   29.0407   19.2232 H   0  0  0  0  0
    5.2983   36.2347   22.0904 H   0  0  0  0  0
    5.9568   35.8032   24.8756 H   0  0  0  0  0
    6.2849   38.0141   23.7825 H   0  0  0  0  0
    4.5388   38.1203   23.4497 H   0  0  0  0  0
    5.1305   38.1790   25.1283 H   0  0  0  0  0
    4.7612   35.9376   26.6953 H   0  0  0  0  0
    1.8028   35.9141   26.5615 H   0  0  0  0  0
    2.3260   33.5807   26.0398 H   0  0  0  0  0
    3.3314   33.4771   27.5059 H   0  0  0  0  0
    1.5771   33.7490   27.6466 H   0  0  0  0  0
    0.9557   36.3666   28.6172 H   0  0  0  0  0
    2.9467   37.4708   30.5307 H   0  0  0  0  0
   -0.0418   37.5333   30.8131 H   0  0  0  0  0
    0.8409   38.6321   29.6247 H   0  0  0  0  0
    2.0307   39.6106   31.4598 H   0  0  0  0  0
    1.1517   38.5502   32.6124 H   0  0  0  0  0
    0.1527   40.7597   32.5573 H   0  0  0  0  0
   -0.9718   39.5338   31.8279 H   0  0  0  0  0
   -0.9357   40.7366   29.8921 H   0  0  0  0  0
    2.4444   42.8217   30.6697 H   0  0  0  0  0
    1.9257   41.5565   31.7884 H   0  0  0  0  0
   -0.2660   42.3599   28.4624 H   0  0  0  0  0
    3.2673   36.7296   32.5976 H   0  0  0  0  0
    1.8840   34.1431   33.2300 H   0  0  0  0  0
    4.3000   35.2045   34.6665 H   0  0  0  0  0
    4.4304   34.3056   33.0936 H   0  0  0  0  0
    3.4960   32.3689   34.0374 H   0  0  0  0  0
    3.0707   33.2618   35.5733 H   0  0  0  0  0
    4.9721   31.7305   35.8383 H   0  0  0  0  0
    5.4118   33.4671   36.0969 H   0  0  0  0  0
    6.6455   33.5702   34.1615 H   0  0  0  0  0
    5.7901   32.1693   33.4209 H   0  0  0  0  0
    7.4759   30.6729   32.9416 H   0  0  0  0  0
    8.5606   32.0707   33.1429 H   0  0  0  0  0
    8.9135   30.5415   33.9843 H   0  0  0  0  0
    6.3449   30.6469   36.3892 H   0  0  0  0  0
    6.3090   29.8005   34.8229 H   0  0  0  0  0
    7.8127   29.8466   35.7757 H   0  0  0  0  0
    8.6678   33.2506   35.1982 H   0  0  0  0  0
    7.6636   32.7640   36.5859 H   0  0  0  0  0
    9.0223   31.7368   36.0664 H   0  0  0  0  0
    0.1837   34.4261   34.5344 H   0  0  0  0  0
   -0.0887   36.7977   36.1719 H   0  0  0  0  0
   -2.0369   35.7232   35.0832 H   0  0  0  0  0
   -2.2488   35.7295   36.8704 H   0  0  0  0  0
   -2.7704   33.7007   35.9096 H   0  0  0  0  0
   -1.1782   36.1248   38.4057 H   0  0  0  0  0
  2  1  1  0  0  0
  2  5  1  0  0  0
  3  2  1  0  0  0
  3  4  2  0  0  0
  5  6  1  0  0  0
  6  7  1  0  0  0
  6  8  1  0  0  0
 10  9  1  0  0  0
 10 13  1  0  0  0
 11 10  1  0  0  0
 11 12  2  0  0  0
  9  3  1  0  0  0
 15 14  1  0  0  0
 15 18  1  0  0  0
 16 15  1  0  0  0
 16 17  2  0  0  0
 18 20  1  0  0  0
 18 19  1  0  0  0
 14 11  1  0  0  0
 22 21  1  0  0  0
 22 25  1  0  0  0
 23 22  1  0  0  0
 23 24  2  0  0  0
 25 26  1  0  0  0
 26 27  1  0  0  0
 27 28  1  0  0  0
 28 29  1  0  0  0
 21 16  1  0  0  0
 31 30  1  0  0  0
 31 34  1  0  0  0
 32 31  1  0  0  0
 32 33  2  0  0  0
 30 23  1  0  0  0
 36 35  1  0  0  0
 36 39  1  0  0  0
 37 36  1  0  0  0
 37 38  2  0  0  0
 35 32  1  0  0  0
 41 40  1  0  0  0
 41 44  1  0  0  0
 42 41  1  0  0  0
 42 43  2  0  0  0
 44 45  1  0  0  0
 45 46  1  0  0  0
 46 47  1  0  0  0
 47 48  1  0  0  0
 48 50  2  0  0  0
 48 49  1  0  0  0
 40 37  1  0  0  0
 63 64  1  0  0  0
 64 67  1  0  0  0
 64 65  1  0  0  0
 65 66  2  0  0  0
 67 68  1  0  0  0
 52 51  1  0  0  0
 52 53  1  0  0  0
 58 52  1  0  0  0
 53 54  1  0  0  0
 54 55  1  0  0  0
 55 56  1  0  0  0
 56 57  1  0  0  0
 57 60  1  0  0  0
 57 61  1  0  0  0
 57 62  1  0  0  0
 58 59  2  0  0  0
 51 42  1  0  0  0
 58 63  1  0  0  0
 65 69  1  0  0  0
  1 70  1  0  0  0
  1 71  1  0  0  0
  1 72  1  0  0  0
  2 73  1  0  0  0
  5 74  1  0  0  0
  5 75  1  0  0  0
  6 76  1  0  0  0
  7 77  1  0  0  0
  7 78  1  0  0  0
  7 79  1  0  0  0
  8 80  1  0  0  0
  8 81  1  0  0  0
  8 82  1  0  0  0
  9 83  1  0  0  0
 10 84  1  0  0  0
 13 85  1  0  0  0
 13 86  1  0  0  0
 13 87  1  0  0  0
 14 88  1  0  0  0
 15 89  1  0  0  0
 18 90  1  0  0  0
 19 91  1  0  0  0
 20 92  1  0  0  0
 20 93  1  0  0  0
 20 94  1  0  0  0
 21 95  1  0  0  0
 22 96  1  0  0  0
 25 97  1  0  0  0
 25 98  1  0  0  0
 26 99  1  0  0  0
 26100  1  0  0  0
 27101  1  0  0  0
 27102  1  0  0  0
 28103  1  0  0  0
 28104  1  0  0  0
 29105  1  0  0  0
 29106  1  0  0  0
 29107  1  0  0  0
 30108  1  0  0  0
 31109  1  0  0  0
 34110  1  0  0  0
 34111  1  0  0  0
 34112  1  0  0  0
 35113  1  0  0  0
 36114  1  0  0  0
 39115  1  0  0  0
 39116  1  0  0  0
 39117  1  0  0  0
 40118  1  0  0  0
 41119  1  0  0  0
 44120  1  0  0  0
 44121  1  0  0  0
 45122  1  0  0  0
 45123  1  0  0  0
 46124  1  0  0  0
 46125  1  0  0  0
 47126  1  0  0  0
 49127  1  0  0  0
 49128  1  0  0  0
 50129  1  0  0  0
 51130  1  0  0  0
 52131  1  0  0  0
 53132  1  0  0  0
 53133  1  0  0  0
 54134  1  0  0  0
 54135  1  0  0  0
 55136  1  0  0  0
 55137  1  0  0  0
 56138  1  0  0  0
 56139  1  0  0  0
 60140  1  0  0  0
 60141  1  0  0  0
 60142  1  0  0  0
 61143  1  0  0  0
 61144  1  0  0  0
 61145  1  0  0  0
 62146  1  0  0  0
 62147  1  0  0  0
 62148  1  0  0  0
 63149  1  0  0  0
 64150  1  0  0  0
 67151  1  0  0  0
 67152  1  0  0  0
 68153  1  0  0  0
 69154  1  0  0  0
M  END
$$$$
