### 
### Created by X-TOOL on Mon Sep 10 21:12:50 2018
### 

@<TRIPOS>MOLECULE
1pdq_ligand
  155   154     1     0     0
SMALL
GAST_HUCK


@<TRIPOS>ATOM
      1 N          11.4690   36.0520   15.9720 N.4       1 LEU         0.2379
      2 CA         10.2860   35.7130   15.1320 C.3       1 LEU         0.0652
      3 C           9.6090   34.4350   15.6130 C.2       1 LEU         0.2267
      4 O           8.3930   34.2870   15.4920 O.2       1 LEU        -0.3907
      5 CB         10.7060   35.5450   13.6680 C.3       1 LEU         0.0102
      6 CG         11.8650   34.5820   13.3790 C.3       1 LEU        -0.0394
      7 CD1        11.8300   34.1530   11.9210 C.3       1 LEU        -0.0623
      8 CD2        13.1860   35.2540   13.7110 C.3       1 LEU        -0.0623
      9 N          10.4010   33.5150   16.1560 N.am      1 ALA        -0.2613
     10 CA          9.8730   32.2500   16.6580 C.3       1 ALA         0.1283
     11 C           9.3870   32.4130   18.0930 C.2       1 ALA         0.2037
     12 O           8.5190   31.6690   18.5550 O.2       1 ALA        -0.3944
     13 CB         10.9440   31.1700   16.5890 C.3       1 ALA        -0.0244
     14 N           9.9530   33.3920   18.7900 N.am      1 THR        -0.2613
     15 CA          9.5820   33.6630   20.1720 C.3       1 THR         0.1565
     16 C           8.1300   34.1310   20.2400 C.2       1 THR         0.2065
     17 O           7.7150   34.9980   19.4780 O.2       1 THR        -0.3943
     18 CB         10.4850   34.7470   20.7800 C.3       1 THR         0.0924
     19 OG1        11.8570   34.3610   20.6350 O.3       1 THR        -0.3874
     20 CG2        10.1730   34.9320   22.2580 C.3       1 THR        -0.0346
     21 N           7.3640   33.5450   21.1570 N.am      1 LYS        -0.2637
     22 CA          5.9580   33.8900   21.3330 C.3       1 LYS         0.1310
     23 C           5.7210   34.3680   22.7630 C.2       1 LYS         0.2039
     24 O           5.8140   33.5940   23.7090 O.2       1 LYS        -0.3944
     25 CB          5.0910   32.6680   21.0470 C.3       1 LYS        -0.0122
     26 CG          5.3240   32.0470   19.6880 C.3       1 LYS        -0.0440
     27 CD          4.6060   30.7170   19.5770 C.3       1 LYS        -0.0124
     28 CE          5.0430   29.9570   18.3350 C.3       1 LYS        -0.0354
     29 NZ          6.4990   29.6210   18.4030 N.4       1 LYS         0.2185
     30 N           5.3980   35.6440   22.9160 N.am      1 ALA        -0.2640
     31 CA          5.1820   36.2230   24.2340 C.3       1 ALA         0.1282
     32 C           3.8530   35.8470   24.8880 C.2       1 ALA         0.2036
     33 O           2.8420   35.6450   24.2200 O.2       1 ALA        -0.3944
     34 CB          5.2920   37.7440   24.1420 C.3       1 ALA        -0.0244
     35 N           3.8780   35.7740   26.2120 N.am      1 ALA        -0.2640
     36 CA          2.6960   35.4700   27.0010 C.3       1 ALA         0.1282
     37 C           2.9430   36.0330   28.3980 C.2       1 ALA         0.2036
     38 O           4.0820   36.1090   28.8600 O.2       1 ALA        -0.3944
     39 CB          2.4660   33.9600   27.0520 C.3       1 ALA        -0.0244
     40 N           1.8720   36.4470   29.0580 N.am      1 ARG        -0.2637
     41 CA          1.9670   37.0130   30.3940 C.3       1 ARG         0.1311
     42 C           1.7970   35.9140   31.4460 C.2       1 ARG         0.2039
     43 O           0.9730   35.0160   31.2800 O.2       1 ARG        -0.3944
     44 CB          0.8720   38.0700   30.5580 C.3       1 ARG        -0.0092
     45 CG          1.1010   39.0780   31.6600 C.3       1 ARG        -0.0156
     46 CD         -0.0400   40.0890   31.7200 C.3       1 ARG         0.0627
     47 NE         -0.1420   40.9020   30.5110 N.pl3     1 ARG        -0.2723
     48 CZ          0.7300   41.8430   30.1630 C.cat     1 ARG         0.2882
     49 NH1         1.7810   42.0930   30.9330 N.pl3     1 ARG        -0.2849
     50 NH2         0.5460   42.5430   29.0520 N.pl3     1 ARG        -0.2849
     51 N           2.5810   35.9790   32.5200 N.am      1 M3L        -0.2637
     52 CA          2.4710   34.9880   33.5900 C.3       1 M3L         0.1310
     53 CB          3.8500   34.4670   34.0020 C.3       1 M3L        -0.0122
     54 CG          3.7820   33.1360   34.7570 C.3       1 M3L        -0.0440
     55 CD          5.1130   32.7070   35.3750 C.3       1 M3L        -0.0123
     56 CE          6.2190   32.5820   34.3340 C.3       1 M3L        -0.0309
     57 NZ          7.3170   31.6620   34.8060 N.4       1 M3L         0.2369
     58 C           1.7890   35.6380   34.7930 C.2       1 M3L         0.2040
     59 O           2.3530   36.5260   35.4310 O.2       1 M3L        -0.3944
     60 CM1         8.1210   31.2060   33.6400 C.3       1 M3L        -0.0418
     61 CM2         6.9190   30.4040   35.4950 C.3       1 M3L        -0.0418
     62 CM3         8.2300   32.4040   35.7270 C.3       1 M3L        -0.0418
     63 N           0.5780   35.1800   35.0970 N.am      1 SER        -0.2604
     64 CA         -0.2100   35.7150   36.2060 C.3       1 SER         0.1651
     65 C           0.2770   35.2620   37.5830 C.2       1 SER         0.2594
     66 O           1.2980   34.5870   37.7060 O.2       1 SER        -0.3679
     67 CB         -1.6810   35.3240   36.0330 C.3       1 SER         0.0857
     68 OG         -1.8410   33.9150   36.0190 O.3       1 SER        -0.3902
     69 O1         -0.4152   35.6036   38.6661 O.3       1 SER        -0.2909
     70 H1         11.8930   36.8997   15.6288 H         1 LEU         0.2015
     71 H2         12.1387   35.2999   15.9284 H         1 LEU         0.2015
     72 H3         11.1757   36.1859   16.9270 H         1 LEU         0.2015
     73 H4          9.5632   36.5393   15.2009 H         1 LEU         0.1098
     74 H5         10.9973   36.5365   13.2910 H         1 LEU         0.0348
     75 H6          9.8288   35.1841   13.1110 H         1 LEU         0.0348
     76 H7         11.7535   33.6895   14.0123 H         1 LEU         0.0299
     77 H8         12.6634   33.4632   11.7217 H         1 LEU         0.0232
     78 H9         11.9249   35.0388   11.2757 H         1 LEU         0.0232
     79 H10        10.8765   33.6465   11.7106 H         1 LEU         0.0232
     80 H11        13.1884   35.5552   14.7689 H         1 LEU         0.0232
     81 H12        13.3148   36.1431   13.0763 H         1 LEU         0.0232
     82 H13        14.0115   34.5503   13.5283 H         1 LEU         0.0232
     83 H14        11.3826   33.6942   16.2221 H         1 ALA         0.1884
     84 H15         9.0231   31.9470   16.0288 H         1 ALA         0.0797
     85 H16        10.5344   30.2227   16.9696 H         1 ALA         0.0277
     86 H17        11.8066   31.4692   17.2025 H         1 ALA         0.0277
     87 H18        11.2647   31.0377   15.5451 H         1 ALA         0.0277
     88 H19        10.6526   33.9581   18.3540 H         1 THR         0.1884
     89 H20         9.6910   32.7373   20.7562 H         1 THR         0.0826
     90 H21        10.3144   35.6969   20.2521 H         1 THR         0.0639
     91 H22        12.0563   34.2444   19.7135 H         1 THR         0.2101
     92 H23        10.8278   35.7106   22.6763 H         1 THR         0.0257
     93 H24        10.3437   33.9846   22.7902 H         1 THR         0.0257
     94 H25         9.1220   35.2346   22.3758 H         1 THR         0.0257
     95 H26         7.7664   32.8439   21.7457 H         1 LYS         0.1883
     96 H27         5.6916   34.6955   20.6329 H         1 LYS         0.0800
     97 H28         4.0356   32.9711   21.1113 H         1 LYS         0.0312
     98 H29         5.3018   31.9083   21.8141 H         1 LYS         0.0312
     99 H30         6.4028   31.8881   19.5437 H         1 LYS         0.0269
    100 H31         4.9463   32.7273   18.9105 H         1 LYS         0.0269
    101 H32         3.5223   30.8978   19.5239 H         1 LYS         0.0317
    102 H33         4.8335   30.1113   20.4666 H         1 LYS         0.0317
    103 H34         4.8577   30.5796   17.4473 H         1 LYS         0.0813
    104 H35         4.4614   29.0265   18.2582 H         1 LYS         0.0813
    105 H36         6.7670   29.1184   17.5714 H         1 LYS         0.1994
    106 H37         6.6740   29.0475   19.2132 H         1 LYS         0.1994
    107 H38         7.0372   30.4707   18.4701 H         1 LYS         0.1994
    108 H39         5.3003   36.2231   22.1066 H         1 ALA         0.1883
    109 H40         5.9852   35.8555   24.8896 H         1 ALA         0.0797
    110 H41         5.1292   38.1842   25.1368 H         1 ALA         0.0277
    111 H42         4.5323   38.1250   23.4437 H         1 ALA         0.0277
    112 H43         6.2937   38.0179   23.7794 H         1 ALA         0.0277
    113 H44         4.7439   35.9344   26.6858 H         1 ALA         0.1883
    114 H45         1.8138   35.9531   26.5557 H         1 ALA         0.0797
    115 H46         1.5692   33.7458   27.6518 H         1 ALA         0.0277
    116 H47         3.3387   33.4714   27.5100 H         1 ALA         0.0277
    117 H48         2.3245   33.5759   26.0310 H         1 ALA         0.0277
    118 H49         0.9737   36.3682   28.6258 H         1 ARG         0.1883
    119 H50         2.9525   37.4846   30.5216 H         1 ARG         0.0800
    120 H51        -0.0738   37.5486   30.7668 H         1 ARG         0.0313
    121 H52         0.7862   38.6192   29.6088 H         1 ARG         0.0313
    122 H53         2.0444   39.6108   31.4702 H         1 ARG         0.0301
    123 H54         1.1653   38.5502   32.6230 H         1 ARG         0.0301
    124 H55         0.1266   40.7560   32.5786 H         1 ARG         0.0689
    125 H56        -0.9854   39.5438   31.8573 H         1 ARG         0.0689
    126 H57        -0.9435   40.7350   29.8860 H         1 ARG         0.2642
    127 H58         2.4559   42.8224   30.6622 H         1 ARG         0.2615
    128 H59         1.9220   41.5577   31.8016 H         1 ARG         0.2615
    129 H60        -0.2689   42.3517   28.4518 H         1 ARG         0.2615
    130 H61         1.2179   43.2781   28.7892 H         1 ARG         0.2615
    131 H62         3.2538   36.7149   32.5961 H         1 M3L         0.1883
    132 H63         1.8613   34.1433   33.2368 H         1 M3L         0.0800
    133 H64         4.3284   35.2150   34.6513 H         1 M3L         0.0312
    134 H65         4.4573   34.3260   33.0958 H         1 M3L         0.0312
    135 H66         3.4587   32.3546   34.0535 H         1 M3L         0.0269
    136 H67         3.0405   33.2326   35.5638 H         1 M3L         0.0269
    137 H68         4.9774   31.7321   35.8661 H         1 M3L         0.0317
    138 H69         5.4137   33.4556   36.1227 H         1 M3L         0.0317
    139 H70         6.6444   33.5781   34.1423 H         1 M3L         0.0815
    140 H71         5.7911   32.1807   33.4035 H         1 M3L         0.0815
    141 H72         8.9211   30.5352   33.9862 H         1 M3L         0.0778
    142 H73         8.5653   32.0778   33.1374 H         1 M3L         0.0778
    143 H74         7.4711   30.6678   32.9344 H         1 M3L         0.0778
    144 H75         6.3135   30.6468   36.3807 H         1 M3L         0.0778
    145 H76         7.8202   29.8554   35.8062 H         1 M3L         0.0778
    146 H77         6.3291   29.7802   34.8074 H         1 M3L         0.0778
    147 H78         8.5468   33.3436   35.2507 H         1 M3L         0.0778
    148 H79         9.1141   31.7862   35.9432 H         1 M3L         0.0778
    149 H80         7.7013   32.6286   36.6651 H         1 M3L         0.0778
    150 H81         0.1914   34.4408   34.5455 H         1 SER         0.1885
    151 H82        -0.1342   36.8118   36.1692 H         1 SER         0.0840
    152 H83        -2.0521   35.7363   35.0831 H         1 SER         0.0607
    153 H84        -2.2636   35.7425   36.8669 H         1 SER         0.0607
    154 H85        -2.7606   33.7029   35.9107 H         1 SER         0.2097
    155 H86         0.1370   36.1159   39.2449 H         1 SER         0.2540
@<TRIPOS>BOND
     1    2    1 1  
     2    2    5 1  
     3    3    2 1  
     4    3    4 2  
     5    5    6 1  
     6    6    7 1  
     7    6    8 1  
     8   10    9 1  
     9   10   13 1  
    10   11   10 1  
    11   11   12 2  
    12    9    3 am 
    13   15   14 1  
    14   15   18 1  
    15   16   15 1  
    16   16   17 2  
    17   18   20 1  
    18   18   19 1  
    19   14   11 am 
    20   22   21 1  
    21   22   25 1  
    22   23   22 1  
    23   23   24 2  
    24   25   26 1  
    25   26   27 1  
    26   27   28 1  
    27   28   29 1  
    28   21   16 am 
    29   31   30 1  
    30   31   34 1  
    31   32   31 1  
    32   32   33 2  
    33   30   23 am 
    34   36   35 1  
    35   36   39 1  
    36   37   36 1  
    37   37   38 2  
    38   35   32 am 
    39   41   40 1  
    40   41   44 1  
    41   42   41 1  
    42   42   43 2  
    43   44   45 1  
    44   45   46 1  
    45   46   47 1  
    46   47   48 ar 
    47   48   50 ar 
    48   48   49 ar 
    49   40   37 am 
    50   63   64 1  
    51   64   67 1  
    52   64   65 1  
    53   65   66 2  
    54   67   68 1  
    55   52   51 1  
    56   52   53 1  
    57   58   52 1  
    58   53   54 1  
    59   54   55 1  
    60   55   56 1  
    61   56   57 1  
    62   57   60 1  
    63   57   61 1  
    64   57   62 1  
    65   58   59 2  
    66   51   42 am 
    67   58   63 am 
    68   65   69 1  
    69    1   70 1  
    70    1   71 1  
    71    1   72 1  
    72    2   73 1  
    73    5   74 1  
    74    5   75 1  
    75    6   76 1  
    76    7   77 1  
    77    7   78 1  
    78    7   79 1  
    79    8   80 1  
    80    8   81 1  
    81    8   82 1  
    82    9   83 1  
    83   10   84 1  
    84   13   85 1  
    85   13   86 1  
    86   13   87 1  
    87   14   88 1  
    88   15   89 1  
    89   18   90 1  
    90   19   91 1  
    91   20   92 1  
    92   20   93 1  
    93   20   94 1  
    94   21   95 1  
    95   22   96 1  
    96   25   97 1  
    97   25   98 1  
    98   26   99 1  
    99   26  100 1  
   100   27  101 1  
   101   27  102 1  
   102   28  103 1  
   103   28  104 1  
   104   29  105 1  
   105   29  106 1  
   106   29  107 1  
   107   30  108 1  
   108   31  109 1  
   109   34  110 1  
   110   34  111 1  
   111   34  112 1  
   112   35  113 1  
   113   36  114 1  
   114   39  115 1  
   115   39  116 1  
   116   39  117 1  
   117   40  118 1  
   118   41  119 1  
   119   44  120 1  
   120   44  121 1  
   121   45  122 1  
   122   45  123 1  
   123   46  124 1  
   124   46  125 1  
   125   47  126 1  
   126   49  127 1  
   127   49  128 1  
   128   50  129 1  
   129   50  130 1  
   130   51  131 1  
   131   52  132 1  
   132   53  133 1  
   133   53  134 1  
   134   54  135 1  
   135   54  136 1  
   136   55  137 1  
   137   55  138 1  
   138   56  139 1  
   139   56  140 1  
   140   60  141 1  
   141   60  142 1  
   142   60  143 1  
   143   61  144 1  
   144   61  145 1  
   145   61  146 1  
   146   62  147 1  
   147   62  148 1  
   148   62  149 1  
   149   63  150 1  
   150   64  151 1  
   151   67  152 1  
   152   67  153 1  
   153   68  154 1  
   154   69  155 1  
@<TRIPOS>SUBSTRUCTURE
     1 LEU         1

