2gu8_ligand
  -I-interpret- 

 48 50  0  0  0  0  0  0  0  0999 V2000
   -9.6900   -9.2610    0.6840 O   0  0  0  0  0
  -10.0940   -9.5220    1.8320 C   0  0  0  0  0
   -9.1420   -9.7940    2.9270 C   0  0  0  0  0
   -7.4760   -9.9170    2.3660 S   0  0  0  0  0
   -9.2430  -10.0010    4.2890 C   0  0  0  0  0
   -8.0150  -10.2540    4.9150 C   0  0  0  0  0
   -6.9350  -10.2680    4.0330 C   0  0  0  0  0
   -5.4560  -10.3730    4.2130 C   0  0  0  0  0
   -4.8850  -10.4440    5.4910 C   0  0  0  0  0
   -4.6670  -10.2940    3.1150 N   0  0  0  0  0
   -3.3130  -10.3060    3.2990 C   0  0  0  0  0
   -2.5670  -10.2390    2.2320 N   0  0  0  0  0
   -3.2340   -9.9220    0.9880 C   0  0  0  0  0
   -2.7590  -10.4040    4.5180 N   0  0  0  0  0
   -3.4870  -10.4710    5.6370 C   0  0  0  0  0
  -11.3640   -9.5860    2.2010 N   0  0  0  0  0
  -12.3920   -8.9870    1.3750 C   0  0  0  0  0
  -12.5970   -7.5230    1.7500 C   0  0  0  0  0
  -13.3690   -6.7970    0.7530 N   0  3  0  0  0
  -13.5920   -9.8620    1.6990 C   0  0  0  0  0
  -13.4750  -11.1960    0.9510 C   0  0  0  0  0
  -13.8750  -11.3060   -0.3710 C   0  0  0  0  0
  -13.7900  -12.5400   -1.0330 C   0  0  0  0  0
  -13.3070  -13.6450   -0.3650 C   0  0  0  0  0
  -13.1680  -15.2310   -1.1410 Cl  0  0  0  0  0
  -12.8850  -13.5670    0.9220 C   0  0  0  0  0
  -12.9660  -12.3430    1.5530 C   0  0  0  0  0
  -12.4060  -12.3460    3.2400 Cl  0  0  0  0  0
  -10.1904   -9.9704    4.8272 H   0  0  0  0  0
   -7.9139  -10.4234    5.9870 H   0  0  0  0  0
   -5.5253  -10.4783    6.3724 H   0  0  0  0  0
   -1.5610  -10.4023    2.2723 H   0  0  0  0  0
   -3.9852  -10.6828    0.7759 H   0  0  0  0  0
   -3.7156   -8.9479    1.0734 H   0  0  0  0  0
   -2.5020   -9.8974    0.1807 H   0  0  0  0  0
   -3.0180  -10.5433    6.6183 H   0  0  0  0  0
  -11.6189  -10.0580    3.0686 H   0  0  0  0  0
  -12.1701   -8.9567    0.3083 H   0  0  0  0  0
  -11.6160   -7.0536    1.8239 H   0  0  0  0  0
  -13.1461   -7.4899    2.6910 H   0  0  0  0  0
  -13.4778   -5.8270    1.0491 H   0  0  0  0  0
  -12.8807   -6.8278   -0.1420 H   0  0  0  0  0
  -14.2878   -7.2291    0.6554 H   0  0  0  0  0
  -14.5048   -9.3529    1.3898 H   0  0  0  0  0
  -13.6228  -10.0506    2.7721 H   0  0  0  0  0
  -14.2567  -10.4315   -0.8980 H   0  0  0  0  0
  -14.1051  -12.6249   -2.0730 H   0  0  0  0  0
  -12.4947  -14.4428    1.4404 H   0  0  0  0  0
  1  2  2  0  0  0
  2  3  1  0  0  0
  2 16  1  0  0  0
  3  4  4  0  0  0
  3  5  4  0  0  0
  4  7  4  0  0  0
  5  6  4  0  0  0
  6  7  4  0  0  0
  7  8  1  0  0  0
  8  9  4  0  0  0
  8 10  4  0  0  0
  9 15  4  0  0  0
 10 11  4  0  0  0
 11 12  1  0  0  0
 11 14  4  0  0  0
 12 13  1  0  0  0
 14 15  4  0  0  0
 16 17  1  0  0  0
 17 18  1  0  0  0
 17 20  1  0  0  0
 18 19  1  0  0  0
 20 21  1  0  0  0
 21 22  4  0  0  0
 21 27  4  0  0  0
 22 23  4  0  0  0
 23 24  4  0  0  0
 24 25  1  0  0  0
 24 26  4  0  0  0
 26 27  4  0  0  0
 27 28  1  0  0  0
  5 29  1  0  0  0
  6 30  1  0  0  0
  9 31  1  0  0  0
 12 32  1  0  0  0
 13 33  1  0  0  0
 13 34  1  0  0  0
 13 35  1  0  0  0
 15 36  1  0  0  0
 16 37  1  0  0  0
 17 38  1  0  0  0
 18 39  1  0  0  0
 18 40  1  0  0  0
 19 41  1  0  0  0
 19 42  1  0  0  0
 19 43  1  0  0  0
 20 44  1  0  0  0
 20 45  1  0  0  0
 22 46  1  0  0  0
 23 47  1  0  0  0
 26 48  1  0  0  0
M  END
$$$$
