2qiq_ligand
  -I-interpret- 

 99 99  0  0  0  0  0  0  0  0999 V2000
   18.5550  -32.9900   21.6270 O   0  0  0  0  0
   19.2210  -32.9880   20.5980 C   0  0  0  0  0
   20.2040  -31.9160   20.3990 O   0  0  0  0  0
   21.5380  -31.9020   20.9580 C   0  0  0  0  0
   22.2930  -30.7170   20.3570 C   0  0  0  0  0
   21.4720  -31.7160   22.4770 C   0  0  0  0  0
   22.2980  -33.1850   20.6050 C   0  0  0  0  0
   19.0770  -33.9100   19.6380 N   0  0  0  0  0
   18.1370  -35.0250   19.7280 C   0  0  0  0  0
   17.8800  -35.4860   18.2910 C   0  0  0  0  0
   19.0710  -36.0030   17.6730 O   0  0  0  0  0
   18.6780  -36.1640   20.5560 C   0  0  0  0  0
   19.8470  -36.5310   20.4560 O   0  0  0  0  0
   17.7910  -36.7150   21.3880 N   0  0  0  0  0
   18.0960  -37.8280   22.2820 C   0  0  0  0  0
   17.7140  -37.3400   23.6930 C   0  0  0  0  0
   17.6110  -38.4600   24.7250 C   0  0  0  0  0
   18.6990  -36.2860   24.2000 C   0  0  0  0  0
   17.3540  -39.0570   21.8210 C   0  0  0  0  0
   16.1320  -39.0630   21.8200 O   0  0  0  0  0
   18.1480  -40.2640   21.3450 C   0  0  0  0  0
   17.3370  -41.5680   21.3190 C   0  0  0  0  0
   18.2420  -42.7650   21.0270 C   0  0  0  0  0
   19.0970  -42.5740   19.7880 C   0  0  0  0  0
   20.2090  -43.3070   19.5460 C   0  0  0  0  0
   21.0060  -43.0590   18.3010 C   0  0  0  0  0
   20.6990  -44.3810   20.4850 C   0  0  0  0  0
   16.6400  -41.7690   22.6430 C   0  0  0  0  0
   17.2210  -41.5070   23.6910 O   0  0  0  0  0
   15.3830  -42.2300   22.6310 N   0  0  0  0  0
   14.6700  -42.4200   23.9000 C   0  0  0  0  0
   14.4150  -43.9070   24.1280 C   0  0  0  0  0
   15.6640  -44.7910   24.1350 C   0  0  0  0  0
   15.3520  -46.1180   24.7990 C   0  0  0  0  0
   16.4340  -47.0280   25.1740 O   0  0  0  0  0
   17.1900  -46.8370   26.3780 C   0  0  0  0  0
   16.3140  -46.9610   27.6120 C   0  0  0  0  0
   14.1970  -46.4520   25.0390 O   0  0  0  0  0
   13.4090  -41.5740   23.7740 C   0  0  0  0  0
   13.2750  -40.2770   24.7040 C   0  0  0  0  0
   13.2600  -40.3100   26.2340 C   0  0  0  0  0
   12.7780  -38.8660   26.6040 C   0  0  0  0  0
   11.8830  -38.5380   25.5150 N   0  0  0  0  0
   12.0490  -39.3830   24.5700 C   0  0  0  0  0
   11.3090  -39.4520   23.6110 O   0  0  0  0  0
   23.3005  -30.6817   20.7716 H   0  0  0  0  0
   22.3480  -30.8340   19.2747 H   0  0  0  0  0
   21.7671  -29.7930   20.5976 H   0  0  0  0  0
   20.9574  -32.5666   22.9239 H   0  0  0  0  0
   22.4834  -31.6500   22.8780 H   0  0  0  0  0
   20.9284  -30.7995   22.7063 H   0  0  0  0  0
   23.3126  -33.1247   20.9987 H   0  0  0  0  0
   21.7866  -34.0413   21.0446 H   0  0  0  0  0
   22.3335  -33.2983   19.5215 H   0  0  0  0  0
   19.6534  -33.8299   18.8003 H   0  0  0  0  0
   17.2211  -34.7032   20.2237 H   0  0  0  0  0
   17.5396  -34.6274   17.7122 H   0  0  0  0  0
   17.1346  -36.2809   18.3151 H   0  0  0  0  0
   18.8701  -36.2808   16.7763 H   0  0  0  0  0
   16.8442  -36.3358   21.3997 H   0  0  0  0  0
   19.1461  -38.1202   22.2848 H   0  0  0  0  0
   16.7207  -36.9050   23.5821 H   0  0  0  0  0
   16.8485  -39.1728   24.4109 H   0  0  0  0  0
   18.5725  -38.9669   24.8064 H   0  0  0  0  0
   17.3386  -38.0373   25.6921 H   0  0  0  0  0
   19.7001  -36.7153   24.2394 H   0  0  0  0  0
   18.6950  -35.4315   23.5233 H   0  0  0  0  0
   18.4015  -35.9625   25.1975 H   0  0  0  0  0
   18.9720  -40.4074   22.0440 H   0  0  0  0  0
   18.4686  -40.0600   20.3234 H   0  0  0  0  0
   16.5937  -41.4923   20.5254 H   0  0  0  0  0
   17.6024  -43.6314   20.8586 H   0  0  0  0  0
   18.9127  -42.8892   21.8772 H   0  0  0  0  0
   18.8036  -41.8150   19.0627 H   0  0  0  0  0
   20.3769  -43.2321   17.4279 H   0  0  0  0  0
   21.3597  -42.0280   18.2969 H   0  0  0  0  0
   21.8590  -43.7372   18.2760 H   0  0  0  0  0
   20.9136  -43.9404   21.4586 H   0  0  0  0  0
   19.9302  -45.1462   20.5925 H   0  0  0  0  0
   21.6060  -44.8298   20.0800 H   0  0  0  0  0
   14.9241  -42.4476   21.7464 H   0  0  0  0  0
   15.2306  -42.1007   24.7786 H   0  0  0  0  0
   13.7957  -44.2483   23.2985 H   0  0  0  0  0
   13.9624  -43.9983   25.1154 H   0  0  0  0  0
   16.4571  -44.2890   24.6891 H   0  0  0  0  0
   15.9848  -44.9688   23.1086 H   0  0  0  0  0
   17.6204  -45.8357   26.3598 H   0  0  0  0  0
   17.9629  -47.6041   26.4253 H   0  0  0  0  0
   15.5276  -46.2072   27.5750 H   0  0  0  0  0
   15.8660  -47.9543   27.6396 H   0  0  0  0  0
   16.9218  -46.8102   28.5041 H   0  0  0  0  0
   12.5910  -42.2293   24.0734 H   0  0  0  0  0
   13.4161  -41.1963   22.7516 H   0  0  0  0  0
   14.2248  -39.9593   24.2738 H   0  0  0  0  0
   14.2305  -40.5578   26.6638 H   0  0  0  0  0
   12.6141  -41.0904   26.6365 H   0  0  0  0  0
   13.5999  -38.1574   26.7058 H   0  0  0  0  0
   12.2948  -38.8170   27.5798 H   0  0  0  0  0
   11.2256  -37.7582   25.5033 H   0  0  0  0  0
  1  2  2  0  0  0
  2  3  1  0  0  0
  2  8  1  0  0  0
  3  4  1  0  0  0
  4  5  1  0  0  0
  4  6  1  0  0  0
  4  7  1  0  0  0
  8  9  1  0  0  0
  9 10  1  0  0  0
  9 12  1  0  0  0
 10 11  1  0  0  0
 12 13  2  0  0  0
 12 14  1  0  0  0
 14 15  1  0  0  0
 15 16  1  0  0  0
 15 19  1  0  0  0
 16 17  1  0  0  0
 16 18  1  0  0  0
 19 20  2  0  0  0
 19 21  1  0  0  0
 21 22  1  0  0  0
 22 23  1  0  0  0
 22 28  1  0  0  0
 23 24  1  0  0  0
 24 25  2  0  0  0
 25 26  1  0  0  0
 25 27  1  0  0  0
 28 29  2  0  0  0
 28 30  1  0  0  0
 30 31  1  0  0  0
 31 32  1  0  0  0
 31 39  1  0  0  0
 32 33  1  0  0  0
 33 34  1  0  0  0
 34 35  1  0  0  0
 34 38  2  0  0  0
 35 36  1  0  0  0
 36 37  1  0  0  0
 39 40  1  0  0  0
 40 41  1  0  0  0
 40 44  1  0  0  0
 41 42  1  0  0  0
 42 43  1  0  0  0
 43 44  1  0  0  0
 44 45  2  0  0  0
  5 46  1  0  0  0
  5 47  1  0  0  0
  5 48  1  0  0  0
  6 49  1  0  0  0
  6 50  1  0  0  0
  6 51  1  0  0  0
  7 52  1  0  0  0
  7 53  1  0  0  0
  7 54  1  0  0  0
  8 55  1  0  0  0
  9 56  1  0  0  0
 10 57  1  0  0  0
 10 58  1  0  0  0
 11 59  1  0  0  0
 14 60  1  0  0  0
 15 61  1  0  0  0
 16 62  1  0  0  0
 17 63  1  0  0  0
 17 64  1  0  0  0
 17 65  1  0  0  0
 18 66  1  0  0  0
 18 67  1  0  0  0
 18 68  1  0  0  0
 21 69  1  0  0  0
 21 70  1  0  0  0
 22 71  1  0  0  0
 23 72  1  0  0  0
 23 73  1  0  0  0
 24 74  1  0  0  0
 26 75  1  0  0  0
 26 76  1  0  0  0
 26 77  1  0  0  0
 27 78  1  0  0  0
 27 79  1  0  0  0
 27 80  1  0  0  0
 30 81  1  0  0  0
 31 82  1  0  0  0
 32 83  1  0  0  0
 32 84  1  0  0  0
 33 85  1  0  0  0
 33 86  1  0  0  0
 36 87  1  0  0  0
 36 88  1  0  0  0
 37 89  1  0  0  0
 37 90  1  0  0  0
 37 91  1  0  0  0
 39 92  1  0  0  0
 39 93  1  0  0  0
 40 94  1  0  0  0
 41 95  1  0  0  0
 41 96  1  0  0  0
 42 97  1  0  0  0
 42 98  1  0  0  0
 43 99  1  0  0  0
M  END
$$$$
