### 
### Created by X-TOOL on Mon Sep 10 21:12:55 2018
### 

@<TRIPOS>MOLECULE
2pu0_ligand
   13    12     1     0     0
SMALL
GAST_HUCK


@<TRIPOS>ATOM
      1 C1         11.8400   28.9600   36.5570 C.3       1 PAH         0.1101
      2 C2         13.3670   28.9830   36.6590 C.2       1 PAH         0.2153
      3 N3         13.9040   29.8530   35.8440 N.am      1 PAH        -0.1631
      4 O3         15.2630   29.9750   35.8400 O.3       1 PAH        -0.2717
      5 O2         14.0730   28.2610   37.3980 O.2       1 PAH        -0.3954
      6 O1P        10.4050   31.0110   37.5640 O.co2     1 PAH        -0.5606
      7 O2P        11.9900   29.6360   39.0320 O.co2     1 PAH        -0.5606
      8 O3P         9.7870   28.6860   38.1700 O.co2     1 PAH        -0.5606
      9 P          10.9150   29.6630   37.9630 P.3       1 PAH         0.0776
     10 H1         11.5291   27.9109   36.4446 H         1 PAH         0.0691
     11 H2         11.5574   29.5247   35.6563 H         1 PAH         0.0691
     12 H3         13.3353   30.4127   35.2412 H         1 PAH         0.2217
     13 H4         15.6539   29.1419   35.6044 H         1 PAH         0.2490
@<TRIPOS>BOND
     1    1    2 1  
     2    1    9 1  
     3    2    3 am 
     4    2    5 2  
     5    3    4 1  
     6    9    6 ar 
     7    9    7 ar 
     8    9    8 ar 
     9    1   10 1  
    10    1   11 1  
    11    3   12 1  
    12    4   13 1  
@<TRIPOS>SUBSTRUCTURE
     1 PAH         1

