2pu0_ligand
  -I-interpret- 

 15 14  0  0  0  0  0  0  0  0999 V2000
   11.8400   28.9600   36.5570 C   0  0  0  0  0
   13.3670   28.9830   36.6590 C   0  0  0  0  0
   13.9040   29.8530   35.8440 N   0  0  0  0  0
   15.2630   29.9750   35.8400 O   0  0  0  0  0
   14.0730   28.2610   37.3980 O   0  0  0  0  0
   10.4050   31.0110   37.5640 O   0  0  0  0  0
   11.9900   29.6360   39.0320 O   0  0  0  0  0
    9.7870   28.6860   38.1700 O   0  0  0  0  0
   10.9150   29.6630   37.9630 P   0  0  0  0  0
   11.5580   27.9083   36.5077 H   0  0  0  0  0
   11.5873   29.5752   35.6934 H   0  0  0  0  0
   13.3239   30.4239   35.2291 H   0  0  0  0  0
   15.5213   30.6431   35.2009 H   0  0  0  0  0
   12.2412   28.7265   39.2087 H   0  0  0  0  0
   10.1466   27.8330   38.4245 H   0  0  0  0  0
  1  2  1  0  0  0
  1  9  1  0  0  0
  2  3  1  0  0  0
  2  5  2  0  0  0
  3  4  1  0  0  0
  9  6  2  0  0  0
  9  7  1  0  0  0
  9  8  1  0  0  0
  1 10  1  0  0  0
  1 11  1  0  0  0
  3 12  1  0  0  0
  4 13  1  0  0  0
  7 14  1  0  0  0
  8 15  1  0  0  0
M  END
$$$$
