6cq1_ligand
  -I-interpret- 

 79 83  0  0  0  0  0  0  0  0999 V2000
   -9.8910    3.7290   -1.9030 N   0  0  0  0  0
   -8.7890    4.4200   -1.1970 C   0  0  0  0  0
   -9.3610    5.3490   -0.1150 C   0  0  0  0  0
  -10.5560    5.6450   -0.0990 O   0  0  0  0  0
   -8.5400    8.1530    1.4680 C   0  0  0  0  0
   -8.0620    6.3510    3.1330 C   0  0  0  0  0
  -15.9060    6.7360   -6.4690 C   0  0  0  0  0
  -18.8590   -1.3630   -1.5460 C   0  0  0  0  0
  -19.0470   -1.0830   -0.2000 C   0  0  0  0  0
  -12.6650    0.9410   -0.9440 C   0  0  0  0  0
  -17.9310   -0.6080   -2.2510 C   0  0  0  0  0
  -18.2940   -0.0650    0.3710 C   0  0  0  0  0
  -12.5230    1.5450   -2.1850 C   0  0  0  0  0
  -15.9080    1.9960   -1.1340 C   0  0  0  0  0
  -10.8260    2.2560   -0.1850 C   0  0  0  0  0
  -10.2010    3.9480   -3.1800 C   0  0  0  0  0
  -15.4440    1.5210    2.2270 C   0  0  0  0  0
  -16.4570    2.2780    1.3410 C   0  0  0  0  0
  -14.5870    5.7480   -4.7050 C   0  0  0  0  0
  -13.9970    5.3570   -6.9970 C   0  0  0  0  0
  -13.7690    4.5350   -4.2870 C   0  0  0  0  0
  -13.1670    4.1480   -6.5800 C   0  0  0  0  0
  -11.9220    3.0770   -4.8340 C   0  0  0  0  0
  -13.0710    0.7820    2.0060 C   0  0  0  0  0
  -11.8140    1.3140    0.0900 C   0  0  0  0  0
  -16.5920    1.6290   -0.0510 C   0  0  0  0  0
  -11.2340    3.1660   -3.4590 C   0  0  0  0  0
  -17.2350    0.3610   -1.6560 C   0  0  0  0  0
  -17.4170    0.6290   -0.3580 C   0  0  0  0  0
  -11.5670    2.4520   -2.3850 C   0  0  0  0  0
  -10.7290    2.8090   -1.4020 C   0  0  0  0  0
   -8.8520    6.7110    1.8700 C   0  0  0  0  0
  -14.1470    1.4420    1.5350 N   0  0  0  0  0
  -11.9120    0.7380    1.3040 N   0  0  0  0  0
   -8.4690    5.8040    0.7760 N   0  0  0  0  0
  -16.3100    1.2040   -2.1270 N   0  0  0  0  0
  -15.1180    5.5600   -6.0660 N   0  3  0  0  0
  -12.6430    4.3080   -5.2100 N   0  3  0  0  0
  -13.1470    0.0170    3.5200 S   0  0  0  0  0
   -8.2186    5.0114   -1.9133 H   0  0  0  0  0
   -8.1420    3.6785   -0.7283 H   0  0  0  0  0
   -7.4725    8.2509    1.2704 H   0  0  0  0  0
   -9.1020    8.4081    0.5696 H   0  0  0  0  0
   -8.8238    8.8243    2.2785 H   0  0  0  0  0
   -8.2843    5.3227    3.4183 H   0  0  0  0  0
   -6.9951    6.4516    2.9337 H   0  0  0  0  0
   -8.3468    7.0235    3.9421 H   0  0  0  0  0
  -16.7365    6.8702   -5.7759 H   0  0  0  0  0
  -15.2701    7.6211   -6.4518 H   0  0  0  0  0
  -16.2929    6.5846   -7.4767 H   0  0  0  0  0
  -19.4249   -2.1547   -2.0370 H   0  0  0  0  0
  -19.7665   -1.6470    0.3935 H   0  0  0  0  0
  -13.4330    0.1847   -0.7821 H   0  0  0  0  0
  -17.7687   -0.8112   -3.3095 H   0  0  0  0  0
  -18.4208    0.1702    1.4277 H   0  0  0  0  0
  -13.1958    1.2768   -2.9995 H   0  0  0  0  0
  -15.1639    2.7901   -1.1956 H   0  0  0  0  0
  -10.1246    2.5465    0.5972 H   0  0  0  0  0
   -9.7022    4.6362   -3.8624 H   0  0  0  0  0
  -15.8134    0.5140    2.4211 H   0  0  0  0  0
  -15.3198    2.0521    3.1707 H   0  0  0  0  0
  -16.1029    3.3006    1.2107 H   0  0  0  0  0
  -17.4307    2.2486    1.8300 H   0  0  0  0  0
  -13.9481    6.6310   -4.6904 H   0  0  0  0  0
  -15.4189    5.8730   -4.0119 H   0  0  0  0  0
  -14.3947    5.1850   -7.9972 H   0  0  0  0  0
  -13.3622    6.2430   -6.9847 H   0  0  0  0  0
  -14.4150    3.6572   -4.3036 H   0  0  0  0  0
  -13.3700    4.7118   -3.2882 H   0  0  0  0  0
  -12.3252    4.0505   -7.2655 H   0  0  0  0  0
  -13.8025    3.2629   -6.6084 H   0  0  0  0  0
  -12.6535    2.2705   -4.7835 H   0  0  0  0  0
  -11.1447    2.9110   -5.5799 H   0  0  0  0  0
   -9.9191    6.6110    2.0684 H   0  0  0  0  0
  -14.0569    1.9193    0.6381 H   0  0  0  0  0
  -11.1021    0.2617    1.7009 H   0  0  0  0  0
   -7.4950    5.5128    0.6933 H   0  0  0  0  0
  -15.7269    4.7419   -6.0840 H   0  0  0  0  0
  -12.0068    5.1038   -5.1623 H   0  0  0  0  0
  2  1  1  0  0  0
  1 16  4  0  0  0
  1 31  4  0  0  0
  3  2  1  0  0  0
  3  4  2  0  0  0
 35  3  1  0  0  0
 32  5  1  0  0  0
 32  6  1  0  0  0
 37  7  1  0  0  0
  9  8  4  0  0  0
 11  8  4  0  0  0
 12  9  4  0  0  0
 13 10  4  0  0  0
 25 10  4  0  0  0
 28 11  4  0  0  0
 29 12  4  0  0  0
 30 13  4  0  0  0
 26 14  4  0  0  0
 14 36  4  0  0  0
 15 25  4  0  0  0
 31 15  4  0  0  0
 16 27  4  0  0  0
 17 18  1  0  0  0
 33 17  1  0  0  0
 18 26  1  0  0  0
 21 19  1  0  0  0
 19 37  1  0  0  0
 22 20  1  0  0  0
 20 37  1  0  0  0
 38 21  1  0  0  0
 38 22  1  0  0  0
 27 23  1  0  0  0
 23 38  1  0  0  0
 24 33  1  0  0  0
 34 24  1  0  0  0
 24 39  2  0  0  0
 25 34  1  0  0  0
 26 29  4  0  0  0
 30 27  4  0  0  0
 29 28  4  0  0  0
 28 36  4  0  0  0
 31 30  4  0  0  0
 32 35  1  0  0  0
  2 40  1  0  0  0
  2 41  1  0  0  0
  5 42  1  0  0  0
  5 43  1  0  0  0
  5 44  1  0  0  0
  6 45  1  0  0  0
  6 46  1  0  0  0
  6 47  1  0  0  0
  7 48  1  0  0  0
  7 49  1  0  0  0
  7 50  1  0  0  0
  8 51  1  0  0  0
  9 52  1  0  0  0
 10 53  1  0  0  0
 11 54  1  0  0  0
 12 55  1  0  0  0
 13 56  1  0  0  0
 14 57  1  0  0  0
 15 58  1  0  0  0
 16 59  1  0  0  0
 17 60  1  0  0  0
 17 61  1  0  0  0
 18 62  1  0  0  0
 18 63  1  0  0  0
 19 64  1  0  0  0
 19 65  1  0  0  0
 20 66  1  0  0  0
 20 67  1  0  0  0
 21 68  1  0  0  0
 21 69  1  0  0  0
 22 70  1  0  0  0
 22 71  1  0  0  0
 23 72  1  0  0  0
 23 73  1  0  0  0
 32 74  1  0  0  0
 33 75  1  0  0  0
 34 76  1  0  0  0
 35 77  1  0  0  0
 37 78  1  0  0  0
 38 79  1  0  0  0
M  END
$$$$
