2jdh_ligand
  -I-interpret- 

 59 61  0  0  0  0  0  0  0  0999 V2000
   38.7450    4.4860   -3.5560 C   0  0  0  0  0
   37.4100    4.2790   -2.8990 C   0  0  0  0  0
   36.6280    3.2760   -3.6900 C   0  0  0  0  0
   37.3660    1.9660   -3.8950 C   0  0  0  0  0
   38.7360    2.2880   -4.4980 C   0  0  0  0  0
   39.6110    1.0420   -4.6510 C   0  0  0  0  0
   36.6290    5.4880   -2.7860 O   0  0  0  0  0
   35.3910    2.9920   -2.9610 O   0  0  0  0  0
   37.4950    1.3610   -2.5840 O   0  0  0  0  0
   39.4710    3.2300   -3.6940 O   0  0  0  0  0
   40.8670    7.4180   -7.3530 C   0  0  0  0  0
   41.2910    5.9730   -7.2430 C   0  0  0  0  0
   40.1520    5.1360   -6.6460 C   0  0  0  0  0
   39.7520    5.7730   -5.3130 C   0  0  0  0  0
   39.3440    7.2250   -5.5270 C   0  0  0  0  0
   38.9250    7.9460   -4.2860 C   0  0  0  0  0
   42.8850    5.1840   -8.9210 C   0  0  0  0  0
   43.0890    4.7770  -10.3640 C   0  0  0  0  0
   41.6190    5.4620   -8.5700 N   0  0  0  0  0
   40.7160    3.8300   -6.4180 O   0  0  0  0  0
   38.5680    5.1130   -4.8330 O   0  0  0  0  0
   40.4790    7.9520   -6.0890 O   0  0  0  0  0
   39.8340    7.7690   -3.3160 O   0  0  0  0  0
   43.8530    5.2200   -8.1280 O   0  0  0  0  0
   43.0380    9.6960   -8.9590 N   0  0  0  0  0
   43.7440    9.4090   -7.8490 C   0  0  0  0  0
   45.0890    9.9600   -7.3990 C   0  0  0  0  0
   45.8110   10.3060   -8.5820 O   0  0  0  0  0
   41.8470    8.2050   -7.8050 N   0  0  0  0  0
   42.9890    8.4760   -7.1280 C   0  0  0  0  0
   41.8270    8.9620   -8.9830 N   0  0  0  0  0
   39.3419    5.1391   -2.9194 H   0  0  0  0  0
   37.6092    3.9301   -1.8857 H   0  0  0  0  0
   36.4474    3.7048   -4.6757 H   0  0  0  0  0
   36.8478    1.2824   -4.5675 H   0  0  0  0  0
   38.5205    2.7140   -5.4779 H   0  0  0  0  0
   40.5469    1.3145   -5.1388 H   0  0  0  0  0
   39.8212    0.6241   -3.6665 H   0  0  0  0  0
   39.0860    0.3030   -5.2563 H   0  0  0  0  0
   37.1207    6.1392   -2.2803 H   0  0  0  0  0
   34.9084    3.8100   -2.8210 H   0  0  0  0  0
   36.6218    1.1713   -2.2330 H   0  0  0  0  0
   40.0309    7.4105   -8.0522 H   0  0  0  0  0
   42.1643    5.9059   -6.5942 H   0  0  0  0  0
   39.2743    5.0805   -7.2899 H   0  0  0  0  0
   40.5941    5.6938   -4.6254 H   0  0  0  0  0
   38.4789    7.1946   -6.1894 H   0  0  0  0  0
   37.9658    7.5510   -3.9514 H   0  0  0  0  0
   38.8399    9.0105   -4.5043 H   0  0  0  0  0
   43.7877    5.4656  -10.8391 H   0  0  0  0  0
   43.4922    3.7650  -10.4012 H   0  0  0  0  0
   42.1335    4.8082  -10.8875 H   0  0  0  0  0
   40.8699    5.3127   -9.2460 H   0  0  0  0  0
   40.0460    3.2546   -6.0416 H   0  0  0  0  0
   39.5527    8.2366   -2.5262 H   0  0  0  0  0
   45.6350    9.2192   -6.8149 H   0  0  0  0  0
   44.9555   10.8315   -6.7580 H   0  0  0  0  0
   46.6700   10.6595   -8.3394 H   0  0  0  0  0
   43.2750    8.0367   -6.1723 H   0  0  0  0  0
  1  2  1  0  0  0
  1 10  1  0  0  0
 21  1  1  0  0  0
  2  3  1  0  0  0
  2  7  1  0  0  0
  3  4  1  0  0  0
  3  8  1  0  0  0
  5  4  1  0  0  0
  4  9  1  0  0  0
  5  6  1  0  0  0
 10  5  1  0  0  0
 11 12  1  0  0  0
 11 22  1  0  0  0
 29 11  1  0  0  0
 12 13  1  0  0  0
 12 19  1  0  0  0
 13 14  1  0  0  0
 13 20  1  0  0  0
 15 14  1  0  0  0
 14 21  1  0  0  0
 15 16  1  0  0  0
 22 15  1  0  0  0
 16 23  1  0  0  0
 17 18  1  0  0  0
 19 17  1  0  0  0
 17 24  2  0  0  0
 26 25  4  0  0  0
 25 31  4  0  0  0
 26 27  1  0  0  0
 30 26  4  0  0  0
 27 28  1  0  0  0
 29 30  4  0  0  0
 29 31  4  0  0  0
  1 32  1  0  0  0
  2 33  1  0  0  0
  3 34  1  0  0  0
  4 35  1  0  0  0
  5 36  1  0  0  0
  6 37  1  0  0  0
  6 38  1  0  0  0
  6 39  1  0  0  0
  7 40  1  0  0  0
  8 41  1  0  0  0
  9 42  1  0  0  0
 11 43  1  0  0  0
 12 44  1  0  0  0
 13 45  1  0  0  0
 14 46  1  0  0  0
 15 47  1  0  0  0
 16 48  1  0  0  0
 16 49  1  0  0  0
 18 50  1  0  0  0
 18 51  1  0  0  0
 18 52  1  0  0  0
 19 53  1  0  0  0
 20 54  1  0  0  0
 23 55  1  0  0  0
 27 56  1  0  0  0
 27 57  1  0  0  0
 28 58  1  0  0  0
 30 59  1  0  0  0
M  END
$$$$
