2zwz_ligand
  -I-interpret- 

 30 30  0  0  0  0  0  0  0  0999 V2000
   -3.1150   26.0590   24.4980 O   0  0  0  0  0
   -1.7520   26.4870   24.5090 C   0  0  0  0  0
   -1.5670   27.6750   23.5630 C   0  0  0  0  0
   -2.0330   27.3480   22.2530 O   0  0  0  0  0
   -0.0770   28.0090   23.5140 C   0  0  0  0  0
    0.5930   26.8790   22.9420 O   0  0  0  0  0
    0.4280   28.3030   24.9310 C   0  0  0  0  0
    1.9310   28.5830   24.9400 C   0  0  0  0  0
    0.1470   27.1820   25.8460 N   0  3  0  0  0
   -1.2940   26.8920   25.9150 C   0  0  0  0  0
   -1.5220   25.7600   26.9200 C   0  0  0  0  0
   -1.5400   26.2820   28.2960 N   0  3  0  0  0
   -3.3652   25.8143   23.6041 H   0  0  0  0  0
   -1.1446   25.6446   24.1782 H   0  0  0  0  0
   -2.1405   28.5295   23.9223 H   0  0  0  0  0
   -2.9693   27.1392   22.2905 H   0  0  0  0  0
    0.1165   28.8946   22.9087 H   0  0  0  0  0
    0.2548   26.7220   22.0574 H   0  0  0  0  0
   -0.1055   29.1894   25.2742 H   0  0  0  0  0
    2.2447   28.8435   25.9508 H   0  0  0  0  0
    2.4670   27.6932   24.6098 H   0  0  0  0  0
    2.1490   29.4112   24.2657 H   0  0  0  0  0
    0.4707   27.4370   26.7790 H   0  0  0  0  0
    0.6277   26.3523   25.4983 H   0  0  0  0  0
   -1.8656   27.7592   26.2456 H   0  0  0  0  0
   -0.7107   25.0379   26.8276 H   0  0  0  0  0
   -2.4823   25.2895   26.7090 H   0  0  0  0  0
   -1.6929   25.5128   28.9482 H   0  0  0  0  0
   -0.6467   26.7300   28.5001 H   0  0  0  0  0
   -2.2929   26.9637   28.3899 H   0  0  0  0  0
  1  2  1  0  0  0
  2  3  1  0  0  0
  2 10  1  0  0  0
  3  4  1  0  0  0
  3  5  1  0  0  0
  5  6  1  0  0  0
  5  7  1  0  0  0
  7  8  1  0  0  0
  7  9  1  0  0  0
  9 10  1  0  0  0
 10 11  1  0  0  0
 11 12  1  0  0  0
  1 13  1  0  0  0
  2 14  1  0  0  0
  3 15  1  0  0  0
  4 16  1  0  0  0
  5 17  1  0  0  0
  6 18  1  0  0  0
  7 19  1  0  0  0
  8 20  1  0  0  0
  8 21  1  0  0  0
  8 22  1  0  0  0
  9 23  1  0  0  0
  9 24  1  0  0  0
 10 25  1  0  0  0
 11 26  1  0  0  0
 11 27  1  0  0  0
 12 28  1  0  0  0
 12 29  1  0  0  0
 12 30  1  0  0  0
M  END
$$$$
