4xg7_ligand
  -I-interpret- 

 52 56  0  0  0  0  0  0  0  0999 V2000
   15.1120   62.7780   13.8330 C   0  0  0  0  0
   13.9680   62.9830   14.5540 C   0  0  0  0  0
   14.0160   63.8590   15.6230 C   0  0  0  0  0
   15.1260   64.4320   15.9310 N   0  0  0  0  0
   16.2060   63.4000   14.2310 N   0  0  0  0  0
   23.4890   65.3980   14.2690 C   0  0  0  0  0
   22.3750   64.6870   13.8980 N   0  0  0  0  0
   22.3720   63.8360   13.0540 N   0  0  0  0  0
   21.1250   63.3810   12.9720 C   0  0  0  0  0
   20.3580   64.0120   13.8210 C   0  0  0  0  0
   19.0260   63.9450   14.1820 C   0  0  0  0  0
   21.2130   64.8670   14.4180 C   0  0  0  0  0
   20.7740   65.7010   15.3870 C   0  0  0  0  0
   19.4640   65.6460   15.7480 C   0  0  0  0  0
   18.5510   64.7840   15.1720 C   0  0  0  0  0
   17.3050   64.8550   15.6310 N   0  0  0  0  0
   16.2240   64.2070   15.2620 C   0  0  0  0  0
   15.1530   61.9010   12.8290 N   0  0  0  0  0
   16.2510   61.4760   12.2590 C   0  0  0  0  0
   14.1790   61.2920   12.4490 N   0  0  0  0  0
   14.5660   60.4630   11.5270 C   0  0  0  0  0
   13.6730   59.5320   10.7410 C   0  0  0  0  0
   15.9180   60.5570   11.3940 C   0  0  0  0  0
   16.8630   59.7700   10.4910 C   0  0  0  0  0
   17.3360   58.6050   11.2300 N   0  3  0  0  0
   18.1360   58.9130   12.3790 C   0  0  0  0  0
   18.4680   57.8850   10.6970 C   0  0  0  0  0
   18.8590   57.6200   12.1190 C   0  0  0  0  0
   20.2310   57.7460   12.2970 O   0  0  0  0  0
   13.0427   62.4694   14.2929 H   0  0  0  0  0
   13.1160   64.0634   16.2030 H   0  0  0  0  0
   24.2491   64.7115   14.6418 H   0  0  0  0  0
   23.8776   65.9385   13.4059 H   0  0  0  0  0
   23.2218   66.1066   15.0529 H   0  0  0  0  0
   20.7911   62.5952   12.2944 H   0  0  0  0  0
   18.3571   63.2380   13.6912 H   0  0  0  0  0
   21.4553   66.4024   15.8686 H   0  0  0  0  0
   19.1161   66.3174   16.5331 H   0  0  0  0  0
   17.1666   65.5197   16.3922 H   0  0  0  0  0
   17.2617   61.8262   12.4686 H   0  0  0  0  0
   13.1656   58.8528   11.4261 H   0  0  0  0  0
   12.9339   60.1163   10.1928 H   0  0  0  0  0
   14.2774   58.9576   10.0389 H   0  0  0  0  0
   17.7065   60.3946   10.1968 H   0  0  0  0  0
   16.3411   59.4539    9.5878 H   0  0  0  0  0
   16.4277   58.1456   11.2964 H   0  0  0  0  0
   17.6890   59.1371   13.3475 H   0  0  0  0  0
   18.6673   59.8601   12.4725 H   0  0  0  0  0
   19.1568   58.3395    9.9850 H   0  0  0  0  0
   18.3495   57.0796    9.9722 H   0  0  0  0  0
   18.6564   56.6915   12.6528 H   0  0  0  0  0
   20.6541   56.9022   12.1222 H   0  0  0  0  0
  1  2  4  0  0  0
  5  1  4  0  0  0
  1 18  1  0  0  0
  3  2  4  0  0  0
  4  3  4  0  0  0
 17  4  4  0  0  0
 17  5  4  0  0  0
  7  6  1  0  0  0
  7  8  4  0  0  0
 12  7  4  0  0  0
  9  8  4  0  0  0
 10  9  4  0  0  0
 11 10  4  0  0  0
 10 12  4  0  0  0
 15 11  4  0  0  0
 13 12  4  0  0  0
 14 13  4  0  0  0
 15 14  4  0  0  0
 16 15  1  0  0  0
 16 17  1  0  0  0
 18 19  4  0  0  0
 18 20  4  0  0  0
 19 23  4  0  0  0
 20 21  4  0  0  0
 21 22  1  0  0  0
 21 23  4  0  0  0
 23 24  1  0  0  0
 24 25  1  0  0  0
 25 26  1  0  0  0
 25 27  1  0  0  0
 26 28  1  0  0  0
 27 28  1  0  0  0
 28 29  1  0  0  0
  2 30  1  0  0  0
  3 31  1  0  0  0
  6 32  1  0  0  0
  6 33  1  0  0  0
  6 34  1  0  0  0
  9 35  1  0  0  0
 11 36  1  0  0  0
 13 37  1  0  0  0
 14 38  1  0  0  0
 16 39  1  0  0  0
 19 40  1  0  0  0
 22 41  1  0  0  0
 22 42  1  0  0  0
 22 43  1  0  0  0
 24 44  1  0  0  0
 24 45  1  0  0  0
 25 46  1  0  0  0
 26 47  1  0  0  0
 26 48  1  0  0  0
 27 49  1  0  0  0
 27 50  1  0  0  0
 28 51  1  0  0  0
 29 52  1  0  0  0
M  END
$$$$
