### 
### Created by X-TOOL on Mon Sep 10 21:13:04 2018
### 

@<TRIPOS>MOLECULE
3lp1_ligand
   32    34     1     0     0
SMALL
GAST_HUCK


@<TRIPOS>ATOM
      1 C          -3.6770   74.2700   34.2670 C.ar      1 LP8         0.2614
      2 N          -4.1660   73.3390   33.4110 N.ar      1 LP8        -0.0757
      3 O          -5.5480   73.2280   33.3130 O.2       1 LP8        -0.1682
      4 C1         -1.4930   73.5220   33.5850 C.ar      1 LP8         0.2239
      5 C2         -2.2800   74.3790   34.3660 C.ar      1 LP8         0.1492
      6 O3         -4.4980   75.0450   34.9750 O.3       1 LP8        -0.2994
      7 C4         -3.4520   72.4910   32.6350 C.ar      1 LP8         0.1932
      8 C5         -2.0610   72.5830   32.7230 C.ar      1 LP8         0.1333
      9 C6         -1.3150   71.7140   31.9250 C.ar      1 LP8         0.0097
     10 C7         -1.9420   70.7980   31.0830 C.ar      1 LP8         0.0041
     11 C8         -3.3340   70.7840   31.0690 C.ar      1 LP8         0.0496
     12 N9         -4.0920   71.6110   31.8270 N.ar      1 LP8        -0.2339
     13 O10        -0.1610   73.5110   33.5810 O.3       1 LP8        -0.2598
     14 C11        -1.7320   75.4160   35.3310 C.3       1 LP8         0.0344
     15 C12        -1.2590   74.8600   36.6780 C.3       1 LP8        -0.0310
     16 C13         0.1470   75.4150   36.9060 C.3       1 LP8        -0.0491
     17 C14         0.1910   76.6900   36.0620 C.3       1 LP8        -0.0491
     18 C15        -0.5960   76.3040   34.8070 C.3       1 LP8        -0.0310
     19 H1         -5.0432   75.5504   34.3835 H         1 LP8         0.2569
     20 H2         -0.2323   71.7524   31.9609 H         1 LP8         0.1055
     21 H3         -1.3670   70.1210   30.4616 H         1 LP8         0.0874
     22 H4         -3.8357   70.0761   30.4192 H         1 LP8         0.1005
     23 H5          0.1618   74.1694   34.1851 H         1 LP8         0.2953
     24 H6         -2.5805   76.0837   35.5414 H         1 LP8         0.0613
     25 H7         -1.2334   73.7607   36.6477 H         1 LP8         0.0310
     26 H8         -1.9327   75.1891   37.4828 H         1 LP8         0.0310
     27 H9          0.9089   74.6973   36.5678 H         1 LP8         0.0268
     28 H10         0.3072   75.6459   37.9695 H         1 LP8         0.0268
     29 H11         1.2269   76.9613   35.8104 H         1 LP8         0.0268
     30 H12        -0.2902   77.5280   36.5874 H         1 LP8         0.0268
     31 H13        -0.9985   77.1984   34.3089 H         1 LP8         0.0310
     32 H14         0.0408   75.7477   34.1034 H         1 LP8         0.0310
@<TRIPOS>BOND
     1    1    2 ar 
     2    1    5 ar 
     3    1    6 1  
     4    2    3 2  
     5    2    7 ar 
     6    5    4 ar 
     7    4    8 ar 
     8    4   13 1  
     9    5   14 1  
    10    7    8 ar 
    11    7   12 ar 
    12    8    9 ar 
    13    9   10 ar 
    14   10   11 ar 
    15   11   12 ar 
    16   14   15 1  
    17   14   18 1  
    18   15   16 1  
    19   16   17 1  
    20   17   18 1  
    21    6   19 1  
    22    9   20 1  
    23   10   21 1  
    24   11   22 1  
    25   13   23 1  
    26   14   24 1  
    27   15   25 1  
    28   15   26 1  
    29   16   27 1  
    30   16   28 1  
    31   17   29 1  
    32   17   30 1  
    33   18   31 1  
    34   18   32 1  
@<TRIPOS>SUBSTRUCTURE
     1 LP8         1

