3lp1_ligand
  -I-interpret- 

 32 34  0  0  0  0  0  0  0  0999 V2000
   -3.6770   74.2700   34.2670 C   0  0  0  0  0
   -4.1660   73.3390   33.4110 N   0  0  0  0  0
   -5.5480   73.2280   33.3130 O   0  0  0  0  0
   -1.4930   73.5220   33.5850 C   0  0  0  0  0
   -2.2800   74.3790   34.3660 C   0  0  0  0  0
   -4.4980   75.0450   34.9750 O   0  0  0  0  0
   -3.4520   72.4910   32.6350 C   0  0  0  0  0
   -2.0610   72.5830   32.7230 C   0  0  0  0  0
   -1.3150   71.7140   31.9250 C   0  0  0  0  0
   -1.9420   70.7980   31.0830 C   0  0  0  0  0
   -3.3340   70.7840   31.0690 C   0  0  0  0  0
   -4.0920   71.6110   31.8270 N   0  0  0  0  0
   -0.1610   73.5110   33.5810 O   0  0  0  0  0
   -1.7320   75.4160   35.3310 C   0  0  0  0  0
   -1.2590   74.8600   36.6780 C   0  0  0  0  0
    0.1470   75.4150   36.9060 C   0  0  0  0  0
    0.1910   76.6900   36.0620 C   0  0  0  0  0
   -0.5960   76.3040   34.8070 C   0  0  0  0  0
   -3.9812   75.6402   35.5230 H   0  0  0  0  0
   -0.2263   71.7526   31.9611 H   0  0  0  0  0
   -1.3638   70.1173   30.4581 H   0  0  0  0  0
   -3.8385   70.0722   30.4156 H   0  0  0  0  0
    0.1505   72.8405   32.9686 H   0  0  0  0  0
   -2.6280   76.0236   35.4582 H   0  0  0  0  0
   -1.2521   73.7701   36.6699 H   0  0  0  0  0
   -1.9319   75.1586   37.4818 H   0  0  0  0  0
    0.9209   74.7041   36.6164 H   0  0  0  0  0
    0.3443   75.6131   37.9595 H   0  0  0  0  0
    1.2080   77.0123   35.8387 H   0  0  0  0  0
   -0.2343   77.5511   36.5775 H   0  0  0  0  0
   -0.9705   77.1770   34.2725 H   0  0  0  0  0
    0.0252   75.7870   34.0756 H   0  0  0  0  0
  1  2  4  0  0  0
  1  5  4  0  0  0
  1  6  1  0  0  0
  2  3  2  0  0  0
  2  7  4  0  0  0
  5  4  4  0  0  0
  4  8  4  0  0  0
  4 13  1  0  0  0
  5 14  1  0  0  0
  7  8  4  0  0  0
  7 12  4  0  0  0
  8  9  4  0  0  0
  9 10  4  0  0  0
 10 11  4  0  0  0
 11 12  4  0  0  0
 14 15  1  0  0  0
 14 18  1  0  0  0
 15 16  1  0  0  0
 16 17  1  0  0  0
 17 18  1  0  0  0
  6 19  1  0  0  0
  9 20  1  0  0  0
 10 21  1  0  0  0
 11 22  1  0  0  0
 13 23  1  0  0  0
 14 24  1  0  0  0
 15 25  1  0  0  0
 15 26  1  0  0  0
 16 27  1  0  0  0
 16 28  1  0  0  0
 17 29  1  0  0  0
 17 30  1  0  0  0
 18 31  1  0  0  0
 18 32  1  0  0  0
M  END
$$$$
