3fx6_ligand
  -I-interpret- 

 34 34  0  0  0  0  0  0  0  0999 V2000
  -24.8900    1.6140   -7.3260 C   0  0  0  0  0
  -25.7470    1.2930   -6.2800 C   0  0  0  0  0
  -25.3490    0.3790   -5.3100 C   0  0  0  0  0
  -24.0930   -0.2120   -5.3890 C   0  0  0  0  0
  -23.2370    0.1100   -6.4360 C   0  0  0  0  0
  -23.6350    1.0220   -7.4080 C   0  0  0  0  0
  -22.6900    1.3570   -8.5650 C   0  0  0  0  0
  -22.9270    0.4470   -9.7740 C   0  0  0  0  0
  -24.2800    0.7450  -10.4250 C   0  0  0  0  0
  -24.7040   -0.0960  -11.2480 O   0  0  0  0  0
  -24.8580    1.8020  -10.0920 O   0  0  0  0  0
  -21.8210    0.6530  -10.8110 C   0  0  0  0  0
  -20.8670   -0.5430  -10.7720 C   0  0  0  0  0
  -20.3730   -0.7370   -9.4440 O   0  0  0  0  0
  -21.5870   -1.7110  -11.1760 O   0  0  0  0  0
  -19.7010   -0.3190  -11.7390 C   0  0  0  0  0
  -20.1800   -0.4050  -13.1260 N   0  0  0  0  0
  -20.2200   -1.6640  -13.7870 O   0  0  0  0  0
  -20.5940    0.7680  -13.8140 O   0  0  0  0  0
  -25.2028    2.3319   -8.0841 H   0  0  0  0  0
  -26.7312    1.7576   -6.2198 H   0  0  0  0  0
  -26.0206    0.1265   -4.4894 H   0  0  0  0  0
  -23.7793   -0.9282   -4.6296 H   0  0  0  0  0
  -22.2520   -0.3531   -6.4954 H   0  0  0  0  0
  -21.6651    1.2129   -8.2232 H   0  0  0  0  0
  -22.8735    2.3872   -8.8702 H   0  0  0  0  0
  -22.9200   -0.5851   -9.4234 H   0  0  0  0  0
  -24.0721   -0.8148  -11.3237 H   0  0  0  0  0
  -21.2720    1.5669  -10.5842 H   0  0  0  0  0
  -22.2616    0.7377  -11.8044 H   0  0  0  0  0
  -19.7764   -1.4890   -9.4324 H   0  0  0  0  0
  -20.9999   -2.4703  -11.1562 H   0  0  0  0  0
  -18.9425   -1.0838  -11.5719 H   0  0  0  0  0
  -19.2743    0.6690  -11.5659 H   0  0  0  0  0
  1  2  4  0  0  0
  1  6  4  0  0  0
  2  3  4  0  0  0
  3  4  4  0  0  0
  4  5  4  0  0  0
  5  6  4  0  0  0
  6  7  1  0  0  0
  7  8  1  0  0  0
  8  9  1  0  0  0
  8 12  1  0  0  0
  9 10  1  0  0  0
  9 11  2  0  0  0
 12 13  1  0  0  0
 13 14  1  0  0  0
 13 15  1  0  0  0
 13 16  1  0  0  0
 16 17  1  0  0  0
 17 18  2  0  0  0
 17 19  2  0  0  0
  1 20  1  0  0  0
  2 21  1  0  0  0
  3 22  1  0  0  0
  4 23  1  0  0  0
  5 24  1  0  0  0
  7 25  1  0  0  0
  7 26  1  0  0  0
  8 27  1  0  0  0
 10 28  1  0  0  0
 12 29  1  0  0  0
 12 30  1  0  0  0
 14 31  1  0  0  0
 15 32  1  0  0  0
 16 33  1  0  0  0
 16 34  1  0  0  0
M  END
$$$$
