6c7w_ligand
  -I-interpret- 

 37 39  0  0  0  0  0  0  0  0999 V2000
   -2.7230    6.3490   13.6850 N   0  0  0  0  0
   -1.8660    5.7570   12.8100 C   0  0  0  0  0
   -0.7820    6.4440   12.5980 N   0  0  0  0  0
   -0.9250    7.5600   13.4110 C   0  0  0  0  0
   -0.1290    8.6680   13.6850 C   0  0  0  0  0
    1.0920    8.8410   13.0810 N   0  0  0  0  0
   -0.5370    9.5710   14.5560 N   0  0  0  0  0
   -1.7240    9.3850   15.1360 C   0  0  0  0  0
   -2.5880    8.3860   14.9790 N   0  0  0  0  0
   -2.1190    7.5100   14.0890 C   0  0  0  0  0
   -5.2670   -0.1970   16.2610 N   0  0  0  0  0
   -5.5440    1.2180   16.8770 S   0  0  0  0  0
   -5.3280    1.2630   18.2760 O   0  0  0  0  0
   -6.7480    1.7370   16.3490 O   0  0  0  0  0
   -4.3330    2.1480   16.3910 O   0  0  0  0  0
   -4.1760    2.3760   14.9810 C   0  0  0  0  0
   -4.7580    3.7160   14.5640 C   0  0  0  0  0
   -3.8630    4.7360   14.9670 O   0  0  0  0  0
   -4.8530    3.8940   13.0790 C   0  0  0  0  0
   -5.9970    3.2370   12.5050 O   0  0  0  0  0
   -4.9630    5.3950   12.9640 C   0  0  0  0  0
   -6.3040    5.8180   13.1910 O   0  0  0  0  0
   -4.0420    5.8540   14.1020 C   0  0  0  0  0
   -2.0684    4.7985   12.3322 H   0  0  0  0  0
    1.4341    8.1486   12.4147 H   0  0  0  0  0
    1.6569    9.6619   13.2987 H   0  0  0  0  0
   -2.0288   10.1614   15.8377 H   0  0  0  0  0
   -4.9646   -0.9642   16.8612 H   0  0  0  0  0
   -5.3893   -0.3503   15.2600 H   0  0  0  0  0
   -4.7042    1.5885   14.4435 H   0  0  0  0  0
   -3.1112    2.3751   14.7481 H   0  0  0  0  0
   -5.7499    3.7605   15.0138 H   0  0  0  0  0
   -4.0125    3.4564   12.5403 H   0  0  0  0  0
   -6.0066    3.3842   11.5564 H   0  0  0  0  0
   -4.6944    5.7937   11.9857 H   0  0  0  0  0
   -6.3543    6.7736   13.1139 H   0  0  0  0  0
   -4.5249    6.7065   14.5796 H   0  0  0  0  0
  1  2  4  0  0  0
  1 10  4  0  0  0
 23  1  1  0  0  0
  2  3  4  0  0  0
  4  3  4  0  0  0
  4  5  4  0  0  0
 10  4  4  0  0  0
  5  6  1  0  0  0
  5  7  4  0  0  0
  8  7  4  0  0  0
  9  8  4  0  0  0
 10  9  4  0  0  0
 12 11  1  0  0  0
 12 13  2  0  0  0
 12 14  2  0  0  0
 15 12  1  0  0  0
 16 15  1  0  0  0
 17 16  1  0  0  0
 18 17  1  0  0  0
 17 19  1  0  0  0
 18 23  1  0  0  0
 19 20  1  0  0  0
 19 21  1  0  0  0
 21 22  1  0  0  0
 21 23  1  0  0  0
  2 24  1  0  0  0
  6 25  1  0  0  0
  6 26  1  0  0  0
  8 27  1  0  0  0
 11 28  1  0  0  0
 11 29  1  0  0  0
 16 30  1  0  0  0
 16 31  1  0  0  0
 17 32  1  0  0  0
 19 33  1  0  0  0
 20 34  1  0  0  0
 21 35  1  0  0  0
 22 36  1  0  0  0
 23 37  1  0  0  0
M  END
$$$$
