5f3i_ligand
  -I-interpret- 

 38 40  0  0  0  0  0  0  0  0999 V2000
    8.5930  -17.1610  -55.7490 O   0  0  0  0  0
    7.6660  -17.1020  -54.9490 C   0  0  0  0  0
    6.9170  -15.8800  -54.6700 C   0  0  0  0  0
    7.1750  -14.7160  -55.3890 C   0  0  0  0  0
    6.4030  -13.6080  -55.1150 C   0  0  0  0  0
    5.4400  -13.5770  -54.1870 N   0  0  0  0  0
    7.2880  -18.1810  -54.2300 N   0  0  0  0  0
    6.2990  -18.1380  -53.3090 C   0  0  0  0  0
    5.6030  -17.0680  -52.9970 N   0  0  0  0  0
    5.9170  -15.9170  -53.6890 C   0  0  0  0  0
    5.2380  -14.6940  -53.4840 C   0  0  0  0  0
    4.3590  -14.5510  -52.3840 N   0  0  0  0  0
    4.1230  -15.4390  -51.3970 C   0  0  0  0  0
    3.6810  -13.3850  -52.1940 N   0  0  0  0  0
    3.0280  -13.5720  -51.0600 C   0  0  0  0  0
    3.2650  -14.8460  -50.5060 C   0  0  0  0  0
    2.7200  -15.4460  -49.2350 C   0  0  0  0  0
    3.3320  -14.8410  -47.9830 C   0  0  0  0  0
    2.6780  -15.2970  -46.7510 N   0  3  0  0  0
    3.3090  -14.7130  -45.5660 C   0  0  0  0  0
    2.7160  -16.7570  -46.6380 C   0  0  0  0  0
    7.9612  -14.6823  -56.1432 H   0  0  0  0  0
    6.5884  -12.7007  -55.6899 H   0  0  0  0  0
    7.7692  -19.0663  -54.3886 H   0  0  0  0  0
    6.0604  -19.0632  -52.7844 H   0  0  0  0  0
    4.5380  -16.4440  -51.3211 H   0  0  0  0  0
    2.3788  -12.8244  -50.6043 H   0  0  0  0  0
    2.9588  -16.5095  -49.2408 H   0  0  0  0  0
    1.6480  -15.2504  -49.2085 H   0  0  0  0  0
    3.2125  -13.7592  -48.0430 H   0  0  0  0  0
    4.3764  -15.1500  -47.9399 H   0  0  0  0  0
    1.7072  -14.9882  -46.8016 H   0  0  0  0  0
    4.3579  -15.0077  -45.5320 H   0  0  0  0  0
    3.2370  -13.6265  -45.6158 H   0  0  0  0  0
    2.8003  -15.0715  -44.6711 H   0  0  0  0  0
    2.1998  -17.1996  -47.4899 H   0  0  0  0  0
    3.7531  -17.0923  -46.6256 H   0  0  0  0  0
    2.2233  -17.0616  -45.7147 H   0  0  0  0  0
  1  2  2  0  0  0
  2  3  1  0  0  0
  2  7  1  0  0  0
  3  4  4  0  0  0
  3 10  4  0  0  0
  4  5  4  0  0  0
  5  6  4  0  0  0
  6 11  4  0  0  0
  7  8  1  0  0  0
  8  9  2  0  0  0
  9 10  1  0  0  0
 10 11  4  0  0  0
 11 12  1  0  0  0
 12 13  4  0  0  0
 12 14  4  0  0  0
 13 16  4  0  0  0
 14 15  4  0  0  0
 15 16  4  0  0  0
 16 17  1  0  0  0
 17 18  1  0  0  0
 18 19  1  0  0  0
 19 20  1  0  0  0
 19 21  1  0  0  0
  4 22  1  0  0  0
  5 23  1  0  0  0
  7 24  1  0  0  0
  8 25  1  0  0  0
 13 26  1  0  0  0
 15 27  1  0  0  0
 17 28  1  0  0  0
 17 29  1  0  0  0
 18 30  1  0  0  0
 18 31  1  0  0  0
 19 32  1  0  0  0
 20 33  1  0  0  0
 20 34  1  0  0  0
 20 35  1  0  0  0
 21 36  1  0  0  0
 21 37  1  0  0  0
 21 38  1  0  0  0
M  END
$$$$
