2ban_ligand
  -I-interpret- 

 52 53  0  0  0  0  0  0  0  0999 V2000
  144.0250  -25.4270   70.8470 C   0  0  0  0  0
  144.9720  -25.0850   71.8610 C   0  0  0  0  0
  144.7620  -25.5750   73.1950 C   0  0  0  0  0
  143.6280  -26.4190   73.4760 C   0  0  0  0  0
  144.1700  -25.0110   69.6430 O   0  0  0  0  0
  143.3770  -26.9830   74.8940 C   0  0  0  0  0
  142.3510  -26.1440   75.6740 C   0  0  0  0  0
  145.2800  -24.1140   75.2780 C   0  0  0  0  0
  145.7880  -25.1930   74.2870 C   0  0  0  0  0
  142.7250  -26.7080   72.3990 C   0  0  0  0  0
  141.4920  -27.5790   72.5940 C   0  0  0  0  0
  142.9620  -26.2170   71.1440 N   0  0  0  0  0
  146.1040  -24.2510   71.5790 N   0  0  0  0  0
  147.1980  -24.8890   70.8460 C   0  0  0  0  0
  145.8580  -22.9620   70.8520 C   0  0  0  0  0
  144.9630  -22.0110   71.6780 C   0  0  0  0  0
  144.7620  -20.8920   71.0080 O   0  0  0  0  0
  144.0650  -19.8170   71.3260 C   0  0  0  0  0
  145.8380  -24.0870   76.5740 C   0  0  0  0  0
  145.4230  -23.1300   77.5330 C   0  0  0  0  0
  144.4290  -22.1790   77.1940 C   0  0  0  0  0
  143.8520  -22.1890   75.8990 C   0  0  0  0  0
  142.7870  -21.1680   75.5380 C   0  0  0  0  0
  144.2730  -23.1510   74.9380 C   0  0  0  0  0
  144.3198  -26.9632   75.4406 H   0  0  0  0  0
  142.9845  -27.9949   74.7939 H   0  0  0  0  0
  142.7189  -25.1228   75.7732 H   0  0  0  0  0
  141.4031  -26.1394   75.1360 H   0  0  0  0  0
  142.2064  -26.5773   76.6637 H   0  0  0  0  0
  146.6617  -24.7822   73.7810 H   0  0  0  0  0
  145.9947  -26.0930   74.8662 H   0  0  0  0  0
  141.7981  -28.5699   72.9294 H   0  0  0  0  0
  140.8428  -27.1250   73.3427 H   0  0  0  0  0
  140.9553  -27.6636   71.6490 H   0  0  0  0  0
  142.3097  -26.4557   70.3971 H   0  0  0  0  0
  146.8918  -25.0583   69.8137 H   0  0  0  0  0
  148.0735  -24.2399   70.8649 H   0  0  0  0  0
  147.4408  -25.8424   71.3153 H   0  0  0  0  0
  145.3517  -23.1853   69.9129 H   0  0  0  0  0
  146.8169  -22.4729   70.6802 H   0  0  0  0  0
  145.4561  -21.7818   72.6227 H   0  0  0  0  0
  144.0046  -22.4936   71.8694 H   0  0  0  0  0
  143.0227  -20.0946   71.4830 H   0  0  0  0  0
  144.4680  -19.3816   72.2404 H   0  0  0  0  0
  144.1307  -19.0903   70.5163 H   0  0  0  0  0
  146.6026  -24.8160   76.8423 H   0  0  0  0  0
  145.8671  -23.1255   78.5284 H   0  0  0  0  0
  144.1081  -21.4402   77.9283 H   0  0  0  0  0
  141.9355  -21.2803   76.2091 H   0  0  0  0  0
  143.1995  -20.1640   75.6373 H   0  0  0  0  0
  142.4644  -21.3296   74.5094 H   0  0  0  0  0
  143.8295  -23.1558   73.9423 H   0  0  0  0  0
  1  2  1  0  0  0
  1  5  2  0  0  0
  1 12  1  0  0  0
  2  3  2  0  0  0
  2 13  1  0  0  0
  3  4  1  0  0  0
  3  9  1  0  0  0
  4  6  1  0  0  0
  4 10  2  0  0  0
  6  7  1  0  0  0
  9  8  1  0  0  0
  8 19  4  0  0  0
  8 24  4  0  0  0
 10 11  1  0  0  0
 10 12  1  0  0  0
 13 14  1  0  0  0
 13 15  1  0  0  0
 15 16  1  0  0  0
 16 17  1  0  0  0
 17 18  1  0  0  0
 19 20  4  0  0  0
 20 21  4  0  0  0
 21 22  4  0  0  0
 22 23  1  0  0  0
 22 24  4  0  0  0
  6 25  1  0  0  0
  6 26  1  0  0  0
  7 27  1  0  0  0
  7 28  1  0  0  0
  7 29  1  0  0  0
  9 30  1  0  0  0
  9 31  1  0  0  0
 11 32  1  0  0  0
 11 33  1  0  0  0
 11 34  1  0  0  0
 12 35  1  0  0  0
 14 36  1  0  0  0
 14 37  1  0  0  0
 14 38  1  0  0  0
 15 39  1  0  0  0
 15 40  1  0  0  0
 16 41  1  0  0  0
 16 42  1  0  0  0
 18 43  1  0  0  0
 18 44  1  0  0  0
 18 45  1  0  0  0
 19 46  1  0  0  0
 20 47  1  0  0  0
 21 48  1  0  0  0
 23 49  1  0  0  0
 23 50  1  0  0  0
 23 51  1  0  0  0
 24 52  1  0  0  0
M  END
$$$$
