### 
### Created by X-TOOL on Mon Sep 10 21:13:30 2018
### 

@<TRIPOS>MOLECULE
5l0h_ligand
   55    55     1     0     0
SMALL
GAST_HUCK


@<TRIPOS>ATOM
      1 C1         42.9620   27.8500   33.1970 C.3       1 PIO         0.1512
      2 O1         42.0210   27.9810   34.2880 O.3       1 PIO        -0.2454
      3 P1         40.4210   28.2790   34.0970 P.3       1 PIO         0.2557
      4 C2         44.2920   27.3120   33.7220 C.3       1 PIO         0.1175
      5 O2         44.7840   28.0550   34.8360 O.3       1 PIO        -0.3861
      6 C3         45.3260   27.2390   32.6030 C.3       1 PIO         0.1172
      7 O3         46.5460   26.7130   33.1100 O.3       1 PIO        -0.3861
      8 C4         45.5620   28.6210   32.0010 C.3       1 PIO         0.1503
      9 O4         46.4370   28.4410   30.8650 O.3       1 PIO        -0.2672
     10 P4         48.0620   28.3490   30.7020 P.3       1 PIO         0.2013
     11 C5         44.2760   29.2870   31.5260 C.3       1 PIO         0.1507
     12 O5         44.5680   30.6890   31.3190 O.3       1 PIO        -0.2672
     13 P5         43.7130   32.0920   31.0830 P.3       1 PIO         0.2013
     14 C6         43.1190   29.2190   32.5280 C.3       1 PIO         0.1222
     15 O6         41.9170   29.5220   31.8300 O.3       1 PIO        -0.3857
     16 O11        40.4910   29.8070   34.0960 O.co2     1 PIO        -0.6177
     17 O12        39.8800   27.6240   32.8830 O.co2     1 PIO        -0.6177
     18 O13        39.4880   28.1700   35.4410 O.3       1 PIO        -0.2511
     19 C1A        35.2370   30.3060   35.9400 C.2       1 PIO         0.2310
     20 O1A        35.6400   31.4270   35.7820 O.2       1 PIO        -0.3707
     21 C1B        37.3710   31.1970   31.9140 C.2       1 PIO         0.2307
     22 O1B        38.0330   30.5040   31.1850 O.2       1 PIO        -0.3707
     23 C1C        38.0400   28.0390   35.3730 C.3       1 PIO         0.1167
     24 C2A        33.9000   29.9590   36.5240 C.3       1 PIO         0.0372
     25 C2B        36.9680   32.6100   31.6120 C.3       1 PIO         0.0372
     26 C2C        37.2710   29.2960   35.0160 C.3       1 PIO         0.1433
     27 O2C        35.9370   29.1920   35.6230 O.3       1 PIO        -0.2683
     28 C3C        37.1010   29.4260   33.5180 C.3       1 PIO         0.1098
     29 O3C        36.8910   30.8000   33.1070 O.3       1 PIO        -0.2740
     30 O41        48.5210   29.8070   30.7530 O.co2     1 PIO        -0.5537
     31 O42        48.8190   27.4800   31.6400 O.co2     1 PIO        -0.5537
     32 O43        48.1450   27.8760   29.2470 O.co2     1 PIO        -0.5537
     33 O51        42.3820   31.7450   30.4000 O.co2     1 PIO        -0.5537
     34 O52        43.4270   32.4670   32.5420 O.co2     1 PIO        -0.5537
     35 O53        44.4470   33.1790   30.3700 O.co2     1 PIO        -0.5537
     36 H1         42.5644   27.1382   32.4586 H         1 PIO         0.0711
     37 H2         44.1119   26.2850   34.0725 H         1 PIO         0.0651
     38 H3         45.6092   27.6826   35.1240 H         1 PIO         0.2100
     39 H4         44.9495   26.5699   31.8152 H         1 PIO         0.0650
     40 H5         47.1862   26.6696   32.4095 H         1 PIO         0.2100
     41 H6         46.0427   29.2667   32.7507 H         1 PIO         0.0706
     42 H7         43.9599   28.8176   30.5828 H         1 PIO         0.0706
     43 H8         43.2902   29.9715   33.3118 H         1 PIO         0.0654
     44 H9         41.1840   29.4857   32.4333 H         1 PIO         0.2100
     45 H10        37.6871   27.6977   36.3574 H         1 PIO         0.0651
     46 H11        37.8070   27.2764   34.6153 H         1 PIO         0.0651
     47 H12        33.3566   30.8831   36.7706 H         1 PIO         0.0483
     48 H13        34.0424   29.3626   37.4373 H         1 PIO         0.0483
     49 H14        33.3203   29.3769   35.7925 H         1 PIO         0.0483
     50 H15        37.3737   32.9058   30.6333 H         1 PIO         0.0483
     51 H16        37.3642   33.2787   32.3904 H         1 PIO         0.0483
     52 H17        35.8706   32.6818   31.5908 H         1 PIO         0.0483
     53 H18        37.8002   30.1782   35.4056 H         1 PIO         0.0704
     54 H19        36.2326   28.8268   33.2069 H         1 PIO         0.0644
     55 H20        38.0064   29.0433   33.0244 H         1 PIO         0.0644
@<TRIPOS>BOND
     1    2    1 1  
     2    1    4 1  
     3    1   14 1  
     4    3    2 1  
     5    3   16 ar 
     6    3   17 ar 
     7   18    3 1  
     8    4    5 1  
     9    4    6 1  
    10    6    7 1  
    11    6    8 1  
    12    8    9 1  
    13   11    8 1  
    14    9   10 1  
    15   10   30 ar 
    16   10   31 ar 
    17   10   32 ar 
    18   11   12 1  
    19   14   11 1  
    20   12   13 1  
    21   13   33 ar 
    22   13   34 ar 
    23   13   35 ar 
    24   14   15 1  
    25   23   18 1  
    26   19   20 2  
    27   19   24 1  
    28   27   19 1  
    29   21   22 2  
    30   21   25 1  
    31   29   21 1  
    32   26   23 1  
    33   26   27 1  
    34   28   26 1  
    35   28   29 1  
    36    1   36 1  
    37    4   37 1  
    38    5   38 1  
    39    6   39 1  
    40    7   40 1  
    41    8   41 1  
    42   11   42 1  
    43   14   43 1  
    44   15   44 1  
    45   23   45 1  
    46   23   46 1  
    47   24   47 1  
    48   24   48 1  
    49   24   49 1  
    50   25   50 1  
    51   25   51 1  
    52   25   52 1  
    53   26   53 1  
    54   28   54 1  
    55   28   55 1  
@<TRIPOS>SUBSTRUCTURE
     1 PIO         1

