5l0h_ligand
  -I-interpret- 

 60 60  0  0  0  0  0  0  0  0999 V2000
   42.9620   27.8500   33.1970 C   0  0  0  0  0
   42.0210   27.9810   34.2880 O   0  0  0  0  0
   40.4210   28.2790   34.0970 P   0  0  0  0  0
   44.2920   27.3120   33.7220 C   0  0  0  0  0
   44.7840   28.0550   34.8360 O   0  0  0  0  0
   45.3260   27.2390   32.6030 C   0  0  0  0  0
   46.5460   26.7130   33.1100 O   0  0  0  0  0
   45.5620   28.6210   32.0010 C   0  0  0  0  0
   46.4370   28.4410   30.8650 O   0  0  0  0  0
   48.0620   28.3490   30.7020 P   0  0  0  0  0
   44.2760   29.2870   31.5260 C   0  0  0  0  0
   44.5680   30.6890   31.3190 O   0  0  0  0  0
   43.7130   32.0920   31.0830 P   0  0  0  0  0
   43.1190   29.2190   32.5280 C   0  0  0  0  0
   41.9170   29.5220   31.8300 O   0  0  0  0  0
   40.4910   29.8070   34.0960 O   0  0  0  0  0
   39.8800   27.6240   32.8830 O   0  0  0  0  0
   39.4880   28.1700   35.4410 O   0  0  0  0  0
   35.2370   30.3060   35.9400 C   0  0  0  0  0
   35.6400   31.4270   35.7820 O   0  0  0  0  0
   37.3710   31.1970   31.9140 C   0  0  0  0  0
   38.0330   30.5040   31.1850 O   0  0  0  0  0
   38.0400   28.0390   35.3730 C   0  0  0  0  0
   33.9000   29.9590   36.5240 C   0  0  0  0  0
   36.9680   32.6100   31.6120 C   0  0  0  0  0
   37.2710   29.2960   35.0160 C   0  0  0  0  0
   35.9370   29.1920   35.6230 O   0  0  0  0  0
   37.1010   29.4260   33.5180 C   0  0  0  0  0
   36.8910   30.8000   33.1070 O   0  0  0  0  0
   48.5210   29.8070   30.7530 O   0  0  0  0  0
   48.8190   27.4800   31.6400 O   0  0  0  0  0
   48.1450   27.8760   29.2470 O   0  0  0  0  0
   42.3820   31.7450   30.4000 O   0  0  0  0  0
   43.4270   32.4670   32.5420 O   0  0  0  0  0
   44.4470   33.1790   30.3700 O   0  0  0  0  0
   42.5994   27.1396   32.4541 H   0  0  0  0  0
   44.1056   26.3013   34.0850 H   0  0  0  0  0
   44.1129   28.0833   35.5219 H   0  0  0  0  0
   44.9490   26.5816   31.8196 H   0  0  0  0  0
   46.3868   25.8442   33.4861 H   0  0  0  0  0
   45.9901   29.2674   32.7671 H   0  0  0  0  0
   43.9593   28.7552   30.6288 H   0  0  0  0  0
   43.3348   29.9333   33.3226 H   0  0  0  0  0
   41.1763   29.4853   32.4396 H   0  0  0  0  0
   40.8561   30.1100   34.9305 H   0  0  0  0  0
   37.7125   27.7552   36.3731 H   0  0  0  0  0
   37.8360   27.3211   34.5786 H   0  0  0  0  0
   33.8312   30.3608   37.5349 H   0  0  0  0  0
   33.1122   30.3897   35.9060 H   0  0  0  0  0
   33.7883   28.8752   36.5541 H   0  0  0  0  0
   37.8610   33.2214   31.4825 H   0  0  0  0  0
   36.3766   32.6300   30.6966 H   0  0  0  0  0
   36.3746   33.0017   32.4382 H   0  0  0  0  0
   37.8188   30.1650   35.3805 H   0  0  0  0  0
   36.2251   28.8471   33.2250 H   0  0  0  0  0
   38.0123   29.0653   33.0411 H   0  0  0  0  0
   48.0043   30.3259   30.1322 H   0  0  0  0  0
   47.6402   28.4718   28.6887 H   0  0  0  0  0
   41.9454   31.0443   30.8899 H   0  0  0  0  0
   42.9556   31.7482   32.9695 H   0  0  0  0  0
  2  1  1  0  0  0
  1  4  1  0  0  0
  1 14  1  0  0  0
  3  2  1  0  0  0
  3 16  1  0  0  0
  3 17  2  0  0  0
 18  3  1  0  0  0
  4  5  1  0  0  0
  4  6  1  0  0  0
  6  7  1  0  0  0
  6  8  1  0  0  0
  8  9  1  0  0  0
 11  8  1  0  0  0
  9 10  1  0  0  0
 10 30  1  0  0  0
 10 31  2  0  0  0
 10 32  1  0  0  0
 11 12  1  0  0  0
 14 11  1  0  0  0
 12 13  1  0  0  0
 13 33  1  0  0  0
 13 34  1  0  0  0
 13 35  2  0  0  0
 14 15  1  0  0  0
 23 18  1  0  0  0
 19 20  2  0  0  0
 19 24  1  0  0  0
 27 19  1  0  0  0
 21 22  2  0  0  0
 21 25  1  0  0  0
 29 21  1  0  0  0
 26 23  1  0  0  0
 26 27  1  0  0  0
 28 26  1  0  0  0
 28 29  1  0  0  0
  1 36  1  0  0  0
  4 37  1  0  0  0
  5 38  1  0  0  0
  6 39  1  0  0  0
  7 40  1  0  0  0
  8 41  1  0  0  0
 11 42  1  0  0  0
 14 43  1  0  0  0
 15 44  1  0  0  0
 16 45  1  0  0  0
 23 46  1  0  0  0
 23 47  1  0  0  0
 24 48  1  0  0  0
 24 49  1  0  0  0
 24 50  1  0  0  0
 25 51  1  0  0  0
 25 52  1  0  0  0
 25 53  1  0  0  0
 26 54  1  0  0  0
 28 55  1  0  0  0
 28 56  1  0  0  0
 30 57  1  0  0  0
 32 58  1  0  0  0
 33 59  1  0  0  0
 34 60  1  0  0  0
M  END
$$$$
