5a6a_ligand
  -I-interpret- 

 27 28  0  0  0  0  0  0  0  0999 V2000
  -17.6620  -31.1640   16.3730 C   0  0  0  0  0
  -18.9800  -31.0130   17.1850 C   0  0  0  0  0
  -19.5340  -29.5810   17.1640 C   0  0  0  0  0
  -18.4580  -28.5710   17.4730 C   0  0  0  0  0
  -17.3090  -28.7430   16.4800 C   0  0  0  0  0
  -16.2220  -27.6970   16.7040 C   0  0  0  0  0
  -19.6570  -31.9660   15.2210 C   0  0  0  0  0
  -20.6810  -32.5820   14.3160 C   0  0  0  0  0
  -19.9230  -31.8550   16.4520 N   0  0  0  0  0
  -18.1690  -31.3990   14.6860 S   0  0  0  0  0
  -20.5920  -29.3530   18.0980 O   0  0  0  0  0
  -19.0850  -27.2890   17.3400 O   0  0  0  0  0
  -16.7510  -30.0630   16.5590 O   0  0  0  0  0
  -15.6900  -27.8680   18.0230 O   0  0  0  0  0
  -17.0773  -32.0154   16.7213 H   0  0  0  0  0
  -18.8200  -31.2745   18.2310 H   0  0  0  0  0
  -19.9219  -29.4613   16.1524 H   0  0  0  0  0
  -18.0372  -28.6891   18.4715 H   0  0  0  0  0
  -17.7195  -28.6006   15.4803 H   0  0  0  0  0
  -16.6418  -26.6965   16.5994 H   0  0  0  0  0
  -15.4302  -27.8198   15.9651 H   0  0  0  0  0
  -20.8915  -33.5990   14.6468 H   0  0  0  0  0
  -21.5962  -31.9909   14.3495 H   0  0  0  0  0
  -20.2973  -32.6024   13.2960 H   0  0  0  0  0
  -21.3016  -29.9788   17.9351 H   0  0  0  0  0
  -19.7996  -27.2159   17.9769 H   0  0  0  0  0
  -15.0037  -27.2147   18.1772 H   0  0  0  0  0
  2  1  1  0  0  0
  1 10  1  0  0  0
  1 13  1  0  0  0
  2  3  1  0  0  0
  9  2  1  0  0  0
  3  4  1  0  0  0
  3 11  1  0  0  0
  4  5  1  0  0  0
  4 12  1  0  0  0
  5  6  1  0  0  0
 13  5  1  0  0  0
  6 14  1  0  0  0
  7  8  1  0  0  0
  7  9  2  0  0  0
  7 10  1  0  0  0
  1 15  1  0  0  0
  2 16  1  0  0  0
  3 17  1  0  0  0
  4 18  1  0  0  0
  5 19  1  0  0  0
  6 20  1  0  0  0
  6 21  1  0  0  0
  8 22  1  0  0  0
  8 23  1  0  0  0
  8 24  1  0  0  0
 11 25  1  0  0  0
 12 26  1  0  0  0
 14 27  1  0  0  0
M  END
$$$$
