4b11_ligand
  -I-interpret- 

 58 62  0  0  0  0  0  0  0  0999 V2000
   26.2320   43.7460   60.7010 O   0  0  0  0  0
   25.0210   43.4220   60.5370 C   0  0  0  0  0
   24.0980   44.1400   59.8470 N   0  0  0  0  0
   24.3180   45.5010   59.2760 C   0  0  0  0  0
   23.5110   46.5120   60.1220 C   0  0  0  0  0
   24.1060   46.9360   61.2900 C   0  0  0  0  0
   25.3860   46.4380   61.5970 C   0  0  0  0  0
   26.0220   46.7880   62.7510 C   0  0  0  0  0
   25.4320   47.6710   63.6310 C   0  0  0  0  0
   24.1650   48.2120   63.3760 C   0  0  0  0  0
   23.4880   47.8500   62.1650 C   0  0  0  0  0
   22.2130   48.3530   61.9070 C   0  0  0  0  0
   21.6020   47.9290   60.7000 C   0  0  0  0  0
   22.2280   47.0340   59.8220 C   0  0  0  0  0
   24.4150   42.1860   61.1980 C   0  0  0  0  0
   23.2160   41.8300   60.9930 O   0  0  0  0  0
   22.9310   40.7030   61.7680 C   0  0  0  0  0
   24.0430   40.3380   62.5050 C   0  0  0  0  0
   24.9910   41.3430   62.1600 C   0  0  0  0  0
   26.3870   41.3750   62.7460 C   0  0  0  0  0
   23.9480   39.2610   63.4130 C   0  0  0  0  0
   22.7690   38.5240   63.4630 C   0  0  0  0  0
   21.6840   38.8300   62.6110 C   0  0  0  0  0
   21.7330   39.9660   61.8030 C   0  0  0  0  0
   25.1240   38.9020   64.1290 O   0  0  0  0  0
   25.0430   38.3260   65.4670 C   0  0  0  0  0
   24.4730   39.4360   66.2990 C   0  0  0  0  0
   25.5070   40.5660   66.4740 C   0  0  0  0  0
   26.8430   40.1090   66.8460 N   0  3  0  0  0
   27.4510   38.9810   66.1460 C   0  0  0  0  0
   26.4500   37.8470   65.8630 C   0  0  0  0  0
   23.1812   43.7152   59.7079 H   0  0  0  0  0
   23.9874   45.5311   58.2378 H   0  0  0  0  0
   25.3784   45.7521   59.3005 H   0  0  0  0  0
   25.8779   45.7601   60.8994 H   0  0  0  0  0
   27.0016   46.3679   62.9793 H   0  0  0  0  0
   25.9610   47.9531   64.5413 H   0  0  0  0  0
   23.7017   48.8967   64.0864 H   0  0  0  0  0
   21.7137   49.0347   62.5956 H   0  0  0  0  0
   20.6133   48.3116   60.4467 H   0  0  0  0  0
   21.7246   46.7372   58.9019 H   0  0  0  0  0
   27.1178   41.2465   61.9476 H   0  0  0  0  0
   26.5507   42.3331   63.2394 H   0  0  0  0  0
   26.4938   40.5684   63.4713 H   0  0  0  0  0
   22.6810   37.6987   64.1695 H   0  0  0  0  0
   20.8100   38.1792   62.5852 H   0  0  0  0  0
   20.8680   40.2739   61.2156 H   0  0  0  0  0
   24.4114   37.4447   65.5792 H   0  0  0  0  0
   24.2089   39.0428   67.2807 H   0  0  0  0  0
   23.5918   39.8370   65.7983 H   0  0  0  0  0
   25.1503   41.2035   67.2830 H   0  0  0  0  0
   25.5975   41.0686   65.5110 H   0  0  0  0  0
   26.7433   39.7874   67.8088 H   0  0  0  0  0
   27.4513   40.8993   66.6320 H   0  0  0  0  0
   28.2403   38.5794   66.7814 H   0  0  0  0  0
   27.8246   39.3438   65.1885 H   0  0  0  0  0
   26.8425   37.2764   65.0213 H   0  0  0  0  0
   26.3456   37.2749   66.7849 H   0  0  0  0  0
  1  2  2  0  0  0
  2  3  1  0  0  0
  2 15  1  0  0  0
  3  4  1  0  0  0
  4  5  1  0  0  0
  5  6  4  0  0  0
  5 14  4  0  0  0
  6  7  4  0  0  0
  6 11  4  0  0  0
  7  8  4  0  0  0
  8  9  4  0  0  0
  9 10  4  0  0  0
 10 11  4  0  0  0
 11 12  4  0  0  0
 12 13  4  0  0  0
 13 14  4  0  0  0
 15 16  4  0  0  0
 15 19  4  0  0  0
 16 17  4  0  0  0
 17 18  4  0  0  0
 17 24  4  0  0  0
 18 19  4  0  0  0
 18 21  4  0  0  0
 19 20  1  0  0  0
 21 22  4  0  0  0
 21 25  1  0  0  0
 22 23  4  0  0  0
 23 24  4  0  0  0
 25 26  1  0  0  0
 26 27  1  0  0  0
 26 31  1  0  0  0
 27 28  1  0  0  0
 28 29  1  0  0  0
 29 30  1  0  0  0
 30 31  1  0  0  0
  3 32  1  0  0  0
  4 33  1  0  0  0
  4 34  1  0  0  0
  7 35  1  0  0  0
  8 36  1  0  0  0
  9 37  1  0  0  0
 10 38  1  0  0  0
 12 39  1  0  0  0
 13 40  1  0  0  0
 14 41  1  0  0  0
 20 42  1  0  0  0
 20 43  1  0  0  0
 20 44  1  0  0  0
 22 45  1  0  0  0
 23 46  1  0  0  0
 24 47  1  0  0  0
 26 48  1  0  0  0
 27 49  1  0  0  0
 27 50  1  0  0  0
 28 51  1  0  0  0
 28 52  1  0  0  0
 29 53  1  0  0  0
 29 54  1  0  0  0
 30 55  1  0  0  0
 30 56  1  0  0  0
 31 57  1  0  0  0
 31 58  1  0  0  0
M  END
$$$$
