5ogb_ligand
  -I-interpret- 

 49 51  0  0  0  0  0  0  0  0999 V2000
    2.4150   -1.0880    0.8380 C   0  0  0  0  0
    3.2860   -5.2430    4.0420 C   0  0  0  0  0
    1.1740   -0.4800    0.7200 C   0  0  0  0  0
    0.1770   -0.7660    1.6460 C   0  0  0  0  0
   -1.8650   -2.5590    3.0450 C   0  0  0  0  0
   -0.6480   -1.9200    3.7470 C   0  0  0  0  0
   -0.1380   -2.8200    4.8530 C   0  0  0  0  0
    1.0760   -3.3440    4.8520 C   0  0  0  0  0
   -1.0980   -0.6010    4.4080 C   0  0  0  0  0
    3.3610   -3.7350    4.0010 C   0  0  0  0  0
    4.1920   -3.1610    5.1130 C   0  0  0  0  0
    1.9870   -3.0920    3.9020 N   0  0  0  0  0
    2.6800   -1.9200    1.8840 C   0  0  0  0  0
    0.4300   -1.6290    2.7150 C   0  0  0  0  0
    1.6910   -2.2310    2.8140 C   0  0  0  0  0
    0.9640    0.3080   -0.4540 C   0  0  0  0  0
    0.8090    0.9440   -1.4320 C   0  0  0  0  0
    0.6830    1.6960   -2.6450 C   0  0  0  0  0
    1.8500    1.9930   -3.3420 C   0  0  0  0  0
    1.8080    2.6780   -4.5400 C   0  0  0  0  0
    0.5840    3.0630   -5.0780 C   0  0  0  0  0
   -0.5960    2.7680   -4.3900 C   0  0  0  0  0
   -0.5540    2.0850   -3.1820 C   0  0  0  0  0
    0.5720    3.7760   -6.3620 C   0  0  0  0  0
   -0.4480    3.6860   -7.0590 O   0  0  0  0  0
    1.6400    4.3850   -6.6900 O   0  0  0  0  0
    3.1837   -0.8989    0.0887 H   0  0  0  0  0
    4.2902   -5.6579    3.9553 H   0  0  0  0  0
    2.8416   -5.5579    4.9862 H   0  0  0  0  0
    2.6722   -5.5976    3.2140 H   0  0  0  0  0
   -0.8087   -0.3137    1.5371 H   0  0  0  0  0
   -1.5731   -3.5172    2.6152 H   0  0  0  0  0
   -2.6625   -2.7132    3.7719 H   0  0  0  0  0
   -2.2158   -1.8963    2.2539 H   0  0  0  0  0
   -0.8017   -3.0460    5.6876 H   0  0  0  0  0
    1.3499   -4.0155    5.6658 H   0  0  0  0  0
   -1.8875   -0.8089    5.1302 H   0  0  0  0  0
   -0.2497   -0.1432    4.9168 H   0  0  0  0  0
   -1.4737    0.0779    3.6424 H   0  0  0  0  0
    3.8859   -3.4815    3.0800 H   0  0  0  0  0
    4.3340   -2.0934    4.9449 H   0  0  0  0  0
    3.6814   -3.3157    6.0635 H   0  0  0  0  0
    5.1614   -3.6588    5.1346 H   0  0  0  0  0
    3.6769   -2.3468    1.9941 H   0  0  0  0  0
    2.8120    1.6801   -2.9361 H   0  0  0  0  0
    2.7333    2.9171   -5.0641 H   0  0  0  0  0
   -1.5558    3.0762   -4.8045 H   0  0  0  0  0
   -1.4779    1.8518   -2.6528 H   0  0  0  0  0
    2.2813    4.3092   -5.9797 H   0  0  0  0  0
  3  1  4  0  0  0
  1 13  4  0  0  0
 10  2  1  0  0  0
  4  3  4  0  0  0
  3 16  1  0  0  0
 14  4  4  0  0  0
  6  5  1  0  0  0
  7  6  1  0  0  0
  6  9  1  0  0  0
  6 14  1  0  0  0
  8  7  2  0  0  0
 12  8  1  0  0  0
 10 11  1  0  0  0
 10 12  1  0  0  0
 12 15  1  0  0  0
 13 15  4  0  0  0
 14 15  4  0  0  0
 16 17  3  0  0  0
 17 18  1  0  0  0
 18 19  4  0  0  0
 18 23  4  0  0  0
 19 20  4  0  0  0
 20 21  4  0  0  0
 21 22  4  0  0  0
 21 24  1  0  0  0
 22 23  4  0  0  0
 24 25  2  0  0  0
 24 26  1  0  0  0
  1 27  1  0  0  0
  2 28  1  0  0  0
  2 29  1  0  0  0
  2 30  1  0  0  0
  4 31  1  0  0  0
  5 32  1  0  0  0
  5 33  1  0  0  0
  5 34  1  0  0  0
  7 35  1  0  0  0
  8 36  1  0  0  0
  9 37  1  0  0  0
  9 38  1  0  0  0
  9 39  1  0  0  0
 10 40  1  0  0  0
 11 41  1  0  0  0
 11 42  1  0  0  0
 11 43  1  0  0  0
 13 44  1  0  0  0
 19 45  1  0  0  0
 20 46  1  0  0  0
 22 47  1  0  0  0
 23 48  1  0  0  0
 26 49  1  0  0  0
M  END
$$$$
