6i64_ligand
  -I-interpret- 

 30 31  0  0  0  0  0  0  0  0999 V2000
   48.0670  -29.8210  -96.2220 C   0  0  0  0  0
   47.0000  -25.5230  -96.8390 C   0  0  0  0  0
   48.8170  -25.5190  -95.2410 C   0  0  0  0  0
   49.6260  -28.8580 -100.5790 C   0  0  0  0  0
   47.4320  -29.8160 -100.2850 C   0  0  0  0  0
   47.3520  -26.8260  -97.2330 C   0  0  0  0  0
   49.1620  -26.8150  -95.6410 C   0  0  0  0  0
   49.7310  -28.6450  -99.2150 C   0  0  0  0  0
   47.5440  -29.6030  -98.9120 C   0  0  0  0  0
   47.7350  -24.8640  -95.8420 C   0  0  0  0  0
   48.4870  -29.4410 -101.1100 C   0  0  0  0  0
   48.4380  -27.4720  -96.6340 C   0  0  0  0  0
   48.6890  -29.0050  -98.3750 C   0  0  0  0  0
   48.8360  -28.7760  -97.0030 C   0  0  0  0  0
   47.4010  -23.5900  -95.4450 O   0  0  0  0  0
   48.4190  -29.6300 -102.4390 O   0  0  0  0  0
   48.2537  -29.6868  -95.1565 H   0  0  0  0  0
   47.0012  -29.7109  -96.4221 H   0  0  0  0  0
   48.3945  -30.8148  -96.5272 H   0  0  0  0  0
   46.1534  -25.0232  -97.3096 H   0  0  0  0  0
   49.3911  -25.0190  -94.4609 H   0  0  0  0  0
   50.4434  -28.5656 -101.2382 H   0  0  0  0  0
   46.5335  -30.2684 -100.7046 H   0  0  0  0  0
   46.7769  -27.3339  -98.0073 H   0  0  0  0  0
   50.0074  -27.3166  -95.1700 H   0  0  0  0  0
   50.6332  -28.1941  -98.8017 H   0  0  0  0  0
   46.7319  -29.9052  -98.2507 H   0  0  0  0  0
   49.8957  -28.8583  -96.7615 H   0  0  0  0  0
   48.0075  -23.3003  -94.7596 H   0  0  0  0  0
   47.5794  -30.0395 -102.6603 H   0  0  0  0  0
 14  1  1  0  0  0
  6  2  4  0  0  0
  2 10  4  0  0  0
  7  3  4  0  0  0
  3 10  4  0  0  0
  8  4  4  0  0  0
  4 11  4  0  0  0
  9  5  4  0  0  0
  5 11  4  0  0  0
 12  6  4  0  0  0
 12  7  4  0  0  0
 13  8  4  0  0  0
 13  9  4  0  0  0
 10 15  1  0  0  0
 11 16  1  0  0  0
 14 12  1  0  0  0
 13 14  1  0  0  0
  1 17  1  0  0  0
  1 18  1  0  0  0
  1 19  1  0  0  0
  2 20  1  0  0  0
  3 21  1  0  0  0
  4 22  1  0  0  0
  5 23  1  0  0  0
  6 24  1  0  0  0
  7 25  1  0  0  0
  8 26  1  0  0  0
  9 27  1  0  0  0
 14 28  1  0  0  0
 15 29  1  0  0  0
 16 30  1  0  0  0
M  END
$$$$
