6ffh_ligand
  -I-interpret- 

 28 29  0  0  0  0  0  0  0  0999 V2000
  -24.7300   14.9890   40.5420 C   0  0  0  0  0
  -26.0680   13.2310   39.4650 C   0  0  0  0  0
  -25.3290   13.0150   41.8050 C   0  0  0  0  0
  -21.8010   18.2650   47.0810 C   0  0  0  0  0
  -22.9770   20.3070   46.0330 C   0  0  0  0  0
  -23.8810   20.5150   44.8160 C   0  0  0  0  0
  -23.3380   18.2470   44.8980 C   0  0  0  0  0
  -23.9670   16.2100   43.3780 C   0  0  0  0  0
  -24.6720   14.2710   41.7690 C   0  0  0  0  0
  -25.4180   14.4660   39.4340 C   0  0  0  0  0
  -26.0130   12.5120   40.6750 C   0  0  0  0  0
  -22.6610   18.8490   46.0380 N   0  0  0  0  0
  -24.0350   19.2050   44.1980 N   0  0  0  0  0
  -23.2730   16.8190   44.5490 N   0  0  0  0  0
  -23.9440   14.8060   42.9730 N   0  0  0  0  0
  -24.3580   21.5820   44.4650 O   0  0  0  0  0
  -24.6240   16.9670   42.6880 O   0  0  0  0  0
  -25.4700   15.4180   37.8940 Cl  0  0  0  0  0
  -24.2347   15.9565   40.4605 H   0  0  0  0  0
  -26.5937   12.8412   38.5933 H   0  0  0  0  0
  -25.3061   12.4260   42.7219 H   0  0  0  0  0
  -22.3600   17.5058   47.6280 H   0  0  0  0  0
  -20.9265   17.8097   46.6162 H   0  0  0  0  0
  -21.4822   19.0488   47.7681 H   0  0  0  0  0
  -23.4668   20.6163   46.9563 H   0  0  0  0  0
  -22.0742   20.9148   45.9729 H   0  0  0  0  0
  -26.5100   11.5442   40.7415 H   0  0  0  0  0
  -23.4038   14.1512   43.5385 H   0  0  0  0  0
  9  1  4  0  0  0
  1 10  4  0  0  0
 10  2  4  0  0  0
 11  2  4  0  0  0
  9  3  4  0  0  0
  3 11  4  0  0  0
 12  4  1  0  0  0
  6  5  1  0  0  0
 12  5  1  0  0  0
 13  6  1  0  0  0
  6 16  2  0  0  0
  7 12  1  0  0  0
  7 13  4  0  0  0
 14  7  4  0  0  0
  8 14  1  0  0  0
 15  8  1  0  0  0
  8 17  2  0  0  0
  9 15  1  0  0  0
 10 18  1  0  0  0
  1 19  1  0  0  0
  2 20  1  0  0  0
  3 21  1  0  0  0
  4 22  1  0  0  0
  4 23  1  0  0  0
  4 24  1  0  0  0
  5 25  1  0  0  0
  5 26  1  0  0  0
 11 27  1  0  0  0
 15 28  1  0  0  0
M  END
$$$$
