6hle_ligand
  -I-interpret- 

160162  0  0  0  0  0  0  0  0999 V2000
   56.5860  -38.1190   -6.7650 N   0  3  0  0  0
   56.2540  -36.6760   -6.6860 C   0  0  0  0  0
   55.3970  -36.4520   -5.5970 C   0  0  0  0  0
   54.6950  -37.3580   -5.1510 O   0  0  0  0  0
   55.6620  -36.1790   -7.9950 C   0  0  0  0  0
   56.7580  -35.4870   -8.8130 C   0  0  0  0  0
   57.9470  -36.4000   -9.0930 C   0  0  0  0  0
   58.6810  -35.8170  -10.2830 C   0  0  0  0  0
   57.6850  -35.5830  -11.3520 N   0  0  0  0  0
   55.3520  -35.1900   -4.9710 N   0  0  0  0  0
   54.5010  -34.9600   -3.7720 C   0  0  0  0  0
   53.1220  -35.2180   -3.9880 C   0  0  0  0  0
   52.4940  -35.9020   -3.1750 O   0  0  0  0  0
   54.7370  -33.5390   -3.2030 C   0  0  0  0  0
   54.2410  -33.4040   -1.7310 C   0  0  0  0  0
   54.5950  -31.9980   -1.2300 C   0  0  0  0  0
   54.0440  -31.6910    0.1120 N   0  0  0  0  0
   52.9230  -30.9560    0.3170 C   0  0  0  0  0
   52.2380  -30.5070   -0.7630 N   0  0  0  0  0
   52.4970  -30.6820    1.5930 N   0  0  0  0  0
   52.4360  -34.7420   -5.1220 N   0  0  0  0  0
   50.9730  -34.9930   -5.2950 C   0  0  0  0  0
   50.7060  -35.4890   -6.5990 C   0  0  0  0  0
   51.3430  -35.0920   -7.5800 O   0  0  0  0  0
   50.1530  -33.7200   -4.9560 C   0  0  0  0  0
   50.4610  -33.1940   -3.5290 C   0  0  0  0  0
   49.7420  -34.0670   -2.4790 C   0  0  0  0  0
   49.9670  -33.5830   -1.0960 N   0  0  0  0  0
   50.7930  -34.1770   -0.2000 C   0  0  0  0  0
   50.9040  -33.6940    1.0500 N   0  0  0  0  0
   51.5080  -35.2620   -0.5440 N   0  0  0  0  0
   49.7160  -36.4810   -6.7820 N   0  0  0  0  0
   49.4200  -37.1370   -8.0830 C   0  0  0  0  0
   49.8380  -38.6490   -7.9850 C   0  0  0  0  0
   49.7330  -39.3260   -9.3690 C   0  0  0  0  0
   51.2750  -38.8160   -7.4710 C   0  0  0  0  0
   48.9360  -39.4200   -7.0030 C   0  0  0  0  0
   48.0460  -37.0300   -8.4290 C   0  0  0  0  0
   47.1600  -36.9730   -7.5720 O   0  0  0  0  0
   47.6670  -37.0280   -9.7830 N   0  0  0  0  0
   46.2630  -37.0000  -10.2910 C   0  0  0  0  0
   45.6950  -38.2530   -9.9880 C   0  0  0  0  0
   46.3570  -39.2760  -10.1730 O   0  0  0  0  0
   46.2270  -36.7100  -11.8270 C   0  0  0  0  0
   46.7920  -35.3020  -12.1110 C   0  0  0  0  0
   47.1790  -35.0810  -13.6130 C   0  0  0  0  0
   47.3610  -33.5570  -13.8460 C   0  0  0  0  0
   48.1660  -33.1350  -15.0350 N   0  0  0  0  0
   44.4460  -38.2630   -9.4570 N   0  0  0  0  0
   43.7780  -39.5160   -8.9960 C   0  0  0  0  0
   43.8910  -39.5550   -7.5610 C   0  0  0  0  0
   45.0370  -40.0630   -6.9520 C   0  0  0  0  0
   45.1800  -40.0840   -5.5550 C   0  0  0  0  0
   44.1780  -39.5970   -4.7120 C   0  0  0  0  0
   44.3380  -39.6310   -3.3040 C   0  0  0  0  0
   45.5430  -39.8790   -2.7860 N   0  0  0  0  0
   43.2950  -39.3710   -2.5110 N   0  0  0  0  0
   43.0270  -39.0820   -5.3180 C   0  0  0  0  0
   42.8850  -39.0680   -6.7250 C   0  0  0  0  0
   57.7720  -34.5020  -12.2340 C   0  0  0  0  0
   56.7890  -34.3410  -13.2030 C   0  0  0  0  0
   55.6730  -33.4500  -12.6690 C   0  0  0  0  0
   53.6110  -32.2990  -13.2420 C   0  0  0  0  0
   52.6900  -31.9380  -14.4090 C   0  0  0  0  0
   51.4240  -32.9750  -16.2940 C   0  0  0  0  0
   50.2730  -32.0670  -15.8290 C   0  0  0  0  0
   49.4520  -32.5610  -14.7950 C   0  0  0  0  0
   52.7000  -34.3530  -14.7640 C   0  0  0  0  0
   54.0470  -34.5190  -14.0650 C   0  0  0  0  0
   54.6510  -33.2250  -13.7040 N   0  3  0  0  0
   52.6020  -33.0350  -15.3970 N   0  3  0  0  0
   58.7110  -33.7120  -12.1510 O   0  0  0  0  0
   49.8120  -32.4360  -13.6260 O   0  0  0  0  0
   56.9804  -38.4251   -5.8755 H   0  0  0  0  0
   55.7388  -38.6512   -6.9638 H   0  0  0  0  0
   57.2664  -38.2698   -7.5098 H   0  0  0  0  0
   57.1671  -36.1034   -6.5229 H   0  0  0  0  0
   54.8585  -35.4721   -7.7881 H   0  0  0  0  0
   55.2616  -37.0216   -8.5587 H   0  0  0  0  0
   57.1184  -34.6347   -8.2370 H   0  0  0  0  0
   56.3272  -35.1946   -9.7706 H   0  0  0  0  0
   57.6125  -37.4154   -9.3054 H   0  0  0  0  0
   58.6032  -36.4566   -8.2245 H   0  0  0  0  0
   59.4538  -36.5043  -10.6271 H   0  0  0  0  0
   59.1700  -34.8826  -10.0077 H   0  0  0  0  0
   56.9062  -36.2345  -11.4489 H   0  0  0  0  0
   55.9109  -34.4232   -5.3452 H   0  0  0  0  0
   54.8127  -35.6927   -3.0276 H   0  0  0  0  0
   54.1781  -32.8314   -3.8154 H   0  0  0  0  0
   55.8087  -33.3409   -3.2192 H   0  0  0  0  0
   54.7209  -34.1558   -1.1045 H   0  0  0  0  0
   53.1628  -33.5569   -1.6845 H   0  0  0  0  0
   54.1654  -31.2829   -1.9315 H   0  0  0  0  0
   55.6811  -31.9398   -1.1589 H   0  0  0  0  0
   54.5367  -32.0537    0.9282 H   0  0  0  0  0
   52.5688  -30.7240   -1.7031 H   0  0  0  0  0
   51.6511  -30.1315    1.7411 H   0  0  0  0  0
   53.0263  -31.0289    2.3929 H   0  0  0  0  0
   52.9445  -34.2189   -5.8349 H   0  0  0  0  0
   50.6566  -35.7632   -4.5916 H   0  0  0  0  0
   49.0940  -33.9733   -5.0050 H   0  0  0  0  0
   50.4197  -32.9419   -5.6713 H   0  0  0  0  0
   50.1099  -32.1658   -3.4420 H   0  0  0  0  0
   51.5362  -33.2362   -3.3553 H   0  0  0  0  0
   50.1390  -35.0795   -2.5518 H   0  0  0  0  0
   48.6717  -34.0270   -2.6815 H   0  0  0  0  0
   49.4661  -32.7458   -0.7982 H   0  0  0  0  0
   51.5234  -34.1501    1.7199 H   0  0  0  0  0
   50.3688  -32.8715    1.3283 H   0  0  0  0  0
   51.4318  -35.6454   -1.4861 H   0  0  0  0  0
   49.1694  -36.7652   -5.9691 H   0  0  0  0  0
   49.9868  -36.6340   -8.8665 H   0  0  0  0  0
   48.7049  -39.2632   -9.7257 H   0  0  0  0  0
   50.3943  -38.8186  -10.0714 H   0  0  0  0  0
   50.0259  -40.3724   -9.2833 H   0  0  0  0  0
   51.9635  -38.3152   -8.1517 H   0  0  0  0  0
   51.3580  -38.3741   -6.4780 H   0  0  0  0  0
   51.5202  -39.8768   -7.4196 H   0  0  0  0  0
   49.0157  -38.9739   -6.0117 H   0  0  0  0  0
   47.9021  -39.3681   -7.3441 H   0  0  0  0  0
   49.2542  -40.4617   -6.9607 H   0  0  0  0  0
   48.4143  -37.0473  -10.4770 H   0  0  0  0  0
   45.6939  -36.1997   -9.8180 H   0  0  0  0  0
   45.1962  -36.7605  -12.1777 H   0  0  0  0  0
   46.8337  -37.4517  -12.3466 H   0  0  0  0  0
   47.6981  -35.1845  -11.5166 H   0  0  0  0  0
   46.0157  -34.5789  -11.8610 H   0  0  0  0  0
   46.3953  -35.4692  -14.2635 H   0  0  0  0  0
   48.1042  -35.6091  -13.8438 H   0  0  0  0  0
   47.9047  -33.1887  -12.9761 H   0  0  0  0  0
   46.3587  -33.1626  -14.0136 H   0  0  0  0  0
   47.8091  -33.2530  -15.9832 H   0  0  0  0  0
   43.9439  -37.3795   -9.3694 H   0  0  0  0  0
   44.2517  -40.3903   -9.4424 H   0  0  0  0  0
   42.7311  -39.5270   -9.2992 H   0  0  0  0  0
   45.8417  -40.4534   -7.5749 H   0  0  0  0  0
   46.0930  -40.4893   -5.1188 H   0  0  0  0  0
   46.3393  -40.0421   -3.4022 H   0  0  0  0  0
   43.4146  -39.3605   -1.4981 H   0  0  0  0  0
   42.3790  -39.1830   -2.9184 H   0  0  0  0  0
   42.2258  -38.6847   -4.6949 H   0  0  0  0  0
   41.9714  -38.6688   -7.1655 H   0  0  0  0  0
   56.3769  -35.3163  -13.4619 H   0  0  0  0  0
   57.2279  -33.8764  -14.0859 H   0  0  0  0  0
   56.0970  -32.4895  -12.3761 H   0  0  0  0  0
   55.2080  -33.9401  -11.8136 H   0  0  0  0  0
   53.0273  -32.7741  -12.4535 H   0  0  0  0  0
   54.0782  -31.3931  -12.8557 H   0  0  0  0  0
   53.0971  -31.0586  -14.9080 H   0  0  0  0  0
   51.6916  -31.7517  -14.0133 H   0  0  0  0  0
   51.7779  -32.5632  -17.2392 H   0  0  0  0  0
   51.0194  -33.9861  -16.3382 H   0  0  0  0  0
   49.6220  -31.9420  -16.6943 H   0  0  0  0  0
   50.7431  -31.1665  -15.4337 H   0  0  0  0  0
   51.9055  -34.4476  -14.0237 H   0  0  0  0  0
   52.6056  -35.1202  -15.5325 H   0  0  0  0  0
   54.7237  -35.0292  -14.7505 H   0  0  0  0  0
   53.8851  -35.0849  -13.1476 H   0  0  0  0  0
   55.0981  -32.8035  -14.5181 H   0  0  0  0  0
   53.4139  -32.8927  -15.9978 H   0  0  0  0  0
  2  1  1  0  0  0
  2  3  1  0  0  0
  5  2  1  0  0  0
  3  4  2  0  0  0
  3 10  1  0  0  0
  6  5  1  0  0  0
  7  6  1  0  0  0
  8  7  1  0  0  0
  9  8  1  0  0  0
 60  9  1  0  0  0
 10 11  1  0  0  0
 11 12  1  0  0  0
 11 14  1  0  0  0
 12 13  2  0  0  0
 21 12  1  0  0  0
 14 15  1  0  0  0
 15 16  1  0  0  0
 16 17  1  0  0  0
 17 18  1  0  0  0
 18 19  2  0  0  0
 18 20  1  0  0  0
 22 21  1  0  0  0
 23 22  1  0  0  0
 22 25  1  0  0  0
 23 24  2  0  0  0
 32 23  1  0  0  0
 25 26  1  0  0  0
 26 27  1  0  0  0
 27 28  1  0  0  0
 28 29  1  0  0  0
 29 30  1  0  0  0
 29 31  2  0  0  0
 33 32  1  0  0  0
 33 34  1  0  0  0
 38 33  1  0  0  0
 34 35  1  0  0  0
 34 36  1  0  0  0
 34 37  1  0  0  0
 38 39  2  0  0  0
 40 38  1  0  0  0
 41 40  1  0  0  0
 41 42  1  0  0  0
 44 41  1  0  0  0
 42 43  2  0  0  0
 42 49  1  0  0  0
 45 44  1  0  0  0
 46 45  1  0  0  0
 47 46  1  0  0  0
 48 47  1  0  0  0
 67 48  1  0  0  0
 49 50  1  0  0  0
 50 51  1  0  0  0
 51 52  4  0  0  0
 51 59  4  0  0  0
 52 53  4  0  0  0
 53 54  4  0  0  0
 54 55  1  0  0  0
 58 54  4  0  0  0
 55 56  2  0  0  0
 55 57  1  0  0  0
 59 58  4  0  0  0
 61 60  1  0  0  0
 60 72  2  0  0  0
 62 61  1  0  0  0
 70 62  1  0  0  0
 64 63  1  0  0  0
 63 70  1  0  0  0
 71 64  1  0  0  0
 65 66  1  0  0  0
 71 65  1  0  0  0
 66 67  1  0  0  0
 67 73  2  0  0  0
 68 69  1  0  0  0
 68 71  1  0  0  0
 69 70  1  0  0  0
  1 74  1  0  0  0
  1 75  1  0  0  0
  1 76  1  0  0  0
  2 77  1  0  0  0
  5 78  1  0  0  0
  5 79  1  0  0  0
  6 80  1  0  0  0
  6 81  1  0  0  0
  7 82  1  0  0  0
  7 83  1  0  0  0
  8 84  1  0  0  0
  8 85  1  0  0  0
  9 86  1  0  0  0
 10 87  1  0  0  0
 11 88  1  0  0  0
 14 89  1  0  0  0
 14 90  1  0  0  0
 15 91  1  0  0  0
 15 92  1  0  0  0
 16 93  1  0  0  0
 16 94  1  0  0  0
 17 95  1  0  0  0
 19 96  1  0  0  0
 20 97  1  0  0  0
 20 98  1  0  0  0
 21 99  1  0  0  0
 22100  1  0  0  0
 25101  1  0  0  0
 25102  1  0  0  0
 26103  1  0  0  0
 26104  1  0  0  0
 27105  1  0  0  0
 27106  1  0  0  0
 28107  1  0  0  0
 30108  1  0  0  0
 30109  1  0  0  0
 31110  1  0  0  0
 32111  1  0  0  0
 33112  1  0  0  0
 35113  1  0  0  0
 35114  1  0  0  0
 35115  1  0  0  0
 36116  1  0  0  0
 36117  1  0  0  0
 36118  1  0  0  0
 37119  1  0  0  0
 37120  1  0  0  0
 37121  1  0  0  0
 40122  1  0  0  0
 41123  1  0  0  0
 44124  1  0  0  0
 44125  1  0  0  0
 45126  1  0  0  0
 45127  1  0  0  0
 46128  1  0  0  0
 46129  1  0  0  0
 47130  1  0  0  0
 47131  1  0  0  0
 48132  1  0  0  0
 49133  1  0  0  0
 50134  1  0  0  0
 50135  1  0  0  0
 52136  1  0  0  0
 53137  1  0  0  0
 56138  1  0  0  0
 57139  1  0  0  0
 57140  1  0  0  0
 58141  1  0  0  0
 59142  1  0  0  0
 61143  1  0  0  0
 61144  1  0  0  0
 62145  1  0  0  0
 62146  1  0  0  0
 63147  1  0  0  0
 63148  1  0  0  0
 64149  1  0  0  0
 64150  1  0  0  0
 65151  1  0  0  0
 65152  1  0  0  0
 66153  1  0  0  0
 66154  1  0  0  0
 68155  1  0  0  0
 68156  1  0  0  0
 69157  1  0  0  0
 69158  1  0  0  0
 70159  1  0  0  0
 71160  1  0  0  0
M  END
$$$$
