### 
### Created by X-TOOL on Mon Aug  2 16:10:49 2021
### 

@<TRIPOS>MOLECULE
6hle_ligand
  163   165     1     0     0
SMALL
GAST_HUCK


@<TRIPOS>ATOM
      1 N          56.5860  -38.1190   -6.7650 N.4       1 LYS         0.2379
      2 CA         56.2540  -36.6760   -6.6860 C.3       1 LYS         0.0650
      3 C          55.3970  -36.4520   -5.5970 C.2       1 LYS         0.2267
      4 O          54.6950  -37.3580   -5.1510 O.2       1 LYS        -0.3907
      5 CB         55.6620  -36.1790   -7.9950 C.3       1 LYS         0.0079
      6 CG         56.7580  -35.4870   -8.8130 C.3       1 LYS        -0.0439
      7 CD         57.9470  -36.4000   -9.0930 C.3       1 LYS        -0.0324
      8 CE         58.6810  -35.8170  -10.2830 C.3       1 LYS         0.0309
      9 NZ         57.6850  -35.5830  -11.3520 N.am      1 LYS        -0.2868
     10 N          55.3520  -35.1900   -4.9710 N.am      1 LYS        -0.2610
     11 CA         54.5010  -34.9600   -3.7720 C.3       1 LYS         0.1312
     12 C          53.1220  -35.2180   -3.9880 C.2       1 LYS         0.2039
     13 O          52.4940  -35.9020   -3.1750 O.2       1 LYS        -0.3944
     14 CB         54.7370  -33.5390   -3.2030 C.3       1 LYS        -0.0092
     15 CG         54.2410  -33.4040   -1.7310 C.3       1 LYS        -0.0156
     16 CD         54.5950  -31.9980   -1.2300 C.3       1 LYS         0.0627
     17 NE         54.0440  -31.6910    0.1120 N.pl3     1 LYS        -0.2723
     18 CZ         52.9230  -30.9560    0.3170 C.cat     1 LYS         0.2882
     19 NH1        52.2380  -30.5070   -0.7630 N.pl3     1 LYS        -0.2849
     20 NH2        52.4970  -30.6820    1.5930 N.pl3     1 LYS        -0.2849
     21 N          52.4360  -34.7420   -5.1220 N.am      1 LYS        -0.2637
     22 CA         50.9730  -34.9930   -5.2950 C.3       1 LYS         0.1311
     23 C          50.7060  -35.4890   -6.5990 C.2       1 LYS         0.2039
     24 O          51.3430  -35.0920   -7.5800 O.2       1 LYS        -0.3944
     25 CB         50.1530  -33.7200   -4.9560 C.3       1 LYS        -0.0092
     26 CG         50.4610  -33.1940   -3.5290 C.3       1 LYS        -0.0156
     27 CD         49.7420  -34.0670   -2.4790 C.3       1 LYS         0.0627
     28 NE         49.9670  -33.5830   -1.0960 N.pl3     1 LYS        -0.2723
     29 CZ         50.7930  -34.1770   -0.2000 C.cat     1 LYS         0.2882
     30 NH1        50.9040  -33.6940    1.0500 N.pl3     1 LYS        -0.2849
     31 NH2        51.5080  -35.2620   -0.5440 N.pl3     1 LYS        -0.2849
     32 N          49.7160  -36.4810   -6.7820 N.am      1 LYS        -0.2632
     33 CA         49.4200  -37.1370   -8.0830 C.3       1 LYS         0.1358
     34 CB         49.8380  -38.6490   -7.9850 C.3       1 LYS         0.0026
     35 CG1        49.7330  -39.3260   -9.3690 C.3       1 LYS        -0.0558
     36 CG2        51.2750  -38.8160   -7.4710 C.3       1 LYS        -0.0558
     37 CG3        48.9360  -39.4200   -7.0030 C.3       1 LYS        -0.0558
     38 C          48.0460  -37.0300   -8.4290 C.2       1 LYS         0.2044
     39 O          47.1600  -36.9730   -7.5720 O.2       1 LYS        -0.3944
     40 N          47.6670  -37.0280   -9.7830 N.am      1 LYS        -0.2637
     41 CA         46.2630  -37.0000  -10.2910 C.3       1 LYS         0.1310
     42 C          45.6950  -38.2530   -9.9880 C.2       1 LYS         0.2035
     43 O          46.3570  -39.2760  -10.1730 O.2       1 LYS        -0.3944
     44 CB         46.2270  -36.7100  -11.8270 C.3       1 LYS        -0.0123
     45 CG         46.7920  -35.3020  -12.1110 C.3       1 LYS        -0.0470
     46 CD         47.1790  -35.0810  -13.6130 C.3       1 LYS        -0.0325
     47 CE         47.3610  -33.5570  -13.8460 C.3       1 LYS         0.0309
     48 NZ         48.1660  -33.1350  -15.0350 N.am      1 LYS        -0.2868
     49 N23        44.4460  -38.2630   -9.4570 N.am      1 LYS        -0.2737
     50 C16        43.7780  -39.5160   -8.9960 C.3       1 LYS         0.0645
     51 C17        43.8910  -39.5550   -7.5610 C.ar      1 LYS        -0.0210
     52 C22        45.0370  -40.0630   -6.9520 C.ar      1 LYS        -0.0584
     53 C21        45.1800  -40.0840   -5.5550 C.ar      1 LYS        -0.0633
     54 C24        44.1780  -39.5970   -4.7120 C.ar      1 LYS         0.0188
     55 C27        44.3380  -39.6310   -3.3040 C.cat     1 LYS         0.2318
     56 N35        45.5430  -39.8790   -2.7860 N.pl3     1 LYS        -0.2729
     57 N34        43.2950  -39.3710   -2.5110 N.pl3     1 LYS        -0.2729
     58 C19        43.0270  -39.0820   -5.3180 C.ar      1 LYS        -0.0633
     59 C18        42.8850  -39.0680   -6.7250 C.ar      1 LYS        -0.0584
     60 C32        57.7720  -34.5020  -12.2340 C.2       1 LYS         0.1811
     61 C33        56.7890  -34.3410  -13.2030 C.3       1 LYS         0.0773
     62 C34        55.6730  -33.4500  -12.6690 C.3       1 LYS        -0.0145
     63 C35        53.6110  -32.2990  -13.2420 C.3       1 LYS         0.0096
     64 C36        52.6900  -31.9380  -14.4090 C.3       1 LYS         0.0096
     65 C37        51.4240  -32.9750  -16.2940 C.3       1 LYS        -0.0145
     66 C38        50.2730  -32.0670  -15.8290 C.3       1 LYS         0.0773
     67 C39        49.4520  -32.5610  -14.7950 C.2       1 LYS         0.1811
     68 C43        52.7000  -34.3530  -14.7640 C.3       1 LYS         0.0096
     69 C44        54.0470  -34.5190  -14.0650 C.3       1 LYS         0.0096
     70 N16        54.6510  -33.2250  -13.7040 N.4       1 LYS         0.2443
     71 N17        52.6020  -33.0350  -15.3970 N.4       1 LYS         0.2443
     72 O6         58.7110  -33.7120  -12.1510 O.2       1 LYS        -0.3969
     73 O7         49.8120  -32.4360  -13.6260 O.2       1 LYS        -0.3969
     74 H1         57.2014  -38.2798   -7.5470 H         1 LYS         0.2015
     75 H2         55.7396  -38.6523   -6.8883 H         1 LYS         0.2015
     76 H3         57.0428  -38.4058   -5.9135 H         1 LYS         0.2015
     77 H4         57.1848  -36.1178   -6.5068 H         1 LYS         0.1098
     78 H5         54.8529  -35.4640   -7.7849 H         1 LYS         0.0346
     79 H6         55.2604  -37.0305   -8.5640 H         1 LYS         0.0346
     80 H7         57.1127  -34.6084   -8.2543 H         1 LYS         0.0269
     81 H8         56.3294  -35.1628   -9.7728 H         1 LYS         0.0269
     82 H9         57.5966  -37.4163   -9.3260 H         1 LYS         0.0285
     83 H10        58.6124  -36.4332   -8.2177 H         1 LYS         0.0285
     84 H11        59.4482  -36.5231  -10.6333 H         1 LYS         0.0520
     85 H12        59.1584  -34.8671  -10.0007 H         1 LYS         0.0520
     86 H13        56.9215  -36.2218  -11.4470 H         1 LYS         0.1850
     87 H14        55.8999  -34.4382   -5.3379 H         1 LYS         0.1884
     88 H15        54.8352  -35.6749   -3.0057 H         1 LYS         0.0800
     89 H16        54.1954  -32.8130   -3.8272 H         1 LYS         0.0313
     90 H17        55.8142  -33.3189   -3.2354 H         1 LYS         0.0313
     91 H18        54.7353  -34.1585   -1.1013 H         1 LYS         0.0301
     92 H19        53.1514  -33.5496   -1.6909 H         1 LYS         0.0301
     93 H20        54.1976  -31.2633   -1.9457 H         1 LYS         0.0689
     94 H21        55.6906  -31.9103   -1.1847 H         1 LYS         0.0689
     95 H22        54.5415  -32.0572    0.9362 H         1 LYS         0.2642
     96 H23        51.3834  -29.9467   -0.6343 H         1 LYS         0.2615
     97 H24        52.5721  -30.7261   -1.7124 H         1 LYS         0.2615
     98 H25        53.0315  -31.0323    2.4008 H         1 LYS         0.2615
     99 H26        51.6429  -30.1261    1.7426 H         1 LYS         0.2615
    100 H27        52.9345  -34.2291   -5.8209 H         1 LYS         0.1883
    101 H28        50.6780  -35.7739   -4.5787 H         1 LYS         0.0800
    102 H29        49.0814  -33.9594   -5.0228 H         1 LYS         0.0313
    103 H30        50.3993  -32.9341   -5.6851 H         1 LYS         0.0313
    104 H31        50.1111  -32.1549   -3.4402 H         1 LYS         0.0301
    105 H32        51.5461  -33.2319   -3.3530 H         1 LYS         0.0301
    106 H33        50.1178  -35.0977   -2.5586 H         1 LYS         0.0689
    107 H34        48.6620  -34.0534   -2.6872 H         1 LYS         0.0689
    108 H35        49.4612  -32.7376   -0.7953 H         1 LYS         0.2642
    109 H36        51.5338  -34.1512    1.7247 H         1 LYS         0.2615
    110 H37        50.3592  -32.8669    1.3328 H         1 LYS         0.2615
    111 H38        51.4354  -35.6457   -1.4971 H         1 LYS         0.2615
    112 H39        52.1285  -35.7097    0.1455 H         1 LYS         0.2615
    113 H40        49.1801  -36.7596   -5.9850 H         1 LYS         0.1884
    114 H41        50.0154  -36.6491   -8.8688 H         1 LYS         0.0805
    115 H42        50.0284  -40.3822   -9.2839 H         1 LYS         0.0237
    116 H43        50.4000  -38.8148  -10.0788 H         1 LYS         0.0237
    117 H44        48.6959  -39.2633   -9.7301 H         1 LYS         0.0237
    118 H45        51.3692  -38.3391   -6.4842 H         1 LYS         0.0237
    119 H46        51.9739  -38.3417   -8.1756 H         1 LYS         0.0237
    120 H47        51.5115  -39.8868   -7.3847 H         1 LYS         0.0237
    121 H48        47.8874  -39.3345   -7.3240 H         1 LYS         0.0237
    122 H49        49.0463  -38.9963   -5.9939 H         1 LYS         0.0237
    123 H50        49.2301  -40.4799   -6.9898 H         1 LYS         0.0237
    124 H51        48.3996  -37.0469  -10.4634 H         1 LYS         0.1883
    125 H52        45.7009  -36.2093   -9.7724 H         1 LYS         0.0800
    126 H53        45.1879  -36.7645  -12.1839 H         1 LYS         0.0312
    127 H54        46.8355  -37.4598  -12.3538 H         1 LYS         0.0312
    128 H55        47.6906  -35.1553  -11.4937 H         1 LYS         0.0268
    129 H56        46.0310  -34.5579  -11.8334 H         1 LYS         0.0268
    130 H57        46.3798  -35.4647  -14.2641 H         1 LYS         0.0285
    131 H58        48.1187  -35.6070  -13.8370 H         1 LYS         0.0285
    132 H59        47.8499  -33.1423  -12.9522 H         1 LYS         0.0520
    133 H60        46.3585  -33.1172  -13.9530 H         1 LYS         0.0520
    134 H61        47.8161  -33.2507  -15.9646 H         1 LYS         0.1850
    135 H62        43.9537  -37.3968   -9.3712 H         1 LYS         0.1878
    136 H63        44.2751  -40.3925   -9.4372 H         1 LYS         0.0683
    137 H64        42.7182  -39.5085   -9.2906 H         1 LYS         0.0683
    138 H65        45.8373  -40.4513   -7.5715 H         1 LYS         0.0557
    139 H66        46.0880  -40.4870   -5.1212 H         1 LYS         0.0599
    140 H67        45.6687  -39.9056   -1.7640 H         1 LYS         0.3180
    141 H68        46.3471  -40.0437   -3.4083 H         1 LYS         0.3180
    142 H69        42.3700  -39.1811   -2.9224 H         1 LYS         0.3180
    143 H70        43.4158  -39.3604   -1.4882 H         1 LYS         0.3180
    144 H71        42.2302  -38.6868   -4.6983 H         1 LYS         0.0599
    145 H72        41.9764  -38.6710   -7.1631 H         1 LYS         0.0557
    146 H73        56.3744  -35.3246  -13.4686 H         1 LYS         0.0556
    147 H74        57.2307  -33.8758  -14.0966 H         1 LYS         0.0556
    148 H75        56.0976  -32.4823  -12.3636 H         1 LYS         0.0840
    149 H76        55.2064  -33.9365  -11.7997 H         1 LYS         0.0840
    150 H77        53.0223  -32.7776  -12.4455 H         1 LYS         0.0868
    151 H78        54.0820  -31.3851  -12.8511 H         1 LYS         0.0868
    152 H79        53.0825  -31.0397  -14.9080 H         1 LYS         0.0868
    153 H80        51.6834  -31.7297  -14.0173 H         1 LYS         0.0868
    154 H81        51.7650  -32.6119  -17.2747 H         1 LYS         0.0840
    155 H82        51.0274  -33.9956  -16.3985 H         1 LYS         0.0840
    156 H83        49.6301  -31.8721  -16.7000 H         1 LYS         0.0556
    157 H84        50.7147  -31.1218  -15.4804 H         1 LYS         0.0556
    158 H85        51.8937  -34.4582  -14.0232 H         1 LYS         0.0868
    159 H86        52.5946  -35.1316  -15.5338 H         1 LYS         0.0868
    160 H87        54.7322  -35.0537  -14.7392 H         1 LYS         0.0868
    161 H88        53.8999  -35.1090  -13.1483 H         1 LYS         0.0868
    162 H89        55.0947  -32.8293  -14.5180 H         1 LYS         0.2039
    163 H90        53.4111  -32.9372  -15.9901 H         1 LYS         0.2039
@<TRIPOS>BOND
     1    2    1 1  
     2    2    3 1  
     3    5    2 1  
     4    3    4 2  
     5    3   10 am 
     6    6    5 1  
     7    7    6 1  
     8    8    7 1  
     9    9    8 1  
    10   60    9 am 
    11   10   11 1  
    12   11   12 1  
    13   11   14 1  
    14   12   13 2  
    15   21   12 am 
    16   14   15 1  
    17   15   16 1  
    18   16   17 1  
    19   17   18 ar 
    20   18   19 ar 
    21   18   20 ar 
    22   22   21 1  
    23   23   22 1  
    24   22   25 1  
    25   23   24 2  
    26   32   23 am 
    27   25   26 1  
    28   26   27 1  
    29   27   28 1  
    30   28   29 ar 
    31   29   30 ar 
    32   29   31 ar 
    33   33   32 1  
    34   33   34 1  
    35   38   33 1  
    36   34   35 1  
    37   34   36 1  
    38   34   37 1  
    39   38   39 2  
    40   40   38 am 
    41   41   40 1  
    42   41   42 1  
    43   44   41 1  
    44   42   43 2  
    45   42   49 am 
    46   45   44 1  
    47   46   45 1  
    48   47   46 1  
    49   48   47 1  
    50   67   48 am 
    51   49   50 1  
    52   50   51 1  
    53   51   52 ar 
    54   51   59 ar 
    55   52   53 ar 
    56   53   54 ar 
    57   54   55 1  
    58   58   54 ar 
    59   55   56 ar 
    60   55   57 ar 
    61   59   58 ar 
    62   61   60 1  
    63   60   72 2  
    64   62   61 1  
    65   70   62 1  
    66   64   63 1  
    67   63   70 1  
    68   71   64 1  
    69   65   66 1  
    70   71   65 1  
    71   66   67 1  
    72   67   73 2  
    73   68   69 1  
    74   68   71 1  
    75   69   70 1  
    76    1   74 1  
    77    1   75 1  
    78    1   76 1  
    79    2   77 1  
    80    5   78 1  
    81    5   79 1  
    82    6   80 1  
    83    6   81 1  
    84    7   82 1  
    85    7   83 1  
    86    8   84 1  
    87    8   85 1  
    88    9   86 1  
    89   10   87 1  
    90   11   88 1  
    91   14   89 1  
    92   14   90 1  
    93   15   91 1  
    94   15   92 1  
    95   16   93 1  
    96   16   94 1  
    97   17   95 1  
    98   19   96 1  
    99   19   97 1  
   100   20   98 1  
   101   20   99 1  
   102   21  100 1  
   103   22  101 1  
   104   25  102 1  
   105   25  103 1  
   106   26  104 1  
   107   26  105 1  
   108   27  106 1  
   109   27  107 1  
   110   28  108 1  
   111   30  109 1  
   112   30  110 1  
   113   31  111 1  
   114   31  112 1  
   115   32  113 1  
   116   33  114 1  
   117   35  115 1  
   118   35  116 1  
   119   35  117 1  
   120   36  118 1  
   121   36  119 1  
   122   36  120 1  
   123   37  121 1  
   124   37  122 1  
   125   37  123 1  
   126   40  124 1  
   127   41  125 1  
   128   44  126 1  
   129   44  127 1  
   130   45  128 1  
   131   45  129 1  
   132   46  130 1  
   133   46  131 1  
   134   47  132 1  
   135   47  133 1  
   136   48  134 1  
   137   49  135 1  
   138   50  136 1  
   139   50  137 1  
   140   52  138 1  
   141   53  139 1  
   142   56  140 1  
   143   56  141 1  
   144   57  142 1  
   145   57  143 1  
   146   58  144 1  
   147   59  145 1  
   148   61  146 1  
   149   61  147 1  
   150   62  148 1  
   151   62  149 1  
   152   63  150 1  
   153   63  151 1  
   154   64  152 1  
   155   64  153 1  
   156   65  154 1  
   157   65  155 1  
   158   66  156 1  
   159   66  157 1  
   160   68  158 1  
   161   68  159 1  
   162   69  160 1  
   163   69  161 1  
   164   70  162 1  
   165   71  163 1  
@<TRIPOS>SUBSTRUCTURE
     1 LYS         1

