#	Name:			6pht_ligand
#	Creating user name:	wangrx
#	Creation time:		Thu Aug  5 18:17:22 2021

#	Modifying user name:	wangrx
#	Modification time:	Thu Aug  5 18:17:49 2021

@<TRIPOS>MOLECULE
6pht_ligand
   38    37     1     0     0
SMALL
GAST_HUCK


@<TRIPOS>ATOM
      1 C10        27.8090   35.4360   73.4320 C.3       1 OKP        -0.3457 
      2 B11        26.6190   35.9910   74.1610 B         1 OKP         3.0000 
      3 C02        34.3330   33.9620   72.0710 C.3       1 OKP        -0.0305 
      4 C03        34.1940   34.8460   73.2600 C.3       1 OKP         0.0275 
      5 C04        33.3680   35.9630   72.9210 C.3       1 OKP        -0.0288 
      6 C06        31.1070   35.3490   72.5220 C.3       1 OKP        -0.0338 
      7 C07        30.0860   35.1620   71.4410 C.3       1 OKP        -0.0149 
      8 C08        29.0480   36.2050   71.5350 C.3       1 OKP        -0.0755 
      9 C09        28.7190   36.4550   72.9340 C.3       1 OKP        -0.1825 
     10 N01        33.7710   32.6970   72.2740 N.4       1 OKP         0.2187 
     11 N05        32.3770   35.5280   71.9550 N.4       1 OKP         0.2271 
     12 O12        26.3650   37.3120   74.0690 O.3       1 OKP        -0.4105 
     13 O13        25.8680   35.1510   74.8850 O.3       1 OKP        -0.4105 
     14 H1         27.1600   35.0922   72.6131 H         1 OKP        -0.2101 
     15 H3         28.3883   34.5862   73.8223 H         1 OKP        -0.2101 
     16 H4         35.4027   33.8404   71.8452 H         1 OKP         0.0815 
     17 H5         33.8297   34.4384   71.2167 H         1 OKP         0.0815 
     18 H6         35.1868   35.2034   73.5709 H         1 OKP         0.0369 
     19 H7         33.7319   34.2836   74.0847 H         1 OKP         0.0369 
     20 H8         33.9855   36.7619   72.4846 H         1 OKP         0.0816 
     21 H9         32.8652   36.3399   73.8238 H         1 OKP         0.0816 
     22 H10        31.1191   34.4600   73.1697 H         1 OKP         0.0814 
     23 H11        30.8467   36.2348   73.1199 H         1 OKP         0.0814 
     24 H12        29.6179   34.1726   71.5505 H         1 OKP         0.0316 
     25 H13        30.5793   35.2277   70.4600 H         1 OKP         0.0316 
     26 H14        28.1456   35.8702   71.0026 H         1 OKP         0.0243 
     27 H15        29.4210   37.1329   71.0769 H         1 OKP         0.0243 
     28 H16        29.6424   36.4393   73.5316 H         1 OKP        -0.0084 
     29 H17        28.2414   37.4419   73.0229 H         1 OKP        -0.0084 
     30 H18        33.8908   32.1389   71.4432 H         1 OKP         0.1994 
     31 H19        32.7880   32.7943   72.4745 H         1 OKP         0.1994 
     32 H20        34.2294   32.2463   73.0504 H         1 OKP         0.1994 
     33 H21        32.6781   34.6523   71.5568 H         1 OKP         0.2013 
     34 H22        32.3098   36.2225   71.2276 H         1 OKP         0.2013 
     35 H23        27.0151   37.7201   73.5093 H         1 OKP         0.2052 
     36 H24        27.0150   37.7201   73.5093 H         1 OKP         0.2052 
     37 H25        26.2197   34.2715   74.8131 H         1 OKP         0.2052 
     38 H26        26.2197   34.2714   74.8131 H         1 OKP         0.2052 
@<TRIPOS>BOND
     1    1    2 1    
     2    9    1 1    
     3    2   12 1    
     4    2   13 1    
     5    4    3 1    
     6    3   10 1    
     7    5    4 1    
     8   11    5 1    
     9    7    6 1    
    10    6   11 1    
    11    8    7 1    
    12    8    9 1    
    13    1   14 1    
    14    1   15 1    
    15    3   16 1    
    16    3   17 1    
    17    4   18 1    
    18    4   19 1    
    19    5   20 1    
    20    5   21 1    
    21    6   22 1    
    22    6   23 1    
    23    7   24 1    
    24    7   25 1    
    25    8   26 1    
    26    8   27 1    
    27    9   28 1    
    28    9   29 1    
    29   10   30 1    
    30   10   31 1    
    31   10   32 1    
    32   11   33 1    
    33   11   34 1    
    34   12   35 1    
    35   12   36 1    
    36   13   37 1    
    37   13   38 1    
@<TRIPOS>SUBSTRUCTURE
     1 OKP         1 PERM              0 ****  ****    0 ROOT 
