6pht_ligand

Created by X-TOOL on Mon Aug  2 16:17:19 2021
 39 38  0  0  0  0  0  0  0  0999 V2000
   27.8090   35.4360   73.4320  C 0  0  0  4  0  5
   26.6190   35.9910   74.1610  B 0  0  0  1  0  3
   34.3330   33.9620   72.0710  C 0  0  0  3  0  4
   34.1940   34.8460   73.2600  C 0  0  0  3  0  4
   33.3680   35.9630   72.9210  C 0  0  0  3  0  4
   31.1070   35.3490   72.5220  C 0  0  0  3  0  4
   30.0860   35.1620   71.4410  C 0  0  0  3  0  4
   29.0480   36.2050   71.5350  C 0  0  0  3  0  4
   28.7190   36.4550   72.9340  C 0  0  0  3  0  4
   33.7710   32.6970   72.2740  N 0  3  0  4  0  4
   32.3770   35.5280   71.9550  N 0  3  0  3  0  4
   26.3650   37.3120   74.0690  O 0  0  0  3  0  3
   25.8680   35.1510   74.8850  O 0  0  0  3  0  3
   27.1600   35.0922   72.6131  H 0  0  0  1  0  1
   27.1904   35.8588   74.2373  H 0  0  0  1  0  1
   28.3883   34.5862   73.8223  H 0  0  0  1  0  1
   35.4027   33.8404   71.8452  H 0  0  0  1  0  1
   33.8297   34.4384   71.2167  H 0  0  0  1  0  1
   35.1868   35.2034   73.5709  H 0  0  0  1  0  1
   33.7319   34.2836   74.0847  H 0  0  0  1  0  1
   33.9855   36.7619   72.4846  H 0  0  0  1  0  1
   32.8652   36.3399   73.8238  H 0  0  0  1  0  1
   31.1191   34.4600   73.1697  H 0  0  0  1  0  1
   30.8467   36.2348   73.1199  H 0  0  0  1  0  1
   29.6179   34.1726   71.5505  H 0  0  0  1  0  1
   30.5793   35.2277   70.4600  H 0  0  0  1  0  1
   28.1456   35.8702   71.0026  H 0  0  0  1  0  1
   29.4210   37.1329   71.0769  H 0  0  0  1  0  1
   29.6424   36.4393   73.5316  H 0  0  0  1  0  1
   28.2414   37.4419   73.0229  H 0  0  0  1  0  1
   33.8908   32.1389   71.4432  H 0  0  0  1  0  1
   32.7880   32.7943   72.4745  H 0  0  0  1  0  1
   34.2294   32.2463   73.0504  H 0  0  0  1  0  1
   32.6781   34.6523   71.5568  H 0  0  0  1  0  1
   32.3098   36.2225   71.2276  H 0  0  0  1  0  1
   27.0151   37.7201   73.5093  H 0  0  0  1  0  1
   27.0150   37.7201   73.5093  H 0  0  0  1  0  1
   26.2197   34.2715   74.8131  H 0  0  0  1  0  1
   26.2197   34.2714   74.8131  H 0  0  0  1  0  1
  1  2  1  0  0  2
  9  1  1  0  0  2
  2 12  1  0  0  2
  2 13  1  0  0  2
  4  3  1  0  0  2
  3 10  1  0  0  2
  5  4  1  0  0  2
 11  5  1  0  0  2
  7  6  1  0  0  2
  6 11  1  0  0  2
  8  7  1  0  0  2
  8  9  1  0  0  2
  1 14  1  0  0  2
  1 15  1  0  0  2
  1 16  1  0  0  2
  3 17  1  0  0  2
  3 18  1  0  0  2
  4 19  1  0  0  2
  4 20  1  0  0  2
  5 21  1  0  0  2
  5 22  1  0  0  2
  6 23  1  0  0  2
  6 24  1  0  0  2
  7 25  1  0  0  2
  7 26  1  0  0  2
  8 27  1  0  0  2
  8 28  1  0  0  2
  9 29  1  0  0  2
  9 30  1  0  0  2
 10 31  1  0  0  2
 10 32  1  0  0  2
 10 33  1  0  0  2
 11 34  1  0  0  2
 11 35  1  0  0  2
 12 36  1  0  0  2
 12 37  1  0  0  2
 13 38  1  0  0  2
 13 39  1  0  0  2
M  END
> <MOLECULAR_FORMULA>
C8H26N2O2B

> <MOLECULAR_WEIGHT>
192.9

> <NUM_HB_ATOMS>
4  

> <NUM_ROTOR>
9  

> <XLOGP2>
-0.56

$$$$
