### 
### Created by X-TOOL on Mon Sep 10 21:13:13 2018
### 

@<TRIPOS>MOLECULE
4mzj_ligand
  325   327     1     0     0
SMALL
GAST_HUCK


@<TRIPOS>ATOM
      1 C          13.3100   11.7540   26.5300 C.2       1 ACE         0.1751
      2 O          14.3110   11.4020   27.1330 O.2       1 ACE        -0.3972
      3 CH3        13.4190   12.6650   25.3310 C.3       1 ACE         0.0258
      4 N          12.0850   11.3700   26.8750 N.am      1 LYS        -0.2658
      5 CA         11.8500   10.4900   28.0120 C.3       1 LYS         0.1309
      6 C          11.9410    9.0230   27.6030 C.2       1 LYS         0.2040
      7 O          12.6400    8.2340   28.2380 O.2       1 LYS        -0.3944
      8 CB         10.4830   10.7770   28.6390 C.3       1 LYS        -0.0122
      9 CG          9.9250    9.6280   29.4630 C.3       1 LYS        -0.0440
     10 CD         10.1420    9.8590   30.9490 C.3       1 LYS        -0.0124
     11 CE          9.2890    8.9180   31.7840 C.3       1 LYS        -0.0354
     12 NZ          9.3870    9.2230   33.2390 N.4       1 LYS         0.2185
     13 N          11.2300    8.6650   26.5390 N.am      1 ASN        -0.2616
     14 CA         11.2300    7.2940   26.0430 C.3       1 ASN         0.1476
     15 C          11.9670    7.1610   24.7150 C.2       1 ASN         0.2063
     16 O          11.3470    7.0380   23.6590 O.2       1 ASN        -0.3942
     17 CB          9.7970    6.7760   25.9030 C.3       1 ASN         0.0773
     18 CG          8.9550    7.0500   27.1340 C.2       1 ASN         0.1780
     19 OD1         8.1370    7.9700   27.1480 O.2       1 ASN        -0.3970
     20 ND2         9.1530    6.2510   28.1760 N.am      1 ASN        -0.3007
     21 N          13.3640    7.2960   24.9120 N.am      1 NLE        -0.2636
     22 CA         14.2630    7.4500   23.7710 C.3       1 NLE         0.1313
     23 C          14.2350    6.2910   22.7620 C.2       1 NLE         0.2064
     24 O          14.1560    6.5380   21.5590 O.2       1 NLE        -0.3942
     25 CB         15.6940    7.7560   24.2370 C.3       1 NLE        -0.0108
     26 CG         16.6480    8.1700   23.1210 C.3       1 NLE        -0.0422
     27 CD         17.3980    6.9830   22.5270 C.3       1 NLE        -0.0362
     28 CE         18.4220    7.4460   21.5100 C.2       1 NLE        -0.0987
     29 N          14.3130    5.0300   23.2370 N.am      1 PRO        -0.2498
     30 CA         14.2760    3.9600   22.2340 C.3       1 PRO         0.1338
     31 C          13.0070    4.0040   21.3770 C.2       1 PRO         0.2042
     32 O          13.0710    3.7510   20.1670 O.2       1 PRO        -0.3944
     33 CB         14.3200    2.6850   23.0880 C.3       1 PRO        -0.0104
     34 CG         15.0320    3.1030   24.3370 C.3       1 PRO        -0.0281
     35 CD         14.5290    4.4960   24.5960 C.3       1 PRO         0.0369
     36 N          11.8700    4.3430   21.9770 N.am      1 SER        -0.2616
     37 CA         10.6290    4.4070   21.2200 C.3       1 SER         0.1539
     38 C          10.6490    5.5750   20.2370 C.2       1 SER         0.2062
     39 O          10.1450    5.4630   19.1190 O.2       1 SER        -0.3943
     40 CB          9.4200    4.5020   22.1420 C.3       1 SER         0.0843
     41 OG          9.1700    3.2640   22.7830 O.3       1 SER        -0.3903
     42 N          11.2350    6.6920   20.6410 N.am      1 LEU        -0.2636
     43 CA         11.3670    7.8130   19.7170 C.3       1 LEU         0.1312
     44 C          12.2340    7.4210   18.5320 C.2       1 LEU         0.2039
     45 O          11.9270    7.7700   17.3880 O.2       1 LEU        -0.3944
     46 CB         11.9260    9.0430   20.4260 C.3       1 LEU        -0.0101
     47 CG         12.2550   10.2500   19.5480 C.3       1 LEU        -0.0425
     48 CD1        11.0150   10.7480   18.8090 C.3       1 LEU        -0.0625
     49 CD2        12.8320   11.3440   20.4040 C.3       1 LEU        -0.0625
     50 N          13.3070    6.6900   18.8000 N.am      1 NLE        -0.2637
     51 CA         14.1590    6.1920   17.7170 C.3       1 NLE         0.1311
     52 C          13.3900    5.2800   16.7590 C.2       1 NLE         0.2039
     53 O          13.6120    5.3150   15.5430 O.2       1 NLE        -0.3944
     54 CB         15.4270    5.5320   18.2730 C.3       1 NLE        -0.0109
     55 CG         16.3360    6.5630   18.9400 C.3       1 NLE        -0.0422
     56 CD         17.4440    5.9190   19.7790 C.3       1 NLE        -0.0362
     57 CE         18.4460    6.9670   20.2690 C.2       1 NLE        -0.0987
     58 N          12.4690    4.4730   17.2780 N.am      1 ARG        -0.2637
     59 CA         11.6640    3.6510   16.3830 C.3       1 ARG         0.1311
     60 C          10.7330    4.5320   15.5410 C.2       1 ARG         0.2039
     61 O          10.5480    4.2650   14.3450 O.2       1 ARG        -0.3944
     62 CB         10.8590    2.5980   17.1530 C.3       1 ARG        -0.0092
     63 CG         11.6950    1.6030   17.9830 C.3       1 ARG        -0.0156
     64 CD         12.8000    0.9010   17.1870 C.3       1 ARG         0.0627
     65 NE         12.2580    0.3030   15.9710 N.pl3     1 ARG        -0.2723
     66 CZ         12.8710    0.3240   14.7930 C.cat     1 ARG         0.2882
     67 NH1        14.0690    0.8820   14.6720 N.pl3     1 ARG        -0.2849
     68 NH2        12.2780   -0.2090   13.7430 N.pl3     1 ARG        -0.2849
     69 N          10.1430    5.5660   16.1470 N.am      1 VAL        -0.2635
     70 CA          9.3180    6.5100   15.3800 C.3       1 VAL         0.1332
     71 C          10.1300    7.1430   14.2490 C.2       1 VAL         0.2042
     72 O           9.6980    7.1590   13.0920 O.2       1 VAL        -0.3944
     73 CB          8.6970    7.6140   16.2660 C.3       1 VAL        -0.0063
     74 CG1         8.1580    8.7570   15.4110 C.3       1 VAL        -0.0584
     75 CG2         7.5850    7.0180   17.1270 C.3       1 VAL        -0.0584
     76 N          11.3160    7.6450   14.5770 N.am      1 GLN        -0.2636
     77 CA         12.1500    8.2820   13.5760 C.3       1 GLN         0.1330
     78 C          12.5600    7.2940   12.4960 C.2       1 GLN         0.2040
     79 O          12.6300    7.6620   11.3280 O.2       1 GLN        -0.3944
     80 CB         13.3660    8.9140   14.2530 C.3       1 GLN         0.0045
     81 CG         12.9880   10.1070   15.1160 C.3       1 GLN         0.0412
     82 CD         13.9970   10.3850   16.2120 C.2       1 GLN         0.1737
     83 OE1        14.6120    9.4610   16.7560 O.2       1 GLN        -0.3973
     84 NE2        14.1610   11.6550   16.5540 N.am      1 GLN        -0.3009
     85 N          12.8240    6.0480   12.8830 N.am      1 ALA        -0.2640
     86 CA         13.2000    5.0290   11.9100 C.3       1 ALA         0.1282
     87 C          12.0730    4.7890   10.9210 C.2       1 ALA         0.2037
     88 O          12.3130    4.6620    9.7250 O.2       1 ALA        -0.3944
     89 CB         13.5870    3.7250   12.6040 C.3       1 ALA        -0.0244
     90 N          10.8440    4.6920   11.4120 N.am      1 HIS        -0.2625
     91 CA          9.7250    4.4690   10.5000 C.3       1 HIS         0.1369
     92 C           9.4300    5.6790    9.6280 C.2       1 HIS         0.2054
     93 O           9.0080    5.5300    8.4890 O.2       1 HIS        -0.3942
     94 CB          8.4920    3.9720   11.2460 C.3       1 HIS         0.0145
     95 CG          8.5990    2.5310   11.6400 C.2       1 HIS        -0.0027
     96 ND1         8.3370    1.5050   10.7580 N.2       1 HIS        -0.3252
     97 CD2         8.9890    1.9480   12.7930 C.2       1 HIS         0.0291
     98 CE1         8.5320    0.3500   11.3630 C.2       1 HIS         0.0907
     99 NE2         8.9340    0.5880   12.6000 N.pl3     1 HIS        -0.2752
    100 N           9.6820    6.8770   10.1470 N.am      1 ILE        -0.2634
    101 CA          9.5420    8.0690    9.3250 C.3       1 ILE         0.1335
    102 C          10.5370    8.0200    8.1670 C.2       1 ILE         0.2042
    103 O          10.1670    8.2640    7.0250 O.2       1 ILE        -0.3944
    104 CB          9.7130    9.3650   10.1380 C.3       1 ILE        -0.0037
    105 CG1         8.5500    9.5080   11.1200 C.3       1 ILE        -0.0491
    106 CG2         9.7900   10.5820    9.1960 C.3       1 ILE        -0.0582
    107 CD1         8.7020   10.6860   12.0720 C.3       1 ILE        -0.0648
    108 N          11.7930    7.6840    8.4520 N.am      1 ARG        -0.2637
    109 CA         12.7950    7.5830    7.3980 C.3       1 ARG         0.1311
    110 C          12.4160    6.5050    6.3740 C.2       1 ARG         0.2039
    111 O          12.6410    6.6710    5.1740 O.2       1 ARG        -0.3944
    112 CB         14.1810    7.3230    7.9890 C.3       1 ARG        -0.0092
    113 CG         14.7690    8.5330    8.7060 C.3       1 ARG        -0.0156
    114 CD         16.2050    8.2840    9.1360 C.3       1 ARG         0.0627
    115 NE         16.8030    9.5090    9.6600 N.pl3     1 ARG        -0.2723
    116 CZ         16.8150    9.8370   10.9470 C.cat     1 ARG         0.2882
    117 NH1        16.2860    9.0200   11.8530 N.pl3     1 ARG        -0.2849
    118 NH2        17.3660   10.9810   11.3290 N.pl3     1 ARG        -0.2849
    119 N          11.8320    5.4080    6.8510 N.am      1 LYS        -0.2637
    120 CA         11.3290    4.3630    5.9670 C.3       1 LYS         0.1310
    121 C          10.2300    4.9040    5.0500 C.2       1 LYS         0.2039
    122 O          10.2560    4.6720    3.8390 O.2       1 LYS        -0.3944
    123 CB         10.7950    3.1930    6.8000 C.3       1 LYS        -0.0122
    124 CG         10.1600    2.0770    5.9950 C.3       1 LYS        -0.0440
    125 CD          9.2000    1.2830    6.8650 C.3       1 LYS        -0.0124
    126 CE          7.9710    2.1350    7.2040 C.3       1 LYS        -0.0354
    127 NZ          7.0390    1.3980    8.0850 N.4       1 LYS         0.2185
    128 N           9.2640    5.6130    5.6240 N.am      1 LYS        -0.2637
    129 CA          8.1620    6.1670    4.8420 C.3       1 LYS         0.1310
    130 C           8.6790    7.1190    3.7670 C.2       1 LYS         0.2039
    131 O           8.1950    7.1220    2.6360 O.2       1 LYS        -0.3944
    132 CB          7.1690    6.8910    5.7530 C.3       1 LYS        -0.0122
    133 CG          6.3090    5.9630    6.5960 C.3       1 LYS        -0.0440
    134 CD          5.3840    5.1270    5.7260 C.3       1 LYS        -0.0124
    135 CE          4.0440    5.8160    5.5240 C.3       1 LYS        -0.0354
    136 NZ          2.9230    4.8390    5.4530 N.4       1 LYS         0.2185
    137 N           9.6680    7.9240    4.1380 N.am      1 MET        -0.2637
    138 CA         10.2850    8.8940    3.2280 C.3       1 MET         0.1317
    139 C          10.8420    8.2610    1.9650 C.2       1 MET         0.2034
    140 O          10.8590    8.8890    0.9070 O.2       1 MET        -0.3944
    141 CB         11.4360    9.6250    3.9230 C.3       1 MET        -0.0034
    142 CG         11.0200   10.7800    4.7950 C.3       1 MET        -0.0024
    143 SD         12.2420   11.1520    6.0820 S.3       1 MET        -0.1639
    144 CE         13.7820   11.0670    5.1730 C.3       1 MET        -0.0181
    145 N          11.3190    7.0250    2.0860 N.am      1 VAL        -0.2668
    146 CA         11.9280    6.3100    0.9720 C.3       1 VAL         0.1249
    147 C          10.8680    5.6290    0.1140 C.2       1 VAL         0.2152
    148 O           9.9780    4.9550    0.6370 O.co2     1 VAL        -0.4120
    149 CB         12.9320    5.2530    1.4750 C.3       1 VAL        -0.0094
    150 CG1        13.3140    4.2980    0.3590 C.3       1 VAL        -0.0589
    151 CG2        14.1670    5.9290    2.0520 C.3       1 VAL        -0.0589
    152 H          12.4144   12.8650   24.9300 H         1 ACE         0.0467
    153 H          14.0329   12.1809   24.5572 H         1 ACE         0.0467
    154 H          13.8890   13.6129   25.6322 H         1 ACE         0.0467
    155 H          11.3045   11.6936   26.3402 H         1 LYS         0.1882
    156 H          12.6266   10.6872   28.7656 H         1 LYS         0.0800
    157 H           9.7716   10.9993   27.8300 H         1 LYS         0.0312
    158 H          10.5806   11.6558   29.2933 H         1 LYS         0.0312
    159 H          10.4301    8.6966   29.1676 H         1 LYS         0.0269
    160 H           8.8462    9.5379   29.2681 H         1 LYS         0.0269
    161 H           9.8740   10.8975   31.1932 H         1 LYS         0.0317
    162 H          11.2022    9.6882   31.1872 H         1 LYS         0.0317
    163 H           9.6276    7.8854   31.6136 H         1 LYS         0.0813
    164 H           8.2394    9.0163   31.4700 H         1 LYS         0.0813
    165 H           8.8092    8.5795   33.7568 H         1 LYS         0.1994
    166 H           9.0730   10.1661   33.4065 H         1 LYS         0.1994
    167 H          10.3451    9.1297   33.5381 H         1 LYS         0.1994
    168 H          10.6806    9.3539   26.0662 H         1 ASN         0.1885
    169 H          11.7513    6.6686   26.7827 H         1 ASN         0.0826
    170 H           9.8300    5.6897   25.7335 H         1 ASN         0.0551
    171 H           9.3274    7.2679   25.0384 H         1 ASN         0.0551
    172 H           8.6262    6.3842   29.0155 H         1 ASN         0.1814
    173 H           9.8289    5.5161   28.1212 H         1 ASN         0.1814
    174 H          13.7373    7.2857   25.8397 H         1 NLE         0.1883
    175 H          13.9112    8.3367   23.2234 H         1 NLE         0.0800
    176 H          16.0991    6.8535   24.7180 H         1 NLE         0.0314
    177 H          15.6487    8.5739   24.9712 H         1 NLE         0.0314
    178 H          17.3804    8.8824   23.5285 H         1 NLE         0.0287
    179 H          16.0681    8.6565   22.3229 H         1 NLE         0.0287
    180 H          16.6788    6.3121   22.0344 H         1 NLE         0.0388
    181 H          17.9117    6.4407   23.3344 H         1 NLE         0.0388
    182 H          19.1591    8.1920   21.8034 H         1 NLE         0.0450
    183 H          15.1544    4.0193   21.5746 H         1 PRO         0.0802
    184 H          14.8748    1.8882   22.5710 H         1 PRO         0.0313
    185 H          13.3031    2.3341   23.3177 H         1 PRO         0.0313
    186 H          16.1213    3.1032   24.1843 H         1 PRO         0.0287
    187 H          14.7790    2.4346   25.1732 H         1 PRO         0.0287
    188 H          13.5891    4.4769   25.1671 H         1 PRO         0.0524
    189 H          15.2768    5.0913   25.1403 H         1 PRO         0.0524
    190 H          11.8677    4.5552   22.9542 H         1 SER         0.1884
    191 H          10.5396    3.4765   20.6402 H         1 SER         0.0823
    192 H           8.5374    4.7845   21.5494 H         1 SER         0.0606
    193 H           9.6101    5.2703   22.9059 H         1 SER         0.0606
    194 H           9.0015    2.5975   22.1273 H         1 SER         0.2097
    195 H          11.5852    6.7665   21.5747 H         1 LEU         0.1883
    196 H          10.3652    8.0652   19.3391 H         1 LEU         0.0800
    197 H          12.8515    8.7410   20.9380 H         1 LEU         0.0315
    198 H          11.1833    9.3650   21.1707 H         1 LEU         0.0315
    199 H          13.0064    9.9492   18.8031 H         1 LEU         0.0298
    200 H          11.2824   11.6149   18.1869 H         1 LEU         0.0232
    201 H          10.2471   11.0435   19.5390 H         1 LEU         0.0232
    202 H          10.6223    9.9444   18.1687 H         1 LEU         0.0232
    203 H          13.7231   10.9681   20.9281 H         1 LEU         0.0232
    204 H          12.0821   11.6669   21.1411 H         1 LEU         0.0232
    205 H          13.1129   12.1970   19.7688 H         1 LEU         0.0232
    206 H          13.5369    6.4766   19.7495 H         1 NLE         0.1883
    207 H          14.4826    7.0657   17.1323 H         1 NLE         0.0800
    208 H          15.9734    5.0516   17.4480 H         1 NLE         0.0314
    209 H          15.1408    4.7720   19.0149 H         1 NLE         0.0314
    210 H          15.7240    7.2004   19.5951 H         1 NLE         0.0287
    211 H          16.8010    7.1807   18.1576 H         1 NLE         0.0287
    212 H          17.9735    5.1758   19.1647 H         1 NLE         0.0388
    213 H          16.9917    5.4205   20.6490 H         1 NLE         0.0388
    214 H          19.2043    7.3330   19.5784 H         1 NLE         0.0450
    215 H          12.3308    4.4308   18.2675 H         1 ARG         0.1883
    216 H          12.3468    3.1232   15.7009 H         1 ARG         0.0800
    217 H          10.2701    2.0214   16.4245 H         1 ARG         0.0313
    218 H          10.1794    3.1250   17.8389 H         1 ARG         0.0313
    219 H          11.0185    0.8352   18.3865 H         1 ARG         0.0301
    220 H          12.1627    2.1525   18.8132 H         1 ARG         0.0301
    221 H          13.2478    0.1120   17.8090 H         1 ARG         0.0689
    222 H          13.5720    1.6359   16.9151 H         1 ARG         0.0689
    223 H          11.3423   -0.1648   16.0301 H         1 ARG         0.2642
    224 H          14.5405    0.8959   13.7564 H         1 ARG         0.2615
    225 H          14.5273    1.3012   15.4937 H         1 ARG         0.2615
    226 H          11.3482   -0.6412   13.8408 H         1 ARG         0.2615
    227 H          12.7445   -0.1932   12.8248 H         1 ARG         0.2615
    228 H          10.2637    5.6989   17.1308 H         1 VAL         0.1883
    229 H           8.4926    5.9391   14.9296 H         1 VAL         0.0802
    230 H           9.4790    8.0138   16.9283 H         1 VAL         0.0343
    231 H           7.7221    9.5285   16.0628 H         1 VAL         0.0234
    232 H           7.3844    8.3724   14.7302 H         1 VAL         0.0234
    233 H           8.9789    9.1943   14.8237 H         1 VAL         0.0234
    234 H           7.9924    6.1969   17.7352 H         1 VAL         0.0234
    235 H           6.7856    6.6316   16.4776 H         1 VAL         0.0234
    236 H           7.1762    7.7962   17.7883 H         1 VAL         0.0234
    237 H          11.6362    7.5830   15.5223 H         1 GLN         0.1883
    238 H          11.5669    9.0831   13.0982 H         1 GLN         0.0801
    239 H          14.0701    9.2476   13.4765 H         1 GLN         0.0337
    240 H          13.8511    8.1576   14.8874 H         1 GLN         0.0337
    241 H          12.0109    9.9087   15.5806 H         1 GLN         0.0504
    242 H          12.9145   10.9963   14.4728 H         1 GLN         0.0504
    243 H          14.8134   11.8994   17.2713 H         1 GLN         0.1814
    244 H          13.6323   12.3688   16.0947 H         1 GLN         0.1814
    245 H          12.7638    5.8080   13.8519 H         1 ALA         0.1883
    246 H          14.0753    5.3942   11.3528 H         1 ALA         0.0797
    247 H          13.8654    2.9760   11.8481 H         1 ALA         0.0277
    248 H          12.7334    3.3543   13.1904 H         1 ALA         0.0277
    249 H          14.4411    3.9053   13.2733 H         1 ALA         0.0277
    250 H          10.6856    4.7708   12.3962 H         1 HIS         0.1885
    251 H          10.0293    3.6609    9.8186 H         1 HIS         0.0817
    252 H           7.6134    4.0950   10.5957 H         1 HIS         0.0420
    253 H           8.3627    4.5771   12.1554 H         1 HIS         0.0420
    254 H           9.2909    2.4594   13.7058 H         1 HIS         0.0729
    255 H           8.3866   -0.6337   10.9191 H         1 HIS         0.1199
    256 H           9.1675   -0.1276   13.3031 H         1 HIS         0.2361
    257 H           9.9676    6.9585   11.1019 H         1 ILE         0.1883
    258 H           8.5257    8.0708    8.9041 H         1 ILE         0.0803
    259 H          10.6514    9.3047   10.7088 H         1 ILE         0.0345
    260 H           8.4813    8.5856   11.7154 H         1 ILE         0.0267
    261 H           7.6225    9.6428   10.5443 H         1 ILE         0.0267
    262 H          10.6330   10.4549    8.5009 H         1 ILE         0.0235
    263 H           9.9387   11.4962    9.7894 H         1 ILE         0.0235
    264 H           8.8533   10.6637    8.6251 H         1 ILE         0.0235
    265 H           7.8336   10.7271   12.7460 H         1 ILE         0.0230
    266 H           8.7616   11.6197   11.4935 H         1 ILE         0.0230
    267 H           9.6205   10.5625   12.6646 H         1 ILE         0.0230
    268 H          12.0522    7.4987    9.3999 H         1 ARG         0.1883
    269 H          12.8290    8.5483    6.8718 H         1 ARG         0.0800
    270 H          14.8604    7.0372    7.1725 H         1 ARG         0.0313
    271 H          14.1037    6.4947    8.7086 H         1 ARG         0.0313
    272 H          14.1619    8.7499    9.5973 H         1 ARG         0.0301
    273 H          14.7446    9.3976    8.0264 H         1 ARG         0.0301
    274 H          16.7876    7.9392    8.2690 H         1 ARG         0.0689
    275 H          16.2195    7.5110    9.9185 H         1 ARG         0.0689
    276 H          17.2419   10.1578    8.9912 H         1 ARG         0.2642
    277 H          16.2980    9.2793   12.8497 H         1 ARG         0.2615
    278 H          15.8642    8.1278   11.5580 H         1 ARG         0.2615
    279 H          17.7760   11.6145   10.6280 H         1 ARG         0.2615
    280 H          17.3840   11.2361   12.3267 H         1 ARG         0.2615
    281 H          11.7358    5.2978    7.8402 H         1 LYS         0.1883
    282 H          12.1592    4.0022    5.3420 H         1 LYS         0.0800
    283 H          10.0391    3.5855    7.4961 H         1 LYS         0.0312
    284 H          11.6339    2.7684    7.3709 H         1 LYS         0.0312
    285 H          10.9472    1.4075    5.6181 H         1 LYS         0.0269
    286 H           9.6089    2.5090    5.1467 H         1 LYS         0.0269
    287 H           9.7085    0.9910    7.7957 H         1 LYS         0.0317
    288 H           8.8794    0.3807    6.3237 H         1 LYS         0.0317
    289 H           7.4501    2.4011    6.2724 H         1 LYS         0.0813
    290 H           8.2994    3.0519    7.7153 H         1 LYS         0.0813
    291 H           6.2419    1.9792    8.2920 H         1 LYS         0.1994
    292 H           7.5091    1.1545    8.9428 H         1 LYS         0.1994
    293 H           6.7309    0.5581    7.6206 H         1 LYS         0.1994
    294 H           9.2921    5.7704    6.6111 H         1 LYS         0.1883
    295 H           7.6383    5.3362    4.3466 H         1 LYS         0.0800
    296 H           6.5043    7.5010    5.1237 H         1 LYS         0.0312
    297 H           7.7361    7.5464    6.4303 H         1 LYS         0.0312
    298 H           5.7026    6.5660    7.2878 H         1 LYS         0.0269
    299 H           6.9635    5.2919    7.1716 H         1 LYS         0.0269
    300 H           5.2172    4.1543    6.2118 H         1 LYS         0.0317
    301 H           5.8580    4.9709    4.7457 H         1 LYS         0.0317
    302 H           4.0765    6.3889    4.5855 H         1 LYS         0.0813
    303 H           3.8658    6.5012    6.3659 H         1 LYS         0.0813
    304 H           2.0547    5.3331    5.3191 H         1 LYS         0.1994
    305 H           2.8811    4.3127    6.3116 H         1 LYS         0.1994
    306 H           3.0741    4.2098    4.6802 H         1 LYS         0.1994
    307 H          10.0060    7.8661    5.0774 H         1 MET         0.1883
    308 H           9.5156    9.6261    2.9415 H         1 MET         0.0800
    309 H          12.1142   10.0098    3.1472 H         1 MET         0.0320
    310 H          11.9721    8.8985    4.5513 H         1 MET         0.0320
    311 H          10.0635   10.5312    5.2779 H         1 MET         0.0378
    312 H          10.8908   11.6709    4.1629 H         1 MET         0.0378
    313 H          14.6209   11.2777    5.8525 H         1 MET         0.0340
    314 H          13.7710   11.8106    4.3625 H         1 MET         0.0340
    315 H          13.9004   10.0604    4.7455 H         1 MET         0.0340
    316 H          11.2573    6.5698    2.9743 H         1 VAL         0.1876
    317 H          12.4682    7.0384    0.3495 H         1 VAL         0.0754
    318 O1         10.9017    5.7559   -1.1391 O.co2     1 VAL        -0.4120
    319 H          12.4502    4.6720    2.2752 H         1 VAL         0.0336
    320 H          14.0294    3.5549    0.7412 H         1 VAL         0.0234
    321 H          13.7762    4.8623   -0.4643 H         1 VAL         0.0234
    322 H          12.4133    3.7846   -0.0086 H         1 VAL         0.0234
    323 H          13.8667    6.6152    2.8576 H         1 VAL         0.0234
    324 H          14.6790    6.4951    1.2599 H         1 VAL         0.0234
    325 H          14.8481    5.1654    2.4557 H         1 VAL         0.0234
@<TRIPOS>BOND
     1    1    2 2  
     2    1    3 1  
     3    1    4 am 
     4    4    5 1  
     5    5    6 1  
     6    5    8 1  
     7    6    7 2  
     8    6   13 am 
     9    8    9 1  
    10    9   10 1  
    11   10   11 1  
    12   11   12 1  
    13   13   14 1  
    14   14   15 1  
    15   14   17 1  
    16   15   16 2  
    17   15   21 am 
    18   17   18 1  
    19   18   19 2  
    20   18   20 am 
    21   21   22 1  
    22   22   23 1  
    23   22   25 1  
    24   23   24 2  
    25   23   29 am 
    26   25   26 1  
    27   26   27 1  
    28   27   28 1  
    29   28   57 2  
    30   29   30 1  
    31   29   35 1  
    32   30   31 1  
    33   30   33 1  
    34   31   32 2  
    35   31   36 am 
    36   33   34 1  
    37   34   35 1  
    38   36   37 1  
    39   37   38 1  
    40   37   40 1  
    41   38   39 2  
    42   38   42 am 
    43   40   41 1  
    44   42   43 1  
    45   43   44 1  
    46   43   46 1  
    47   44   45 2  
    48   44   50 am 
    49   46   47 1  
    50   47   48 1  
    51   47   49 1  
    52   50   51 1  
    53   51   52 1  
    54   51   54 1  
    55   52   53 2  
    56   52   58 am 
    57   54   55 1  
    58   55   56 1  
    59   56   57 1  
    60   58   59 1  
    61   59   60 1  
    62   59   62 1  
    63   60   61 2  
    64   60   69 am 
    65   62   63 1  
    66   63   64 1  
    67   64   65 1  
    68   65   66 ar 
    69   66   67 ar 
    70   66   68 ar 
    71   69   70 1  
    72   70   71 1  
    73   70   73 1  
    74   71   72 2  
    75   71   76 am 
    76   73   74 1  
    77   73   75 1  
    78   76   77 1  
    79   77   78 1  
    80   77   80 1  
    81   78   79 2  
    82   78   85 am 
    83   80   81 1  
    84   81   82 1  
    85   82   83 2  
    86   82   84 am 
    87   85   86 1  
    88   86   87 1  
    89   86   89 1  
    90   87   88 2  
    91   87   90 am 
    92   90   91 1  
    93   91   92 1  
    94   91   94 1  
    95   92   93 2  
    96   92  100 am 
    97   94   95 1  
    98   95   96 1  
    99   95   97 2  
   100   96   98 2  
   101   97   99 1  
   102   98   99 1  
   103  100  101 1  
   104  101  102 1  
   105  101  104 1  
   106  102  103 2  
   107  102  108 am 
   108  104  105 1  
   109  104  106 1  
   110  105  107 1  
   111  108  109 1  
   112  109  110 1  
   113  109  112 1  
   114  110  111 2  
   115  110  119 am 
   116  112  113 1  
   117  113  114 1  
   118  114  115 1  
   119  115  116 ar 
   120  116  117 ar 
   121  116  118 ar 
   122  119  120 1  
   123  120  121 1  
   124  120  123 1  
   125  121  122 2  
   126  121  128 am 
   127  123  124 1  
   128  124  125 1  
   129  125  126 1  
   130  126  127 1  
   131  128  129 1  
   132  129  130 1  
   133  129  132 1  
   134  130  131 2  
   135  130  137 am 
   136  132  133 1  
   137  133  134 1  
   138  134  135 1  
   139  135  136 1  
   140  137  138 1  
   141  138  139 1  
   142  138  141 1  
   143  139  140 2  
   144  139  145 am 
   145  141  142 1  
   146  142  143 1  
   147  143  144 1  
   148  145  146 1  
   149  146  147 1  
   150  146  149 1  
   151  147  148 ar 
   152  149  150 1  
   153  149  151 1  
   154    3  152 1  
   155    3  153 1  
   156    3  154 1  
   157    4  155 1  
   158    5  156 1  
   159    8  157 1  
   160    8  158 1  
   161    9  159 1  
   162    9  160 1  
   163   10  161 1  
   164   10  162 1  
   165   11  163 1  
   166   11  164 1  
   167   12  165 1  
   168   12  166 1  
   169   12  167 1  
   170   13  168 1  
   171   14  169 1  
   172   17  170 1  
   173   17  171 1  
   174   20  172 1  
   175   20  173 1  
   176   21  174 1  
   177   22  175 1  
   178   25  176 1  
   179   25  177 1  
   180   26  178 1  
   181   26  179 1  
   182   27  180 1  
   183   27  181 1  
   184   28  182 1  
   185   30  183 1  
   186   33  184 1  
   187   33  185 1  
   188   34  186 1  
   189   34  187 1  
   190   35  188 1  
   191   35  189 1  
   192   36  190 1  
   193   37  191 1  
   194   40  192 1  
   195   40  193 1  
   196   41  194 1  
   197   42  195 1  
   198   43  196 1  
   199   46  197 1  
   200   46  198 1  
   201   47  199 1  
   202   48  200 1  
   203   48  201 1  
   204   48  202 1  
   205   49  203 1  
   206   49  204 1  
   207   49  205 1  
   208   50  206 1  
   209   51  207 1  
   210   54  208 1  
   211   54  209 1  
   212   55  210 1  
   213   55  211 1  
   214   56  212 1  
   215   56  213 1  
   216   57  214 1  
   217   58  215 1  
   218   59  216 1  
   219   62  217 1  
   220   62  218 1  
   221   63  219 1  
   222   63  220 1  
   223   64  221 1  
   224   64  222 1  
   225   65  223 1  
   226   67  224 1  
   227   67  225 1  
   228   68  226 1  
   229   68  227 1  
   230   69  228 1  
   231   70  229 1  
   232   73  230 1  
   233   74  231 1  
   234   74  232 1  
   235   74  233 1  
   236   75  234 1  
   237   75  235 1  
   238   75  236 1  
   239   76  237 1  
   240   77  238 1  
   241   80  239 1  
   242   80  240 1  
   243   81  241 1  
   244   81  242 1  
   245   84  243 1  
   246   84  244 1  
   247   85  245 1  
   248   86  246 1  
   249   89  247 1  
   250   89  248 1  
   251   89  249 1  
   252   90  250 1  
   253   91  251 1  
   254   94  252 1  
   255   94  253 1  
   256   97  254 1  
   257   98  255 1  
   258   99  256 1  
   259  100  257 1  
   260  101  258 1  
   261  104  259 1  
   262  105  260 1  
   263  105  261 1  
   264  106  262 1  
   265  106  263 1  
   266  106  264 1  
   267  107  265 1  
   268  107  266 1  
   269  107  267 1  
   270  108  268 1  
   271  109  269 1  
   272  112  270 1  
   273  112  271 1  
   274  113  272 1  
   275  113  273 1  
   276  114  274 1  
   277  114  275 1  
   278  115  276 1  
   279  117  277 1  
   280  117  278 1  
   281  118  279 1  
   282  118  280 1  
   283  119  281 1  
   284  120  282 1  
   285  123  283 1  
   286  123  284 1  
   287  124  285 1  
   288  124  286 1  
   289  125  287 1  
   290  125  288 1  
   291  126  289 1  
   292  126  290 1  
   293  127  291 1  
   294  127  292 1  
   295  127  293 1  
   296  128  294 1  
   297  129  295 1  
   298  132  296 1  
   299  132  297 1  
   300  133  298 1  
   301  133  299 1  
   302  134  300 1  
   303  134  301 1  
   304  135  302 1  
   305  135  303 1  
   306  136  304 1  
   307  136  305 1  
   308  136  306 1  
   309  137  307 1  
   310  138  308 1  
   311  141  309 1  
   312  141  310 1  
   313  142  311 1  
   314  142  312 1  
   315  144  313 1  
   316  144  314 1  
   317  144  315 1  
   318  145  316 1  
   319  146  317 1  
   320  147  318 ar 
   321  149  319 1  
   322  150  320 1  
   323  150  321 1  
   324  150  322 1  
   325  151  323 1  
   326  151  324 1  
   327  151  325 1  
@<TRIPOS>SUBSTRUCTURE
     1 ACE         1

