4mzj_ligand
  -I-interpret- 

323325  0  0  0  0  0  0  0  0999 V2000
   13.3100   11.7540   26.5300 C   0  0  0  0  0
   14.3110   11.4020   27.1330 O   0  0  0  0  0
   13.4190   12.6650   25.3310 C   0  0  0  0  0
   12.0850   11.3700   26.8750 N   0  0  0  0  0
   11.8500   10.4900   28.0120 C   0  0  0  0  0
   11.9410    9.0230   27.6030 C   0  0  0  0  0
   12.6400    8.2340   28.2380 O   0  0  0  0  0
   10.4830   10.7770   28.6390 C   0  0  0  0  0
    9.9250    9.6280   29.4630 C   0  0  0  0  0
   10.1420    9.8590   30.9490 C   0  0  0  0  0
    9.2890    8.9180   31.7840 C   0  0  0  0  0
    9.3870    9.2230   33.2390 N   0  3  0  0  0
   11.2300    8.6650   26.5390 N   0  0  0  0  0
   11.2300    7.2940   26.0430 C   0  0  0  0  0
   11.9670    7.1610   24.7150 C   0  0  0  0  0
   11.3470    7.0380   23.6590 O   0  0  0  0  0
    9.7970    6.7760   25.9030 C   0  0  0  0  0
    8.9550    7.0500   27.1340 C   0  0  0  0  0
    8.1370    7.9700   27.1480 O   0  0  0  0  0
    9.1530    6.2510   28.1760 N   0  0  0  0  0
   13.3640    7.2960   24.9120 N   0  0  0  0  0
   14.2630    7.4500   23.7710 C   0  0  0  0  0
   14.2350    6.2910   22.7620 C   0  0  0  0  0
   14.1560    6.5380   21.5590 O   0  0  0  0  0
   15.6940    7.7560   24.2370 C   0  0  0  0  0
   16.6480    8.1700   23.1210 C   0  0  0  0  0
   17.3980    6.9830   22.5270 C   0  0  0  0  0
   18.4220    7.4460   21.5100 C   0  0  0  0  0
   14.3130    5.0300   23.2370 N   0  0  0  0  0
   14.2760    3.9600   22.2340 C   0  0  0  0  0
   13.0070    4.0040   21.3770 C   0  0  0  0  0
   13.0710    3.7510   20.1670 O   0  0  0  0  0
   14.3200    2.6850   23.0880 C   0  0  0  0  0
   15.0320    3.1030   24.3370 C   0  0  0  0  0
   14.5290    4.4960   24.5960 C   0  0  0  0  0
   11.8700    4.3430   21.9770 N   0  0  0  0  0
   10.6290    4.4070   21.2200 C   0  0  0  0  0
   10.6490    5.5750   20.2370 C   0  0  0  0  0
   10.1450    5.4630   19.1190 O   0  0  0  0  0
    9.4200    4.5020   22.1420 C   0  0  0  0  0
    9.1700    3.2640   22.7830 O   0  0  0  0  0
   11.2350    6.6920   20.6410 N   0  0  0  0  0
   11.3670    7.8130   19.7170 C   0  0  0  0  0
   12.2340    7.4210   18.5320 C   0  0  0  0  0
   11.9270    7.7700   17.3880 O   0  0  0  0  0
   11.9260    9.0430   20.4260 C   0  0  0  0  0
   12.2550   10.2500   19.5480 C   0  0  0  0  0
   11.0150   10.7480   18.8090 C   0  0  0  0  0
   12.8320   11.3440   20.4040 C   0  0  0  0  0
   13.3070    6.6900   18.8000 N   0  0  0  0  0
   14.1590    6.1920   17.7170 C   0  0  0  0  0
   13.3900    5.2800   16.7590 C   0  0  0  0  0
   13.6120    5.3150   15.5430 O   0  0  0  0  0
   15.4270    5.5320   18.2730 C   0  0  0  0  0
   16.3360    6.5630   18.9400 C   0  0  0  0  0
   17.4440    5.9190   19.7790 C   0  0  0  0  0
   18.4460    6.9670   20.2690 C   0  0  0  0  0
   12.4690    4.4730   17.2780 N   0  0  0  0  0
   11.6640    3.6510   16.3830 C   0  0  0  0  0
   10.7330    4.5320   15.5410 C   0  0  0  0  0
   10.5480    4.2650   14.3450 O   0  0  0  0  0
   10.8590    2.5980   17.1530 C   0  0  0  0  0
   11.6950    1.6030   17.9830 C   0  0  0  0  0
   12.8000    0.9010   17.1870 C   0  0  0  0  0
   12.2580    0.3030   15.9710 N   0  0  0  0  0
   12.8710    0.3240   14.7930 C   0  0  0  0  0
   14.0690    0.8820   14.6720 N   0  0  0  0  0
   12.2780   -0.2090   13.7430 N   0  0  0  0  0
   10.1430    5.5660   16.1470 N   0  0  0  0  0
    9.3180    6.5100   15.3800 C   0  0  0  0  0
   10.1300    7.1430   14.2490 C   0  0  0  0  0
    9.6980    7.1590   13.0920 O   0  0  0  0  0
    8.6970    7.6140   16.2660 C   0  0  0  0  0
    8.1580    8.7570   15.4110 C   0  0  0  0  0
    7.5850    7.0180   17.1270 C   0  0  0  0  0
   11.3160    7.6450   14.5770 N   0  0  0  0  0
   12.1500    8.2820   13.5760 C   0  0  0  0  0
   12.5600    7.2940   12.4960 C   0  0  0  0  0
   12.6300    7.6620   11.3280 O   0  0  0  0  0
   13.3660    8.9140   14.2530 C   0  0  0  0  0
   12.9880   10.1070   15.1160 C   0  0  0  0  0
   13.9970   10.3850   16.2120 C   0  0  0  0  0
   14.6120    9.4610   16.7560 O   0  0  0  0  0
   14.1610   11.6550   16.5540 N   0  0  0  0  0
   12.8240    6.0480   12.8830 N   0  0  0  0  0
   13.2000    5.0290   11.9100 C   0  0  0  0  0
   12.0730    4.7890   10.9210 C   0  0  0  0  0
   12.3130    4.6620    9.7250 O   0  0  0  0  0
   13.5870    3.7250   12.6040 C   0  0  0  0  0
   10.8440    4.6920   11.4120 N   0  0  0  0  0
    9.7250    4.4690   10.5000 C   0  0  0  0  0
    9.4300    5.6790    9.6280 C   0  0  0  0  0
    9.0080    5.5300    8.4890 O   0  0  0  0  0
    8.4920    3.9720   11.2460 C   0  0  0  0  0
    8.5990    2.5310   11.6400 C   0  0  0  0  0
    8.3370    1.5050   10.7580 N   0  0  0  0  0
    8.9890    1.9480   12.7930 C   0  0  0  0  0
    8.5320    0.3500   11.3630 C   0  0  0  0  0
    8.9340    0.5880   12.6000 N   0  0  0  0  0
    9.6820    6.8770   10.1470 N   0  0  0  0  0
    9.5420    8.0690    9.3250 C   0  0  0  0  0
   10.5370    8.0200    8.1670 C   0  0  0  0  0
   10.1670    8.2640    7.0250 O   0  0  0  0  0
    9.7130    9.3650   10.1380 C   0  0  0  0  0
    8.5500    9.5080   11.1200 C   0  0  0  0  0
    9.7900   10.5820    9.1960 C   0  0  0  0  0
    8.7020   10.6860   12.0720 C   0  0  0  0  0
   11.7930    7.6840    8.4520 N   0  0  0  0  0
   12.7950    7.5830    7.3980 C   0  0  0  0  0
   12.4160    6.5050    6.3740 C   0  0  0  0  0
   12.6410    6.6710    5.1740 O   0  0  0  0  0
   14.1810    7.3230    7.9890 C   0  0  0  0  0
   14.7690    8.5330    8.7060 C   0  0  0  0  0
   16.2050    8.2840    9.1360 C   0  0  0  0  0
   16.8030    9.5090    9.6600 N   0  0  0  0  0
   16.8150    9.8370   10.9470 C   0  0  0  0  0
   16.2860    9.0200   11.8530 N   0  0  0  0  0
   17.3660   10.9810   11.3290 N   0  0  0  0  0
   11.8320    5.4080    6.8510 N   0  0  0  0  0
   11.3290    4.3630    5.9670 C   0  0  0  0  0
   10.2300    4.9040    5.0500 C   0  0  0  0  0
   10.2560    4.6720    3.8390 O   0  0  0  0  0
   10.7950    3.1930    6.8000 C   0  0  0  0  0
   10.1600    2.0770    5.9950 C   0  0  0  0  0
    9.2000    1.2830    6.8650 C   0  0  0  0  0
    7.9710    2.1350    7.2040 C   0  0  0  0  0
    7.0390    1.3980    8.0850 N   0  3  0  0  0
    9.2640    5.6130    5.6240 N   0  0  0  0  0
    8.1620    6.1670    4.8420 C   0  0  0  0  0
    8.6790    7.1190    3.7670 C   0  0  0  0  0
    8.1950    7.1220    2.6360 O   0  0  0  0  0
    7.1690    6.8910    5.7530 C   0  0  0  0  0
    6.3090    5.9630    6.5960 C   0  0  0  0  0
    5.3840    5.1270    5.7260 C   0  0  0  0  0
    4.0440    5.8160    5.5240 C   0  0  0  0  0
    2.9230    4.8390    5.4530 N   0  3  0  0  0
    9.6680    7.9240    4.1380 N   0  0  0  0  0
   10.2850    8.8940    3.2280 C   0  0  0  0  0
   10.8420    8.2610    1.9650 C   0  0  0  0  0
   10.8590    8.8890    0.9070 O   0  0  0  0  0
   11.4360    9.6250    3.9230 C   0  0  0  0  0
   11.0200   10.7800    4.7950 C   0  0  0  0  0
   12.2420   11.1520    6.0820 S   0  0  0  0  0
   13.7820   11.0670    5.1730 C   0  0  0  0  0
   11.3190    7.0250    2.0860 N   0  0  0  0  0
   11.9280    6.3100    0.9720 C   0  0  0  0  0
   10.8680    5.6290    0.1140 C   0  0  0  0  0
    9.9780    4.9550    0.6370 O   0  0  0  0  0
   12.9320    5.2530    1.4750 C   0  0  0  0  0
   13.3140    4.2980    0.3590 C   0  0  0  0  0
   14.1670    5.9290    2.0520 C   0  0  0  0  0
   10.9017    5.7559   -1.1391 O   0  0  0  0  0
   13.8848   13.6038   25.6307 H   0  0  0  0  0
   14.0276   12.1842   24.5651 H   0  0  0  0  0
   12.4230   12.8624   24.9346 H   0  0  0  0  0
   11.2889   11.7001   26.3295 H   0  0  0  0  0
   12.6269   10.6866   28.7509 H   0  0  0  0  0
    9.7846   10.9569   27.8217 H   0  0  0  0  0
   10.6084   11.6254   29.3118 H   0  0  0  0  0
   10.4405    8.7118   29.1751 H   0  0  0  0  0
    8.8537    9.5546   29.2758 H   0  0  0  0  0
    9.8603   10.8851   31.1856 H   0  0  0  0  0
   11.1910    9.6735   31.1796 H   0  0  0  0  0
    9.6452    7.9004   31.6233 H   0  0  0  0  0
    8.2494    9.0376   31.4790 H   0  0  0  0  0
    8.8020    8.5713   33.7619 H   0  0  0  0  0
   10.3568    9.1283   33.5404 H   0  0  0  0  0
    9.0691   10.1775   33.4073 H   0  0  0  0  0
   10.6696    9.3677   26.0567 H   0  0  0  0  0
   11.7634    6.6882   26.7756 H   0  0  0  0  0
    9.8430    5.6962   25.7616 H   0  0  0  0  0
    9.3355    7.2899   25.0598 H   0  0  0  0  0
    8.6163    6.3875   29.0326 H   0  0  0  0  0
    9.8418    5.5008   28.1198 H   0  0  0  0  0
   13.7448    7.2855   25.8582 H   0  0  0  0  0
   13.8768    8.3053   23.2165 H   0  0  0  0  0
   16.0908    6.8386   24.6718 H   0  0  0  0  0
   15.6311    8.5947   24.9303 H   0  0  0  0  0
   17.3825    8.8561   23.5426 H   0  0  0  0  0
   16.0589    8.6283   22.3266 H   0  0  0  0  0
   16.6819    6.3280   22.0308 H   0  0  0  0  0
   17.9139    6.4564   23.3299 H   0  0  0  0  0
   19.1598    8.1927   21.8037 H   0  0  0  0  0
   15.0928    4.0364   21.5163 H   0  0  0  0  0
   14.8292    1.8667   22.5789 H   0  0  0  0  0
   13.3237    2.2938   23.2941 H   0  0  0  0  0
   16.1157    3.0701   24.2246 H   0  0  0  0  0
   14.8313    2.4304   25.1709 H   0  0  0  0  0
   13.6247    4.5119   25.2044 H   0  0  0  0  0
   15.2281    5.0956   25.1789 H   0  0  0  0  0
   11.8676    4.5595   22.9738 H   0  0  0  0  0
   10.5435    3.4813   20.6509 H   0  0  0  0  0
    8.5470    4.7693   21.5465 H   0  0  0  0  0
    9.6203    5.2554   22.9038 H   0  0  0  0  0
    8.4052    3.3507   23.3567 H   0  0  0  0  0
   11.5922    6.7680   21.5934 H   0  0  0  0  0
   10.3758    8.0710   19.3441 H   0  0  0  0  0
   12.8699    8.7297   20.8721 H   0  0  0  0  0
   11.1468    9.3742   21.1125 H   0  0  0  0  0
   12.9869    9.9501   18.7980 H   0  0  0  0  0
   10.6269    9.9509   18.1749 H   0  0  0  0  0
   10.2549   11.0404   19.5334 H   0  0  0  0  0
   11.2812   11.6069   18.1930 H   0  0  0  0  0
   12.1046   11.6314   21.1632 H   0  0  0  0  0
   13.7406   10.9846   20.8871 H   0  0  0  0  0
   13.0674   12.2060   19.7798 H   0  0  0  0  0
   13.5415    6.4724   19.7685 H   0  0  0  0  0
   14.4801    7.0483   17.1239 H   0  0  0  0  0
   15.9699    5.0696   17.4486 H   0  0  0  0  0
   15.1367    4.7898   19.0166 H   0  0  0  0  0
   15.7220    7.1698   19.6055 H   0  0  0  0  0
   16.8101    7.1500   18.1534 H   0  0  0  0  0
   17.9728    5.1942   19.1600 H   0  0  0  0  0
   16.9900    5.4391   20.6460 H   0  0  0  0  0
   19.2050    7.3334   19.5778 H   0  0  0  0  0
   12.3281    4.4299   18.2873 H   0  0  0  0  0
   12.3449    3.1210   15.7170 H   0  0  0  0  0
   10.3239    2.0092   16.4080 H   0  0  0  0  0
   10.2308    3.1413   17.8589 H   0  0  0  0  0
   11.0150    0.8306   18.3423 H   0  0  0  0  0
   12.1798    2.1715   18.7767 H   0  0  0  0  0
   13.2337    0.1141   17.8041 H   0  0  0  0  0
   13.5572    1.6351   16.9118 H   0  0  0  0  0
   11.3512   -0.1603   16.0296 H   0  0  0  0  0
   14.5341    0.8995   13.7644 H   0  0  0  0  0
   14.5246    1.2933   15.4866 H   0  0  0  0  0
   11.3554   -0.6333   13.8390 H   0  0  0  0  0
   10.2661    5.7015   17.1504 H   0  0  0  0  0
    8.4964    5.9320   14.9569 H   0  0  0  0  0
    9.4723    8.0193   16.9162 H   0  0  0  0  0
    8.9723    9.1894   14.8295 H   0  0  0  0  0
    7.3916    8.3746   14.7368 H   0  0  0  0  0
    7.7264    9.5207   16.0580 H   0  0  0  0  0
    6.8147    6.5955   16.4819 H   0  0  0  0  0
    7.9990    6.2346   17.7618 H   0  0  0  0  0
    7.1505    7.8001   17.7496 H   0  0  0  0  0
   11.6426    7.5817   15.5412 H   0  0  0  0  0
   11.5790    9.0692   13.0837 H   0  0  0  0  0
   14.0454    9.2607   13.4743 H   0  0  0  0  0
   13.8248    8.1626   14.8957 H   0  0  0  0  0
   12.0327    9.8847   15.5914 H   0  0  0  0  0
   12.9466   10.9847   14.4711 H   0  0  0  0  0
   14.8171   11.9031   17.2946 H   0  0  0  0  0
   13.6311   12.3842   16.0766 H   0  0  0  0  0
   12.7626    5.8032   13.8713 H   0  0  0  0  0
   14.0691    5.3936   11.3624 H   0  0  0  0  0
   14.4333    3.9050   13.2669 H   0  0  0  0  0
   12.7404    3.3588   13.1847 H   0  0  0  0  0
   13.8626    2.9836   11.8540 H   0  0  0  0  0
   10.6824    4.7723   12.4159 H   0  0  0  0  0
   10.0260    3.6778    9.8134 H   0  0  0  0  0
    7.6339    4.0753   10.5818 H   0  0  0  0  0
    8.3906    4.5621   12.1568 H   0  0  0  0  0
    9.2912    2.4599   13.7067 H   0  0  0  0  0
    8.3865   -0.6346   10.9186 H   0  0  0  0  0
    9.9733    6.9601   11.1210 H   0  0  0  0  0
    8.5266    8.0804    8.9288 H   0  0  0  0  0
   10.6448    9.3180   10.7016 H   0  0  0  0  0
    8.5167    8.6008   11.7234 H   0  0  0  0  0
    7.6453    9.6736   10.5351 H   0  0  0  0  0
   10.6415   10.4674    8.5253 H   0  0  0  0  0
    8.8719   10.6465    8.6120 H   0  0  0  0  0
    9.9108   11.4900    9.7867 H   0  0  0  0  0
    9.6124   10.5624   12.6585 H   0  0  0  0  0
    8.7610   11.6105   11.4976 H   0  0  0  0  0
    7.8410   10.7257   12.7393 H   0  0  0  0  0
   12.0574    7.4950    9.4188 H   0  0  0  0  0
   12.8281    8.5375    6.8726 H   0  0  0  0  0
   14.8485    7.0728    7.1644 H   0  0  0  0  0
   14.0811    6.5227    8.7222 H   0  0  0  0  0
   14.1718    8.7299    9.5963 H   0  0  0  0  0
   14.7566    9.3799    8.0199 H   0  0  0  0  0
   16.7802    7.9511    8.2721 H   0  0  0  0  0
   16.2135    7.5240    9.9173 H   0  0  0  0  0
   17.2377   10.1515    8.9976 H   0  0  0  0  0
   16.3043    9.2735   12.8408 H   0  0  0  0  0
   15.8619    8.1398   11.5601 H   0  0  0  0  0
   17.7784   11.6051   10.6355 H   0  0  0  0  0
   11.7339    5.2956    7.8600 H   0  0  0  0  0
   12.1501    4.0142    5.3407 H   0  0  0  0  0
   10.0181    3.5959    7.4498 H   0  0  0  0  0
   11.6487    2.7605    7.3217 H   0  0  0  0  0
   10.9420    1.4122    5.6281 H   0  0  0  0  0
    9.6099    2.5087    5.1588 H   0  0  0  0  0
    9.7047    0.9989    7.7884 H   0  0  0  0  0
    8.8803    0.3919    6.3247 H   0  0  0  0  0
    7.4527    2.3837    6.2779 H   0  0  0  0  0
    8.3025    3.0350    7.7218 H   0  0  0  0  0
    6.2328    1.9870    8.2938 H   0  0  0  0  0
    6.7280    0.5484    7.6140 H   0  0  0  0  0
    7.5158    1.1522    8.9526 H   0  0  0  0  0
    9.2926    5.7736    6.6309 H   0  0  0  0  0
    7.6500    5.3398    4.3503 H   0  0  0  0  0
    6.4962    7.4585    5.1100 H   0  0  0  0  0
    7.7508    7.5047    6.4407 H   0  0  0  0  0
    5.7008    6.5682    7.2683 H   0  0  0  0  0
    6.9638    5.2919    7.1518 H   0  0  0  0  0
    5.2118    4.1713    6.2210 H   0  0  0  0  0
    5.8538    4.9894    4.7521 H   0  0  0  0  0
    4.0799    6.3642    4.5826 H   0  0  0  0  0
    3.8681    6.4771    6.3726 H   0  0  0  0  0
    2.0449    5.3401    5.3175 H   0  0  0  0  0
    3.0770    4.2029    4.6707 H   0  0  0  0  0
    2.8816    4.3070    6.3223 H   0  0  0  0  0
   10.0128    7.8650    5.0961 H   0  0  0  0  0
    9.4862    9.5815    2.9498 H   0  0  0  0  0
   12.0691   10.0358    3.1366 H   0  0  0  0  0
   11.9238    8.8988    4.5732 H   0  0  0  0  0
   10.0848   10.5113    5.2862 H   0  0  0  0  0
   10.9195   11.6612    4.1613 H   0  0  0  0  0
   13.8981   10.0692    4.7499 H   0  0  0  0  0
   13.7698   11.8043    4.3703 H   0  0  0  0  0
   14.6125   11.2760    5.8473 H   0  0  0  0  0
   11.2561    6.5607    2.9920 H   0  0  0  0  0
   12.4581    7.0455    0.3668 H   0  0  0  0  0
   12.4545    4.6735    2.2651 H   0  0  0  0  0
   12.4207    3.7900   -0.0044 H   0  0  0  0  0
   13.7718    4.8583   -0.4562 H   0  0  0  0  0
   14.0228    3.5622    0.7389 H   0  0  0  0  0
   14.6430    6.5333    1.2798 H   0  0  0  0  0
   13.8742    6.5672    2.8857 H   0  0  0  0  0
   14.8654    5.1690    2.4024 H   0  0  0  0  0
   11.6493    6.3061   -1.3839 H   0  0  0  0  0
  1  2  2  0  0  0
  1  3  1  0  0  0
  1  4  1  0  0  0
  4  5  1  0  0  0
  5  6  1  0  0  0
  5  8  1  0  0  0
  6  7  2  0  0  0
  6 13  1  0  0  0
  8  9  1  0  0  0
  9 10  1  0  0  0
 10 11  1  0  0  0
 11 12  1  0  0  0
 13 14  1  0  0  0
 14 15  1  0  0  0
 14 17  1  0  0  0
 15 16  2  0  0  0
 15 21  1  0  0  0
 17 18  1  0  0  0
 18 19  2  0  0  0
 18 20  1  0  0  0
 21 22  1  0  0  0
 22 23  1  0  0  0
 22 25  1  0  0  0
 23 24  2  0  0  0
 23 29  1  0  0  0
 25 26  1  0  0  0
 26 27  1  0  0  0
 27 28  1  0  0  0
 28 57  2  0  0  0
 29 30  1  0  0  0
 29 35  1  0  0  0
 30 31  1  0  0  0
 30 33  1  0  0  0
 31 32  2  0  0  0
 31 36  1  0  0  0
 33 34  1  0  0  0
 34 35  1  0  0  0
 36 37  1  0  0  0
 37 38  1  0  0  0
 37 40  1  0  0  0
 38 39  2  0  0  0
 38 42  1  0  0  0
 40 41  1  0  0  0
 42 43  1  0  0  0
 43 44  1  0  0  0
 43 46  1  0  0  0
 44 45  2  0  0  0
 44 50  1  0  0  0
 46 47  1  0  0  0
 47 48  1  0  0  0
 47 49  1  0  0  0
 50 51  1  0  0  0
 51 52  1  0  0  0
 51 54  1  0  0  0
 52 53  2  0  0  0
 52 58  1  0  0  0
 54 55  1  0  0  0
 55 56  1  0  0  0
 56 57  1  0  0  0
 58 59  1  0  0  0
 59 60  1  0  0  0
 59 62  1  0  0  0
 60 61  2  0  0  0
 60 69  1  0  0  0
 62 63  1  0  0  0
 63 64  1  0  0  0
 64 65  1  0  0  0
 65 66  1  0  0  0
 66 67  1  0  0  0
 66 68  2  0  0  0
 69 70  1  0  0  0
 70 71  1  0  0  0
 70 73  1  0  0  0
 71 72  2  0  0  0
 71 76  1  0  0  0
 73 74  1  0  0  0
 73 75  1  0  0  0
 76 77  1  0  0  0
 77 78  1  0  0  0
 77 80  1  0  0  0
 78 79  2  0  0  0
 78 85  1  0  0  0
 80 81  1  0  0  0
 81 82  1  0  0  0
 82 83  2  0  0  0
 82 84  1  0  0  0
 85 86  1  0  0  0
 86 87  1  0  0  0
 86 89  1  0  0  0
 87 88  2  0  0  0
 87 90  1  0  0  0
 90 91  1  0  0  0
 91 92  1  0  0  0
 91 94  1  0  0  0
 92 93  2  0  0  0
 92100  1  0  0  0
 94 95  1  0  0  0
 95 96  4  0  0  0
 95 97  4  0  0  0
 96 98  4  0  0  0
 97 99  4  0  0  0
 98 99  4  0  0  0
100101  1  0  0  0
101102  1  0  0  0
101104  1  0  0  0
102103  2  0  0  0
102108  1  0  0  0
104105  1  0  0  0
104106  1  0  0  0
105107  1  0  0  0
108109  1  0  0  0
109110  1  0  0  0
109112  1  0  0  0
110111  2  0  0  0
110119  1  0  0  0
112113  1  0  0  0
113114  1  0  0  0
114115  1  0  0  0
115116  1  0  0  0
116117  1  0  0  0
116118  2  0  0  0
119120  1  0  0  0
120121  1  0  0  0
120123  1  0  0  0
121122  2  0  0  0
121128  1  0  0  0
123124  1  0  0  0
124125  1  0  0  0
125126  1  0  0  0
126127  1  0  0  0
128129  1  0  0  0
129130  1  0  0  0
129132  1  0  0  0
130131  2  0  0  0
130137  1  0  0  0
132133  1  0  0  0
133134  1  0  0  0
134135  1  0  0  0
135136  1  0  0  0
137138  1  0  0  0
138139  1  0  0  0
138141  1  0  0  0
139140  2  0  0  0
139145  1  0  0  0
141142  1  0  0  0
142143  1  0  0  0
143144  1  0  0  0
145146  1  0  0  0
146147  1  0  0  0
146149  1  0  0  0
147148  2  0  0  0
149150  1  0  0  0
149151  1  0  0  0
147152  1  0  0  0
  3153  1  0  0  0
  3154  1  0  0  0
  3155  1  0  0  0
  4156  1  0  0  0
  5157  1  0  0  0
  8158  1  0  0  0
  8159  1  0  0  0
  9160  1  0  0  0
  9161  1  0  0  0
 10162  1  0  0  0
 10163  1  0  0  0
 11164  1  0  0  0
 11165  1  0  0  0
 12166  1  0  0  0
 12167  1  0  0  0
 12168  1  0  0  0
 13169  1  0  0  0
 14170  1  0  0  0
 17171  1  0  0  0
 17172  1  0  0  0
 20173  1  0  0  0
 20174  1  0  0  0
 21175  1  0  0  0
 22176  1  0  0  0
 25177  1  0  0  0
 25178  1  0  0  0
 26179  1  0  0  0
 26180  1  0  0  0
 27181  1  0  0  0
 27182  1  0  0  0
 28183  1  0  0  0
 30184  1  0  0  0
 33185  1  0  0  0
 33186  1  0  0  0
 34187  1  0  0  0
 34188  1  0  0  0
 35189  1  0  0  0
 35190  1  0  0  0
 36191  1  0  0  0
 37192  1  0  0  0
 40193  1  0  0  0
 40194  1  0  0  0
 41195  1  0  0  0
 42196  1  0  0  0
 43197  1  0  0  0
 46198  1  0  0  0
 46199  1  0  0  0
 47200  1  0  0  0
 48201  1  0  0  0
 48202  1  0  0  0
 48203  1  0  0  0
 49204  1  0  0  0
 49205  1  0  0  0
 49206  1  0  0  0
 50207  1  0  0  0
 51208  1  0  0  0
 54209  1  0  0  0
 54210  1  0  0  0
 55211  1  0  0  0
 55212  1  0  0  0
 56213  1  0  0  0
 56214  1  0  0  0
 57215  1  0  0  0
 58216  1  0  0  0
 59217  1  0  0  0
 62218  1  0  0  0
 62219  1  0  0  0
 63220  1  0  0  0
 63221  1  0  0  0
 64222  1  0  0  0
 64223  1  0  0  0
 65224  1  0  0  0
 67225  1  0  0  0
 67226  1  0  0  0
 68227  1  0  0  0
 69228  1  0  0  0
 70229  1  0  0  0
 73230  1  0  0  0
 74231  1  0  0  0
 74232  1  0  0  0
 74233  1  0  0  0
 75234  1  0  0  0
 75235  1  0  0  0
 75236  1  0  0  0
 76237  1  0  0  0
 77238  1  0  0  0
 80239  1  0  0  0
 80240  1  0  0  0
 81241  1  0  0  0
 81242  1  0  0  0
 84243  1  0  0  0
 84244  1  0  0  0
 85245  1  0  0  0
 86246  1  0  0  0
 89247  1  0  0  0
 89248  1  0  0  0
 89249  1  0  0  0
 90250  1  0  0  0
 91251  1  0  0  0
 94252  1  0  0  0
 94253  1  0  0  0
 97254  1  0  0  0
 98255  1  0  0  0
100256  1  0  0  0
101257  1  0  0  0
104258  1  0  0  0
105259  1  0  0  0
105260  1  0  0  0
106261  1  0  0  0
106262  1  0  0  0
106263  1  0  0  0
107264  1  0  0  0
107265  1  0  0  0
107266  1  0  0  0
108267  1  0  0  0
109268  1  0  0  0
112269  1  0  0  0
112270  1  0  0  0
113271  1  0  0  0
113272  1  0  0  0
114273  1  0  0  0
114274  1  0  0  0
115275  1  0  0  0
117276  1  0  0  0
117277  1  0  0  0
118278  1  0  0  0
119279  1  0  0  0
120280  1  0  0  0
123281  1  0  0  0
123282  1  0  0  0
124283  1  0  0  0
124284  1  0  0  0
125285  1  0  0  0
125286  1  0  0  0
126287  1  0  0  0
126288  1  0  0  0
127289  1  0  0  0
127290  1  0  0  0
127291  1  0  0  0
128292  1  0  0  0
129293  1  0  0  0
132294  1  0  0  0
132295  1  0  0  0
133296  1  0  0  0
133297  1  0  0  0
134298  1  0  0  0
134299  1  0  0  0
135300  1  0  0  0
135301  1  0  0  0
136302  1  0  0  0
136303  1  0  0  0
136304  1  0  0  0
137305  1  0  0  0
138306  1  0  0  0
141307  1  0  0  0
141308  1  0  0  0
142309  1  0  0  0
142310  1  0  0  0
144311  1  0  0  0
144312  1  0  0  0
144313  1  0  0  0
145314  1  0  0  0
146315  1  0  0  0
149316  1  0  0  0
150317  1  0  0  0
150318  1  0  0  0
150319  1  0  0  0
151320  1  0  0  0
151321  1  0  0  0
151322  1  0  0  0
152323  1  0  0  0
M  END
$$$$
