### 
### Created by X-TOOL on Mon Aug  2 16:11:16 2021
### 

@<TRIPOS>MOLECULE
6peu_ligand
  189   191     1     0     0
SMALL
GAST_HUCK


@<TRIPOS>ATOM
      1 N          50.1960   50.7720   15.7490 N.4       1 GLY         0.2357
      2 CA         50.7040   50.9690   14.3630 C.3       1 GLY         0.0545
      3 C          51.2370   52.3710   14.1240 C.2       1 GLY         0.2236
      4 O          52.4440   52.5690   13.9500 O.2       1 GLY        -0.3910
      5 N          50.3250   53.3410   14.1210 N.am      1 GLY        -0.2613
      6 CA         50.6420   54.7300   13.7940 C.3       1 GLY         0.1312
      7 C          51.2200   55.5320   14.9650 C.2       1 GLY         0.2039
      8 O          51.0680   55.1640   16.1370 O.2       1 GLY        -0.3944
      9 CB         49.4020   55.4420   13.2220 C.3       1 GLY        -0.0092
     10 CG         49.5370   55.9140   11.7780 C.3       1 GLY        -0.0156
     11 CD         49.2490   54.8240   10.7500 C.3       1 GLY         0.0627
     12 NE         47.8140   54.6390   10.5080 N.pl3     1 GLY        -0.2723
     13 CZ         47.2890   53.8020    9.6080 C.cat     1 GLY         0.2882
     14 NH1        48.0690   53.0480    8.8370 N.pl3     1 GLY        -0.2849
     15 NH2        45.9690   53.7170    9.4760 N.pl3     1 GLY        -0.2849
     16 N          51.9030   56.6220   14.6130 N.am      1 GLY        -0.2637
     17 CA         52.2080   57.7190   15.5270 C.3       1 GLY         0.1312
     18 C          50.9080   58.3050   16.1110 C.2       1 GLY         0.2037
     19 O          49.8600   58.3040   15.4480 O.2       1 GLY        -0.3944
     20 CB         52.9740   58.8090   14.7660 C.3       1 GLY        -0.0101
     21 CG         54.5070   59.0070   14.7530 C.3       1 GLY        -0.0425
     22 CD1        55.3500   57.8040   15.1500 C.3       1 GLY        -0.0625
     23 CD2        54.9530   59.5410   13.3970 C.3       1 GLY        -0.0625
     24 N          50.9770   58.7810   17.3520 N.am      1 GLY        -0.2664
     25 CA         49.8460   59.4730   17.9870 C.3       1 GLY         0.1201
     26 C          49.5740   60.7890   17.2750 C.2       1 GLY         0.2009
     27 O          50.5080   61.4960   16.8750 O.2       1 GLY        -0.3947
     28 N          48.2990   61.0990   17.0710 N.am      1 GLY        -0.2622
     29 CA         47.9160   62.3110   16.3380 C.3       1 GLY         0.1404
     30 C          46.6060   62.8630   16.8800 C.2       1 GLY         0.2061
     31 O          45.9120   62.1920   17.6520 O.2       1 GLY        -0.3942
     32 CB         47.7870   62.0180   14.8290 C.3       1 GLY         0.0214
     33 CG         46.6040   61.1520   14.4820 C.ar      1 GLY        -0.0386
     34 CD1        46.6930   59.7520   14.5640 C.ar      1 GLY        -0.0601
     35 CD2        45.3880   61.7310   14.0820 C.ar      1 GLY        -0.0601
     36 CE1        45.5950   58.9490   14.2580 C.ar      1 GLY        -0.0686
     37 CE2        44.2910   60.9240   13.7820 C.ar      1 GLY        -0.0686
     38 CZ         44.3950   59.5340   13.8610 C.ar      1 GLY        -0.0687
     39 N          46.2780   64.0830   16.4630 N.am      1 GLY        -0.2620
     40 CA         44.9860   64.6910   16.7700 C.3       1 GLY         0.1390
     41 C          44.5840   65.6950   15.6980 C.2       1 GLY         0.2055
     42 O          45.4290   66.4140   15.1660 O.2       1 GLY        -0.3942
     43 CB         44.9820   65.3890   18.1470 C.3       1 GLY         0.0163
     44 CG         43.5880   65.8490   18.5170 C.ar      1 GLY        -0.0493
     45 CD1        42.6650   64.9490   19.0620 C.ar      1 GLY        -0.0685
     46 CD2        43.1650   67.1680   18.2640 C.ar      1 GLY        -0.0685
     47 CE1        41.3690   65.3470   19.3660 C.ar      1 GLY        -0.0398
     48 CE2        41.8660   67.5740   18.5700 C.ar      1 GLY        -0.0398
     49 CZ         40.9750   66.6630   19.1290 C.ar      1 GLY         0.0805
     50 OH         39.6820   67.0370   19.4340 O.3       1 GLY        -0.3376
     51 N          43.2890   65.7410   15.3960 N.am      1 GLY        -0.2663
     52 CA         42.7440   66.7810   14.5310 C.3       1 GLY         0.1201
     53 C          41.5480   66.4130   13.6870 C.2       1 GLY         0.2009
     54 O          40.9120   67.2920   13.1120 O.2       1 GLY        -0.3947
     55 N          41.2240   65.1270   13.6080 N.am      1 GLY        -0.2624
     56 CA         40.0890   64.6900   12.7980 C.3       1 GLY         0.1390
     57 C          39.3840   63.4480   13.3030 C.2       1 GLY         0.2058
     58 O          39.9610   62.6390   14.0340 O.2       1 GLY        -0.3942
     59 CB         40.4990   64.4870   11.3320 C.3       1 GLY         0.0163
     60 CG         41.5940   63.4660   11.1170 C.ar      1 GLY        -0.0493
     61 CD1        41.3010   62.0940   11.0270 C.ar      1 GLY        -0.0685
     62 CD2        42.9260   63.8700   10.9900 C.ar      1 GLY        -0.0685
     63 CE1        42.3140   61.1530   10.8210 C.ar      1 GLY        -0.0398
     64 CE2        43.9400   62.9410   10.7840 C.ar      1 GLY        -0.0398
     65 CZ         43.6260   61.5910   10.6870 C.ar      1 GLY         0.0805
     66 OH         44.6320   60.6870   10.4880 O.3       1 GLY        -0.3376
     67 N          38.1200   63.3310   12.9090 N.am      1 GLY        -0.2620
     68 CA         37.3590   62.0940   13.0280 C.3       1 GLY         0.1423
     69 C          37.0580   61.5480   11.6410 C.2       1 GLY         0.2056
     70 O          36.9150   62.3110   10.6870 O.2       1 GLY        -0.3943
     71 CB         36.0390   62.3360   13.7560 C.3       1 GLY         0.0406
     72 CG         36.2170   62.5750   15.2370 C.2       1 GLY         0.0393
     73 OD1        37.3210   62.3450   15.7600 O.co2     1 GLY        -0.5688
     74 OD2        35.2330   62.9920   15.8850 O.co2     1 GLY        -0.5688
     75 N          36.9680   60.2220   11.5570 N.am      1 GLY        -0.2636
     76 CA         36.5620   59.5100   10.3500 C.3       1 GLY         0.1312
     77 C          35.6370   58.3900   10.8040 C.2       1 GLY         0.2039
     78 O          35.9880   57.6280   11.7020 O.2       1 GLY        -0.3944
     79 CB         37.7890   58.9180    9.6330 C.3       1 GLY        -0.0101
     80 CG         37.5590   57.9800    8.4300 C.3       1 GLY        -0.0425
     81 CD1        37.2190   58.7680    7.1730 C.3       1 GLY        -0.0625
     82 CD2        38.7730   57.0920    8.1920 C.3       1 GLY        -0.0625
     83 N          34.4550   58.3000   10.1990 N.am      1 GLY        -0.2636
     84 CA         33.5360   57.1970   10.5040 C.3       1 GLY         0.1330
     85 C          34.0860   55.8920    9.9450 C.2       1 GLY         0.2036
     86 O          34.8760   55.9140    8.9990 O.2       1 GLY        -0.3944
     87 CB         32.1500   57.4730    9.9430 C.3       1 GLY         0.0045
     88 CG         31.4250   58.5850   10.6780 C.3       1 GLY         0.0412
     89 CD         30.1740   59.0050    9.9500 C.2       1 GLY         0.1737
     90 OE1        30.1750   59.9880    9.2010 O.2       1 GLY        -0.3973
     91 NE2        29.0960   58.2490   10.1530 N.am      1 GLY        -0.3009
     92 N          33.7080   54.7680   10.5490 N.am      1 GLY        -0.2679
     93 CA         34.2220   53.4710   10.0900 C.3       1 GLY         0.1057
     94 C          33.3340   52.8290    9.0210 C.2       1 GLY         0.0618
     95 O          32.6220   53.5260    8.2850 O.co2     1 GLY        -0.5665
     96 CB         34.4990   52.5140   11.2650 C.3       1 GLY         0.0351
     97 CG         33.3850   52.4990   12.2880 C.2       1 GLY         0.0387
     98 OD1        32.2440   52.1670   11.9160 O.co2     1 GLY        -0.5688
     99 OD2        33.6510   52.8110   13.4650 O.co2     1 GLY        -0.5688
    100 OXT        33.3100   51.6000    8.8710 O.co2     1 GLY        -0.5665
    101 H1         49.8561   49.8286   15.8513 H         1 GLY         0.2012
    102 H2         49.4454   51.4207   15.9271 H         1 GLY         0.2012
    103 H3         50.9427   50.9332   16.4067 H         1 GLY         0.2012
    104 H4         49.8814   50.7810   13.6573 H         1 GLY         0.1061
    105 H5         51.5154   50.2490   14.1806 H         1 GLY         0.1061
    106 H6         49.3804   53.1088   14.3530 H         1 GLY         0.1884
    107 H7         51.4103   54.7085   13.0071 H         1 GLY         0.0800
    108 H8         49.1935   56.3208   13.8499 H         1 GLY         0.0313
    109 H9         48.5534   54.7440   13.2746 H         1 GLY         0.0313
    110 H10        50.5650   56.2740   11.6244 H         1 GLY         0.0301
    111 H11        48.8305   56.7412   11.6150 H         1 GLY         0.0301
    112 H12        49.6693   53.8755   11.1156 H         1 GLY         0.0689
    113 H13        49.7334   55.0982    9.8012 H         1 GLY         0.0689
    114 H14        47.1605   55.1973   11.0756 H         1 GLY         0.2642
    115 H15        47.6483   52.4080    8.1483 H         1 GLY         0.2615
    116 H16        49.0933   53.1044    8.9291 H         1 GLY         0.2615
    117 H17        45.3541   54.2950   10.0665 H         1 GLY         0.2615
    118 H18        45.5611   53.0731    8.7832 H         1 GLY         0.2615
    119 H19        52.2248   56.6920   13.6688 H         1 GLY         0.1883
    120 H20        52.8335   57.3417   16.3494 H         1 GLY         0.0800
    121 H21        52.5645   59.7602   15.1367 H         1 GLY         0.0315
    122 H22        52.6926   58.6749   13.7111 H         1 GLY         0.0315
    123 H23        54.7202   59.7871   15.4986 H         1 GLY         0.0298
    124 H24        56.4160   58.0711   15.1011 H         1 GLY         0.0232
    125 H25        55.1486   56.9714   14.4600 H         1 GLY         0.0232
    126 H26        55.0949   57.5000   16.1759 H         1 GLY         0.0232
    127 H27        54.3354   60.4092   13.1237 H         1 GLY         0.0232
    128 H28        54.8367   58.7545   12.6368 H         1 GLY         0.0232
    129 H29        56.0088   59.8448   13.4517 H         1 GLY         0.0232
    130 H30        51.8251   58.6642   17.8689 H         1 GLY         0.1881
    131 H31        50.0870   59.6727   19.0415 H         1 GLY         0.0763
    132 H32        48.9509   58.8362   17.9296 H         1 GLY         0.0763
    133 H33        47.5853   60.4941   17.4241 H         1 GLY         0.1885
    134 H34        48.7013   63.0679   16.4807 H         1 GLY         0.0823
    135 H35        48.7019   61.5072   14.4944 H         1 GLY         0.0474
    136 H36        47.6856   62.9750   14.2963 H         1 GLY         0.0474
    137 H37        47.6257   59.2912   14.8686 H         1 GLY         0.0557
    138 H38        45.3022   62.8089   14.0063 H         1 GLY         0.0557
    139 H39        45.6752   57.8703   14.3290 H         1 GLY         0.0599
    140 H40        43.3524   61.3784   13.4859 H         1 GLY         0.0599
    141 H41        43.5431   58.9110   13.6137 H         1 GLY         0.0559
    142 H42        46.9389   64.6017   15.9206 H         1 GLY         0.1885
    143 H43        44.2343   63.8882   16.7915 H         1 GLY         0.0821
    144 H44        45.6509   66.2615   18.1102 H         1 GLY         0.0453
    145 H45        45.3421   64.6827   18.9096 H         1 GLY         0.0453
    146 H46        42.9662   63.9248   19.2500 H         1 GLY         0.0530
    147 H47        43.8578   67.8772   17.8257 H         1 GLY         0.0530
    148 H48        40.6664   64.6364   19.7862 H         1 GLY         0.0525
    149 H49        41.5526   68.5929   18.3735 H         1 GLY         0.0525
    150 H50        39.2415   67.3240   18.6427 H         1 GLY         0.2458
    151 H51        42.6751   65.0463   15.7709 H         1 GLY         0.1881
    152 H52        43.5461   67.0994   13.8489 H         1 GLY         0.0763
    153 H53        42.4507   67.6256   15.1718 H         1 GLY         0.0763
    154 H54        41.7633   64.4500   14.1088 H         1 GLY         0.1885
    155 H55        39.3528   65.5069   12.8263 H         1 GLY         0.0821
    156 H56        40.8486   65.4524   10.9372 H         1 GLY         0.0453
    157 H57        39.6114   64.1608   10.7701 H         1 GLY         0.0453
    158 H58        40.2736   61.7606   11.1188 H         1 GLY         0.0530
    159 H59        43.1724   64.9237   11.0531 H         1 GLY         0.0530
    160 H60        42.0793   60.0961   10.7665 H         1 GLY         0.0525
    161 H61        44.9700   63.2683   10.6995 H         1 GLY         0.0525
    162 H62        45.0790   60.8865    9.6738 H         1 GLY         0.2458
    163 H63        37.6695   64.1305   12.5117 H         1 GLY         0.1884
    164 H64        37.9534   61.3592   13.5907 H         1 GLY         0.0819
    165 H65        35.3958   61.4544   13.6181 H         1 GLY         0.0478
    166 H66        35.5518   63.2180   13.3147 H         1 GLY         0.0478
    167 H67        37.1918   59.6827   12.3688 H         1 GLY         0.1883
    168 H68        36.0316   60.1908    9.6679 H         1 GLY         0.0800
    169 H69        38.3601   58.3503   10.3824 H         1 GLY         0.0315
    170 H70        38.3942   59.7635    9.2740 H         1 GLY         0.0315
    171 H71        36.7029   57.3308    8.6660 H         1 GLY         0.0298
    172 H72        37.0613   58.0724    6.3356 H         1 GLY         0.0232
    173 H73        38.0480   59.4497    6.9321 H         1 GLY         0.0232
    174 H74        36.3020   59.3513    7.3427 H         1 GLY         0.0232
    175 H75        39.0029   56.5314    9.1101 H         1 GLY         0.0232
    176 H76        39.6361   57.7165    7.9180 H         1 GLY         0.0232
    177 H77        38.5570   56.3866    7.3761 H         1 GLY         0.0232
    178 H78        34.1897   58.9926    9.5282 H         1 GLY         0.1883
    179 H79        33.4551   57.1032   11.5970 H         1 GLY         0.0801
    180 H80        31.5511   56.5535   10.0194 H         1 GLY         0.0337
    181 H81        32.2501   57.7587    8.8855 H         1 GLY         0.0337
    182 H82        32.0959   59.4524   10.7652 H         1 GLY         0.0504
    183 H83        31.1517   58.2303   11.6827 H         1 GLY         0.0504
    184 H84        28.2342   58.4748    9.6987 H         1 GLY         0.1814
    185 H85        29.1486   57.4558   10.7597 H         1 GLY         0.1814
    186 H86        33.0710   54.8067   11.3189 H         1 GLY         0.1876
    187 H87        35.1920   53.6706    9.6112 H         1 GLY         0.0745
    188 H88        35.4280   52.8291   11.7626 H         1 GLY         0.0471
    189 H89        34.6233   51.4962   10.8668 H         1 GLY         0.0471
@<TRIPOS>BOND
     1    1    2 1  
     2    2    3 1  
     3    3    4 2  
     4    3    5 am 
     5    5    6 1  
     6    6    7 1  
     7    6    9 1  
     8    7    8 2  
     9    7   16 am 
    10    9   10 1  
    11   10   11 1  
    12   11   12 1  
    13   12   13 ar 
    14   13   14 ar 
    15   13   15 ar 
    16   16   17 1  
    17   17   18 1  
    18   17   20 1  
    19   18   19 2  
    20   18   24 am 
    21   20   21 1  
    22   21   22 1  
    23   21   23 1  
    24   24   25 1  
    25   25   26 1  
    26   26   27 2  
    27   26   28 am 
    28   28   29 1  
    29   29   30 1  
    30   29   32 1  
    31   30   31 2  
    32   30   39 am 
    33   32   33 1  
    34   33   34 ar 
    35   33   35 ar 
    36   34   36 ar 
    37   35   37 ar 
    38   36   38 ar 
    39   37   38 ar 
    40   39   40 1  
    41   40   41 1  
    42   40   43 1  
    43   41   42 2  
    44   41   51 am 
    45   43   44 1  
    46   44   45 ar 
    47   44   46 ar 
    48   45   47 ar 
    49   46   48 ar 
    50   47   49 ar 
    51   48   49 ar 
    52   49   50 1  
    53   51   52 1  
    54   52   53 1  
    55   53   54 2  
    56   53   55 am 
    57   55   56 1  
    58   56   57 1  
    59   56   59 1  
    60   57   58 2  
    61   57   67 am 
    62   59   60 1  
    63   60   61 ar 
    64   60   62 ar 
    65   61   63 ar 
    66   62   64 ar 
    67   63   65 ar 
    68   64   65 ar 
    69   65   66 1  
    70   67   68 1  
    71   68   69 1  
    72   68   71 1  
    73   69   70 2  
    74   69   75 am 
    75   71   72 1  
    76   72   73 ar 
    77   72   74 ar 
    78   75   76 1  
    79   76   77 1  
    80   76   79 1  
    81   77   78 2  
    82   77   83 am 
    83   79   80 1  
    84   80   81 1  
    85   80   82 1  
    86   83   84 1  
    87   84   85 1  
    88   84   87 1  
    89   85   86 2  
    90   85   92 am 
    91   87   88 1  
    92   88   89 1  
    93   89   90 2  
    94   89   91 am 
    95   92   93 1  
    96   93   94 1  
    97   93   96 1  
    98   94   95 ar 
    99   94  100 ar 
   100   96   97 1  
   101   97   98 ar 
   102   97   99 ar 
   103    1  101 1  
   104    1  102 1  
   105    1  103 1  
   106    2  104 1  
   107    2  105 1  
   108    5  106 1  
   109    6  107 1  
   110    9  108 1  
   111    9  109 1  
   112   10  110 1  
   113   10  111 1  
   114   11  112 1  
   115   11  113 1  
   116   12  114 1  
   117   14  115 1  
   118   14  116 1  
   119   15  117 1  
   120   15  118 1  
   121   16  119 1  
   122   17  120 1  
   123   20  121 1  
   124   20  122 1  
   125   21  123 1  
   126   22  124 1  
   127   22  125 1  
   128   22  126 1  
   129   23  127 1  
   130   23  128 1  
   131   23  129 1  
   132   24  130 1  
   133   25  131 1  
   134   25  132 1  
   135   28  133 1  
   136   29  134 1  
   137   32  135 1  
   138   32  136 1  
   139   34  137 1  
   140   35  138 1  
   141   36  139 1  
   142   37  140 1  
   143   38  141 1  
   144   39  142 1  
   145   40  143 1  
   146   43  144 1  
   147   43  145 1  
   148   45  146 1  
   149   46  147 1  
   150   47  148 1  
   151   48  149 1  
   152   50  150 1  
   153   51  151 1  
   154   52  152 1  
   155   52  153 1  
   156   55  154 1  
   157   56  155 1  
   158   59  156 1  
   159   59  157 1  
   160   61  158 1  
   161   62  159 1  
   162   63  160 1  
   163   64  161 1  
   164   66  162 1  
   165   67  163 1  
   166   68  164 1  
   167   71  165 1  
   168   71  166 1  
   169   75  167 1  
   170   76  168 1  
   171   79  169 1  
   172   79  170 1  
   173   80  171 1  
   174   81  172 1  
   175   81  173 1  
   176   81  174 1  
   177   82  175 1  
   178   82  176 1  
   179   82  177 1  
   180   83  178 1  
   181   84  179 1  
   182   87  180 1  
   183   87  181 1  
   184   88  182 1  
   185   88  183 1  
   186   91  184 1  
   187   91  185 1  
   188   92  186 1  
   189   93  187 1  
   190   96  188 1  
   191   96  189 1  
@<TRIPOS>SUBSTRUCTURE
     1 GLY         1

