6peu_ligand
  -I-interpret- 

191193  0  0  0  0  0  0  0  0999 V2000
   50.1960   50.7720   15.7490 N   0  3  0  0  0
   50.7040   50.9690   14.3630 C   0  0  0  0  0
   51.2370   52.3710   14.1240 C   0  0  0  0  0
   52.4440   52.5690   13.9500 O   0  0  0  0  0
   50.3250   53.3410   14.1210 N   0  0  0  0  0
   50.6420   54.7300   13.7940 C   0  0  0  0  0
   51.2200   55.5320   14.9650 C   0  0  0  0  0
   51.0680   55.1640   16.1370 O   0  0  0  0  0
   49.4020   55.4420   13.2220 C   0  0  0  0  0
   49.5370   55.9140   11.7780 C   0  0  0  0  0
   49.2490   54.8240   10.7500 C   0  0  0  0  0
   47.8140   54.6390   10.5080 N   0  0  0  0  0
   47.2890   53.8020    9.6080 C   0  0  0  0  0
   48.0690   53.0480    8.8370 N   0  0  0  0  0
   45.9690   53.7170    9.4760 N   0  0  0  0  0
   51.9030   56.6220   14.6130 N   0  0  0  0  0
   52.2080   57.7190   15.5270 C   0  0  0  0  0
   50.9080   58.3050   16.1110 C   0  0  0  0  0
   49.8600   58.3040   15.4480 O   0  0  0  0  0
   52.9740   58.8090   14.7660 C   0  0  0  0  0
   54.5070   59.0070   14.7530 C   0  0  0  0  0
   55.3500   57.8040   15.1500 C   0  0  0  0  0
   54.9530   59.5410   13.3970 C   0  0  0  0  0
   50.9770   58.7810   17.3520 N   0  0  0  0  0
   49.8460   59.4730   17.9870 C   0  0  0  0  0
   49.5740   60.7890   17.2750 C   0  0  0  0  0
   50.5080   61.4960   16.8750 O   0  0  0  0  0
   48.2990   61.0990   17.0710 N   0  0  0  0  0
   47.9160   62.3110   16.3380 C   0  0  0  0  0
   46.6060   62.8630   16.8800 C   0  0  0  0  0
   45.9120   62.1920   17.6520 O   0  0  0  0  0
   47.7870   62.0180   14.8290 C   0  0  0  0  0
   46.6040   61.1520   14.4820 C   0  0  0  0  0
   46.6930   59.7520   14.5640 C   0  0  0  0  0
   45.3880   61.7310   14.0820 C   0  0  0  0  0
   45.5950   58.9490   14.2580 C   0  0  0  0  0
   44.2910   60.9240   13.7820 C   0  0  0  0  0
   44.3950   59.5340   13.8610 C   0  0  0  0  0
   46.2780   64.0830   16.4630 N   0  0  0  0  0
   44.9860   64.6910   16.7700 C   0  0  0  0  0
   44.5840   65.6950   15.6980 C   0  0  0  0  0
   45.4290   66.4140   15.1660 O   0  0  0  0  0
   44.9820   65.3890   18.1470 C   0  0  0  0  0
   43.5880   65.8490   18.5170 C   0  0  0  0  0
   42.6650   64.9490   19.0620 C   0  0  0  0  0
   43.1650   67.1680   18.2640 C   0  0  0  0  0
   41.3690   65.3470   19.3660 C   0  0  0  0  0
   41.8660   67.5740   18.5700 C   0  0  0  0  0
   40.9750   66.6630   19.1290 C   0  0  0  0  0
   39.6820   67.0370   19.4340 O   0  0  0  0  0
   43.2890   65.7410   15.3960 N   0  0  0  0  0
   42.7440   66.7810   14.5310 C   0  0  0  0  0
   41.5480   66.4130   13.6870 C   0  0  0  0  0
   40.9120   67.2920   13.1120 O   0  0  0  0  0
   41.2240   65.1270   13.6080 N   0  0  0  0  0
   40.0890   64.6900   12.7980 C   0  0  0  0  0
   39.3840   63.4480   13.3030 C   0  0  0  0  0
   39.9610   62.6390   14.0340 O   0  0  0  0  0
   40.4990   64.4870   11.3320 C   0  0  0  0  0
   41.5940   63.4660   11.1170 C   0  0  0  0  0
   41.3010   62.0940   11.0270 C   0  0  0  0  0
   42.9260   63.8700   10.9900 C   0  0  0  0  0
   42.3140   61.1530   10.8210 C   0  0  0  0  0
   43.9400   62.9410   10.7840 C   0  0  0  0  0
   43.6260   61.5910   10.6870 C   0  0  0  0  0
   44.6320   60.6870   10.4880 O   0  0  0  0  0
   38.1200   63.3310   12.9090 N   0  0  0  0  0
   37.3590   62.0940   13.0280 C   0  0  0  0  0
   37.0580   61.5480   11.6410 C   0  0  0  0  0
   36.9150   62.3110   10.6870 O   0  0  0  0  0
   36.0390   62.3360   13.7560 C   0  0  0  0  0
   36.2170   62.5750   15.2370 C   0  0  0  0  0
   37.3210   62.3450   15.7600 O   0  0  0  0  0
   35.2330   62.9920   15.8850 O   0  0  0  0  0
   36.9680   60.2220   11.5570 N   0  0  0  0  0
   36.5620   59.5100   10.3500 C   0  0  0  0  0
   35.6370   58.3900   10.8040 C   0  0  0  0  0
   35.9880   57.6280   11.7020 O   0  0  0  0  0
   37.7890   58.9180    9.6330 C   0  0  0  0  0
   37.5590   57.9800    8.4300 C   0  0  0  0  0
   37.2190   58.7680    7.1730 C   0  0  0  0  0
   38.7730   57.0920    8.1920 C   0  0  0  0  0
   34.4550   58.3000   10.1990 N   0  0  0  0  0
   33.5360   57.1970   10.5040 C   0  0  0  0  0
   34.0860   55.8920    9.9450 C   0  0  0  0  0
   34.8760   55.9140    8.9990 O   0  0  0  0  0
   32.1500   57.4730    9.9430 C   0  0  0  0  0
   31.4250   58.5850   10.6780 C   0  0  0  0  0
   30.1740   59.0050    9.9500 C   0  0  0  0  0
   30.1750   59.9880    9.2010 O   0  0  0  0  0
   29.0960   58.2490   10.1530 N   0  0  0  0  0
   33.7080   54.7680   10.5490 N   0  0  0  0  0
   34.2220   53.4710   10.0900 C   0  0  0  0  0
   33.3340   52.8290    9.0210 C   0  0  0  0  0
   32.6220   53.5260    8.2850 O   0  0  0  0  0
   34.4990   52.5140   11.2650 C   0  0  0  0  0
   33.3850   52.4990   12.2880 C   0  0  0  0  0
   32.2440   52.1670   11.9160 O   0  0  0  0  0
   33.6510   52.8110   13.4650 O   0  0  0  0  0
   33.3100   51.6000    8.8710 O   0  0  0  0  0
   49.8523   49.8171   15.8514 H   0  0  0  0  0
   50.9524   50.9355   16.4135 H   0  0  0  0  0
   49.4366   51.4290   15.9281 H   0  0  0  0  0
   49.8726   50.8070   13.6770 H   0  0  0  0  0
   51.5247   50.2691   14.2061 H   0  0  0  0  0
   49.3615   53.1042   14.3576 H   0  0  0  0  0
   51.4293   54.6867   13.0414 H   0  0  0  0  0
   49.2426   56.3325   13.8300 H   0  0  0  0  0
   48.5873   54.7181   13.2411 H   0  0  0  0  0
   50.5687   56.2348   11.6340 H   0  0  0  0  0
   48.8075   56.7092   11.6244 H   0  0  0  0  0
   49.6469   53.8858   11.1366 H   0  0  0  0  0
   49.7116   55.1210    9.8088 H   0  0  0  0  0
   47.1669   55.1919   11.0701 H   0  0  0  0  0
   47.6524   52.4144    8.1548 H   0  0  0  0  0
   49.0834   53.1037    8.9283 H   0  0  0  0  0
   45.3601   54.2896   10.0606 H   0  0  0  0  0
   52.2312   56.6934   13.6499 H   0  0  0  0  0
   52.8193   57.3440   16.3479 H   0  0  0  0  0
   52.6363   59.7136   15.2716 H   0  0  0  0  0
   52.7749   58.5391   13.7289 H   0  0  0  0  0
   54.6922   59.7325   15.5451 H   0  0  0  0  0
   55.0963   57.5037   16.1666 H   0  0  0  0  0
   55.1495   56.9797   14.4656 H   0  0  0  0  0
   56.4059   58.0699   15.1012 H   0  0  0  0  0
   54.6764   58.8296   12.6189 H   0  0  0  0  0
   54.4660   60.4973   13.2065 H   0  0  0  0  0
   56.0345   59.6767   13.3992 H   0  0  0  0  0
   51.8420   58.6619   17.8792 H   0  0  0  0  0
   50.0890   59.6738   19.0304 H   0  0  0  0  0
   48.9594   58.8421   17.9247 H   0  0  0  0  0
   47.5710   60.4820   17.4312 H   0  0  0  0  0
   48.6976   63.0577   16.4779 H   0  0  0  0  0
   48.6854   61.4825   14.5220 H   0  0  0  0  0
   47.6533   62.9730   14.3208 H   0  0  0  0  0
   47.6309   59.2886   14.8702 H   0  0  0  0  0
   45.3017   62.8149   14.0059 H   0  0  0  0  0
   45.6757   57.8643   14.3294 H   0  0  0  0  0
   43.3473   61.3809   13.4842 H   0  0  0  0  0
   43.5384   58.9075   13.6124 H   0  0  0  0  0
   46.9521   64.6121   15.9098 H   0  0  0  0  0
   44.2620   63.8766   16.7960 H   0  0  0  0  0
   45.6368   66.2591   18.1003 H   0  0  0  0  0
   45.3281   64.6805   18.8996 H   0  0  0  0  0
   42.9678   63.9191   19.2510 H   0  0  0  0  0
   43.8617   67.8811   17.8233 H   0  0  0  0  0
   40.6626   64.6325   19.7885 H   0  0  0  0  0
   41.5508   68.5986   18.3724 H   0  0  0  0  0
   39.5590   67.9643   19.2183 H   0  0  0  0  0
   42.6629   65.0324   15.7784 H   0  0  0  0  0
   43.5389   67.0303   13.8281 H   0  0  0  0  0
   42.4054   67.5748   15.1969 H   0  0  0  0  0
   41.7741   64.4365   14.1188 H   0  0  0  0  0
   39.3685   65.5036   12.8814 H   0  0  0  0  0
   40.8821   65.4428   10.9746 H   0  0  0  0  0
   39.6178   64.1229   10.8038 H   0  0  0  0  0
   40.2679   61.7588   11.1193 H   0  0  0  0  0
   43.1737   64.9296   11.0534 H   0  0  0  0  0
   42.0780   60.0903   10.7662 H   0  0  0  0  0
   44.9756   63.2701   10.6991 H   0  0  0  0  0
   45.4690   61.1518   10.4169 H   0  0  0  0  0
   37.6605   64.1465   12.5038 H   0  0  0  0  0
   37.9541   61.3799   13.5973 H   0  0  0  0  0
   35.4246   61.4438   13.6351 H   0  0  0  0  0
   35.5825   63.2285   13.3281 H   0  0  0  0  0
   34.4852   63.1026   15.2933 H   0  0  0  0  0
   37.1963   59.6719   12.3850 H   0  0  0  0  0
   36.0657   60.1815    9.6494 H   0  0  0  0  0
   38.2868   58.3026   10.3824 H   0  0  0  0  0
   38.3224   59.7770    9.2260 H   0  0  0  0  0
   36.7083   57.3415    8.6681 H   0  0  0  0  0
   36.3103   59.3456    7.3425 H   0  0  0  0  0
   38.0411   59.4431    6.9355 H   0  0  0  0  0
   37.0630   58.0777    6.3440 H   0  0  0  0  0
   39.6435   57.7157    7.9889 H   0  0  0  0  0
   38.9577   56.4859    9.0789 H   0  0  0  0  0
   38.5837   56.4411    7.3385 H   0  0  0  0  0
   34.1844   59.0064    9.5148 H   0  0  0  0  0
   33.4490   57.1099   11.5870 H   0  0  0  0  0
   31.5601   56.5629   10.0515 H   0  0  0  0  0
   32.2672   57.7822    8.9043 H   0  0  0  0  0
   32.0906   59.4455   10.7450 H   0  0  0  0  0
   31.1433   58.2195   11.6655 H   0  0  0  0  0
   28.2203   58.4719    9.6798 H   0  0  0  0  0
   29.1463   57.4473   10.7816 H   0  0  0  0  0
   33.0583   54.8075   11.3343 H   0  0  0  0  0
   35.1793   53.6720    9.6090 H   0  0  0  0  0
   32.7398   54.4516    8.5109 H   0  0  0  0  0
   35.4054   52.8550   11.7652 H   0  0  0  0  0
   34.5914   51.5067   10.8590 H   0  0  0  0  0
   34.5828   53.0315   13.5336 H   0  0  0  0  0
  1  2  1  0  0  0
  2  3  1  0  0  0
  3  4  2  0  0  0
  3  5  1  0  0  0
  5  6  1  0  0  0
  6  7  1  0  0  0
  6  9  1  0  0  0
  7  8  2  0  0  0
  7 16  1  0  0  0
  9 10  1  0  0  0
 10 11  1  0  0  0
 11 12  1  0  0  0
 12 13  1  0  0  0
 13 14  1  0  0  0
 13 15  2  0  0  0
 16 17  1  0  0  0
 17 18  1  0  0  0
 17 20  1  0  0  0
 18 19  2  0  0  0
 18 24  1  0  0  0
 20 21  1  0  0  0
 21 22  1  0  0  0
 21 23  1  0  0  0
 24 25  1  0  0  0
 25 26  1  0  0  0
 26 27  2  0  0  0
 26 28  1  0  0  0
 28 29  1  0  0  0
 29 30  1  0  0  0
 29 32  1  0  0  0
 30 31  2  0  0  0
 30 39  1  0  0  0
 32 33  1  0  0  0
 33 34  4  0  0  0
 33 35  4  0  0  0
 34 36  4  0  0  0
 35 37  4  0  0  0
 36 38  4  0  0  0
 37 38  4  0  0  0
 39 40  1  0  0  0
 40 41  1  0  0  0
 40 43  1  0  0  0
 41 42  2  0  0  0
 41 51  1  0  0  0
 43 44  1  0  0  0
 44 45  4  0  0  0
 44 46  4  0  0  0
 45 47  4  0  0  0
 46 48  4  0  0  0
 47 49  4  0  0  0
 48 49  4  0  0  0
 49 50  1  0  0  0
 51 52  1  0  0  0
 52 53  1  0  0  0
 53 54  2  0  0  0
 53 55  1  0  0  0
 55 56  1  0  0  0
 56 57  1  0  0  0
 56 59  1  0  0  0
 57 58  2  0  0  0
 57 67  1  0  0  0
 59 60  1  0  0  0
 60 61  4  0  0  0
 60 62  4  0  0  0
 61 63  4  0  0  0
 62 64  4  0  0  0
 63 65  4  0  0  0
 64 65  4  0  0  0
 65 66  1  0  0  0
 67 68  1  0  0  0
 68 69  1  0  0  0
 68 71  1  0  0  0
 69 70  2  0  0  0
 69 75  1  0  0  0
 71 72  1  0  0  0
 72 73  2  0  0  0
 72 74  1  0  0  0
 75 76  1  0  0  0
 76 77  1  0  0  0
 76 79  1  0  0  0
 77 78  2  0  0  0
 77 83  1  0  0  0
 79 80  1  0  0  0
 80 81  1  0  0  0
 80 82  1  0  0  0
 83 84  1  0  0  0
 84 85  1  0  0  0
 84 87  1  0  0  0
 85 86  2  0  0  0
 85 92  1  0  0  0
 87 88  1  0  0  0
 88 89  1  0  0  0
 89 90  2  0  0  0
 89 91  1  0  0  0
 92 93  1  0  0  0
 93 94  1  0  0  0
 93 96  1  0  0  0
 94 95  1  0  0  0
 94100  2  0  0  0
 96 97  1  0  0  0
 97 98  2  0  0  0
 97 99  1  0  0  0
  1101  1  0  0  0
  1102  1  0  0  0
  1103  1  0  0  0
  2104  1  0  0  0
  2105  1  0  0  0
  5106  1  0  0  0
  6107  1  0  0  0
  9108  1  0  0  0
  9109  1  0  0  0
 10110  1  0  0  0
 10111  1  0  0  0
 11112  1  0  0  0
 11113  1  0  0  0
 12114  1  0  0  0
 14115  1  0  0  0
 14116  1  0  0  0
 15117  1  0  0  0
 16118  1  0  0  0
 17119  1  0  0  0
 20120  1  0  0  0
 20121  1  0  0  0
 21122  1  0  0  0
 22123  1  0  0  0
 22124  1  0  0  0
 22125  1  0  0  0
 23126  1  0  0  0
 23127  1  0  0  0
 23128  1  0  0  0
 24129  1  0  0  0
 25130  1  0  0  0
 25131  1  0  0  0
 28132  1  0  0  0
 29133  1  0  0  0
 32134  1  0  0  0
 32135  1  0  0  0
 34136  1  0  0  0
 35137  1  0  0  0
 36138  1  0  0  0
 37139  1  0  0  0
 38140  1  0  0  0
 39141  1  0  0  0
 40142  1  0  0  0
 43143  1  0  0  0
 43144  1  0  0  0
 45145  1  0  0  0
 46146  1  0  0  0
 47147  1  0  0  0
 48148  1  0  0  0
 50149  1  0  0  0
 51150  1  0  0  0
 52151  1  0  0  0
 52152  1  0  0  0
 55153  1  0  0  0
 56154  1  0  0  0
 59155  1  0  0  0
 59156  1  0  0  0
 61157  1  0  0  0
 62158  1  0  0  0
 63159  1  0  0  0
 64160  1  0  0  0
 66161  1  0  0  0
 67162  1  0  0  0
 68163  1  0  0  0
 71164  1  0  0  0
 71165  1  0  0  0
 74166  1  0  0  0
 75167  1  0  0  0
 76168  1  0  0  0
 79169  1  0  0  0
 79170  1  0  0  0
 80171  1  0  0  0
 81172  1  0  0  0
 81173  1  0  0  0
 81174  1  0  0  0
 82175  1  0  0  0
 82176  1  0  0  0
 82177  1  0  0  0
 83178  1  0  0  0
 84179  1  0  0  0
 87180  1  0  0  0
 87181  1  0  0  0
 88182  1  0  0  0
 88183  1  0  0  0
 91184  1  0  0  0
 91185  1  0  0  0
 92186  1  0  0  0
 93187  1  0  0  0
 95188  1  0  0  0
 96189  1  0  0  0
 96190  1  0  0  0
 99191  1  0  0  0
M  END
$$$$
