1utj_ligand
  -I-interpret- 

 18 18  0  0  0  0  0  0  0  0999 V2000
   25.8960   17.3950   57.6730 N   0  3  0  0  0
   24.4380   17.2620   57.3720 C   0  0  0  0  0
   23.7520   16.1380   58.0900 C   0  0  0  0  0
   24.2980   14.8560   58.0800 C   0  0  0  0  0
   23.6700   13.8080   58.7620 C   0  0  0  0  0
   22.4890   14.0490   59.4560 C   0  0  0  0  0
   21.9420   15.3230   59.4690 C   0  0  0  0  0
   22.5730   16.3590   58.7880 C   0  0  0  0  0
   26.2806   18.1790   57.1459 H   0  0  0  0  0
   26.0221   17.5606   58.6715 H   0  0  0  0  0
   26.3768   16.5359   57.4063 H   0  0  0  0  0
   24.3509   17.0579   56.3048 H   0  0  0  0  0
   23.9604   18.1860   57.6979 H   0  0  0  0  0
   25.2233   14.6677   57.5356 H   0  0  0  0  0
   24.1040   12.8082   58.7495 H   0  0  0  0  0
   21.9940   13.2372   59.9891 H   0  0  0  0  0
   21.0169   15.5129   60.0132 H   0  0  0  0  0
   22.1357   17.3573   58.8028 H   0  0  0  0  0
  1  2  1  0  0  0
  2  3  1  0  0  0
  3  4  4  0  0  0
  3  8  4  0  0  0
  4  5  4  0  0  0
  5  6  4  0  0  0
  6  7  4  0  0  0
  7  8  4  0  0  0
  1  9  1  0  0  0
  1 10  1  0  0  0
  1 11  1  0  0  0
  2 12  1  0  0  0
  2 13  1  0  0  0
  4 14  1  0  0  0
  5 15  1  0  0  0
  6 16  1  0  0  0
  7 17  1  0  0  0
  8 18  1  0  0  0
M  END
$$$$
