5oai_ligand
  -I-interpret- 

 54 56  0  0  0  0  0  0  0  0999 V2000
   56.1810    1.0330   16.5100 N   0  0  0  0  0
   59.9780    1.7550   18.0200 C   0  0  0  0  0
   58.3690   -3.0970   20.1580 O   0  0  0  0  0
   59.5460    2.5730   16.9760 C   0  0  0  0  0
   56.6670   -0.2890   21.5000 C   0  0  0  0  0
   56.1050    1.0780   21.1750 C   0  0  0  0  0
   56.9190    2.2060   21.3110 C   0  0  0  0  0
   56.4360    3.4830   21.0350 C   0  0  0  0  0
   55.0310    3.6350   20.5970 C   0  0  0  0  0
   54.2040    2.4140   20.4730 C   0  0  0  0  0
   54.7750    1.1830   20.7710 C   0  0  0  0  0
   59.5080   -3.7270   17.6020 C   0  0  0  0  0
   59.5850   -3.9560   16.1010 C   0  0  0  0  0
   59.5610   -5.0930   18.2830 C   0  0  0  0  0
   58.2890    2.4310   16.3820 C   0  0  0  0  0
   60.7200   -2.9040   18.0240 C   0  0  0  0  0
   54.4280   -0.6780   17.1590 C   0  0  0  0  0
   55.3970   -2.1040   20.5880 C   0  0  0  0  0
   57.4300    1.4430   16.8410 C   0  0  0  0  0
   57.9220    0.6000   17.9460 C   0  0  0  0  0
   59.1680    0.7510   18.5220 C   0  0  0  0  0
   55.7550   -0.0040   17.2730 C   0  0  0  0  0
   56.8590   -0.3590   18.2250 C   0  0  0  0  0
   57.2870   -1.2200   19.3710 C   0  0  0  0  0
   58.0180   -2.5240   19.1410 C   0  0  0  0  0
   54.5220    4.8480   20.3200 F   0  0  0  0  0
   52.9230    2.4990   20.0780 F   0  0  0  0  0
   57.2190    4.5700   21.1600 F   0  0  0  0  0
   56.3420   -1.2770   20.4810 N   0  0  0  0  0
   58.2880   -2.9780   17.9120 N   0  0  0  0  0
   53.7530   -0.4780   16.1240 O   0  0  0  0  0
   53.9990   -1.3970   18.0810 O   0  0  0  0  0
   54.7570   -2.1590   21.6260 O   0  0  0  0  0
   60.6590    3.8440   16.3900 Cl  0  0  0  0  0
   60.9689    1.9088   18.4472 H   0  0  0  0  0
   56.2298   -0.6189   22.4424 H   0  0  0  0  0
   57.7523   -0.2041   21.5545 H   0  0  0  0  0
   57.9512    2.0841   21.6392 H   0  0  0  0  0
   54.1701    0.2801   20.6871 H   0  0  0  0  0
   60.5184   -4.4647   15.8598 H   0  0  0  0  0
   58.7424   -4.5709   15.7849 H   0  0  0  0  0
   59.5493   -2.9960   15.5860 H   0  0  0  0  0
   58.7186   -5.6978   17.9474 H   0  0  0  0  0
   60.4946   -5.5916   18.0223 H   0  0  0  0  0
   59.5075   -4.9611   19.3637 H   0  0  0  0  0
   57.9869    3.0891   15.5673 H   0  0  0  0  0
   61.6313   -3.4475   17.7747 H   0  0  0  0  0
   60.7098   -1.9490   17.4988 H   0  0  0  0  0
   60.6824   -2.7292   19.0992 H   0  0  0  0  0
   55.1524   -2.7667   19.7579 H   0  0  0  0  0
   59.4994    0.1073   19.3368 H   0  0  0  0  0
   58.1370   -0.6056   19.6678 H   0  0  0  0  0
   57.6197   -2.7959   17.1632 H   0  0  0  0  0
   54.2420    0.0966   15.5305 H   0  0  0  0  0
  1 19  4  0  0  0
 22  1  4  0  0  0
  2  4  4  0  0  0
 21  2  4  0  0  0
 25  3  2  0  0  0
 15  4  4  0  0  0
  4 34  1  0  0  0
  5  6  1  0  0  0
 29  5  1  0  0  0
  6  7  4  0  0  0
  6 11  4  0  0  0
  7  8  4  0  0  0
  8  9  4  0  0  0
  8 28  1  0  0  0
 10  9  4  0  0  0
  9 26  1  0  0  0
 11 10  4  0  0  0
 10 27  1  0  0  0
 12 13  1  0  0  0
 12 14  1  0  0  0
 12 16  1  0  0  0
 30 12  1  0  0  0
 19 15  4  0  0  0
 22 17  1  0  0  0
 17 31  1  0  0  0
 17 32  2  0  0  0
 29 18  1  0  0  0
 18 33  2  0  0  0
 20 19  4  0  0  0
 20 21  4  0  0  0
 23 20  4  0  0  0
 23 22  4  0  0  0
 24 23  1  0  0  0
 25 24  1  0  0  0
 24 29  1  0  0  0
 25 30  1  0  0  0
  2 35  1  0  0  0
  5 36  1  0  0  0
  5 37  1  0  0  0
  7 38  1  0  0  0
 11 39  1  0  0  0
 13 40  1  0  0  0
 13 41  1  0  0  0
 13 42  1  0  0  0
 14 43  1  0  0  0
 14 44  1  0  0  0
 14 45  1  0  0  0
 15 46  1  0  0  0
 16 47  1  0  0  0
 16 48  1  0  0  0
 16 49  1  0  0  0
 18 50  1  0  0  0
 21 51  1  0  0  0
 24 52  1  0  0  0
 30 53  1  0  0  0
 31 54  1  0  0  0
M  END
$$$$
