2woq_ligand
  -I-interpret- 

 27 26  0  0  0  0  0  0  0  0999 V2000
  -21.7200   23.3840   17.5290 O   0  0  0  0  0
  -22.6370   23.3800   18.3550 C   0  0  0  0  0
  -22.7510   24.4750   19.3680 C   0  0  0  0  0
  -23.5380   22.4100   18.5320 N   0  0  0  0  0
  -23.7490   21.2060   17.7170 C   0  0  0  0  0
  -23.4440   19.9110   18.4340 C   0  0  0  0  0
  -23.2600   21.2830   16.2730 C   0  0  0  0  0
  -23.9490   22.2770   15.3870 C   0  0  0  0  0
  -25.0880   21.5700   14.5930 C   0  0  0  0  0
  -25.6840   22.4950   13.5360 C   0  0  0  0  0
  -25.1650   23.5950   13.2360 O   0  0  0  0  0
  -26.7020   22.0900   12.9950 O   0  0  0  0  0
  -21.8500   24.4963   19.9810 H   0  0  0  0  0
  -22.8668   25.4306   18.8567 H   0  0  0  0  0
  -23.6190   24.2930   20.0017 H   0  0  0  0  0
  -24.1580   22.5190   19.3346 H   0  0  0  0  0
  -24.8304   21.1847   17.5819 H   0  0  0  0  0
  -23.9144   19.0836   17.9028 H   0  0  0  0  0
  -22.3651   19.7589   18.4635 H   0  0  0  0  0
  -23.8333   19.9598   19.4509 H   0  0  0  0  0
  -23.4531   20.3034   15.8358 H   0  0  0  0  0
  -22.2168   21.5949   16.3233 H   0  0  0  0  0
  -23.2277   22.6985   14.6869 H   0  0  0  0  0
  -24.3744   23.0728   15.9985 H   0  0  0  0  0
  -25.8757   21.2892   15.2922 H   0  0  0  0  0
  -24.6714   20.6954   14.0934 H   0  0  0  0  0
  -24.3777   23.7318   13.7681 H   0  0  0  0  0
  1  2  2  0  0  0
  2  3  1  0  0  0
  2  4  1  0  0  0
  4  5  1  0  0  0
  5  6  1  0  0  0
  5  7  1  0  0  0
  7  8  1  0  0  0
  8  9  1  0  0  0
  9 10  1  0  0  0
 10 11  1  0  0  0
 10 12  2  0  0  0
  3 13  1  0  0  0
  3 14  1  0  0  0
  3 15  1  0  0  0
  4 16  1  0  0  0
  5 17  1  0  0  0
  6 18  1  0  0  0
  6 19  1  0  0  0
  6 20  1  0  0  0
  7 21  1  0  0  0
  7 22  1  0  0  0
  8 23  1  0  0  0
  8 24  1  0  0  0
  9 25  1  0  0  0
  9 26  1  0  0  0
 11 27  1  0  0  0
M  END
$$$$
