3kwz_ligand
  -I-interpret- 

 51 53  0  0  0  0  0  0  0  0999 V2000
   11.8050  -17.3100    4.1940 N   0  0  0  0  0
   13.0920  -17.0520    3.9760 C   0  0  0  0  0
   13.4210  -16.2530    2.8600 C   0  0  0  0  0
   12.4200  -15.6800    2.0740 C   0  0  0  0  0
   11.1460  -15.9490    2.3690 N   0  0  0  0  0
   10.8630  -16.7760    3.3910 C   0  0  0  0  0
   14.0860  -17.7270    4.8840 C   0  0  0  0  0
   12.7380  -14.8060    0.8850 C   0  0  0  0  0
   12.0650  -15.3110   -0.3800 C   0  0  0  0  0
   12.5550  -16.7220   -0.7410 C   0  0  0  0  0
   12.2080  -17.2780   -2.0870 N   0  3  0  0  0
   13.6090  -18.3790    6.0290 C   0  0  0  0  0
   14.4510  -19.0680    6.8980 C   0  0  0  0  0
   15.8160  -19.1120    6.6080 C   0  0  0  0  0
   16.2920  -18.4690    5.4690 C   0  0  0  0  0
   15.4480  -17.7760    4.6040 C   0  0  0  0  0
   13.9100  -19.7470    8.1230 C   0  0  0  0  0
   12.9280  -20.5900    7.8270 F   0  0  0  0  0
   14.8890  -20.4280    8.6380 F   0  0  0  0  0
   13.5040  -18.9290    9.0830 F   0  0  0  0  0
   11.0780  -16.5910   -2.7670 C   0  0  0  0  0
   10.4010  -17.3000   -3.9540 C   0  0  0  0  0
   10.7830  -18.7600   -4.1890 C   0  0  0  0  0
   11.8590  -19.3940   -3.2970 C   0  0  0  0  0
   12.0810  -18.7330   -1.9510 C   0  0  0  0  0
    9.4370  -17.0100    3.6530 C   0  0  0  0  0
    8.6300  -16.3660    2.9270 N   0  0  0  0  0
   14.4678  -16.0816    2.6093 H   0  0  0  0  0
   13.8166  -14.8185    0.7285 H   0  0  0  0  0
   12.3718  -13.8001    1.0906 H   0  0  0  0  0
   12.3109  -14.6358   -1.1996 H   0  0  0  0  0
   10.9887  -15.3477   -0.2119 H   0  0  0  0  0
   12.0672  -17.3841   -0.0255 H   0  0  0  0  0
   13.6430  -16.6560   -0.7325 H   0  0  0  0  0
   12.9635  -17.0831   -2.7440 H   0  0  0  0  0
   12.5415  -18.3456    6.2470 H   0  0  0  0  0
   16.5019  -19.6445    7.2668 H   0  0  0  0  0
   17.3584  -18.5089    5.2469 H   0  0  0  0  0
   15.8489  -17.2793    3.7205 H   0  0  0  0  0
   11.5059  -15.6793   -3.1838 H   0  0  0  0  0
   10.3012  -16.4972   -2.0082 H   0  0  0  0  0
   10.7167  -16.7596   -4.8464 H   0  0  0  0  0
    9.3334  -17.3005   -3.7343 H   0  0  0  0  0
   11.1995  -18.7849   -5.1960 H   0  0  0  0  0
    9.8749  -19.3267   -3.9832 H   0  0  0  0  0
   12.7993  -19.3040   -3.8409 H   0  0  0  0  0
   11.5233  -20.4096   -3.0874 H   0  0  0  0  0
   11.2241  -18.9486   -1.3127 H   0  0  0  0  0
   13.0031  -19.1233   -1.5204 H   0  0  0  0  0
    9.0964  -17.6977    4.4270 H   0  0  0  0  0
    8.9831  -15.7304    2.2117 H   0  0  0  0  0
  1  2  4  0  0  0
  1  6  4  0  0  0
  2  3  4  0  0  0
  2  7  1  0  0  0
  3  4  4  0  0  0
  4  5  4  0  0  0
  4  8  1  0  0  0
  5  6  4  0  0  0
  6 26  1  0  0  0
  7 12  4  0  0  0
  7 16  4  0  0  0
  8  9  1  0  0  0
  9 10  1  0  0  0
 10 11  1  0  0  0
 11 21  1  0  0  0
 11 25  1  0  0  0
 12 13  4  0  0  0
 13 14  4  0  0  0
 13 17  1  0  0  0
 14 15  4  0  0  0
 15 16  4  0  0  0
 17 18  1  0  0  0
 17 19  1  0  0  0
 17 20  1  0  0  0
 21 22  1  0  0  0
 22 23  1  0  0  0
 23 24  1  0  0  0
 24 25  1  0  0  0
 26 27  2  0  0  0
  3 28  1  0  0  0
  8 29  1  0  0  0
  8 30  1  0  0  0
  9 31  1  0  0  0
  9 32  1  0  0  0
 10 33  1  0  0  0
 10 34  1  0  0  0
 11 35  1  0  0  0
 12 36  1  0  0  0
 14 37  1  0  0  0
 15 38  1  0  0  0
 16 39  1  0  0  0
 21 40  1  0  0  0
 21 41  1  0  0  0
 22 42  1  0  0  0
 22 43  1  0  0  0
 23 44  1  0  0  0
 23 45  1  0  0  0
 24 46  1  0  0  0
 24 47  1  0  0  0
 25 48  1  0  0  0
 25 49  1  0  0  0
 26 50  1  0  0  0
 27 51  1  0  0  0
M  END
$$$$
