### 
### Created by X-TOOL on Mon Sep 10 21:13:04 2018
### 

@<TRIPOS>MOLECULE
3kwz_ligand
   50    52     1     0     0
SMALL
GAST_HUCK


@<TRIPOS>ATOM
      1 N1         11.8050  -17.3100    4.1940 N.ar      1 KWZ        -0.2531
      2 C2         13.0920  -17.0520    3.9760 C.ar      1 KWZ         0.0739
      3 C3         13.4210  -16.2530    2.8600 C.ar      1 KWZ         0.0028
      4 C4         12.4200  -15.6800    2.0740 C.ar      1 KWZ         0.0496
      5 N5         11.1460  -15.9490    2.3690 N.ar      1 KWZ        -0.2519
      6 C6         10.8630  -16.7760    3.3910 C.ar      1 KWZ         0.1482
      7 C7         14.0860  -17.7270    4.8840 C.ar      1 KWZ         0.0361
      8 C8         12.7380  -14.8060    0.8850 C.3       1 KWZ         0.0015
      9 C9         12.0650  -15.3110   -0.3800 C.3       1 KWZ        -0.0581
     10 C10        12.5550  -16.7220   -0.7410 C.3       1 KWZ        -0.1107
     11 N11        12.2080  -17.2780   -2.0870 N.4       1 KWZ         0.4030
     12 C12        13.6090  -18.3790    6.0290 C.ar      1 KWZ        -0.0174
     13 C13        14.4510  -19.0680    6.8980 C.ar      1 KWZ         0.0525
     14 C14        15.8160  -19.1120    6.6080 C.ar      1 KWZ        -0.0287
     15 C15        16.2920  -18.4690    5.4690 C.ar      1 KWZ        -0.0285
     16 C16        15.4480  -17.7760    4.6040 C.ar      1 KWZ        -0.0206
     17 C17        13.9100  -19.7470    8.1230 C.3       1 KWZ         0.3780
     18 F18        12.9280  -20.5900    7.8270 F         1 KWZ        -0.2197
     19 F19        14.8890  -20.4280    8.6380 F         1 KWZ        -0.2197
     20 F20        13.5040  -18.9290    9.0830 F         1 KWZ        -0.2197
     21 C21        11.0780  -16.5910   -2.7670 C.3       1 KWZ        -0.1130
     22 C22        10.4010  -17.3000   -3.9540 C.3       1 KWZ        -0.0718
     23 C23        10.7830  -18.7600   -4.1890 C.3       1 KWZ        -0.0567
     24 C24        11.8590  -19.3940   -3.2970 C.3       1 KWZ        -0.0718
     25 C25        12.0810  -18.7330   -1.9510 C.3       1 KWZ        -0.1130
     26 C26         9.4370  -17.0100    3.6530 C.2       1 KWZ         0.0588
     27 N27         8.6300  -16.3660    2.9270 N.2       1 KWZ        -0.3298
     28 H          14.4678  -16.0816    2.6093 H         1 KWZ         0.0757
     29 H          13.8166  -14.8185    0.7285 H         1 KWZ         0.0479
     30 H          12.3718  -13.8001    1.0906 H         1 KWZ         0.0479
     31 H          12.3109  -14.6358   -1.1996 H         1 KWZ         0.0273
     32 H          10.9887  -15.3477   -0.2119 H         1 KWZ         0.0273
     33 H          12.0672  -17.3841   -0.0255 H         1 KWZ         0.0019
     34 H          13.6430  -16.6560   -0.7325 H         1 KWZ         0.0019
     35 H          12.5415  -18.3456    6.2470 H         1 KWZ         0.0895
     36 H          16.5019  -19.6445    7.2668 H         1 KWZ         0.0875
     37 H          17.3584  -18.5089    5.2469 H         1 KWZ         0.0706
     38 H          15.8489  -17.2793    3.7205 H         1 KWZ         0.0889
     39 H          11.5059  -15.6793   -3.1838 H         1 KWZ         0.0017
     40 H          10.3012  -16.4972   -2.0082 H         1 KWZ         0.0017
     41 H          10.7167  -16.7596   -4.8464 H         1 KWZ         0.0246
     42 H           9.3334  -17.3005   -3.7343 H         1 KWZ         0.0246
     43 H          11.1995  -18.7849   -5.1960 H         1 KWZ         0.0264
     44 H           9.8749  -19.3267   -3.9832 H         1 KWZ         0.0264
     45 H          12.7993  -19.3040   -3.8409 H         1 KWZ         0.0246
     46 H          11.5233  -20.4096   -3.0874 H         1 KWZ         0.0246
     47 H          11.2241  -18.9486   -1.3127 H         1 KWZ         0.0017
     48 H          13.0031  -19.1233   -1.5204 H         1 KWZ         0.0017
     49 H           9.0964  -17.6977    4.4270 H         1 KWZ         0.1164
     50 H           8.9831  -15.7304    2.2117 H         1 KWZ         0.1393
@<TRIPOS>BOND
     1    1    2 ar 
     2    1    6 ar 
     3    2    3 ar 
     4    2    7 1  
     5    3    4 ar 
     6    4    5 ar 
     7    4    8 1  
     8    5    6 ar 
     9    6   26 1  
    10    7   12 ar 
    11    7   16 ar 
    12    8    9 1  
    13    9   10 1  
    14   10   11 1  
    15   11   21 1  
    16   11   25 1  
    17   12   13 ar 
    18   13   14 ar 
    19   13   17 1  
    20   14   15 ar 
    21   15   16 ar 
    22   17   18 1  
    23   17   19 1  
    24   17   20 1  
    25   21   22 1  
    26   22   23 1  
    27   23   24 1  
    28   24   25 1  
    29   26   27 2  
    30    3   28 1  
    31    8   29 1  
    32    8   30 1  
    33    9   31 1  
    34    9   32 1  
    35   10   33 1  
    36   10   34 1  
    37   12   35 1  
    38   14   36 1  
    39   15   37 1  
    40   16   38 1  
    41   21   39 1  
    42   21   40 1  
    43   22   41 1  
    44   22   42 1  
    45   23   43 1  
    46   23   44 1  
    47   24   45 1  
    48   24   46 1  
    49   25   47 1  
    50   25   48 1  
    51   26   49 1  
    52   27   50 1  
@<TRIPOS>SUBSTRUCTURE
     1 KWZ         1

