4i8z_ligand
  -I-interpret- 

 77 80  0  0  0  0  0  0  0  0999 V2000
  -17.2240    0.5750   -2.6400 O   0  0  0  0  0
  -18.2990    1.0550   -2.9940 C   0  0  0  0  0
  -18.6020    1.0790   -4.3500 O   0  0  0  0  0
  -17.6440    0.9740   -5.3270 C   0  0  0  0  0
  -17.3790    2.3080   -5.9130 C   0  0  0  0  0
  -17.4080    3.5630   -5.1090 C   0  0  0  0  0
  -18.9560    3.8420   -5.1140 C   0  0  0  0  0
  -19.2760    3.5360   -6.4770 O   0  0  0  0  0
  -18.4740    2.4590   -6.8530 C   0  0  0  0  0
  -19.0890    1.2120   -6.9970 O   0  0  0  0  0
  -18.2230    0.2170   -6.4880 C   0  0  0  0  0
  -19.3720    1.2320   -2.1370 N   0  0  0  0  0
  -19.1480    1.2430   -0.7080 C   0  0  0  0  0
  -19.4460    2.6330   -0.1550 C   0  0  0  0  0
  -18.4730    3.6290   -0.7850 C   0  0  0  0  0
  -18.9050    4.6210   -1.6990 C   0  0  0  0  0
  -17.9990    5.5120   -2.2620 C   0  0  0  0  0
  -16.6610    5.4140   -1.9370 C   0  0  0  0  0
  -16.2080    4.4590   -1.0340 C   0  0  0  0  0
  -17.1180    3.5640   -0.4560 C   0  0  0  0  0
  -20.1150    0.2160   -0.1090 C   0  0  0  0  0
  -21.3940    0.6420   -0.4130 O   0  0  0  0  0
  -19.8950   -0.1690    1.3600 C   0  0  0  0  0
  -18.5710   -0.8420    1.4390 N   0  0  0  0  0
  -18.5810   -2.2980    1.7250 C   0  0  0  0  0
  -18.8960   -3.0900    0.4450 C   0  0  0  0  0
  -19.2360   -4.5130    0.8770 C   0  0  0  0  0
  -17.6620   -3.1830   -0.3960 C   0  0  0  0  0
  -17.4060   -0.0590    2.3700 S   0  0  0  0  0
  -17.5300    1.3790    2.2000 O   0  0  0  0  0
  -16.1320   -0.5190    1.9030 O   0  0  0  0  0
  -17.5900   -0.4480    4.1070 C   0  0  0  0  0
  -16.7650   -1.4600    4.5850 C   0  0  0  0  0
  -16.8460   -1.8720    5.9090 C   0  0  0  0  0
  -18.5970    0.2030    4.8240 C   0  0  0  0  0
  -18.6580   -0.2240    6.1750 C   0  0  0  0  0
  -17.8040   -1.2440    6.6880 C   0  0  0  0  0
  -17.8740   -1.6870    8.1280 C   0  0  0  0  0
  -18.8800   -1.4640    8.7190 O   0  0  0  0  0
  -16.8060   -2.3630    8.8090 N   0  0  0  0  0
  -16.7624    0.5127   -4.8819 H   0  0  0  0  0
  -16.3364    2.2586   -6.2272 H   0  0  0  0  0
  -16.7992    4.3734   -5.5100 H   0  0  0  0  0
  -16.9653    3.4769   -4.1167 H   0  0  0  0  0
  -19.2261    4.8535   -4.8106 H   0  0  0  0  0
  -19.5153    3.2566   -4.3842 H   0  0  0  0  0
  -18.1528    2.7350   -7.8574 H   0  0  0  0  0
  -18.7092   -0.7226   -6.2254 H   0  0  0  0  0
  -17.4894   -0.1598   -7.2007 H   0  0  0  0  0
  -20.3133    1.3537   -2.5105 H   0  0  0  0  0
  -18.1152    0.9972   -0.4612 H   0  0  0  0  0
  -19.3275    2.6340    0.9285 H   0  0  0  0  0
  -20.4714    2.9149   -0.3940 H   0  0  0  0  0
  -19.9603    4.6864   -1.9639 H   0  0  0  0  0
  -18.3419    6.2812   -2.9539 H   0  0  0  0  0
  -15.9470    6.0975   -2.3965 H   0  0  0  0  0
  -15.1500    4.4067   -0.7769 H   0  0  0  0  0
  -16.7666    2.8144    0.2530 H   0  0  0  0  0
  -19.9140   -0.7512   -0.5697 H   0  0  0  0  0
  -22.0311    0.0209   -0.0525 H   0  0  0  0  0
  -20.6866   -0.8328    1.7076 H   0  0  0  0  0
  -19.9174    0.7145    1.9980 H   0  0  0  0  0
  -19.3462   -2.5091    2.4720 H   0  0  0  0  0
  -17.5998   -2.5951    2.0954 H   0  0  0  0  0
  -19.7029   -2.6099   -0.1086 H   0  0  0  0  0
  -18.3833   -4.9461    1.3999 H   0  0  0  0  0
  -20.0995   -4.4930    1.5418 H   0  0  0  0  0
  -19.4672   -5.1131   -0.0031 H   0  0  0  0  0
  -17.3275   -2.1798   -0.6602 H   0  0  0  0  0
  -16.8788   -3.6925    0.1654 H   0  0  0  0  0
  -17.8839   -3.7442   -1.3037 H   0  0  0  0  0
  -16.0482   -1.9343    3.9147 H   0  0  0  0  0
  -16.1927   -2.6457    6.3123 H   0  0  0  0  0
  -19.2602    0.9536    4.3940 H   0  0  0  0  0
  -19.3816    0.2430    6.8432 H   0  0  0  0  0
  -16.9188   -2.6428    9.7834 H   0  0  0  0  0
  -15.9344   -2.5634    8.3185 H   0  0  0  0  0
  1  2  2  0  0  0
  2  3  1  0  0  0
  2 12  1  0  0  0
  3  4  1  0  0  0
  4  5  1  0  0  0
  4 11  1  0  0  0
  5  6  1  0  0  0
  5  9  1  0  0  0
  6  7  1  0  0  0
  7  8  1  0  0  0
  8  9  1  0  0  0
  9 10  1  0  0  0
 10 11  1  0  0  0
 12 13  1  0  0  0
 13 14  1  0  0  0
 13 21  1  0  0  0
 14 15  1  0  0  0
 15 16  4  0  0  0
 15 20  4  0  0  0
 16 17  4  0  0  0
 17 18  4  0  0  0
 18 19  4  0  0  0
 19 20  4  0  0  0
 21 22  1  0  0  0
 21 23  1  0  0  0
 23 24  1  0  0  0
 24 25  1  0  0  0
 24 29  1  0  0  0
 25 26  1  0  0  0
 26 27  1  0  0  0
 26 28  1  0  0  0
 29 30  2  0  0  0
 29 31  2  0  0  0
 29 32  1  0  0  0
 32 33  4  0  0  0
 32 35  4  0  0  0
 33 34  4  0  0  0
 34 37  4  0  0  0
 35 36  4  0  0  0
 36 37  4  0  0  0
 37 38  1  0  0  0
 38 39  2  0  0  0
 38 40  1  0  0  0
  4 41  1  0  0  0
  5 42  1  0  0  0
  6 43  1  0  0  0
  6 44  1  0  0  0
  7 45  1  0  0  0
  7 46  1  0  0  0
  9 47  1  0  0  0
 11 48  1  0  0  0
 11 49  1  0  0  0
 12 50  1  0  0  0
 13 51  1  0  0  0
 14 52  1  0  0  0
 14 53  1  0  0  0
 16 54  1  0  0  0
 17 55  1  0  0  0
 18 56  1  0  0  0
 19 57  1  0  0  0
 20 58  1  0  0  0
 21 59  1  0  0  0
 22 60  1  0  0  0
 23 61  1  0  0  0
 23 62  1  0  0  0
 25 63  1  0  0  0
 25 64  1  0  0  0
 26 65  1  0  0  0
 27 66  1  0  0  0
 27 67  1  0  0  0
 27 68  1  0  0  0
 28 69  1  0  0  0
 28 70  1  0  0  0
 28 71  1  0  0  0
 33 72  1  0  0  0
 34 73  1  0  0  0
 35 74  1  0  0  0
 36 75  1  0  0  0
 40 76  1  0  0  0
 40 77  1  0  0  0
M  END
$$$$
