6csq_ligand
  -I-interpret- 

 23 23  0  0  0  0  0  0  0  0999 V2000
  -27.8700   -4.4960    8.7260 C   0  0  0  0  0
  -27.7190   -2.8850    6.8220 C   0  0  0  0  0
  -28.6620   -3.7180    7.6760 C   0  0  0  0  0
  -29.7710   -2.8890    8.3250 C   0  0  0  0  0
  -30.6620   -3.6950    9.2560 C   0  0  0  0  0
  -29.8170   -4.4000   10.3110 C   0  0  0  0  0
  -28.7870   -5.3000    9.6520 C   0  0  0  0  0
  -26.3430   -2.8200    7.2550 N   0  0  0  0  0
  -28.0250   -2.2750    5.8170 O   0  0  0  0  0
  -25.5690   -2.0660    6.4380 O   0  0  0  0  0
  -27.3126   -3.7820    9.3323 H   0  0  0  0  0
  -27.2097   -5.1926    8.2095 H   0  0  0  0  0
  -29.1623   -4.4212    7.0101 H   0  0  0  0  0
  -30.4000   -2.4986    7.5250 H   0  0  0  0  0
  -29.2935   -2.1105    8.9200 H   0  0  0  0  0
  -31.2039   -4.4412    8.6749 H   0  0  0  0  0
  -31.3632   -3.0227    9.7504 H   0  0  0  0  0
  -30.4686   -5.0077   10.9389 H   0  0  0  0  0
  -29.3007   -3.6503   10.9105 H   0  0  0  0  0
  -28.1798   -5.7647   10.4289 H   0  0  0  0  0
  -29.3075   -6.0538    9.0612 H   0  0  0  0  0
  -25.9910   -3.2919    8.0880 H   0  0  0  0  0
  -24.6686   -2.0569    6.7707 H   0  0  0  0  0
  1  3  1  0  0  0
  1  7  1  0  0  0
  3  2  1  0  0  0
  2  8  1  0  0  0
  2  9  2  0  0  0
  3  4  1  0  0  0
  4  5  1  0  0  0
  5  6  1  0  0  0
  6  7  1  0  0  0
  8 10  1  0  0  0
  1 11  1  0  0  0
  1 12  1  0  0  0
  3 13  1  0  0  0
  4 14  1  0  0  0
  4 15  1  0  0  0
  5 16  1  0  0  0
  5 17  1  0  0  0
  6 18  1  0  0  0
  6 19  1  0  0  0
  7 20  1  0  0  0
  7 21  1  0  0  0
  8 22  1  0  0  0
 10 23  1  0  0  0
M  END
$$$$
