4xhk_ligand
  -I-interpret- 

 45 48  0  0  0  0  0  0  0  0999 V2000
  -18.3580   36.4720    3.6980 O   0  0  0  0  0
  -19.8250   37.7760    2.1880 C   0  0  0  0  0
  -20.6500   38.4350    2.9940 C   0  0  0  0  0
  -18.7380   36.8520    2.5770 C   0  0  0  0  0
  -17.5610   34.9830    1.3800 C   0  0  0  0  0
  -16.8990   34.2740    2.4010 C   0  0  0  0  0
  -21.0180   38.8250    0.5630 C   0  0  0  0  0
  -21.9560   39.9810   -3.3640 C   0  0  0  0  0
  -22.7770   40.3410   -2.3140 C   0  0  0  0  0
  -20.8650   39.2500   -3.1520 C   0  0  0  0  0
  -20.5830   38.9490   -1.8290 C   0  0  0  0  0
  -21.3490   39.2460   -0.7610 C   0  0  0  0  0
  -17.8550   35.1410   -0.9090 O   0  0  0  0  0
  -22.4690   39.9720   -1.0340 C   0  0  0  0  0
  -21.5890   39.4270    2.0670 S   0  0  0  0  0
  -20.0500   37.9800    0.8750 N   0  0  0  0  0
  -19.4390   38.3430   -1.6540 F   0  0  0  0  0
  -23.2930   40.2150   -0.0260 F   0  0  0  0  0
  -18.4270   36.1100    1.4900 N   0  0  0  0  0
  -17.2640   34.5080    0.1450 C   0  0  0  0  0
  -16.3660   33.4440   -0.1110 C   0  0  0  0  0
  -15.7870   32.7850    1.0040 C   0  0  0  0  0
  -16.0660   33.2580    2.2080 N   0  0  0  0  0
  -18.0430   34.4330   -2.1620 C   0  0  0  0  0
  -16.9220   34.7620   -3.1130 C   0  0  0  0  0
  -17.6200   35.6030   -4.0820 N   0  3  0  0  0
  -18.8660   36.1270   -3.6210 C   0  0  0  0  0
  -19.3200   34.9280   -2.8360 C   0  0  0  0  0
  -20.6985   38.3377    4.0786 H   0  0  0  0  0
  -17.0848   34.5832    3.4296 H   0  0  0  0  0
  -22.2042   40.2989   -4.3766 H   0  0  0  0  0
  -23.6776   40.9239   -2.5069 H   0  0  0  0  0
  -20.2308   38.9082   -3.9700 H   0  0  0  0  0
  -18.8780   36.3990    0.6220 H   0  0  0  0  0
  -16.1274   33.1412   -1.1306 H   0  0  0  0  0
  -15.1360   31.9205    0.8737 H   0  0  0  0  0
  -18.0814   33.3655   -1.9449 H   0  0  0  0  0
  -16.4431   33.8865   -3.5515 H   0  0  0  0  0
  -16.0689   35.2479   -2.6395 H   0  0  0  0  0
  -17.8232   35.0188   -4.8931 H   0  0  0  0  0
  -17.0143   36.4002   -4.2769 H   0  0  0  0  0
  -19.5500   36.4641   -4.3999 H   0  0  0  0  0
  -18.8038   37.0592   -3.0595 H   0  0  0  0  0
  -20.1018   35.1730   -2.1171 H   0  0  0  0  0
  -19.7792   34.1671   -3.4670 H   0  0  0  0  0
  4  1  2  0  0  0
  2  3  4  0  0  0
  2  4  1  0  0  0
 16  2  4  0  0  0
 15  3  4  0  0  0
  4 19  1  0  0  0
  5  6  4  0  0  0
 19  5  1  0  0  0
  5 20  4  0  0  0
  6 23  4  0  0  0
 12  7  1  0  0  0
  7 15  4  0  0  0
  7 16  4  0  0  0
  8  9  4  0  0  0
 10  8  4  0  0  0
  9 14  4  0  0  0
 11 10  4  0  0  0
 11 12  4  0  0  0
 11 17  1  0  0  0
 12 14  4  0  0  0
 20 13  1  0  0  0
 13 24  1  0  0  0
 14 18  1  0  0  0
 20 21  4  0  0  0
 21 22  4  0  0  0
 22 23  4  0  0  0
 24 25  1  0  0  0
 24 28  1  0  0  0
 25 26  1  0  0  0
 26 27  1  0  0  0
 27 28  1  0  0  0
  3 29  1  0  0  0
  6 30  1  0  0  0
  8 31  1  0  0  0
  9 32  1  0  0  0
 10 33  1  0  0  0
 19 34  1  0  0  0
 21 35  1  0  0  0
 22 36  1  0  0  0
 24 37  1  0  0  0
 25 38  1  0  0  0
 25 39  1  0  0  0
 26 40  1  0  0  0
 26 41  1  0  0  0
 27 42  1  0  0  0
 27 43  1  0  0  0
 28 44  1  0  0  0
 28 45  1  0  0  0
M  END
$$$$
