### 
### Created by X-TOOL on Mon Sep 10 21:13:31 2018
### 

@<TRIPOS>MOLECULE
5km3_ligand
   32    33     1     0     0
SMALL
GAST_HUCK


@<TRIPOS>ATOM
      1 N1        -29.5570    5.5030  -30.4650 N.am      1 U5P        -0.1592
      2 C2        -28.5240    5.3770  -31.4100 C.2       1 U5P         0.3328
      3 N3        -28.8130    5.0560  -32.6740 N.am      1 U5P        -0.1865
      4 C4        -30.0810    4.8470  -33.0490 C.2       1 U5P         0.1822
      5 C5        -31.1180    4.9630  -32.1340 C.2       1 U5P         0.0062
      6 C6        -30.8280    5.2970  -30.8190 C.2       1 U5P         0.0591
      7 O2        -27.3390    5.5740  -31.0640 O.2       1 U5P        -0.3815
      8 O4        -30.3340    4.5480  -34.2350 O.2       1 U5P        -0.4124
      9 C1'       -29.2170    5.8640  -29.0830 C.3       1 U5P         0.2059
     10 C2'       -30.1300    6.9110  -28.4640 C.3       1 U5P         0.1387
     11 O2'       -29.7830    8.2120  -28.8820 O.3       1 U5P        -0.3836
     12 C3'       -29.9350    6.6490  -26.9660 C.3       1 U5P         0.1149
     13 C4'       -29.5930    5.1540  -26.9050 C.3       1 U5P         0.1182
     14 O3'       -28.8480    7.4230  -26.4520 O.3       1 U5P        -0.3864
     15 O4'       -29.3550    4.7270  -28.2720 O.3       1 U5P        -0.3363
     16 C5'       -30.6550    4.3010  -26.2700 C.3       1 U5P         0.1072
     17 O5'       -30.5670    4.4040  -24.8550 O.3       1 U5P        -0.2734
     18 P         -31.8580    4.3270  -23.9260 P.3       1 U5P         0.2008
     19 O1P       -32.7180    5.4850  -24.3710 O.co2     1 U5P        -0.5537
     20 O2P       -32.4510    2.9650  -24.1970 O.co2     1 U5P        -0.5537
     21 O3P       -31.2680    4.4380  -22.5410 O.co2     1 U5P        -0.5537
     22 H1        -28.0766    4.9712  -33.3452 H         1 U5P         0.2259
     23 H2        -32.1479    4.7937  -32.4447 H         1 U5P         0.0258
     24 H3        -31.6268    5.3900  -30.0847 H         1 U5P         0.1178
     25 H4        -28.1793    6.2281  -29.0606 H         1 U5P         0.0997
     26 H5        -31.1776    6.7284  -28.7454 H         1 U5P         0.0676
     27 H6        -28.8892    8.3996  -28.6205 H         1 U5P         0.2101
     28 H7        -30.8522    6.8724  -26.4014 H         1 U5P         0.0648
     29 H8        -28.6697    5.0312  -26.3198 H         1 U5P         0.0650
     30 H9        -28.0702    7.2590  -26.9722 H         1 U5P         0.2100
     31 H10       -30.5106    3.2527  -26.5703 H         1 U5P         0.0639
     32 H11       -31.6464    4.6440  -26.6009 H         1 U5P         0.0639
@<TRIPOS>BOND
     1    1    2 am 
     2    1    6 1  
     3    1    9 1  
     4    2    3 am 
     5    2    7 2  
     6    3    4 am 
     7    4    5 1  
     8    4    8 2  
     9    5    6 2  
    10    9   10 1  
    11    9   15 1  
    12   10   11 1  
    13   10   12 1  
    14   12   13 1  
    15   12   14 1  
    16   13   15 1  
    17   13   16 1  
    18   16   17 1  
    19   17   18 1  
    20   18   19 ar 
    21   18   20 ar 
    22   18   21 ar 
    23    3   22 1  
    24    5   23 1  
    25    6   24 1  
    26    9   25 1  
    27   10   26 1  
    28   11   27 1  
    29   12   28 1  
    30   13   29 1  
    31   14   30 1  
    32   16   31 1  
    33   16   32 1  
@<TRIPOS>SUBSTRUCTURE
     1 U5P         1

