5km3_ligand
  -I-interpret- 

 34 35  0  0  0  0  0  0  0  0999 V2000
  -29.5570    5.5030  -30.4650 N   0  0  0  0  0
  -28.5240    5.3770  -31.4100 C   0  0  0  0  0
  -28.8130    5.0560  -32.6740 N   0  0  0  0  0
  -30.0810    4.8470  -33.0490 C   0  0  0  0  0
  -31.1180    4.9630  -32.1340 C   0  0  0  0  0
  -30.8280    5.2970  -30.8190 C   0  0  0  0  0
  -27.3390    5.5740  -31.0640 O   0  0  0  0  0
  -30.3340    4.5480  -34.2350 O   0  0  0  0  0
  -29.2170    5.8640  -29.0830 C   0  0  0  0  0
  -30.1300    6.9110  -28.4640 C   0  0  0  0  0
  -29.7830    8.2120  -28.8820 O   0  0  0  0  0
  -29.9350    6.6490  -26.9660 C   0  0  0  0  0
  -29.5930    5.1540  -26.9050 C   0  0  0  0  0
  -28.8480    7.4230  -26.4520 O   0  0  0  0  0
  -29.3550    4.7270  -28.2720 O   0  0  0  0  0
  -30.6550    4.3010  -26.2700 C   0  0  0  0  0
  -30.5670    4.4040  -24.8550 O   0  0  0  0  0
  -31.8580    4.3270  -23.9260 P   0  0  0  0  0
  -32.7180    5.4850  -24.3710 O   0  0  0  0  0
  -32.4510    2.9650  -24.1970 O   0  0  0  0  0
  -31.2680    4.4380  -22.5410 O   0  0  0  0  0
  -28.0619    4.9695  -33.3586 H   0  0  0  0  0
  -32.1489    4.7936  -32.4450 H   0  0  0  0  0
  -31.6276    5.3901  -30.0841 H   0  0  0  0  0
  -28.2042    6.2642  -29.1305 H   0  0  0  0  0
  -31.1773    6.8427  -28.7583 H   0  0  0  0  0
  -30.3767    8.8468  -28.4745 H   0  0  0  0  0
  -30.8106    6.9170  -26.3747 H   0  0  0  0  0
  -28.7187    5.0257  -26.2668 H   0  0  0  0  0
  -28.7441    7.2437  -25.5146 H   0  0  0  0  0
  -30.5106    3.2622  -26.5671 H   0  0  0  0  0
  -31.6371    4.6421  -26.5974 H   0  0  0  0  0
  -31.8468    2.2866  -23.8866 H   0  0  0  0  0
  -30.7417    3.6569  -22.3550 H   0  0  0  0  0
  1  2  1  0  0  0
  1  6  1  0  0  0
  1  9  1  0  0  0
  2  3  1  0  0  0
  2  7  2  0  0  0
  3  4  1  0  0  0
  4  5  1  0  0  0
  4  8  2  0  0  0
  5  6  2  0  0  0
  9 10  1  0  0  0
  9 15  1  0  0  0
 10 11  1  0  0  0
 10 12  1  0  0  0
 12 13  1  0  0  0
 12 14  1  0  0  0
 13 15  1  0  0  0
 13 16  1  0  0  0
 16 17  1  0  0  0
 17 18  1  0  0  0
 18 19  2  0  0  0
 18 20  1  0  0  0
 18 21  1  0  0  0
  3 22  1  0  0  0
  5 23  1  0  0  0
  6 24  1  0  0  0
  9 25  1  0  0  0
 10 26  1  0  0  0
 11 27  1  0  0  0
 12 28  1  0  0  0
 13 29  1  0  0  0
 14 30  1  0  0  0
 16 31  1  0  0  0
 16 32  1  0  0  0
 20 33  1  0  0  0
 21 34  1  0  0  0
M  END
$$$$
