1mh5_ligand
  -I-interpret- 

 62 63  0  0  0  0  0  0  0  0999 V2000
   30.5160  -39.0010   42.2600 C   0  0  0  0  0
   30.7510  -38.3080   41.0700 C   0  0  0  0  0
   30.8830  -36.9180   41.0610 C   0  0  0  0  0
   30.7830  -36.2050   42.2470 C   0  0  0  0  0
   30.5570  -36.8810   43.4420 C   0  0  0  0  0
   30.4260  -38.2780   43.4430 C   0  0  0  0  0
   30.2680  -40.4920   42.2480 C   0  0  0  0  0
   28.8200  -40.8490   42.0730 C   0  0  0  0  0
   28.5250  -42.2770   41.9730 N   0  0  0  0  0
   27.3030  -42.7660   42.1590 C   0  0  0  0  0
   26.3500  -42.0360   42.4180 O   0  0  0  0  0
   27.0830  -44.2760   42.0040 C   0  0  0  0  0
   28.2300  -45.0060   42.4230 O   0  0  0  0  0
   29.2050  -45.6580   41.3470 P   0  0  0  0  0
   30.4760  -44.8850   41.2810 O   0  0  0  0  0
   28.4220  -45.8710   40.1070 O   0  0  0  0  0
   29.5390  -46.9640   41.8520 C   0  0  0  0  0
   30.6370  -47.6290   41.0320 C   0  0  0  0  0
   31.0150  -48.9970   41.5280 C   0  0  0  0  0
   30.3020  -50.1220   41.1200 C   0  0  0  0  0
   30.6530  -51.3890   41.5800 C   0  0  0  0  0
   31.7220  -51.5390   42.4600 C   0  0  0  0  0
   32.4350  -50.4220   42.8740 C   0  0  0  0  0
   32.0790  -49.1630   42.4100 C   0  0  0  0  0
   29.9750  -46.9290   43.2390 N   0  0  0  0  0
   29.4100  -47.6860   44.1740 C   0  0  0  0  0
   28.4730  -48.4480   43.9420 O   0  0  0  0  0
   29.9620  -47.5600   45.5740 C   0  0  0  0  0
   30.5500  -48.8530   46.0750 C   0  0  0  0  0
   29.4820  -49.9140   46.1920 C   0  0  0  0  0
   30.0560  -51.2960   46.4230 C   0  0  0  0  0
   30.8170  -51.7770   45.5510 O   0  0  0  0  0
   29.7460  -51.8980   47.4740 O   0  0  0  0  0
   30.8326  -38.8609   40.1342 H   0  0  0  0  0
   31.0645  -36.3934   40.1229 H   0  0  0  0  0
   30.8811  -35.1194   42.2426 H   0  0  0  0  0
   30.4818  -36.3256   44.3769 H   0  0  0  0  0
   30.2516  -38.8021   44.3827 H   0  0  0  0  0
   30.5922  -40.8887   43.2101 H   0  0  0  0  0
   30.8161  -40.9114   41.4043 H   0  0  0  0  0
   28.5045  -40.4026   41.1300 H   0  0  0  0  0
   28.3044  -40.4896   42.9636 H   0  0  0  0  0
   29.2842  -42.9216   41.7525 H   0  0  0  0  0
   26.8947  -44.4951   40.9530 H   0  0  0  0  0
   26.2362  -44.5707   42.6238 H   0  0  0  0  0
   30.8638  -44.8335   42.1577 H   0  0  0  0  0
   28.6179  -47.5419   41.7766 H   0  0  0  0  0
   31.5240  -46.9995   41.1026 H   0  0  0  0  0
   30.2617  -47.7426   40.0150 H   0  0  0  0  0
   29.4619  -50.0098   40.4346 H   0  0  0  0  0
   30.0910  -52.2632   41.2512 H   0  0  0  0  0
   31.9977  -52.5294   42.8222 H   0  0  0  0  0
   33.2729  -50.5334   43.5622 H   0  0  0  0  0
   32.6417  -48.2904   42.7417 H   0  0  0  0  0
   30.7374  -46.3046   43.5022 H   0  0  0  0  0
   29.1426  -47.2818   46.2368 H   0  0  0  0  0
   30.7543  -46.8115   45.5591 H   0  0  0  0  0
   30.9880  -48.6835   47.0586 H   0  0  0  0  0
   31.3084  -49.1923   45.3695 H   0  0  0  0  0
   28.9258  -49.9344   45.2548 H   0  0  0  0  0
   28.8541  -49.6646   47.0473 H   0  0  0  0  0
   30.9169  -51.1478   44.8328 H   0  0  0  0  0
  1  2  4  0  0  0
  1  6  4  0  0  0
  1  7  1  0  0  0
  2  3  4  0  0  0
  3  4  4  0  0  0
  4  5  4  0  0  0
  5  6  4  0  0  0
  7  8  1  0  0  0
  8  9  1  0  0  0
  9 10  1  0  0  0
 10 11  2  0  0  0
 10 12  1  0  0  0
 12 13  1  0  0  0
 13 14  1  0  0  0
 14 15  1  0  0  0
 14 16  2  0  0  0
 14 17  1  0  0  0
 17 18  1  0  0  0
 17 25  1  0  0  0
 18 19  1  0  0  0
 19 20  4  0  0  0
 19 24  4  0  0  0
 20 21  4  0  0  0
 21 22  4  0  0  0
 22 23  4  0  0  0
 23 24  4  0  0  0
 25 26  1  0  0  0
 26 27  2  0  0  0
 26 28  1  0  0  0
 28 29  1  0  0  0
 29 30  1  0  0  0
 30 31  1  0  0  0
 31 32  1  0  0  0
 31 33  2  0  0  0
  2 34  1  0  0  0
  3 35  1  0  0  0
  4 36  1  0  0  0
  5 37  1  0  0  0
  6 38  1  0  0  0
  7 39  1  0  0  0
  7 40  1  0  0  0
  8 41  1  0  0  0
  8 42  1  0  0  0
  9 43  1  0  0  0
 12 44  1  0  0  0
 12 45  1  0  0  0
 15 46  1  0  0  0
 17 47  1  0  0  0
 18 48  1  0  0  0
 18 49  1  0  0  0
 20 50  1  0  0  0
 21 51  1  0  0  0
 22 52  1  0  0  0
 23 53  1  0  0  0
 24 54  1  0  0  0
 25 55  1  0  0  0
 28 56  1  0  0  0
 28 57  1  0  0  0
 29 58  1  0  0  0
 29 59  1  0  0  0
 30 60  1  0  0  0
 30 61  1  0  0  0
 32 62  1  0  0  0
M  END
$$$$
