4tmk_ligand
  -I-interpret- 

 85 89  0  0  0  0  0  0  0  0999 V2000
   24.9590  100.3390   17.5190 N   0  0  0  0  0
   24.8200  100.5920   16.2120 C   0  0  0  0  0
   25.8720   99.4790   18.0180 C   0  0  0  0  0
   25.8980   99.0240   19.1840 O   0  0  0  0  0
   26.7660   99.0180   17.0820 N   0  0  0  0  0
   26.7120   99.2170   15.7220 C   0  0  0  0  0
   27.5640   98.7680   14.9420 O   0  0  0  0  0
   25.6450  100.0640   15.2890 C   0  0  0  0  0
   25.5680  100.3480   13.7860 C   0  0  0  0  0
   20.5680  101.8140   17.6160 C   0  0  0  0  0
   21.7500  101.4560   18.5270 C   0  0  0  0  0
   22.6480  100.5280   17.8530 O   0  0  0  0  0
   23.9750  100.8540   18.4130 C   0  0  0  0  0
   23.8640  102.3980   18.3600 C   0  0  0  0  0
   22.5330  102.6930   18.9940 C   0  0  0  0  0
   22.5950  102.7490   20.4140 O   0  0  0  0  0
   20.0850  103.5050   15.6980 P   0  0  0  0  0
   19.3550  102.8400   14.6470 O   0  0  0  0  0
   20.9000  104.6950   15.2870 O   0  0  0  0  0
   21.0740  102.5150   16.5630 O   0  0  0  0  0
   19.1540  104.2080   16.5070 O   0  0  0  0  0
   18.3640  105.6400   16.3660 P   0  0  0  0  0
   17.1210  105.6320   17.2100 O   0  0  0  0  0
   18.2280  105.9100   14.9010 O   0  0  0  0  0
   19.4750  106.6760   16.8330 O   0  0  0  0  0
   20.5100  107.5760   16.1640 P   0  0  0  0  0
   21.8170  107.0370   16.5720 O   0  0  0  0  0
   20.2100  107.6840   14.7490 O   0  0  0  0  0
   20.2170  109.0820   16.8040 O   0  0  0  0  0
   20.4980  110.7190   16.4250 P   0  0  0  0  0
   21.4790  110.8560   15.3070 O   0  0  0  0  0
   20.6120  111.3780   17.7140 O   0  0  0  0  0
   19.1450  111.1330   15.6500 O   0  0  0  0  0
   18.3080  112.5120   15.3460 P   0  0  0  0  0
   19.2070  113.4960   14.6760 O   0  0  0  0  0
   17.1230  112.0340   14.6310 O   0  0  0  0  0
   17.9710  112.9110   16.8110 O   0  0  0  0  0
   17.4610  111.9960   17.8090 C   0  0  0  0  0
   16.5070  112.6760   18.7370 C   0  0  0  0  0
   17.2260  113.6180   19.4960 O   0  0  0  0  0
   16.7340  114.9770   19.3180 C   0  0  0  0  0
   15.9120  114.9230   18.0330 C   0  0  0  0  0
   14.9480  115.9620   18.1540 O   0  0  0  0  0
   15.3160  113.4800   18.0500 C   0  0  0  0  0
   14.2150  113.3420   19.0000 O   0  0  0  0  0
   17.8350  115.9460   19.1470 N   0  0  0  0  0
   17.9810  117.1490   19.8270 C   0  0  0  0  0
   17.1840  117.6150   20.8400 N   0  0  0  0  0
   17.5710  118.8280   21.2650 C   0  0  0  0  0
   18.6340  119.5490   20.8190 N   0  0  0  0  0
   19.4770  119.0270   19.9030 C   0  0  0  0  0
   20.4960  119.8010   19.5510 N   0  0  0  0  0
   19.1520  117.7310   19.3750 C   0  0  0  0  0
   19.6700  116.9560   18.3620 N   0  0  0  0  0
   18.8520  115.9360   18.2390 C   0  0  0  0  0
   24.0125  101.2469   15.8846 H   0  0  0  0  0
   27.5522   98.4708   17.4324 H   0  0  0  0  0
   24.5938  100.0376   13.4083 H   0  0  0  0  0
   25.7033  101.4155   13.6118 H   0  0  0  0  0
   26.3523   99.7924   13.2719 H   0  0  0  0  0
   19.8312  102.4083   18.1563 H   0  0  0  0  0
   20.0605  100.9131   17.2711 H   0  0  0  0  0
   21.3302  100.9827   19.4146 H   0  0  0  0  0
   24.2394  100.4623   19.3952 H   0  0  0  0  0
   23.9287  102.7807   17.3414 H   0  0  0  0  0
   24.6861  102.8880   18.8816 H   0  0  0  0  0
   22.1114  103.6601   18.7198 H   0  0  0  0  0
   23.0878  103.5283   20.6812 H   0  0  0  0  0
   21.3421  105.0600   16.0570 H   0  0  0  0  0
   17.3561  105.4471   18.1222 H   0  0  0  0  0
   21.8721  107.0255   17.5303 H   0  0  0  0  0
   21.1880  110.3268   14.5608 H   0  0  0  0  0
   19.9349  113.7140   15.2628 H   0  0  0  0  0
   18.3004  111.6176   18.3923 H   0  0  0  0  0
   16.9331  111.1891   17.3007 H   0  0  0  0  0
   16.0560  111.8681   19.3132 H   0  0  0  0  0
   16.1657  115.3028   20.1892 H   0  0  0  0  0
   16.4356  115.0822   17.0903 H   0  0  0  0  0
   14.3962  115.9780   17.3686 H   0  0  0  0  0
   14.9690  113.1799   17.0612 H   0  0  0  0  0
   13.4433  113.8029   18.6629 H   0  0  0  0  0
   16.9690  119.2835   22.0513 H   0  0  0  0  0
   20.6020  120.7257   19.9682 H   0  0  0  0  0
   21.1732  119.4711   18.8633 H   0  0  0  0  0
   18.9741  115.1581   17.4853 H   0  0  0  0  0
  1 13  1  0  0  0
  1  3  1  0  0  0
  1  2  1  0  0  0
  2  8  2  0  0  0
  8  9  1  0  0  0
  8  6  1  0  0  0
  6  7  2  0  0  0
  6  5  1  0  0  0
  5  3  1  0  0  0
  3  4  2  0  0  0
 13 14  1  0  0  0
 13 12  1  0  0  0
 12 11  1  0  0  0
 11 15  1  0  0  0
 11 10  1  0  0  0
 10 20  1  0  0  0
 20 17  1  0  0  0
 17 21  1  0  0  0
 17 19  1  0  0  0
 17 18  2  0  0  0
 21 22  1  0  0  0
 22 25  1  0  0  0
 22 24  2  0  0  0
 22 23  1  0  0  0
 25 26  1  0  0  0
 26 29  1  0  0  0
 26 28  2  0  0  0
 26 27  1  0  0  0
 29 30  1  0  0  0
 30 33  1  0  0  0
 30 32  2  0  0  0
 30 31  1  0  0  0
 33 34  1  0  0  0
 34 37  1  0  0  0
 34 36  2  0  0  0
 34 35  1  0  0  0
 37 38  1  0  0  0
 38 39  1  0  0  0
 39 44  1  0  0  0
 39 40  1  0  0  0
 40 41  1  0  0  0
 41 46  1  0  0  0
 41 42  1  0  0  0
 42 44  1  0  0  0
 42 43  1  0  0  0
 44 45  1  0  0  0
 46 55  4  0  0  0
 46 47  4  0  0  0
 47 53  4  0  0  0
 47 48  4  0  0  0
 48 49  4  0  0  0
 49 50  4  0  0  0
 50 51  4  0  0  0
 51 53  4  0  0  0
 51 52  1  0  0  0
 53 54  4  0  0  0
 54 55  4  0  0  0
 15 16  1  0  0  0
 15 14  1  0  0  0
  2 56  1  0  0  0
  5 57  1  0  0  0
  9 58  1  0  0  0
  9 59  1  0  0  0
  9 60  1  0  0  0
 10 61  1  0  0  0
 10 62  1  0  0  0
 11 63  1  0  0  0
 13 64  1  0  0  0
 14 65  1  0  0  0
 14 66  1  0  0  0
 15 67  1  0  0  0
 16 68  1  0  0  0
 19 69  1  0  0  0
 23 70  1  0  0  0
 27 71  1  0  0  0
 31 72  1  0  0  0
 35 73  1  0  0  0
 38 74  1  0  0  0
 38 75  1  0  0  0
 39 76  1  0  0  0
 41 77  1  0  0  0
 42 78  1  0  0  0
 43 79  1  0  0  0
 44 80  1  0  0  0
 45 81  1  0  0  0
 49 82  1  0  0  0
 52 83  1  0  0  0
 52 84  1  0  0  0
 55 85  1  0  0  0
M  END
$$$$
