### 
### Created by X-TOOL on Mon Sep 10 21:12:48 2018
### 

@<TRIPOS>MOLECULE
1i8h_ligand
  211   213     1     0     0
SMALL
GAST_HUCK


@<TRIPOS>ATOM
      1 N         -41.2430    4.5200   62.3600 N.4       1 LYS         0.2379
      2 CA        -42.5560    3.9210   61.9770 C.3       1 LYS         0.0650
      3 C         -42.3520    2.7130   61.0010 C.2       1 LYS         0.2267
      4 O         -41.8140    2.9100   59.9100 O.2       1 LYS        -0.3907
      5 CB        -43.4560    5.0540   61.3890 C.3       1 LYS         0.0080
      6 CG        -44.9000    4.6660   60.9380 C.3       1 LYS        -0.0410
      7 CD        -45.0570    4.4510   59.4100 C.3       1 LYS        -0.0123
      8 CE        -46.4940    4.0490   59.0060 C.3       1 LYS        -0.0354
      9 NZ        -46.6370    4.0020   57.5180 N.4       1 LYS         0.2185
     10 N         -42.8010    1.4950   61.3590 N.am      1 VAL        -0.2608
     11 CA        -42.8680    0.3430   60.3980 C.3       1 VAL         0.1334
     12 C         -44.0170    0.5200   59.3340 C.2       1 VAL         0.2042
     13 O         -45.0680    1.1050   59.6270 O.2       1 VAL        -0.3944
     14 CB        -42.9210   -0.9970   61.2160 C.3       1 VAL        -0.0063
     15 CG1       -44.2400   -1.2700   61.9790 C.3       1 VAL        -0.0584
     16 CG2       -42.6030   -2.2400   60.3560 C.3       1 VAL        -0.0584
     17 N         -43.7980    0.0810   58.0830 N.am      1 SER        -0.2616
     18 CA        -44.7790    0.2790   56.9790 C.3       1 SER         0.1539
     19 C         -44.7560   -0.8600   55.9150 C.2       1 SER         0.2062
     20 O         -43.6950   -1.2810   55.4500 O.2       1 SER        -0.3943
     21 CB        -44.4870    1.6410   56.2920 C.3       1 SER         0.0843
     22 OG        -45.6130    2.0780   55.5210 O.3       1 SER        -0.3903
     23 N         -45.9430   -1.2440   55.4200 N.am      1 VAL        -0.2634
     24 CA        -46.0880   -1.7910   54.0350 C.3       1 VAL         0.1333
     25 C         -45.9300   -0.6600   52.9440 C.2       1 VAL         0.2042
     26 O         -46.1750    0.5290   53.2040 O.2       1 VAL        -0.3944
     27 CB        -47.4250   -2.6180   53.9610 C.3       1 VAL        -0.0063
     28 CG1       -48.7300   -1.7850   53.9720 C.3       1 VAL        -0.0584
     29 CG2       -47.4840   -3.5740   52.7480 C.3       1 VAL        -0.0584
     30 N         -45.5310   -1.0410   51.7190 N.am      1 VAL        -0.2635
     31 CA        -45.4490   -0.1030   50.5530 C.3       1 VAL         0.1332
     32 C         -46.8990    0.1560   49.9980 C.2       1 VAL         0.2041
     33 O         -47.6480   -0.7700   49.6660 O.2       1 VAL        -0.3944
     34 CB        -44.4620   -0.6450   49.4560 C.3       1 VAL        -0.0063
     35 CG1       -44.2380    0.3240   48.2710 C.3       1 VAL        -0.0584
     36 CG2       -43.0430   -0.9990   49.9720 C.3       1 VAL        -0.0584
     37 N         -47.3020    1.4320   49.9450 N.am      1 ARG        -0.2637
     38 CA        -48.6970    1.8330   49.6090 C.3       1 ARG         0.1311
     39 C         -48.8660    2.3340   48.1370 C.2       1 ARG         0.2040
     40 O         -48.6660    3.5040   47.8070 O.2       1 ARG        -0.3944
     41 CB        -49.2060    2.8290   50.6870 C.3       1 ARG        -0.0092
     42 CG        -50.7130    3.2170   50.6260 C.3       1 ARG        -0.0156
     43 CD        -51.7380    2.0970   50.9440 C.3       1 ARG         0.0627
     44 NE        -52.3830    1.5560   49.7090 N.pl3     1 ARG        -0.2723
     45 CZ        -52.2160    0.3250   49.1980 C.cat     1 ARG         0.2882
     46 NH1       -51.4860   -0.6130   49.7350 N.pl3     1 ARG        -0.2849
     47 NH2       -52.7940    0.0360   48.0800 N.pl3     1 ARG        -0.2849
     48 N         -49.3500    1.4350   47.2720 N.am      1 TPO        -0.2611
     49 CA        -49.9980    1.7850   45.9680 C.3       1 TPO         0.1614
     50 CB        -50.3520    0.4510   45.1950 C.3       1 TPO         0.1262
     51 CG2       -51.5030    0.5090   44.1810 C.3       1 TPO        -0.0298
     52 OG1       -50.6620   -0.6800   46.0630 O.3       1 TPO        -0.2685
     53 P         -49.6790   -1.9600   46.1510 P.3       1 TPO         0.2014
     54 O1P       -50.2440   -3.0070   47.1280 O.co2     1 TPO        -0.5537
     55 O2P       -49.5800   -2.6280   44.7740 O.co2     1 TPO        -0.5537
     56 O3P       -48.2210   -1.5180   46.6300 O.co2     1 TPO        -0.5537
     57 C         -51.1960    2.8140   46.1230 C.2       1 TPO         0.2093
     58 O         -52.0960    2.5230   46.9140 O.2       1 TPO        -0.3941
     59 N         -51.2850    3.9940   45.4320 N.am      1 PRO        -0.2497
     60 CA        -52.3520    5.0090   45.6920 C.3       1 PRO         0.1340
     61 C         -53.8540    4.5270   45.6550 C.2       1 PRO         0.2066
     62 O         -54.5160    4.7070   46.6820 O.2       1 PRO        -0.3942
     63 CB        -51.9400    6.1910   44.7830 C.3       1 PRO        -0.0104
     64 CG        -50.8670    5.6630   43.8280 C.3       1 PRO        -0.0281
     65 CD        -50.2010    4.5340   44.6030 C.3       1 PRO         0.0369
     66 N         -54.4160    3.8570   44.6040 N.am      1 PRO        -0.2498
     67 CA        -55.6830    3.0840   44.7320 C.3       1 PRO         0.1338
     68 C         -55.4320    1.6310   45.3060 C.2       1 PRO         0.2041
     69 O         -54.9550    1.4630   46.4340 O.2       1 PRO        -0.3944
     70 CB        -56.1840    3.2510   43.2730 C.3       1 PRO        -0.0104
     71 CG        -54.9170    3.1500   42.4100 C.3       1 PRO        -0.0281
     72 CD        -53.8430    3.8430   43.2470 C.3       1 PRO         0.0369
     73 N         -55.7420    0.5740   44.5400 N.am      1 LYS        -0.2637
     74 CA        -55.2690   -0.8150   44.8080 C.3       1 LYS         0.1310
     75 C         -55.0580   -1.6150   43.4670 C.2       1 LYS         0.2040
     76 O         -55.3650   -1.1390   42.3680 O.2       1 LYS        -0.3944
     77 CB        -56.2130   -1.5020   45.8520 C.3       1 LYS        -0.0122
     78 CG        -57.6210   -1.9240   45.3580 C.3       1 LYS        -0.0440
     79 CD        -58.3870   -2.7880   46.3900 C.3       1 LYS        -0.0124
     80 CE        -59.5550   -3.6000   45.7920 C.3       1 LYS        -0.0354
     81 NZ        -59.0310   -4.7720   45.0380 N.4       1 LYS         0.2185
     82 N         -54.5940   -2.8740   43.5610 N.am      1 SER        -0.2616
     83 CA        -54.6780   -3.8420   42.4270 C.3       1 SER         0.1541
     84 C         -56.1610   -4.2330   42.0310 C.2       1 SER         0.2087
     85 O         -56.9620   -4.4630   42.9490 O.2       1 SER        -0.3941
     86 CB        -53.8540   -5.0890   42.8240 C.3       1 SER         0.0843
     87 OG        -53.7310   -5.9950   41.7260 O.3       1 SER        -0.3903
     88 N         -56.5780   -4.3480   40.7320 N.am      1 PRO        -0.2498
     89 CA        -58.0040   -4.6380   40.3610 C.3       1 PRO         0.1337
     90 C         -58.5260   -6.1210   40.4840 C.2       1 PRO         0.2036
     91 O         -59.2050   -6.6470   39.6000 O.2       1 PRO        -0.3944
     92 CB        -58.0460   -4.0460   38.9350 C.3       1 PRO        -0.0104
     93 CG        -56.6420   -4.2690   38.3750 C.3       1 PRO        -0.0281
     94 CD        -55.7310   -4.0030   39.5710 C.3       1 PRO         0.0369
     95 N         -58.2780   -6.7410   41.6420 N.am      1 SER        -0.2672
     96 CA        -59.1270   -7.8260   42.1920 C.3       1 SER         0.1173
     97 C         -59.6130   -7.3260   43.5820 C.2       1 SER         0.0623
     98 O         -58.9930   -7.6380   44.6260 O.co2     1 SER        -0.5665
     99 CB        -58.3050   -9.1350   42.2330 C.3       1 SER         0.0789
    100 OG        -58.9610  -10.0980   43.0560 O.3       1 SER        -0.3910
    101 OXT       -60.5630   -6.5110   43.6430 O.co2     1 SER        -0.5665
    102 H1        -41.3970    5.2941   62.9871 H         1 LYS         0.2015
    103 H2        -40.7687    4.8469   61.5328 H         1 LYS         0.2015
    104 H3        -40.6769    3.8235   62.8188 H         1 LYS         0.2015
    105 H4        -43.0436    3.5352   62.8844 H         1 LYS         0.1098
    106 H5        -42.9362    5.4659   60.5115 H         1 LYS         0.0346
    107 H6        -43.5496    5.8337   62.1592 H         1 LYS         0.0346
    108 H7        -45.5843    5.4709   61.2444 H         1 LYS         0.0270
    109 H8        -45.1806    3.7324   61.4475 H         1 LYS         0.0270
    110 H9        -44.3674    3.6542   59.0945 H         1 LYS         0.0317
    111 H10       -44.7960    5.3871   58.8947 H         1 LYS         0.0317
    112 H11       -47.2019    4.7862   59.4126 H         1 LYS         0.0813
    113 H12       -46.7202    3.0557   59.4210 H         1 LYS         0.0813
    114 H13       -47.5801    3.7383   57.2793 H         1 LYS         0.1994
    115 H14       -45.9929    3.3251   57.1397 H         1 LYS         0.1994
    116 H15       -46.4344    4.9109   57.1321 H         1 LYS         0.1994
    117 H16       -43.1017    1.3520   62.3019 H         1 VAL         0.1885
    118 H17       -41.9252    0.3327   59.8315 H         1 VAL         0.0802
    119 H18       -42.1290   -0.9142   61.9748 H         1 VAL         0.0343
    120 H19       -44.1633   -2.2291   62.5122 H         1 VAL         0.0234
    121 H20       -45.0749   -1.3137   61.2641 H         1 VAL         0.0234
    122 H21       -44.4190   -0.4613   62.7029 H         1 VAL         0.0234
    123 H22       -41.6678   -2.0727   59.8015 H         1 VAL         0.0234
    124 H23       -43.4244   -2.4142   59.6454 H         1 VAL         0.0234
    125 H24       -42.4902   -3.1183   61.0086 H         1 VAL         0.0234
    126 H25       -42.9426   -0.3976   57.8850 H         1 SER         0.1884
    127 H26       -45.7867    0.3110   57.4188 H         1 SER         0.0823
    128 H27       -43.6173    1.5299   55.6277 H         1 SER         0.0606
    129 H28       -44.2654    2.3931   57.0635 H         1 SER         0.0606
    130 H29       -45.8060    1.4330   54.8508 H         1 SER         0.2097
    131 H30       -46.7567   -1.1618   55.9955 H         1 VAL         0.1883
    132 H31       -45.2636   -2.4997   53.8676 H         1 VAL         0.0802
    133 H32       -47.4397   -3.2411   54.8674 H         1 VAL         0.0343
    134 H33       -49.5965   -2.4604   53.9170 H         1 VAL         0.0234
    135 H34       -48.7389   -1.1059   53.1067 H         1 VAL         0.0234
    136 H35       -48.7819   -1.1969   54.9002 H         1 VAL         0.0234
    137 H36       -46.5670   -4.1806   52.7143 H         1 VAL         0.0234
    138 H37       -47.5692   -2.9866   51.8219 H         1 VAL         0.0234
    139 H38       -48.3577   -4.2353   52.8445 H         1 VAL         0.0234
    140 H39       -45.2761   -1.9977   51.5783 H         1 VAL         0.1883
    141 H40       -45.0486    0.8567   50.9116 H         1 VAL         0.0802
    142 H41       -44.9173   -1.5655   49.0617 H         1 VAL         0.0343
    143 H42       -43.5386   -0.1298   47.5535 H         1 VAL         0.0234
    144 H43       -43.8178    1.2694   48.6447 H         1 VAL         0.0234
    145 H44       -45.1983    0.5214   47.7722 H         1 VAL         0.0234
    146 H45       -43.1244   -1.6913   50.8229 H         1 VAL         0.0234
    147 H46       -42.5303   -0.0807   50.2942 H         1 VAL         0.0234
    148 H47       -42.4678   -1.4762   49.1649 H         1 VAL         0.0234
    149 H48       -46.6344    2.1504   50.1404 H         1 ARG         0.1883
    150 H49       -49.3190    0.9296   49.6925 H         1 ARG         0.0800
    151 H50       -48.6195    3.7544   50.5890 H         1 ARG         0.0313
    152 H51       -49.0177    2.3782   51.6725 H         1 ARG         0.0313
    153 H52       -50.9221    3.5801   49.6089 H         1 ARG         0.0301
    154 H53       -50.8762    4.0316   51.3470 H         1 ARG         0.0301
    155 H54       -52.5190    2.5074   51.6010 H         1 ARG         0.0689
    156 H55       -51.2179    1.2768   51.4605 H         1 ARG         0.0689
    157 H56       -53.0171    2.1885   49.2004 H         1 ARG         0.2642
    158 H57       -51.4107   -1.5326   49.2772 H         1 ARG         0.2615
    159 H58       -50.9848   -0.4342   50.6169 H         1 ARG         0.2615
    160 H59       -53.3834    0.7370   47.6087 H         1 ARG         0.2615
    161 H60       -52.6657   -0.8955   47.6596 H         1 ARG         0.2615
    162 H61       -49.2741    0.4671   47.5118 H         1 TPO         0.1884
    163 H62       -49.2388    2.3029   45.3636 H         1 TPO         0.0830
    164 H63       -49.4427    0.1954   44.6312 H         1 TPO         0.0695
    165 H64       -51.6376   -0.4816   43.7221 H         1 TPO         0.0260
    166 H65       -51.2664    1.2460   43.3994 H         1 TPO         0.0260
    167 H66       -52.4298    0.8041   44.6948 H         1 TPO         0.0260
    168 H67       -52.2138    5.3501   46.7286 H         1 PRO         0.0802
    169 H68       -51.5340    7.0126   45.3913 H         1 PRO         0.0313
    170 H69       -52.8093    6.5513   44.2134 H         1 PRO         0.0313
    171 H70       -50.1394    6.4512   43.5843 H         1 PRO         0.0287
    172 H71       -51.3219    5.2844   42.9008 H         1 PRO         0.0287
    173 H72       -49.8104    3.7661   43.9191 H         1 PRO         0.0524
    174 H73       -49.3823    4.9180   45.2293 H         1 PRO         0.0524
    175 H74       -56.3830    3.5821   45.4190 H         1 PRO         0.0802
    176 H75       -56.6674    4.2299   43.1388 H         1 PRO         0.0313
    177 H76       -56.8945    2.4525   43.0133 H         1 PRO         0.0313
    178 H77       -55.0567    3.6659   41.4486 H         1 PRO         0.0287
    179 H78       -54.6516    2.0984   42.2267 H         1 PRO         0.0287
    180 H79       -52.9009    3.2757   43.2244 H         1 PRO         0.0524
    181 H80       -53.6635    4.8664   42.8860 H         1 PRO         0.0524
    182 H81       -56.3249    0.7265   43.7419 H         1 LYS         0.1883
    183 H82       -54.2790   -0.7394   45.2815 H         1 LYS         0.0800
    184 H83       -56.3512   -0.7994   46.6870 H         1 LYS         0.0312
    185 H84       -55.7037   -2.4070   46.2147 H         1 LYS         0.0312
    186 H85       -57.5084   -2.5033   44.4297 H         1 LYS         0.0269
    187 H86       -58.2085   -1.0165   45.1549 H         1 LYS         0.0269
    188 H87       -58.7919   -2.1212   47.1655 H         1 LYS         0.0317
    189 H88       -57.6756   -3.4919   46.8465 H         1 LYS         0.0317
    190 H89       -60.1329   -2.9582   45.1108 H         1 LYS         0.0813
    191 H90       -60.2067   -3.9525   46.6050 H         1 LYS         0.0813
    192 H91       -59.8015   -5.2949   44.6520 H         1 LYS         0.1994
    193 H92       -58.5022   -5.3629   45.6604 H         1 LYS         0.1994
    194 H93       -58.4346   -4.4517   44.2911 H         1 LYS         0.1994
    195 H94       -54.1783   -3.1722   44.4202 H         1 SER         0.1884
    196 H95       -54.2128   -3.3786   41.5445 H         1 SER         0.0823
    197 H96       -54.3564   -5.6012   43.6578 H         1 SER         0.0606
    198 H97       -52.8500   -4.7703   43.1410 H         1 SER         0.0606
    199 H98       -53.2219   -6.7503   41.9957 H         1 SER         0.2097
    200 H99       -58.6576   -4.0417   41.0146 H         1 PRO         0.0802
    201 H100      -58.2832   -2.9724   38.9685 H         1 PRO         0.0313
    202 H101      -58.7948   -4.5680   38.3212 H         1 PRO         0.0313
    203 H102      -56.4298   -3.5661   37.5559 H         1 PRO         0.0287
    204 H103      -56.5231   -5.3008   38.0128 H         1 PRO         0.0287
    205 H104      -54.8361   -4.6415   39.5334 H         1 PRO         0.0524
    206 H105      -55.4266   -2.9466   39.6062 H         1 PRO         0.0524
    207 H106      -57.4753   -6.4576   42.1668 H         1 SER         0.1876
    208 H107      -60.0016   -7.9862   41.5444 H         1 SER         0.0749
    209 H108      -57.3062   -8.9252   42.6434 H         1 SER         0.0599
    210 H109      -58.2058   -9.5348   41.2131 H         1 SER         0.0599
    211 H110      -59.0461   -9.7542   43.9375 H         1 SER         0.2096
@<TRIPOS>BOND
     1    1    2 1  
     2    2    3 1  
     3    2    5 1  
     4    3    4 2  
     5    3   10 am 
     6    5    6 1  
     7    6    7 1  
     8    7    8 1  
     9    8    9 1  
    10   10   11 1  
    11   11   12 1  
    12   11   14 1  
    13   12   13 2  
    14   12   17 am 
    15   14   15 1  
    16   14   16 1  
    17   17   18 1  
    18   18   19 1  
    19   18   21 1  
    20   19   20 2  
    21   19   23 am 
    22   21   22 1  
    23   23   24 1  
    24   24   25 1  
    25   24   27 1  
    26   25   26 2  
    27   25   30 am 
    28   27   28 1  
    29   27   29 1  
    30   30   31 1  
    31   31   32 1  
    32   31   34 1  
    33   32   33 2  
    34   32   37 am 
    35   34   35 1  
    36   34   36 1  
    37   37   38 1  
    38   38   39 1  
    39   38   41 1  
    40   39   40 2  
    41   39   48 am 
    42   41   42 1  
    43   42   43 1  
    44   43   44 1  
    45   44   45 ar 
    46   45   46 ar 
    47   45   47 ar 
    48   48   49 1  
    49   49   50 1  
    50   49   57 1  
    51   50   51 1  
    52   50   52 1  
    53   52   53 1  
    54   53   54 ar 
    55   53   55 ar 
    56   53   56 ar 
    57   57   58 2  
    58   57   59 am 
    59   59   60 1  
    60   59   65 1  
    61   60   61 1  
    62   60   63 1  
    63   61   62 2  
    64   61   66 am 
    65   63   64 1  
    66   64   65 1  
    67   66   67 1  
    68   66   72 1  
    69   67   68 1  
    70   67   70 1  
    71   68   69 2  
    72   68   73 am 
    73   70   71 1  
    74   71   72 1  
    75   73   74 1  
    76   74   75 1  
    77   74   77 1  
    78   75   76 2  
    79   75   82 am 
    80   77   78 1  
    81   78   79 1  
    82   79   80 1  
    83   80   81 1  
    84   82   83 1  
    85   83   84 1  
    86   83   86 1  
    87   84   85 2  
    88   84   88 am 
    89   86   87 1  
    90   88   89 1  
    91   88   94 1  
    92   89   90 1  
    93   89   92 1  
    94   90   91 2  
    95   90   95 am 
    96   92   93 1  
    97   93   94 1  
    98   95   96 1  
    99   96   97 1  
   100   96   99 1  
   101   97   98 ar 
   102   97  101 ar 
   103   99  100 1  
   104    1  102 1  
   105    1  103 1  
   106    1  104 1  
   107    2  105 1  
   108    5  106 1  
   109    5  107 1  
   110    6  108 1  
   111    6  109 1  
   112    7  110 1  
   113    7  111 1  
   114    8  112 1  
   115    8  113 1  
   116    9  114 1  
   117    9  115 1  
   118    9  116 1  
   119   10  117 1  
   120   11  118 1  
   121   14  119 1  
   122   15  120 1  
   123   15  121 1  
   124   15  122 1  
   125   16  123 1  
   126   16  124 1  
   127   16  125 1  
   128   17  126 1  
   129   18  127 1  
   130   21  128 1  
   131   21  129 1  
   132   22  130 1  
   133   23  131 1  
   134   24  132 1  
   135   27  133 1  
   136   28  134 1  
   137   28  135 1  
   138   28  136 1  
   139   29  137 1  
   140   29  138 1  
   141   29  139 1  
   142   30  140 1  
   143   31  141 1  
   144   34  142 1  
   145   35  143 1  
   146   35  144 1  
   147   35  145 1  
   148   36  146 1  
   149   36  147 1  
   150   36  148 1  
   151   37  149 1  
   152   38  150 1  
   153   41  151 1  
   154   41  152 1  
   155   42  153 1  
   156   42  154 1  
   157   43  155 1  
   158   43  156 1  
   159   44  157 1  
   160   46  158 1  
   161   46  159 1  
   162   47  160 1  
   163   47  161 1  
   164   48  162 1  
   165   49  163 1  
   166   50  164 1  
   167   51  165 1  
   168   51  166 1  
   169   51  167 1  
   170   60  168 1  
   171   63  169 1  
   172   63  170 1  
   173   64  171 1  
   174   64  172 1  
   175   65  173 1  
   176   65  174 1  
   177   67  175 1  
   178   70  176 1  
   179   70  177 1  
   180   71  178 1  
   181   71  179 1  
   182   72  180 1  
   183   72  181 1  
   184   73  182 1  
   185   74  183 1  
   186   77  184 1  
   187   77  185 1  
   188   78  186 1  
   189   78  187 1  
   190   79  188 1  
   191   79  189 1  
   192   80  190 1  
   193   80  191 1  
   194   81  192 1  
   195   81  193 1  
   196   81  194 1  
   197   82  195 1  
   198   83  196 1  
   199   86  197 1  
   200   86  198 1  
   201   87  199 1  
   202   89  200 1  
   203   92  201 1  
   204   92  202 1  
   205   93  203 1  
   206   93  204 1  
   207   94  205 1  
   208   94  206 1  
   209   95  207 1  
   210   96  208 1  
   211   99  209 1  
   212   99  210 1  
   213  100  211 1  
@<TRIPOS>SUBSTRUCTURE
     1 LYS         1

