1i8h_ligand
  -I-interpret- 

213215  0  0  0  0  0  0  0  0999 V2000
  -41.2430    4.5200   62.3600 N   0  3  0  0  0
  -42.5560    3.9210   61.9770 C   0  0  0  0  0
  -42.3520    2.7130   61.0010 C   0  0  0  0  0
  -41.8140    2.9100   59.9100 O   0  0  0  0  0
  -43.4560    5.0540   61.3890 C   0  0  0  0  0
  -44.9000    4.6660   60.9380 C   0  0  0  0  0
  -45.0570    4.4510   59.4100 C   0  0  0  0  0
  -46.4940    4.0490   59.0060 C   0  0  0  0  0
  -46.6370    4.0020   57.5180 N   0  3  0  0  0
  -42.8010    1.4950   61.3590 N   0  0  0  0  0
  -42.8680    0.3430   60.3980 C   0  0  0  0  0
  -44.0170    0.5200   59.3340 C   0  0  0  0  0
  -45.0680    1.1050   59.6270 O   0  0  0  0  0
  -42.9210   -0.9970   61.2160 C   0  0  0  0  0
  -44.2400   -1.2700   61.9790 C   0  0  0  0  0
  -42.6030   -2.2400   60.3560 C   0  0  0  0  0
  -43.7980    0.0810   58.0830 N   0  0  0  0  0
  -44.7790    0.2790   56.9790 C   0  0  0  0  0
  -44.7560   -0.8600   55.9150 C   0  0  0  0  0
  -43.6950   -1.2810   55.4500 O   0  0  0  0  0
  -44.4870    1.6410   56.2920 C   0  0  0  0  0
  -45.6130    2.0780   55.5210 O   0  0  0  0  0
  -45.9430   -1.2440   55.4200 N   0  0  0  0  0
  -46.0880   -1.7910   54.0350 C   0  0  0  0  0
  -45.9300   -0.6600   52.9440 C   0  0  0  0  0
  -46.1750    0.5290   53.2040 O   0  0  0  0  0
  -47.4250   -2.6180   53.9610 C   0  0  0  0  0
  -48.7300   -1.7850   53.9720 C   0  0  0  0  0
  -47.4840   -3.5740   52.7480 C   0  0  0  0  0
  -45.5310   -1.0410   51.7190 N   0  0  0  0  0
  -45.4490   -0.1030   50.5530 C   0  0  0  0  0
  -46.8990    0.1560   49.9980 C   0  0  0  0  0
  -47.6480   -0.7700   49.6660 O   0  0  0  0  0
  -44.4620   -0.6450   49.4560 C   0  0  0  0  0
  -44.2380    0.3240   48.2710 C   0  0  0  0  0
  -43.0430   -0.9990   49.9720 C   0  0  0  0  0
  -47.3020    1.4320   49.9450 N   0  0  0  0  0
  -48.6970    1.8330   49.6090 C   0  0  0  0  0
  -48.8660    2.3340   48.1370 C   0  0  0  0  0
  -48.6660    3.5040   47.8070 O   0  0  0  0  0
  -49.2060    2.8290   50.6870 C   0  0  0  0  0
  -50.7130    3.2170   50.6260 C   0  0  0  0  0
  -51.7380    2.0970   50.9440 C   0  0  0  0  0
  -52.3830    1.5560   49.7090 N   0  0  0  0  0
  -52.2160    0.3250   49.1980 C   0  0  0  0  0
  -51.4860   -0.6130   49.7350 N   0  0  0  0  0
  -52.7940    0.0360   48.0800 N   0  0  0  0  0
  -49.3500    1.4350   47.2720 N   0  0  0  0  0
  -49.9980    1.7850   45.9680 C   0  0  0  0  0
  -50.3520    0.4510   45.1950 C   0  0  0  0  0
  -51.5030    0.5090   44.1810 C   0  0  0  0  0
  -50.6620   -0.6800   46.0630 O   0  0  0  0  0
  -49.6790   -1.9600   46.1510 P   0  0  0  0  0
  -50.2440   -3.0070   47.1280 O   0  0  0  0  0
  -49.5800   -2.6280   44.7740 O   0  0  0  0  0
  -48.2210   -1.5180   46.6300 O   0  0  0  0  0
  -51.1960    2.8140   46.1230 C   0  0  0  0  0
  -52.0960    2.5230   46.9140 O   0  0  0  0  0
  -51.2850    3.9940   45.4320 N   0  0  0  0  0
  -52.3520    5.0090   45.6920 C   0  0  0  0  0
  -53.8540    4.5270   45.6550 C   0  0  0  0  0
  -54.5160    4.7070   46.6820 O   0  0  0  0  0
  -51.9400    6.1910   44.7830 C   0  0  0  0  0
  -50.8670    5.6630   43.8280 C   0  0  0  0  0
  -50.2010    4.5340   44.6030 C   0  0  0  0  0
  -54.4160    3.8570   44.6040 N   0  0  0  0  0
  -55.6830    3.0840   44.7320 C   0  0  0  0  0
  -55.4320    1.6310   45.3060 C   0  0  0  0  0
  -54.9550    1.4630   46.4340 O   0  0  0  0  0
  -56.1840    3.2510   43.2730 C   0  0  0  0  0
  -54.9170    3.1500   42.4100 C   0  0  0  0  0
  -53.8430    3.8430   43.2470 C   0  0  0  0  0
  -55.7420    0.5740   44.5400 N   0  0  0  0  0
  -55.2690   -0.8150   44.8080 C   0  0  0  0  0
  -55.0580   -1.6150   43.4670 C   0  0  0  0  0
  -55.3650   -1.1390   42.3680 O   0  0  0  0  0
  -56.2130   -1.5020   45.8520 C   0  0  0  0  0
  -57.6210   -1.9240   45.3580 C   0  0  0  0  0
  -58.3870   -2.7880   46.3900 C   0  0  0  0  0
  -59.5550   -3.6000   45.7920 C   0  0  0  0  0
  -59.0310   -4.7720   45.0380 N   0  3  0  0  0
  -54.5940   -2.8740   43.5610 N   0  0  0  0  0
  -54.6780   -3.8420   42.4270 C   0  0  0  0  0
  -56.1610   -4.2330   42.0310 C   0  0  0  0  0
  -56.9620   -4.4630   42.9490 O   0  0  0  0  0
  -53.8540   -5.0890   42.8240 C   0  0  0  0  0
  -53.7310   -5.9950   41.7260 O   0  0  0  0  0
  -56.5780   -4.3480   40.7320 N   0  0  0  0  0
  -58.0040   -4.6380   40.3610 C   0  0  0  0  0
  -58.5260   -6.1210   40.4840 C   0  0  0  0  0
  -59.2050   -6.6470   39.6000 O   0  0  0  0  0
  -58.0460   -4.0460   38.9350 C   0  0  0  0  0
  -56.6420   -4.2690   38.3750 C   0  0  0  0  0
  -55.7310   -4.0030   39.5710 C   0  0  0  0  0
  -58.2780   -6.7410   41.6420 N   0  0  0  0  0
  -59.1270   -7.8260   42.1920 C   0  0  0  0  0
  -59.6130   -7.3260   43.5820 C   0  0  0  0  0
  -58.9930   -7.6380   44.6260 O   0  0  0  0  0
  -58.3050   -9.1350   42.2330 C   0  0  0  0  0
  -58.9610  -10.0980   43.0560 O   0  0  0  0  0
  -60.5630   -6.5110   43.6430 O   0  0  0  0  0
  -40.6396    3.7944   62.7471 H   0  0  0  0  0
  -40.8022    4.9260   61.5346 H   0  0  0  0  0
  -41.3935    5.2474   63.0590 H   0  0  0  0  0
  -43.0635    3.5048   62.8472 H   0  0  0  0  0
  -42.9479    5.3940   60.4866 H   0  0  0  0  0
  -43.5843    5.7755   62.1959 H   0  0  0  0  0
  -45.5546    5.4927   61.2139 H   0  0  0  0  0
  -45.1429    3.7196   61.4211 H   0  0  0  0  0
  -44.3889    3.6413   59.1165 H   0  0  0  0  0
  -44.8222    5.3931   58.9145 H   0  0  0  0  0
  -47.1893    4.7894   59.4016 H   0  0  0  0  0
  -46.7077    3.0594   59.4100 H   0  0  0  0  0
  -47.5917    3.7351   57.2776 H   0  0  0  0  0
  -46.4317    4.9222   57.1287 H   0  0  0  0  0
  -45.9848    3.3168   57.1364 H   0  0  0  0  0
  -43.1077    1.3491   62.3208 H   0  0  0  0  0
  -41.9654    0.3098   59.7878 H   0  0  0  0  0
  -42.1414   -0.8340   61.9602 H   0  0  0  0  0
  -44.4162   -0.4680   62.6959 H   0  0  0  0  0
  -45.0664   -1.3130   61.2696 H   0  0  0  0  0
  -44.1628   -2.2205   62.5069 H   0  0  0  0  0
  -43.3292   -2.3157   59.5466 H   0  0  0  0  0
  -41.6006   -2.1447   59.9387 H   0  0  0  0  0
  -42.6557   -3.1336   60.9779 H   0  0  0  0  0
  -42.9255   -0.4072   57.8811 H   0  0  0  0  0
  -45.7744    0.2635   57.4229 H   0  0  0  0  0
  -43.6322    1.5212   55.6263 H   0  0  0  0  0
  -44.2803    2.3843   57.0620 H   0  0  0  0  0
  -45.4087    2.9198   55.1071 H   0  0  0  0  0
  -46.7730   -1.1602   56.0070 H   0  0  0  0  0
  -45.2777   -2.4817   53.8017 H   0  0  0  0  0
  -47.3848   -3.1845   54.8913 H   0  0  0  0  0
  -48.7801   -1.2028   54.8921 H   0  0  0  0  0
  -48.7375   -1.1126   53.1142 H   0  0  0  0  0
  -49.5878   -2.4553   53.9174 H   0  0  0  0  0
  -47.4024   -2.9962   51.8273 H   0  0  0  0  0
  -46.6596   -4.2847   52.8067 H   0  0  0  0  0
  -48.4314   -4.1129   52.7575 H   0  0  0  0  0
  -45.2711   -2.0168   51.5754 H   0  0  0  0  0
  -45.0363    0.8528   50.8760 H   0  0  0  0  0
  -44.9856   -1.5456   49.1353 H   0  0  0  0  0
  -45.1902    0.5188   47.7776 H   0  0  0  0  0
  -43.8216    1.2603   48.6426 H   0  0  0  0  0
  -43.5449   -0.1268   47.5607 H   0  0  0  0  0
  -42.5803   -0.1089   50.3983 H   0  0  0  0  0
  -43.1182   -1.7725   50.7363 H   0  0  0  0  0
  -42.4367   -1.3635   49.1428 H   0  0  0  0  0
  -46.6210    2.1647   50.1443 H   0  0  0  0  0
  -49.3355    0.9500   49.6366 H   0  0  0  0  0
  -48.6515    3.7536   50.5268 H   0  0  0  0  0
  -49.0629    2.3317   51.6463 H   0  0  0  0  0
  -50.9040    3.5129   49.5945 H   0  0  0  0  0
  -50.8565    3.9797   51.3914 H   0  0  0  0  0
  -52.5180    2.5204   51.5768 H   0  0  0  0  0
  -51.2078    1.2812   51.4353 H   0  0  0  0  0
  -53.0110    2.1824   49.2053 H   0  0  0  0  0
  -51.3959   -1.5173   49.2717 H   0  0  0  0  0
  -51.0052   -0.4423   50.6182 H   0  0  0  0  0
  -53.3630    0.7361   47.6041 H   0  0  0  0  0
  -49.2726    0.4478   47.5166 H   0  0  0  0  0
  -49.2926    2.3386   45.3483 H   0  0  0  0  0
  -49.4134    0.3164   44.6574 H   0  0  0  0  0
  -52.4207    0.8015   44.6913 H   0  0  0  0  0
  -51.2673    1.2396   43.4072 H   0  0  0  0  0
  -51.6354   -0.4731   43.7270 H   0  0  0  0  0
  -50.3188   -2.6191   48.0029 H   0  0  0  0  0
  -48.2817   -1.0997   47.4919 H   0  0  0  0  0
  -52.3893    5.3032   46.7409 H   0  0  0  0  0
  -51.5555    7.0202   45.3768 H   0  0  0  0  0
  -52.7984    6.5707   44.2289 H   0  0  0  0  0
  -50.1572    6.4376   43.5378 H   0  0  0  0  0
  -51.2893    5.3205   42.8833 H   0  0  0  0  0
  -49.7644    3.7807   43.9472 H   0  0  0  0  0
  -49.3558    4.8802   45.1978 H   0  0  0  0  0
  -56.4324    3.4026   45.4565 H   0  0  0  0  0
  -56.7003    4.1998   43.1270 H   0  0  0  0  0
  -56.9186    2.4912   43.0064 H   0  0  0  0  0
  -55.0443    3.6166   41.4332 H   0  0  0  0  0
  -54.6569    2.1173   42.1774 H   0  0  0  0  0
  -52.8842    3.3263   43.2049 H   0  0  0  0  0
  -53.6116    4.8437   42.8821 H   0  0  0  0  0
  -56.3365    0.7295   43.7259 H   0  0  0  0  0
  -54.2802   -0.7960   45.2662 H   0  0  0  0  0
  -56.3817   -0.7609   46.6333 H   0  0  0  0  0
  -55.7116   -2.4246   46.1445 H   0  0  0  0  0
  -57.4923   -2.5200   44.4545 H   0  0  0  0  0
  -58.2003   -1.0165   45.1879 H   0  0  0  0  0
  -58.8127   -2.1070   47.1269 H   0  0  0  0  0
  -57.6754   -3.5036   46.8019 H   0  0  0  0  0
  -60.1226   -2.9632   45.1135 H   0  0  0  0  0
  -60.1960   -3.9524   46.6001 H   0  0  0  0  0
  -59.8114   -5.3003   44.6479 H   0  0  0  0  0
  -58.4277   -4.4467   44.2826 H   0  0  0  0  0
  -58.4962   -5.3691   45.6688 H   0  0  0  0  0
  -54.1700   -3.1782   44.4374 H   0  0  0  0  0
  -54.2726   -3.3691   41.5325 H   0  0  0  0  0
  -54.3643   -5.5986   43.6413 H   0  0  0  0  0
  -52.8568   -4.7672   43.1241 H   0  0  0  0  0
  -53.2165   -6.7583   41.9985 H   0  0  0  0  0
  -58.7073   -4.2051   41.0724 H   0  0  0  0  0
  -58.3155   -2.9899   38.9430 H   0  0  0  0  0
  -58.8078   -4.5253   38.3201 H   0  0  0  0  0
  -56.4219   -3.6161   37.5304 H   0  0  0  0  0
  -56.5109   -5.2709   37.9663 H   0  0  0  0  0
  -54.8122   -4.5883   39.5351 H   0  0  0  0  0
  -55.3748   -2.9734   39.6045 H   0  0  0  0  0
  -57.4593   -6.4519   42.1773 H   0  0  0  0  0
  -60.0024   -8.0543   41.5841 H   0  0  0  0  0
  -58.3006   -8.2668   44.4098 H   0  0  0  0  0
  -57.3175   -8.9254   42.6441 H   0  0  0  0  0
  -58.2118   -9.5315   41.2220 H   0  0  0  0  0
  -58.4436  -10.9064   43.0752 H   0  0  0  0  0
  1  2  1  0  0  0
  2  3  1  0  0  0
  2  5  1  0  0  0
  3  4  2  0  0  0
  3 10  1  0  0  0
  5  6  1  0  0  0
  6  7  1  0  0  0
  7  8  1  0  0  0
  8  9  1  0  0  0
 10 11  1  0  0  0
 11 12  1  0  0  0
 11 14  1  0  0  0
 12 13  2  0  0  0
 12 17  1  0  0  0
 14 15  1  0  0  0
 14 16  1  0  0  0
 17 18  1  0  0  0
 18 19  1  0  0  0
 18 21  1  0  0  0
 19 20  2  0  0  0
 19 23  1  0  0  0
 21 22  1  0  0  0
 23 24  1  0  0  0
 24 25  1  0  0  0
 24 27  1  0  0  0
 25 26  2  0  0  0
 25 30  1  0  0  0
 27 28  1  0  0  0
 27 29  1  0  0  0
 30 31  1  0  0  0
 31 32  1  0  0  0
 31 34  1  0  0  0
 32 33  2  0  0  0
 32 37  1  0  0  0
 34 35  1  0  0  0
 34 36  1  0  0  0
 37 38  1  0  0  0
 38 39  1  0  0  0
 38 41  1  0  0  0
 39 40  2  0  0  0
 39 48  1  0  0  0
 41 42  1  0  0  0
 42 43  1  0  0  0
 43 44  1  0  0  0
 44 45  1  0  0  0
 45 46  1  0  0  0
 45 47  2  0  0  0
 48 49  1  0  0  0
 49 50  1  0  0  0
 49 57  1  0  0  0
 50 51  1  0  0  0
 50 52  1  0  0  0
 52 53  1  0  0  0
 53 54  1  0  0  0
 53 55  2  0  0  0
 53 56  1  0  0  0
 57 58  2  0  0  0
 57 59  1  0  0  0
 59 60  1  0  0  0
 59 65  1  0  0  0
 60 61  1  0  0  0
 60 63  1  0  0  0
 61 62  2  0  0  0
 61 66  1  0  0  0
 63 64  1  0  0  0
 64 65  1  0  0  0
 66 67  1  0  0  0
 66 72  1  0  0  0
 67 68  1  0  0  0
 67 70  1  0  0  0
 68 69  2  0  0  0
 68 73  1  0  0  0
 70 71  1  0  0  0
 71 72  1  0  0  0
 73 74  1  0  0  0
 74 75  1  0  0  0
 74 77  1  0  0  0
 75 76  2  0  0  0
 75 82  1  0  0  0
 77 78  1  0  0  0
 78 79  1  0  0  0
 79 80  1  0  0  0
 80 81  1  0  0  0
 82 83  1  0  0  0
 83 84  1  0  0  0
 83 86  1  0  0  0
 84 85  2  0  0  0
 84 88  1  0  0  0
 86 87  1  0  0  0
 88 89  1  0  0  0
 88 94  1  0  0  0
 89 90  1  0  0  0
 89 92  1  0  0  0
 90 91  2  0  0  0
 90 95  1  0  0  0
 92 93  1  0  0  0
 93 94  1  0  0  0
 95 96  1  0  0  0
 96 97  1  0  0  0
 96 99  1  0  0  0
 97 98  1  0  0  0
 97101  2  0  0  0
 99100  1  0  0  0
  1102  1  0  0  0
  1103  1  0  0  0
  1104  1  0  0  0
  2105  1  0  0  0
  5106  1  0  0  0
  5107  1  0  0  0
  6108  1  0  0  0
  6109  1  0  0  0
  7110  1  0  0  0
  7111  1  0  0  0
  8112  1  0  0  0
  8113  1  0  0  0
  9114  1  0  0  0
  9115  1  0  0  0
  9116  1  0  0  0
 10117  1  0  0  0
 11118  1  0  0  0
 14119  1  0  0  0
 15120  1  0  0  0
 15121  1  0  0  0
 15122  1  0  0  0
 16123  1  0  0  0
 16124  1  0  0  0
 16125  1  0  0  0
 17126  1  0  0  0
 18127  1  0  0  0
 21128  1  0  0  0
 21129  1  0  0  0
 22130  1  0  0  0
 23131  1  0  0  0
 24132  1  0  0  0
 27133  1  0  0  0
 28134  1  0  0  0
 28135  1  0  0  0
 28136  1  0  0  0
 29137  1  0  0  0
 29138  1  0  0  0
 29139  1  0  0  0
 30140  1  0  0  0
 31141  1  0  0  0
 34142  1  0  0  0
 35143  1  0  0  0
 35144  1  0  0  0
 35145  1  0  0  0
 36146  1  0  0  0
 36147  1  0  0  0
 36148  1  0  0  0
 37149  1  0  0  0
 38150  1  0  0  0
 41151  1  0  0  0
 41152  1  0  0  0
 42153  1  0  0  0
 42154  1  0  0  0
 43155  1  0  0  0
 43156  1  0  0  0
 44157  1  0  0  0
 46158  1  0  0  0
 46159  1  0  0  0
 47160  1  0  0  0
 48161  1  0  0  0
 49162  1  0  0  0
 50163  1  0  0  0
 51164  1  0  0  0
 51165  1  0  0  0
 51166  1  0  0  0
 54167  1  0  0  0
 56168  1  0  0  0
 60169  1  0  0  0
 63170  1  0  0  0
 63171  1  0  0  0
 64172  1  0  0  0
 64173  1  0  0  0
 65174  1  0  0  0
 65175  1  0  0  0
 67176  1  0  0  0
 70177  1  0  0  0
 70178  1  0  0  0
 71179  1  0  0  0
 71180  1  0  0  0
 72181  1  0  0  0
 72182  1  0  0  0
 73183  1  0  0  0
 74184  1  0  0  0
 77185  1  0  0  0
 77186  1  0  0  0
 78187  1  0  0  0
 78188  1  0  0  0
 79189  1  0  0  0
 79190  1  0  0  0
 80191  1  0  0  0
 80192  1  0  0  0
 81193  1  0  0  0
 81194  1  0  0  0
 81195  1  0  0  0
 82196  1  0  0  0
 83197  1  0  0  0
 86198  1  0  0  0
 86199  1  0  0  0
 87200  1  0  0  0
 89201  1  0  0  0
 92202  1  0  0  0
 92203  1  0  0  0
 93204  1  0  0  0
 93205  1  0  0  0
 94206  1  0  0  0
 94207  1  0  0  0
 95208  1  0  0  0
 96209  1  0  0  0
 98210  1  0  0  0
 99211  1  0  0  0
 99212  1  0  0  0
100213  1  0  0  0
M  END
$$$$
