5uvc_ligand
  -I-interpret- 

 48 51  0  0  0  0  0  0  0  0999 V2000
    8.2710   44.0150    0.9630 N   0  0  0  0  0
    7.1850   44.9930    1.1890 C   0  0  0  0  0
    6.2660   45.0690   -0.0200 C   0  0  0  0  0
    6.1510   46.2670   -0.7380 C   0  0  0  0  0
    5.3070   46.3440   -1.8490 C   0  0  0  0  0
    4.5730   45.2270   -2.2490 C   0  0  0  0  0
    5.5230   43.9500   -0.4250 C   0  0  0  0  0
   12.8020   42.1750    1.3270 C   0  0  0  0  0
   11.0670   40.8130    0.3210 C   0  0  0  0  0
   11.4920   38.5700   -0.8180 C   0  0  0  0  0
   12.6280   36.0430    1.5190 C   0  0  0  0  0
   13.5140   34.9490    1.9790 C   0  0  0  0  0
   15.3720   33.4630    1.6630 C   0  0  0  0  0
   14.0860   33.2710    3.6080 C   0  0  0  0  0
    9.7140   44.9010    2.4410 O   0  0  0  0  0
    9.4720   44.0330    1.6140 C   0  0  0  0  0
    4.6810   44.0300   -1.5390 C   0  0  0  0  0
   10.4990   42.9840    1.2970 C   0  0  0  0  0
   11.8610   43.1570    1.6380 C   0  0  0  0  0
   12.4160   41.0100    0.6720 C   0  0  0  0  0
   10.6140   39.6560   -0.3430 N   0  0  0  0  0
   11.7460   37.5950    0.3020 C   0  0  0  0  0
   12.7180   36.7270    0.3670 N   0  0  0  0  0
   11.5890   36.4760    2.1860 N   0  0  0  0  0
   11.0080   37.4820    1.4180 N   0  0  0  0  0
   14.5930   34.5050    1.1890 C   0  0  0  0  0
   15.0990   32.8920    2.8370 N   0  0  0  0  0
   13.2580   34.3050    3.2100 C   0  0  0  0  0
   10.1200   41.7970    0.6360 C   0  0  0  0  0
    8.1129   43.2782    0.2756 H   0  0  0  0  0
    7.6263   45.9754    1.3572 H   0  0  0  0  0
    6.6020   44.6770    2.0541 H   0  0  0  0  0
    6.7222   47.1423   -0.4286 H   0  0  0  0  0
    5.2220   47.2783   -2.4040 H   0  0  0  0  0
    3.9152   45.2890   -3.1159 H   0  0  0  0  0
    5.6021   43.0153    0.1302 H   0  0  0  0  0
   13.8472   42.3217    1.5992 H   0  0  0  0  0
   12.4401   38.9919   -1.1515 H   0  0  0  0  0
   11.0089   38.0511   -1.6459 H   0  0  0  0  0
   16.2154   33.1064    1.0717 H   0  0  0  0  0
   13.9067   32.7657    4.5570 H   0  0  0  0  0
    4.1088   43.1570   -1.8530 H   0  0  0  0  0
   12.1783   44.0662    2.1486 H   0  0  0  0  0
   13.1584   40.2494    0.4304 H   0  0  0  0  0
    9.6115   39.5630   -0.5063 H   0  0  0  0  0
   14.8093   34.9708    0.2276 H   0  0  0  0  0
   12.4220   34.6177    3.8357 H   0  0  0  0  0
    9.0752   41.6427    0.3662 H   0  0  0  0  0
  1  2  1  0  0  0
 16  1  1  0  0  0
  2  3  1  0  0  0
  3  4  4  0  0  0
  3  7  4  0  0  0
  4  5  4  0  0  0
  5  6  4  0  0  0
 17  6  4  0  0  0
  7 17  4  0  0  0
  8 19  4  0  0  0
 20  8  4  0  0  0
  9 20  4  0  0  0
 21  9  1  0  0  0
  9 29  4  0  0  0
 10 21  1  0  0  0
 22 10  1  0  0  0
 11 12  1  0  0  0
 23 11  4  0  0  0
 11 24  4  0  0  0
 12 26  4  0  0  0
 12 28  4  0  0  0
 26 13  4  0  0  0
 13 27  4  0  0  0
 14 27  4  0  0  0
 28 14  4  0  0  0
 16 15  2  0  0  0
 18 16  1  0  0  0
 18 19  4  0  0  0
 29 18  4  0  0  0
 22 23  4  0  0  0
 22 25  4  0  0  0
 24 25  4  0  0  0
  1 30  1  0  0  0
  2 31  1  0  0  0
  2 32  1  0  0  0
  4 33  1  0  0  0
  5 34  1  0  0  0
  6 35  1  0  0  0
  7 36  1  0  0  0
  8 37  1  0  0  0
 10 38  1  0  0  0
 10 39  1  0  0  0
 13 40  1  0  0  0
 14 41  1  0  0  0
 17 42  1  0  0  0
 19 43  1  0  0  0
 20 44  1  0  0  0
 21 45  1  0  0  0
 26 46  1  0  0  0
 28 47  1  0  0  0
 29 48  1  0  0  0
M  END
$$$$
