### 
### Created by X-TOOL on Mon Sep 10 21:13:07 2018
### 

@<TRIPOS>MOLECULE
3pxe_ligand
  104   105     1     0     0
SMALL
GAST_HUCK


@<TRIPOS>ATOM
      1 N          12.0520  -24.6550  -37.5380 N.4       1 SER         0.2396
      2 CA         11.9400  -23.5480  -38.4990 C.3       1 SER         0.0885
      3 C          13.2770  -23.1560  -39.1600 C.2       1 SER         0.2291
      4 O          14.3540  -23.3480  -38.5840 O.2       1 SER        -0.3906
      5 CB         11.2960  -22.3110  -37.8390 C.3       1 SER         0.1041
      6 OG         11.1430  -21.2270  -38.7500 O.3       1 SER        -0.3870
      7 N          13.1940  -22.6060  -40.3740 N.am      1 THR        -0.2585
      8 CA         14.3800  -22.1240  -41.0880 C.3       1 THR         0.1566
      9 C          14.8110  -20.7190  -40.6200 C.2       1 THR         0.2065
     10 O          15.9830  -20.3500  -40.7630 O.2       1 THR        -0.3943
     11 CB         14.1910  -22.1310  -42.6500 C.3       1 THR         0.0924
     12 OG1        13.7430  -23.4210  -43.0920 O.3       1 THR        -0.3874
     13 CG2        15.5060  -21.7700  -43.3710 C.3       1 THR        -0.0346
     14 N          13.8790  -19.9400  -40.0600 N.am      1 SEP        -0.2612
     15 CA         14.2150  -18.5810  -39.6200 C.3       1 SEP         0.1588
     16 CB         13.0370  -17.8900  -38.9240 C.3       1 SEP         0.1184
     17 OG         11.8730  -17.9870  -39.7130 O.3       1 SEP        -0.2714
     18 C          15.4300  -18.5970  -38.6830 C.2       1 SEP         0.2090
     19 O          15.4670  -19.3500  -37.6970 O.2       1 SEP        -0.3941
     20 P          10.5430  -17.3930  -39.0020 P.3       1 SEP         0.2010
     21 O1P        10.8900  -16.2420  -37.9390 O.co2     1 SEP        -0.5537
     22 O2P         9.6820  -18.6010  -38.3660 O.co2     1 SEP        -0.5537
     23 O3P         9.6480  -16.6940  -40.1640 O.co2     1 SEP        -0.5537
     24 N          16.4250  -17.7510  -38.9780 N.am      1 PRO        -0.2498
     25 CA         17.6590  -17.6320  -38.1960 C.3       1 PRO         0.1338
     26 C          17.3840  -17.3050  -36.7230 C.2       1 PRO         0.2042
     27 O          16.5520  -16.4570  -36.4130 O.2       1 PRO        -0.3944
     28 CB         18.3780  -16.4490  -38.8670 C.3       1 PRO        -0.0104
     29 CG         17.8940  -16.4470  -40.2310 C.3       1 PRO        -0.0281
     30 CD         16.4420  -16.8650  -40.1490 C.3       1 PRO         0.0369
     31 N          18.0930  -17.9770  -35.8250 N.am      1 THR        -0.2613
     32 CA         18.0030  -17.6660  -34.4000 C.3       1 THR         0.1565
     33 C          19.2560  -16.9450  -33.8850 C.2       1 THR         0.2066
     34 O          20.3530  -17.1190  -34.4120 O.2       1 THR        -0.3943
     35 CB         17.6900  -18.9120  -33.5530 C.3       1 THR         0.0924
     36 OG1        18.5080  -20.0060  -33.9830 O.3       1 THR        -0.3874
     37 CG2        16.2190  -19.3080  -33.6730 C.3       1 THR        -0.0346
     38 N          19.0870  -16.1370  -32.8470 N.am      1 PHE        -0.2619
     39 CA         20.2030  -15.3740  -32.3040 C.3       1 PHE         0.1404
     40 C          20.3870  -15.6610  -30.8170 C.2       1 PHE         0.2055
     41 O          19.5540  -15.2900  -29.9940 O.2       1 PHE        -0.3942
     42 CB         19.9840  -13.8910  -32.5780 C.3       1 PHE         0.0214
     43 CG         19.8910  -13.5760  -34.0400 C.ar      1 PHE        -0.0386
     44 CD1        18.6680  -13.6290  -34.6990 C.ar      1 PHE        -0.0601
     45 CD2        21.0310  -13.2730  -34.7660 C.ar      1 PHE        -0.0601
     46 CE1        18.5840  -13.3600  -36.0400 C.ar      1 PHE        -0.0686
     47 CE2        20.9550  -13.0090  -36.1120 C.ar      1 PHE        -0.0686
     48 CZ         19.7320  -13.0530  -36.7520 C.ar      1 PHE        -0.0687
     49 N          21.4820  -16.3350  -30.4840 N.am      1 ASN        -0.2672
     50 CA         21.6310  -16.9190  -29.1600 C.3       1 ASN         0.1110
     51 C          22.9630  -16.6160  -28.4470 C.2       1 ASN         0.0624
     52 O          24.0440  -16.9470  -28.9290 O.co2     1 ASN        -0.5665
     53 CB         21.3510  -18.4340  -29.2440 C.3       1 ASN         0.0718
     54 CG         20.0030  -18.7600  -29.9270 C.2       1 ASN         0.1774
     55 OD1        19.0390  -17.9920  -29.8360 O.2       1 ASN        -0.3971
     56 ND2        19.9390  -19.9070  -30.6060 N.am      1 ASN        -0.3007
     57 H          12.4796  -25.4596  -37.9964 H         1 SER         0.2016
     58 H          12.6313  -24.3630  -36.7509 H         1 SER         0.2016
     59 H          11.1225  -24.9076  -37.2024 H         1 SER         0.2016
     60 H          11.2970  -23.9185  -39.2973 H         1 SER         0.1122
     61 H          11.9487  -21.9822  -37.0303 H         1 SER         0.0640
     62 H          10.3054  -22.5955  -37.4842 H         1 SER         0.0640
     63 H          10.7400  -20.4833  -38.2959 H         1 SER         0.2099
     64 H          12.2794  -22.5188  -40.8170 H         1 THR         0.1885
     65 H          15.1734  -22.8294  -40.8411 H         1 THR         0.0826
     66 H          13.4402  -21.3805  -42.8971 H         1 THR         0.0639
     67 H          13.6321  -23.4106  -44.0455 H         1 THR         0.2101
     68 H          16.2637  -22.5183  -43.1384 H         1 THR         0.0257
     69 H          15.3344  -21.7472  -44.4472 H         1 THR         0.0257
     70 H          15.8459  -20.7903  -43.0351 H         1 THR         0.0257
     71 H          12.9296  -20.2925  -39.9381 H         1 SEP         0.1884
     72 H          14.4563  -18.0112  -40.5173 H         1 SEP         0.0827
     73 H          13.2795  -16.8374  -38.7777 H         1 SEP         0.0662
     74 H          12.8569  -18.3762  -37.9652 H         1 SEP         0.0662
     75 H          18.2298  -18.5606  -38.1865 H         1 PRO         0.0802
     76 H          19.4619  -16.5545  -38.8214 H         1 PRO         0.0313
     77 H          18.1680  -15.5068  -38.3608 H         1 PRO         0.0313
     78 H          18.4694  -17.1275  -40.8587 H         1 PRO         0.0287
     79 H          18.0000  -15.4639  -40.6897 H         1 PRO         0.0287
     80 H          15.7615  -16.0191  -40.0513 H         1 PRO         0.0524
     81 H          16.0892  -17.3544  -41.0568 H         1 PRO         0.0524
     82 H          18.7129  -18.7252  -36.1354 H         1 THR         0.1884
     83 H          17.1642  -16.9788  -34.2892 H         1 THR         0.0826
     84 H          17.9009  -18.6727  -32.5107 H         1 THR         0.0639
     85 H          18.3093  -20.7807  -33.4520 H         1 THR         0.2101
     86 H          15.5932  -18.4856  -33.3264 H         1 THR         0.0257
     87 H          15.9872  -19.5285  -34.7150 H         1 THR         0.0257
     88 H          16.0309  -20.1914  -33.0629 H         1 THR         0.0257
     89 H          18.1634  -16.0486  -32.4232 H         1 PHE         0.1885
     90 H          21.1256  -15.6795  -32.7976 H         1 PHE         0.0823
     91 H          20.8384  -13.3480  -32.1740 H         1 PHE         0.0474
     92 H          19.0406  -13.6024  -32.1145 H         1 PHE         0.0474
     93 H          17.7666  -13.8872  -34.1432 H         1 PHE         0.0557
     94 H          21.9982  -13.2437  -34.2643 H         1 PHE         0.0557
     95 H          17.6181  -13.3875  -36.5443 H         1 PHE         0.0599
     96 H          21.8572  -12.7655  -36.6731 H         1 PHE         0.0599
     97 H          19.6698  -12.8456  -37.8203 H         1 PHE         0.0559
     98 H          22.2308  -16.4449  -31.1679 H         1 ASN         0.1877
     99 H          20.8935  -16.4314  -28.5224 H         1 ASN         0.0752
    100 O          22.9433  -16.0131  -27.3408 O.co2     1 ASN        -0.5665
    101 H          21.3108  -18.8219  -28.2262 H         1 ASN         0.0544
    102 H          22.1439  -18.8865  -29.8396 H         1 ASN         0.0544
    103 H          19.0727  -20.1758  -31.0726 H         1 ASN         0.1814
    104 H          20.7564  -20.5149  -30.6584 H         1 ASN         0.1814
@<TRIPOS>BOND
     1    1    2 1  
     2    2    3 1  
     3    2    5 1  
     4    3    4 2  
     5    3    7 am 
     6    5    6 1  
     7    7    8 1  
     8    8    9 1  
     9    8   11 1  
    10    9   10 2  
    11    9   14 am 
    12   11   12 1  
    13   11   13 1  
    14   14   15 1  
    15   15   16 1  
    16   15   18 1  
    17   16   17 1  
    18   17   20 1  
    19   18   19 2  
    20   18   24 am 
    21   20   21 ar 
    22   20   22 ar 
    23   20   23 ar 
    24   24   25 1  
    25   24   30 1  
    26   25   26 1  
    27   25   28 1  
    28   26   27 2  
    29   26   31 am 
    30   28   29 1  
    31   29   30 1  
    32   31   32 1  
    33   32   33 1  
    34   32   35 1  
    35   33   34 2  
    36   33   38 am 
    37   35   36 1  
    38   35   37 1  
    39   38   39 1  
    40   39   40 1  
    41   39   42 1  
    42   40   41 2  
    43   40   49 am 
    44   42   43 1  
    45   43   44 ar 
    46   43   45 ar 
    47   44   46 ar 
    48   45   47 ar 
    49   46   48 ar 
    50   47   48 ar 
    51   49   50 1  
    52   50   51 1  
    53   50   53 1  
    54   51   52 ar 
    55   53   54 1  
    56   54   55 2  
    57   54   56 am 
    58    1   57 1  
    59    1   58 1  
    60    1   59 1  
    61    2   60 1  
    62    5   61 1  
    63    5   62 1  
    64    6   63 1  
    65    7   64 1  
    66    8   65 1  
    67   11   66 1  
    68   12   67 1  
    69   13   68 1  
    70   13   69 1  
    71   13   70 1  
    72   14   71 1  
    73   15   72 1  
    74   16   73 1  
    75   16   74 1  
    76   25   75 1  
    77   28   76 1  
    78   28   77 1  
    79   29   78 1  
    80   29   79 1  
    81   30   80 1  
    82   30   81 1  
    83   31   82 1  
    84   32   83 1  
    85   35   84 1  
    86   36   85 1  
    87   37   86 1  
    88   37   87 1  
    89   37   88 1  
    90   38   89 1  
    91   39   90 1  
    92   42   91 1  
    93   42   92 1  
    94   44   93 1  
    95   45   94 1  
    96   46   95 1  
    97   47   96 1  
    98   48   97 1  
    99   49   98 1  
   100   50   99 1  
   101   51  100 ar 
   102   53  101 1  
   103   53  102 1  
   104   56  103 1  
   105   56  104 1  
@<TRIPOS>SUBSTRUCTURE
     1 SER         1

