3pxe_ligand
  -I-interpret- 

107108  0  0  0  0  0  0  0  0999 V2000
   12.0520  -24.6550  -37.5380 N   0  3  0  0  0
   11.9400  -23.5480  -38.4990 C   0  0  0  0  0
   13.2770  -23.1560  -39.1600 C   0  0  0  0  0
   14.3540  -23.3480  -38.5840 O   0  0  0  0  0
   11.2960  -22.3110  -37.8390 C   0  0  0  0  0
   11.1430  -21.2270  -38.7500 O   0  0  0  0  0
   13.1940  -22.6060  -40.3740 N   0  0  0  0  0
   14.3800  -22.1240  -41.0880 C   0  0  0  0  0
   14.8110  -20.7190  -40.6200 C   0  0  0  0  0
   15.9830  -20.3500  -40.7630 O   0  0  0  0  0
   14.1910  -22.1310  -42.6500 C   0  0  0  0  0
   13.7430  -23.4210  -43.0920 O   0  0  0  0  0
   15.5060  -21.7700  -43.3710 C   0  0  0  0  0
   13.8790  -19.9400  -40.0600 N   0  0  0  0  0
   14.2150  -18.5810  -39.6200 C   0  0  0  0  0
   13.0370  -17.8900  -38.9240 C   0  0  0  0  0
   11.8730  -17.9870  -39.7130 O   0  0  0  0  0
   15.4300  -18.5970  -38.6830 C   0  0  0  0  0
   15.4670  -19.3500  -37.6970 O   0  0  0  0  0
   10.5430  -17.3930  -39.0020 P   0  0  0  0  0
   10.8900  -16.2420  -37.9390 O   0  0  0  0  0
    9.6820  -18.6010  -38.3660 O   0  0  0  0  0
    9.6480  -16.6940  -40.1640 O   0  0  0  0  0
   16.4250  -17.7510  -38.9780 N   0  0  0  0  0
   17.6590  -17.6320  -38.1960 C   0  0  0  0  0
   17.3840  -17.3050  -36.7230 C   0  0  0  0  0
   16.5520  -16.4570  -36.4130 O   0  0  0  0  0
   18.3780  -16.4490  -38.8670 C   0  0  0  0  0
   17.8940  -16.4470  -40.2310 C   0  0  0  0  0
   16.4420  -16.8650  -40.1490 C   0  0  0  0  0
   18.0930  -17.9770  -35.8250 N   0  0  0  0  0
   18.0030  -17.6660  -34.4000 C   0  0  0  0  0
   19.2560  -16.9450  -33.8850 C   0  0  0  0  0
   20.3530  -17.1190  -34.4120 O   0  0  0  0  0
   17.6900  -18.9120  -33.5530 C   0  0  0  0  0
   18.5080  -20.0060  -33.9830 O   0  0  0  0  0
   16.2190  -19.3080  -33.6730 C   0  0  0  0  0
   19.0870  -16.1370  -32.8470 N   0  0  0  0  0
   20.2030  -15.3740  -32.3040 C   0  0  0  0  0
   20.3870  -15.6610  -30.8170 C   0  0  0  0  0
   19.5540  -15.2900  -29.9940 O   0  0  0  0  0
   19.9840  -13.8910  -32.5780 C   0  0  0  0  0
   19.8910  -13.5760  -34.0400 C   0  0  0  0  0
   18.6680  -13.6290  -34.6990 C   0  0  0  0  0
   21.0310  -13.2730  -34.7660 C   0  0  0  0  0
   18.5840  -13.3600  -36.0400 C   0  0  0  0  0
   20.9550  -13.0090  -36.1120 C   0  0  0  0  0
   19.7320  -13.0530  -36.7520 C   0  0  0  0  0
   21.4820  -16.3350  -30.4840 N   0  0  0  0  0
   21.6310  -16.9190  -29.1600 C   0  0  0  0  0
   22.9630  -16.6160  -28.4470 C   0  0  0  0  0
   24.0440  -16.9470  -28.9290 O   0  0  0  0  0
   21.3510  -18.4340  -29.2440 C   0  0  0  0  0
   20.0030  -18.7600  -29.9270 C   0  0  0  0  0
   19.0390  -17.9920  -29.8360 O   0  0  0  0  0
   19.9390  -19.9070  -30.6060 N   0  0  0  0  0
   22.9433  -16.0131  -27.3408 O   0  0  0  0  0
   12.4796  -25.4596  -37.9964 H   0  0  0  0  0
   12.6313  -24.3630  -36.7509 H   0  0  0  0  0
   11.1225  -24.9076  -37.2024 H   0  0  0  0  0
   11.2970  -23.9185  -39.2973 H   0  0  0  0  0
   11.9487  -21.9822  -37.0303 H   0  0  0  0  0
   10.3054  -22.5955  -37.4842 H   0  0  0  0  0
   10.7400  -20.4833  -38.2959 H   0  0  0  0  0
   12.2794  -22.5188  -40.8170 H   0  0  0  0  0
   15.1734  -22.8294  -40.8411 H   0  0  0  0  0
   13.4402  -21.3805  -42.8971 H   0  0  0  0  0
   13.6321  -23.4106  -44.0455 H   0  0  0  0  0
   16.2637  -22.5183  -43.1384 H   0  0  0  0  0
   15.3344  -21.7472  -44.4472 H   0  0  0  0  0
   15.8459  -20.7903  -43.0351 H   0  0  0  0  0
   12.9296  -20.2925  -39.9381 H   0  0  0  0  0
   14.4563  -18.0112  -40.5173 H   0  0  0  0  0
   13.2795  -16.8374  -38.7777 H   0  0  0  0  0
   12.8569  -18.3762  -37.9652 H   0  0  0  0  0
    9.5044  -19.2573  -39.0437 H   0  0  0  0  0
    9.4160  -17.3497  -40.8257 H   0  0  0  0  0
   18.2298  -18.5606  -38.1865 H   0  0  0  0  0
   19.4619  -16.5545  -38.8214 H   0  0  0  0  0
   18.1680  -15.5068  -38.3608 H   0  0  0  0  0
   18.4694  -17.1275  -40.8587 H   0  0  0  0  0
   18.0000  -15.4639  -40.6897 H   0  0  0  0  0
   15.7615  -16.0191  -40.0513 H   0  0  0  0  0
   16.0892  -17.3544  -41.0568 H   0  0  0  0  0
   18.7129  -18.7252  -36.1354 H   0  0  0  0  0
   17.1642  -16.9788  -34.2892 H   0  0  0  0  0
   17.9009  -18.6727  -32.5107 H   0  0  0  0  0
   18.3093  -20.7807  -33.4520 H   0  0  0  0  0
   15.5932  -18.4856  -33.3264 H   0  0  0  0  0
   15.9872  -19.5285  -34.7150 H   0  0  0  0  0
   16.0309  -20.1914  -33.0629 H   0  0  0  0  0
   18.1634  -16.0486  -32.4232 H   0  0  0  0  0
   21.1256  -15.6795  -32.7976 H   0  0  0  0  0
   20.8384  -13.3480  -32.1740 H   0  0  0  0  0
   19.0406  -13.6024  -32.1145 H   0  0  0  0  0
   17.7666  -13.8872  -34.1432 H   0  0  0  0  0
   21.9982  -13.2437  -34.2643 H   0  0  0  0  0
   17.6181  -13.3875  -36.5443 H   0  0  0  0  0
   21.8572  -12.7655  -36.6731 H   0  0  0  0  0
   19.6698  -12.8456  -37.8203 H   0  0  0  0  0
   22.2308  -16.4449  -31.1679 H   0  0  0  0  0
   20.8935  -16.4314  -28.5224 H   0  0  0  0  0
   21.3108  -18.8219  -28.2262 H   0  0  0  0  0
   22.1439  -18.8865  -29.8396 H   0  0  0  0  0
   19.0727  -20.1758  -31.0726 H   0  0  0  0  0
   20.7564  -20.5149  -30.6584 H   0  0  0  0  0
   22.0343  -15.8229  -27.0975 H   0  0  0  0  0
  1  2  1  0  0  0
  2  3  1  0  0  0
  2  5  1  0  0  0
  3  4  2  0  0  0
  3  7  1  0  0  0
  5  6  1  0  0  0
  7  8  1  0  0  0
  8  9  1  0  0  0
  8 11  1  0  0  0
  9 10  2  0  0  0
  9 14  1  0  0  0
 11 12  1  0  0  0
 11 13  1  0  0  0
 14 15  1  0  0  0
 15 16  1  0  0  0
 15 18  1  0  0  0
 16 17  1  0  0  0
 17 20  1  0  0  0
 18 19  2  0  0  0
 18 24  1  0  0  0
 20 21  2  0  0  0
 20 22  1  0  0  0
 20 23  1  0  0  0
 24 25  1  0  0  0
 24 30  1  0  0  0
 25 26  1  0  0  0
 25 28  1  0  0  0
 26 27  2  0  0  0
 26 31  1  0  0  0
 28 29  1  0  0  0
 29 30  1  0  0  0
 31 32  1  0  0  0
 32 33  1  0  0  0
 32 35  1  0  0  0
 33 34  2  0  0  0
 33 38  1  0  0  0
 35 36  1  0  0  0
 35 37  1  0  0  0
 38 39  1  0  0  0
 39 40  1  0  0  0
 39 42  1  0  0  0
 40 41  2  0  0  0
 40 49  1  0  0  0
 42 43  1  0  0  0
 43 44  4  0  0  0
 43 45  4  0  0  0
 44 46  4  0  0  0
 45 47  4  0  0  0
 46 48  4  0  0  0
 47 48  4  0  0  0
 49 50  1  0  0  0
 50 51  1  0  0  0
 50 53  1  0  0  0
 51 52  2  0  0  0
 53 54  1  0  0  0
 54 55  2  0  0  0
 54 56  1  0  0  0
 51 57  1  0  0  0
  1 58  1  0  0  0
  1 59  1  0  0  0
  1 60  1  0  0  0
  2 61  1  0  0  0
  5 62  1  0  0  0
  5 63  1  0  0  0
  6 64  1  0  0  0
  7 65  1  0  0  0
  8 66  1  0  0  0
 11 67  1  0  0  0
 12 68  1  0  0  0
 13 69  1  0  0  0
 13 70  1  0  0  0
 13 71  1  0  0  0
 14 72  1  0  0  0
 15 73  1  0  0  0
 16 74  1  0  0  0
 16 75  1  0  0  0
 22 76  1  0  0  0
 23 77  1  0  0  0
 25 78  1  0  0  0
 28 79  1  0  0  0
 28 80  1  0  0  0
 29 81  1  0  0  0
 29 82  1  0  0  0
 30 83  1  0  0  0
 30 84  1  0  0  0
 31 85  1  0  0  0
 32 86  1  0  0  0
 35 87  1  0  0  0
 36 88  1  0  0  0
 37 89  1  0  0  0
 37 90  1  0  0  0
 37 91  1  0  0  0
 38 92  1  0  0  0
 39 93  1  0  0  0
 42 94  1  0  0  0
 42 95  1  0  0  0
 44 96  1  0  0  0
 45 97  1  0  0  0
 46 98  1  0  0  0
 47 99  1  0  0  0
 48100  1  0  0  0
 49101  1  0  0  0
 50102  1  0  0  0
 53103  1  0  0  0
 53104  1  0  0  0
 56105  1  0  0  0
 56106  1  0  0  0
 57107  1  0  0  0
M  END
$$$$
