6f5l_ligand
  -I-interpret- 

 40 39  0  0  0  0  0  0  0  0999 V2000
   13.8030   48.6400   40.5460 O   0  0  0  0  0
   13.8510   47.4130   40.3000 C   0  0  0  0  0
   13.1350   46.8430   39.4510 O   0  0  0  0  0
   14.9490   46.6070   41.0240 C   0  0  0  0  0
   14.7170   45.0730   40.9840 C   0  0  0  0  0
   16.0370   44.3210   41.2670 C   0  0  0  0  0
   17.0340   44.5340   40.0980 C   0  0  0  0  0
   16.8710   43.7620   39.1450 O   0  0  0  0  0
   17.9350   45.4220   40.1780 O   0  0  0  0  0
   16.5510   44.8030   42.5190 O   0  0  0  0  0
   17.8580   44.5480   42.7780 C   0  0  0  0  0
   18.3830   43.5360   42.2930 O   0  0  0  0  0
   18.4860   45.4040   43.5900 N   0  0  0  0  0
   19.8850   45.2630   44.0190 C   0  0  0  0  0
   20.0440   45.8180   45.4490 C   0  0  0  0  0
   19.5810   46.9700   45.6950 O   0  0  0  0  0
   20.6120   45.0820   46.2940 O   0  0  0  0  0
   20.7570   46.0080   42.9780 C   0  0  0  0  0
   22.2240   46.1570   43.4360 C   0  0  0  0  0
   22.9740   46.9840   42.3870 C   0  0  0  0  0
   22.8840   44.7570   43.4950 C   0  0  0  0  0
   14.4405   48.8530   41.2314 H   0  0  0  0  0
   14.9442   46.9124   42.0703 H   0  0  0  0  0
   15.8926   46.8094   40.5174 H   0  0  0  0  0
   14.3548   44.7944   39.9944 H   0  0  0  0  0
   13.9852   44.8046   41.7459 H   0  0  0  0  0
   15.8730   43.2459   41.3402 H   0  0  0  0  0
   17.8505   45.8877   41.0132 H   0  0  0  0  0
   17.9603   46.2074   43.9344 H   0  0  0  0  0
   20.2026   44.2211   44.0597 H   0  0  0  0  0
   19.1955   47.3361   44.8956 H   0  0  0  0  0
   20.3426   47.0073   42.8448 H   0  0  0  0  0
   20.7495   45.4278   42.0553 H   0  0  0  0  0
   22.2597   46.6350   44.4150 H   0  0  0  0  0
   22.9322   46.4727   41.4253 H   0  0  0  0  0
   22.5079   47.9654   42.2987 H   0  0  0  0  0
   24.0136   47.1003   42.6932 H   0  0  0  0  0
   22.3411   44.1303   44.2026 H   0  0  0  0  0
   22.8536   44.3004   42.5057 H   0  0  0  0  0
   23.9201   44.8585   43.8181 H   0  0  0  0  0
  1  2  1  0  0  0
  2  3  2  0  0  0
  2  4  1  0  0  0
  4  5  1  0  0  0
  5  6  1  0  0  0
  6  7  1  0  0  0
  6 10  1  0  0  0
  7  8  2  0  0  0
  7  9  1  0  0  0
 10 11  1  0  0  0
 11 12  2  0  0  0
 11 13  1  0  0  0
 13 14  1  0  0  0
 14 15  1  0  0  0
 14 18  1  0  0  0
 15 16  1  0  0  0
 15 17  2  0  0  0
 18 19  1  0  0  0
 19 20  1  0  0  0
 19 21  1  0  0  0
  1 22  1  0  0  0
  4 23  1  0  0  0
  4 24  1  0  0  0
  5 25  1  0  0  0
  5 26  1  0  0  0
  6 27  1  0  0  0
  9 28  1  0  0  0
 13 29  1  0  0  0
 14 30  1  0  0  0
 16 31  1  0  0  0
 18 32  1  0  0  0
 18 33  1  0  0  0
 19 34  1  0  0  0
 20 35  1  0  0  0
 20 36  1  0  0  0
 20 37  1  0  0  0
 21 38  1  0  0  0
 21 39  1  0  0  0
 21 40  1  0  0  0
M  END
$$$$
