4kln_ligand
  -I-interpret- 

 47 49  0  0  0  0  0  0  0  0999 V2000
    6.3410   43.9010   -4.1780 P   0  0  0  0  0
    5.7980   42.3550   -5.4200 S   0  0  0  0  0
    7.6220   44.6200   -4.8310 O   0  0  0  0  0
    6.6690   43.3430   -2.8560 O   0  0  0  0  0
    4.9990   46.2750   -3.4520 P   0  0  0  0  0
    6.2480   47.0500   -3.7380 O   0  0  0  0  0
    4.5000   46.1420   -2.0430 O   0  0  0  0  0
    5.0610   44.8390   -4.1360 O   0  0  0  0  0
    3.8090   48.2980   -4.9860 P   0  0  0  0  0
    4.1820   49.3230   -3.9510 O   0  0  0  0  0
    4.6240   48.1820   -6.2520 O   0  0  0  0  0
    3.7640   46.8640   -4.2810 O   0  0  0  0  0
    2.2600   48.5040   -5.3560 O   0  0  0  0  0
    1.7820   48.2230   -6.6670 C   0  0  0  0  0
    0.6310   49.1620   -6.9950 C   0  0  0  0  0
   -0.5510   48.7740   -6.2860 O   0  0  0  0  0
    0.9470   50.5930   -6.5940 C   0  0  0  0  0
    1.5030   51.3180   -7.6970 O   0  0  0  0  0
   -0.4010   51.1340   -6.1830 C   0  0  0  0  0
   -1.0330   51.6930   -7.3340 O   0  0  0  0  0
   -1.1800   49.9120   -5.6950 C   0  0  0  0  0
   -1.0900   49.8290   -4.2110 N   0  0  0  0  0
   -0.4530   48.8720   -3.5020 C   0  0  0  0  0
   -0.5490   49.0930   -2.1650 N   0  0  0  0  0
   -1.2570   50.2200   -1.9960 C   0  0  0  0  0
   -1.7200   51.0240   -0.8430 C   0  0  0  0  0
   -1.4380   50.6500    0.4240 N   0  0  0  0  0
   -2.4300   52.1450   -1.0930 N   0  0  0  0  0
   -2.7240   52.5350   -2.3480 C   0  0  0  0  0
   -2.3340   51.8490   -3.4410 N   0  0  0  0  0
   -1.6120   50.7020   -3.3400 C   0  0  0  0  0
    5.4971   42.8387   -6.6219 H   0  0  0  0  0
    7.3845   44.9754   -5.6906 H   0  0  0  0  0
    3.6954   45.6183   -2.0378 H   0  0  0  0  0
    4.2587   47.4865   -6.8038 H   0  0  0  0  0
    1.4356   47.1906   -6.7154 H   0  0  0  0  0
    2.5871   48.3674   -7.3875 H   0  0  0  0  0
    0.4772   49.1027   -8.0725 H   0  0  0  0  0
    1.6897   50.6735   -5.8003 H   0  0  0  0  0
    1.6950   52.2178   -7.4229 H   0  0  0  0  0
   -0.3412   51.9067   -5.4165 H   0  0  0  0  0
   -1.8929   52.0417   -7.0879 H   0  0  0  0  0
   -2.2333   49.9676   -5.9699 H   0  0  0  0  0
    0.0728   48.0273   -3.9472 H   0  0  0  0  0
   -0.8983   49.8020    0.5973 H   0  0  0  0  0
   -1.7647   51.2156    1.2074 H   0  0  0  0  0
   -3.3040   53.4474   -2.4864 H   0  0  0  0  0
  1  2  1  0  0  0
  1  3  1  0  0  0
  1  4  2  0  0  0
  8  1  1  0  0  0
  5  6  2  0  0  0
  5  7  1  0  0  0
  5  8  1  0  0  0
 12  5  1  0  0  0
  9 10  2  0  0  0
  9 11  1  0  0  0
  9 12  1  0  0  0
  9 13  1  0  0  0
 13 14  1  0  0  0
 14 15  1  0  0  0
 15 16  1  0  0  0
 15 17  1  0  0  0
 16 21  1  0  0  0
 17 18  1  0  0  0
 17 19  1  0  0  0
 19 20  1  0  0  0
 19 21  1  0  0  0
 21 22  1  0  0  0
 22 23  4  0  0  0
 22 31  4  0  0  0
 23 24  4  0  0  0
 24 25  4  0  0  0
 25 26  4  0  0  0
 25 31  4  0  0  0
 26 27  1  0  0  0
 26 28  4  0  0  0
 28 29  4  0  0  0
 29 30  4  0  0  0
 30 31  4  0  0  0
  2 32  1  0  0  0
  3 33  1  0  0  0
  7 34  1  0  0  0
 11 35  1  0  0  0
 14 36  1  0  0  0
 14 37  1  0  0  0
 15 38  1  0  0  0
 17 39  1  0  0  0
 18 40  1  0  0  0
 19 41  1  0  0  0
 20 42  1  0  0  0
 21 43  1  0  0  0
 23 44  1  0  0  0
 27 45  1  0  0  0
 27 46  1  0  0  0
 29 47  1  0  0  0
M  END
$$$$
