### 
### Created by X-TOOL on Mon Sep 10 21:13:16 2018
### 

@<TRIPOS>MOLECULE
4kln_ligand
   44    46     1     0     0
SMALL
GAST_HUCK


@<TRIPOS>ATOM
      1 PG          6.3410   43.9010   -4.1780 P.3       1 AGS         0.2197
      2 S1G         5.7980   42.3550   -5.4200 S.3       1 AGS        -0.0461
      3 O2G         7.6220   44.6200   -4.8310 O.co2     1 AGS        -0.6077
      4 O3G         6.6690   43.3430   -2.8560 O.co2     1 AGS        -0.6077
      5 PB          4.9990   46.2750   -3.4520 P.3       1 AGS         0.3347
      6 O1B         6.2480   47.0500   -3.7380 O.co2     1 AGS        -0.6076
      7 O2B         4.5000   46.1420   -2.0430 O.co2     1 AGS        -0.6076
      8 O3B         5.0610   44.8390   -4.1360 O.3       1 AGS        -0.1434
      9 PA          3.8090   48.2980   -4.9860 P.3       1 AGS         0.2978
     10 O1A         4.1820   49.3230   -3.9510 O.co2     1 AGS        -0.6127
     11 O2A         4.6240   48.1820   -6.2520 O.co2     1 AGS        -0.6127
     12 O3A         3.7640   46.8640   -4.2810 O.3       1 AGS        -0.1263
     13 O5'         2.2600   48.5040   -5.3560 O.3       1 AGS        -0.2476
     14 C5'         1.7820   48.2230   -6.6670 C.3       1 AGS         0.1128
     15 C4'         0.6310   49.1620   -6.9950 C.3       1 AGS         0.1189
     16 O4'        -0.5510   48.7740   -6.2860 O.3       1 AGS        -0.3364
     17 C3'         0.9470   50.5930   -6.5940 C.3       1 AGS         0.1149
     18 O3'         1.5030   51.3180   -7.6970 O.3       1 AGS        -0.3864
     19 C2'        -0.4010   51.1340   -6.1830 C.3       1 AGS         0.1385
     20 O2'        -1.0330   51.6930   -7.3340 O.3       1 AGS        -0.3836
     21 C1'        -1.1800   49.9120   -5.6950 C.3       1 AGS         0.2010
     22 N9         -1.0900   49.8290   -4.2110 N.pl3     1 AGS        -0.1919
     23 C8         -0.4530   48.8720   -3.5020 C.2       1 AGS         0.1123
     24 N7         -0.5490   49.0930   -2.1650 N.2       1 AGS        -0.2958
     25 C5         -1.2570   50.2200   -1.9960 C.ar      1 AGS         0.1045
     26 C6         -1.7200   51.0240   -0.8430 C.ar      1 AGS         0.1298
     27 N6         -1.4380   50.6500    0.4240 N.pl3     1 AGS        -0.3152
     28 N1         -2.4300   52.1450   -1.0930 N.ar      1 AGS        -0.2698
     29 C2         -2.7240   52.5350   -2.3480 C.ar      1 AGS         0.0533
     30 N3         -2.3340   51.8490   -3.4410 N.ar      1 AGS        -0.2714
     31 C4         -1.6120   50.7020   -3.3400 C.ar      1 AGS         0.1613
     32 H1          4.9944   41.8832   -5.0357 H         1 AGS         0.1255
     33 H2          1.4314   47.1815   -6.7148 H         1 AGS         0.0648
     34 H3          2.5946   48.3701   -7.3937 H         1 AGS         0.0648
     35 H4          0.4405   49.1210   -8.0776 H         1 AGS         0.0651
     36 H5          1.6520   50.6202   -5.7501 H         1 AGS         0.0648
     37 H6          0.8790   51.3303   -8.4132 H         1 AGS         0.2100
     38 H7         -0.3085   51.8899   -5.3893 H         1 AGS         0.0676
     39 H8         -0.4935   52.3936   -7.6812 H         1 AGS         0.2101
     40 H9         -2.2339   49.9746   -6.0038 H         1 AGS         0.0996
     41 H10         0.0723   48.0281   -3.9468 H         1 AGS         0.1349
     42 H11        -1.7679   51.2211    1.2151 H         1 AGS         0.1820
     43 H12        -0.8930   49.7937    0.5990 H         1 AGS         0.1820
     44 H13        -3.3009   53.4424   -2.4857 H         1 AGS         0.0996
@<TRIPOS>BOND
     1    1    2 1  
     2    1    3 ar 
     3    1    4 ar 
     4    8    1 1  
     5    5    6 ar 
     6    5    7 ar 
     7    5    8 1  
     8   12    5 1  
     9    9   10 ar 
    10    9   11 ar 
    11    9   12 1  
    12    9   13 1  
    13   13   14 1  
    14   14   15 1  
    15   15   16 1  
    16   15   17 1  
    17   16   21 1  
    18   17   18 1  
    19   17   19 1  
    20   19   20 1  
    21   19   21 1  
    22   21   22 1  
    23   22   23 1  
    24   22   31 1  
    25   23   24 2  
    26   24   25 1  
    27   25   26 ar 
    28   25   31 ar 
    29   26   27 1  
    30   26   28 ar 
    31   28   29 ar 
    32   29   30 ar 
    33   30   31 ar 
    34    2   32 1  
    35   14   33 1  
    36   14   34 1  
    37   15   35 1  
    38   17   36 1  
    39   18   37 1  
    40   19   38 1  
    41   20   39 1  
    42   21   40 1  
    43   23   41 1  
    44   27   42 1  
    45   27   43 1  
    46   29   44 1  
@<TRIPOS>SUBSTRUCTURE
     1 AGS         1

