5fky_ligand
  -I-interpret- 

 26 27  0  0  0  0  0  0  0  0999 V2000
    4.7550  -12.8640    0.6710 O   0  0  0  0  0
    4.2460  -11.6670    1.2490 C   0  0  0  0  0
    5.3120  -11.2060    2.2890 C   0  0  0  0  0
    5.5020  -12.2130    3.2630 O   0  0  0  0  0
    6.6890  -10.8830    1.6130 C   0  0  0  0  0
    6.4950   -9.8770    0.6480 O   0  0  0  0  0
    7.6430  -10.3280    2.6880 C   0  0  0  0  0
    8.8740   -9.8750    2.1020 O   0  0  0  0  0
    7.7990  -11.3950    3.7900 C   0  0  0  0  0
    6.4110  -11.9350    4.3080 C   0  0  0  0  0
    5.9610  -10.6590    5.5050 S   0  0  0  0  0
    8.3780  -10.8380    5.0340 N   0  0  0  0  0
    7.5760  -10.3240    5.9960 C   0  0  0  0  0
    8.0210   -9.6390    7.1940 N   0  0  0  0  0
    4.1324  -13.1928    0.0184 H   0  0  0  0  0
    3.2793  -11.8371    1.7230 H   0  0  0  0  0
    4.0776  -10.9025    0.4905 H   0  0  0  0  0
    4.9379  -10.2942    2.7545 H   0  0  0  0  0
    7.0999  -11.7823    1.1542 H   0  0  0  0  0
    5.9022  -10.2000   -0.0346 H   0  0  0  0  0
    7.2328   -9.4359    3.1612 H   0  0  0  0  0
    8.6839   -9.2162    1.4301 H   0  0  0  0  0
    8.4179  -12.1557    3.3143 H   0  0  0  0  0
    6.4252  -12.9191    4.7765 H   0  0  0  0  0
    9.3893  -10.8416    5.1671 H   0  0  0  0  0
    7.3373   -9.2902    7.8658 H   0  0  0  0  0
  1  2  1  0  0  0
  2  3  1  0  0  0
  3  4  1  0  0  0
  3  5  1  0  0  0
  4 10  1  0  0  0
  5  6  1  0  0  0
  5  7  1  0  0  0
  7  8  1  0  0  0
  7  9  1  0  0  0
  9 10  1  0  0  0
  9 12  1  0  0  0
 10 11  1  0  0  0
 11 13  1  0  0  0
 12 13  1  0  0  0
 13 14  2  0  0  0
  1 15  1  0  0  0
  2 16  1  0  0  0
  2 17  1  0  0  0
  3 18  1  0  0  0
  5 19  1  0  0  0
  6 20  1  0  0  0
  7 21  1  0  0  0
  8 22  1  0  0  0
  9 23  1  0  0  0
 10 24  1  0  0  0
 12 25  1  0  0  0
 14 26  1  0  0  0
M  END
$$$$
