4zlo_ligand
  -I-interpret- 

 43 46  0  0  0  0  0  0  0  0999 V2000
   43.0550    6.1570  -20.7940 C   0  0  0  0  0
   42.4410    5.1790  -19.8020 C   0  0  0  0  0
   44.6400    4.8180  -18.8320 C   0  0  0  0  0
   41.1140    3.4270  -15.1810 C   0  0  0  0  0
   43.3850    4.1640  -15.0990 C   0  0  0  0  0
   44.2240    4.2830  -13.9870 C   0  0  0  0  0
   45.0820    5.3620  -13.8610 C   0  0  0  0  0
   45.0730    6.3140  -14.8440 C   0  0  0  0  0
   44.2710    6.2500  -15.9600 C   0  0  0  0  0
   43.4220    5.1470  -16.1110 C   0  0  0  0  0
   45.8930    7.3900  -14.7120 F   0  0  0  0  0
   42.5730    4.9940  -17.3300 C   0  0  0  0  0
   43.2320    5.1550  -18.5600 N   0  0  0  0  0
   45.2230    5.8050  -19.8380 C   0  0  0  0  0
   44.4470    5.8090  -21.0780 N   0  3  0  0  0
   45.0250    6.7390  -22.0510 C   0  0  0  0  0
   42.4850    3.0750  -15.1640 N   0  0  0  0  0
   40.6040    4.2410  -16.2120 C   0  0  0  0  0
   41.3330    4.6440  -17.3480 N   0  0  0  0  0
   40.2750    2.9850  -14.1550 C   0  0  0  0  0
   38.9420    3.3580  -14.1340 C   0  0  0  0  0
   38.4770    4.1690  -15.1370 C   0  0  0  0  0
   37.1840    4.5730  -15.0910 F   0  0  0  0  0
   39.2570    4.6210  -16.1730 C   0  0  0  0  0
   43.0252    7.1578  -20.3632 H   0  0  0  0  0
   42.4871    6.1158  -21.7235 H   0  0  0  0  0
   42.4337    4.1813  -20.2410 H   0  0  0  0  0
   41.4232    5.4942  -19.5720 H   0  0  0  0  0
   44.6962    3.8098  -19.2425 H   0  0  0  0  0
   45.2089    4.8714  -17.9038 H   0  0  0  0  0
   44.2023    3.5179  -13.2109 H   0  0  0  0  0
   45.7469    5.4509  -13.0019 H   0  0  0  0  0
   44.2960    7.0405  -16.7100 H   0  0  0  0  0
   46.2465    5.5079  -20.0668 H   0  0  0  0  0
   45.1944    6.8046  -19.4042 H   0  0  0  0  0
   44.4756    4.8737  -21.4839 H   0  0  0  0  0
   45.0258    7.7458  -21.6333 H   0  0  0  0  0
   46.0477    6.4372  -22.2770 H   0  0  0  0  0
   44.4301    6.7236  -22.9642 H   0  0  0  0  0
   42.8010    2.1057  -15.1963 H   0  0  0  0  0
   40.6716    2.3438  -13.3678 H   0  0  0  0  0
   38.2786    3.0155  -13.3398 H   0  0  0  0  0
   38.8365    5.2617  -16.9481 H   0  0  0  0  0
  2  1  1  0  0  0
  1 15  1  0  0  0
 13  2  1  0  0  0
 13  3  1  0  0  0
  3 14  1  0  0  0
 17  4  1  0  0  0
  4 18  4  0  0  0
  4 20  4  0  0  0
  5  6  4  0  0  0
 10  5  4  0  0  0
  5 17  1  0  0  0
  6  7  4  0  0  0
  8  7  4  0  0  0
  9  8  4  0  0  0
  8 11  1  0  0  0
 10  9  4  0  0  0
 12 10  1  0  0  0
 12 13  1  0  0  0
 12 19  2  0  0  0
 14 15  1  0  0  0
 15 16  1  0  0  0
 18 19  1  0  0  0
 18 24  4  0  0  0
 20 21  4  0  0  0
 21 22  4  0  0  0
 22 23  1  0  0  0
 22 24  4  0  0  0
  1 25  1  0  0  0
  1 26  1  0  0  0
  2 27  1  0  0  0
  2 28  1  0  0  0
  3 29  1  0  0  0
  3 30  1  0  0  0
  6 31  1  0  0  0
  7 32  1  0  0  0
  9 33  1  0  0  0
 14 34  1  0  0  0
 14 35  1  0  0  0
 15 36  1  0  0  0
 16 37  1  0  0  0
 16 38  1  0  0  0
 16 39  1  0  0  0
 17 40  1  0  0  0
 20 41  1  0  0  0
 21 42  1  0  0  0
 24 43  1  0  0  0
M  END
$$$$
