3s00_ligand
  -I-interpret- 

 30 31  0  0  0  0  0  0  0  0999 V2000
  -81.2810   99.2500  -57.3380 Cl  0  0  0  0  0
  -78.0420  104.1110  -64.1900 N   0  0  0  0  0
  -78.9680  104.1980  -63.1860 C   0  0  0  0  0
  -79.3860  105.4660  -63.0490 N   0  0  0  0  0
  -79.3220  103.0690  -62.4950 C   0  0  0  0  0
  -80.2710  102.9450  -61.3960 C   0  0  0  0  0
  -80.4500  101.6540  -60.6680 C   0  0  0  0  0
  -80.9120  103.9510  -61.0510 O   0  0  0  0  0
  -78.4250  101.7790  -63.1500 S   0  0  0  0  0
  -77.6550  102.8530  -64.2830 C   0  0  0  0  0
  -76.7250  102.4730  -65.1990 N   0  0  0  0  0
  -76.3140  101.0900  -65.4150 C   0  0  0  0  0
  -74.9710  101.0270  -66.1490 C   0  0  0  0  0
  -74.5370   99.5910  -66.3820 C   0  0  0  0  0
  -80.8510  101.7080  -58.9800 S   0  0  0  0  0
  -80.9000  100.0170  -58.8580 C   0  0  0  0  0
  -80.6220   99.3880  -60.0390 C   0  0  0  0  0
  -80.3600  100.3290  -61.0940 C   0  0  0  0  0
  -79.0092  106.1954  -63.6543 H   0  0  0  0  0
  -80.0804  105.7002  -62.3396 H   0  0  0  0  0
  -76.2888  103.1978  -65.7689 H   0  0  0  0  0
  -77.0690  100.5908  -66.0223 H   0  0  0  0  0
  -76.2075  100.6007  -64.4468 H   0  0  0  0  0
  -74.2173  101.5224  -65.5369 H   0  0  0  0  0
  -75.0806  101.5178  -67.1161 H   0  0  0  0  0
  -74.4329   99.0841  -65.4227 H   0  0  0  0  0
  -75.2870   99.0794  -66.9852 H   0  0  0  0  0
  -73.5806   99.5821  -66.9048 H   0  0  0  0  0
  -80.6014   98.3056  -60.1656 H   0  0  0  0  0
  -80.1173  100.0383  -62.1161 H   0  0  0  0  0
 16  1  1  0  0  0
  3  2  4  0  0  0
 10  2  4  0  0  0
  3  4  1  0  0  0
  5  3  4  0  0  0
  6  5  1  0  0  0
  5  9  4  0  0  0
  7  6  1  0  0  0
  6  8  2  0  0  0
 15  7  4  0  0  0
  7 18  4  0  0  0
  9 10  4  0  0  0
 10 11  1  0  0  0
 11 12  1  0  0  0
 12 13  1  0  0  0
 13 14  1  0  0  0
 15 16  4  0  0  0
 16 17  4  0  0  0
 17 18  4  0  0  0
  4 19  1  0  0  0
  4 20  1  0  0  0
 11 21  1  0  0  0
 12 22  1  0  0  0
 12 23  1  0  0  0
 13 24  1  0  0  0
 13 25  1  0  0  0
 14 26  1  0  0  0
 14 27  1  0  0  0
 14 28  1  0  0  0
 17 29  1  0  0  0
 18 30  1  0  0  0
M  END
$$$$
