6ow2_ligand
  -I-interpret- 

 69 72  0  0  0  0  0  0  0  0999 V2000
   27.4570   -3.4480    6.5190 C   0  0  0  0  0
   26.5190   -3.9800    7.6020 C   0  0  0  0  0
   27.1060   -5.1740    8.3680 C   0  0  0  0  0
   26.4550   -5.1450    9.7450 C   0  0  0  0  0
   22.7050   -6.4960    8.3610 C   0  0  0  0  0
   22.7730   -6.5710    6.8780 C   0  0  0  0  0
   24.0350   -6.7820    4.9910 C   0  0  0  0  0
   26.5250   -4.9740    4.8230 C   0  0  0  0  0
   27.8010   -4.4240    5.3890 C   0  0  0  0  0
   25.9450   -3.7580    9.9820 C   0  0  0  0  0
   26.2540   -2.9440    8.7010 C   0  0  0  0  0
   28.5870   -3.7830    4.2520 C   0  0  0  0  0
   29.9730   -1.9630    4.9870 C   0  0  0  0  0
   22.8950   -6.7340    4.2400 C   0  0  0  0  0
   21.6540   -6.6170    4.8810 C   0  0  0  0  0
   19.2290   -6.1620    4.8910 C   0  0  0  0  0
   18.3610   -5.3490    3.9550 C   0  0  0  0  0
   17.1980   -5.3710    1.8480 C   0  0  0  0  0
   16.9790   -6.1520    0.5820 C   0  0  0  0  0
   19.0520   -7.1760    0.7550 C   0  0  0  0  0
   19.3470   -6.4390    2.0460 C   0  0  0  0  0
   20.2110   -7.2830    2.9590 C   0  0  0  0  0
   23.0040   -6.8020    2.9000 F   0  0  0  0  0
   23.9840   -6.6960    6.3310 N   0  0  0  0  0
   25.2360   -6.9090    4.4350 N   0  0  0  0  0
   26.3600   -6.2950    4.9470 N   0  0  0  0  0
   29.8470   -3.2580    4.6970 N   0  0  0  0  0
   21.6160   -6.5220    6.2160 N   0  0  0  0  0
   20.4580   -6.5570    4.2100 N   0  0  0  0  0
   18.0830   -6.1290    2.7420 N   0  3  0  0  0
   25.6830   -4.2500    4.3000 O   0  0  0  0  0
   30.9560   -4.0870    4.8530 O   0  0  0  0  0
   30.9930   -1.4430    5.3820 O   0  0  0  0  0
   18.2070   -6.4020   -0.0890 O   0  0  0  0  0
   28.3976   -3.2131    7.0173 H   0  0  0  0  0
   26.9407   -2.6092    6.0522 H   0  0  0  0  0
   25.6195   -4.2487    7.0481 H   0  0  0  0  0
   28.1912   -5.1032    8.4411 H   0  0  0  0  0
   26.9033   -6.1133    7.8535 H   0  0  0  0  0
   27.1802   -5.4173   10.5118 H   0  0  0  0  0
   25.6354   -5.8621    9.7908 H   0  0  0  0  0
   23.1275   -7.4050    8.7892 H   0  0  0  0  0
   23.2730   -5.6321    8.7063 H   0  0  0  0  0
   21.6648   -6.3961    8.6712 H   0  0  0  0  0
   28.4298   -5.2013    5.8232 H   0  0  0  0  0
   26.4267   -3.3108   10.8515 H   0  0  0  0  0
   24.8744   -3.7679   10.1866 H   0  0  0  0  0
   25.4234   -2.2893    8.4370 H   0  0  0  0  0
   27.1136   -2.2894    8.8447 H   0  0  0  0  0
   27.9966   -2.9584    3.8525 H   0  0  0  0  0
   28.7831   -4.5476    3.5003 H   0  0  0  0  0
   29.0966   -1.3275    4.8597 H   0  0  0  0  0
   18.6861   -7.0551    5.2005 H   0  0  0  0  0
   19.4792   -5.5595    5.7642 H   0  0  0  0  0
   18.8808   -4.4300    3.6843 H   0  0  0  0  0
   17.4223   -5.1036    4.4518 H   0  0  0  0  0
   16.2409   -5.2016    2.3413 H   0  0  0  0  0
   17.6571   -4.4117    1.6090 H   0  0  0  0  0
   16.3350   -5.5704   -0.0777 H   0  0  0  0  0
   16.5226   -7.1081    0.8384 H   0  0  0  0  0
   18.5474   -8.1124    0.9930 H   0  0  0  0  0
   19.9916   -7.3625    0.2349 H   0  0  0  0  0
   19.8772   -5.5189    1.8002 H   0  0  0  0  0
   21.1611   -7.4927    2.4676 H   0  0  0  0  0
   19.6994   -8.2202    3.1784 H   0  0  0  0  0
   25.3299   -7.4829    3.5970 H   0  0  0  0  0
   27.0696   -6.8520    5.4231 H   0  0  0  0  0
   17.6221   -6.9996    3.0066 H   0  0  0  0  0
   31.7036   -3.5660    5.1553 H   0  0  0  0  0
  1  2  1  0  0  0
  9  1  1  0  0  0
  2  3  1  0  0  0
  2 11  1  0  0  0
  3  4  1  0  0  0
 10  4  1  0  0  0
  6  5  1  0  0  0
 24  6  4  0  0  0
  6 28  4  0  0  0
  7 14  4  0  0  0
  7 24  4  0  0  0
 25  7  1  0  0  0
  8  9  1  0  0  0
 26  8  1  0  0  0
  8 31  2  0  0  0
  9 12  1  0  0  0
 11 10  1  0  0  0
 12 27  1  0  0  0
 27 13  1  0  0  0
 13 33  2  0  0  0
 14 15  4  0  0  0
 14 23  1  0  0  0
 15 28  4  0  0  0
 15 29  1  0  0  0
 16 17  1  0  0  0
 29 16  1  0  0  0
 17 30  1  0  0  0
 18 19  1  0  0  0
 30 18  1  0  0  0
 34 19  1  0  0  0
 21 20  1  0  0  0
 20 34  1  0  0  0
 22 21  1  0  0  0
 21 30  1  0  0  0
 29 22  1  0  0  0
 25 26  1  0  0  0
 27 32  1  0  0  0
  1 35  1  0  0  0
  1 36  1  0  0  0
  2 37  1  0  0  0
  3 38  1  0  0  0
  3 39  1  0  0  0
  4 40  1  0  0  0
  4 41  1  0  0  0
  5 42  1  0  0  0
  5 43  1  0  0  0
  5 44  1  0  0  0
  9 45  1  0  0  0
 10 46  1  0  0  0
 10 47  1  0  0  0
 11 48  1  0  0  0
 11 49  1  0  0  0
 12 50  1  0  0  0
 12 51  1  0  0  0
 13 52  1  0  0  0
 16 53  1  0  0  0
 16 54  1  0  0  0
 17 55  1  0  0  0
 17 56  1  0  0  0
 18 57  1  0  0  0
 18 58  1  0  0  0
 19 59  1  0  0  0
 19 60  1  0  0  0
 20 61  1  0  0  0
 20 62  1  0  0  0
 21 63  1  0  0  0
 22 64  1  0  0  0
 22 65  1  0  0  0
 25 66  1  0  0  0
 26 67  1  0  0  0
 30 68  1  0  0  0
 32 69  1  0  0  0
M  END
$$$$
