3rxd_ligand
  -I-interpret- 

 22 22  0  0  0  0  0  0  0  0999 V2000
   -3.0990  -13.4560   18.8870 N   0  3  0  0  0
   -2.5500  -17.4520   15.6230 O   0  0  0  0  0
   -1.8080  -13.3330   18.2350 C   0  0  0  0  0
   -1.7610  -14.1020   16.9290 C   0  0  0  0  0
   -1.2870  -13.4970   15.7670 C   0  0  0  0  0
   -1.2420  -14.2100   14.5720 C   0  0  0  0  0
   -1.6680  -15.5340   14.5320 C   0  0  0  0  0
   -2.1380  -16.1440   15.6890 C   0  0  0  0  0
   -3.0580  -18.1250   16.7780 C   0  0  0  0  0
   -2.1820  -15.4280   16.8870 C   0  0  0  0  0
   -3.0901  -12.9266   19.7588 H   0  0  0  0  0
   -3.8254  -13.0888   18.2722 H   0  0  0  0  0
   -3.2855  -14.4387   19.0865 H   0  0  0  0  0
   -1.0477  -13.7416   18.9007 H   0  0  0  0  0
   -1.6326  -12.2792   18.0185 H   0  0  0  0  0
   -0.9499  -12.4608   15.7935 H   0  0  0  0  0
   -0.8723  -13.7300   13.6659 H   0  0  0  0  0
   -1.6332  -16.0912   13.5959 H   0  0  0  0  0
   -2.2931  -18.1391   17.5545 H   0  0  0  0  0
   -3.9400  -17.5997   17.1445 H   0  0  0  0  0
   -3.3267  -19.1474   16.5123 H   0  0  0  0  0
   -2.5478  -15.9099   17.7937 H   0  0  0  0  0
  3  1  1  0  0  0
  8  2  1  0  0  0
  2  9  1  0  0  0
  4  3  1  0  0  0
  5  4  4  0  0  0
  4 10  4  0  0  0
  6  5  4  0  0  0
  7  6  4  0  0  0
  7  8  4  0  0  0
  8 10  4  0  0  0
  1 11  1  0  0  0
  1 12  1  0  0  0
  1 13  1  0  0  0
  3 14  1  0  0  0
  3 15  1  0  0  0
  5 16  1  0  0  0
  6 17  1  0  0  0
  7 18  1  0  0  0
  9 19  1  0  0  0
  9 20  1  0  0  0
  9 21  1  0  0  0
 10 22  1  0  0  0
M  END
$$$$
