1kzk_ligand
  -I-interpret- 

 78 81  0  0  0  0  0  0  0  0999 V2000
   24.5000    2.3990   20.4240 C   0  0  0  0  0
   25.8560    2.4460   20.5620 O   0  0  0  0  0
   23.6870    3.4480   20.9470 C   0  0  0  0  0
   22.3390    3.4320   20.7260 C   0  0  0  0  0
   21.7270    2.3540   20.0240 C   0  0  0  0  0
   22.5330    1.3470   19.4330 C   0  0  0  0  0
   23.9500    1.3580   19.6050 C   0  0  0  0  0
   24.8990    0.3740   18.9300 C   0  0  0  0  0
   21.8480    0.2670   18.6660 C   0  0  0  0  0
   22.0690   -0.9900   18.9430 O   0  0  0  0  0
   20.9700    0.6590   17.7570 N   0  0  0  0  0
   20.1730   -0.3620   16.9800 C   0  0  0  0  0
   18.6860    0.1940   16.8740 C   0  0  0  0  0
   18.1480    0.6370   18.2120 C   0  0  0  0  0
   18.0940    2.0320   18.5210 C   0  0  0  0  0
   17.6770    2.4080   19.8380 C   0  0  0  0  0
   17.3240    1.4600   20.8120 C   0  0  0  0  0
   17.3750    0.1040   20.4720 C   0  0  0  0  0
   17.7970   -0.2950   19.2130 C   0  0  0  0  0
   20.8680   -0.5040   15.6030 C   0  0  0  0  0
   20.5210    0.5820   14.7460 O   0  0  0  0  0
   20.3600   -1.7850   14.9420 C   0  0  0  0  0
   19.2990   -1.8640   14.2880 O   0  0  0  0  0
   21.1050   -2.9230   15.1300 N   0  0  0  0  0
   22.3900   -2.9470   15.9220 C   0  0  0  0  0
   22.7750   -4.7050   16.1440 S   0  0  0  0  0
   21.8980   -5.1370   14.5960 C   0  0  0  0  0
   22.7450   -4.7600   13.3790 C   0  0  0  0  0
   21.5620   -6.6380   14.5150 C   0  0  0  0  0
   20.6350   -4.2260   14.6100 C   0  0  0  0  0
   19.4740   -4.7460   15.4830 C   0  0  0  0  0
   19.3600   -4.5020   16.7210 O   0  0  0  0  0
   18.5680   -5.5610   14.7910 N   0  0  0  0  0
   17.4260   -6.2060   15.4830 C   0  0  0  0  0
   16.1360   -5.9810   14.6820 C   0  0  0  0  0
   15.4800   -4.7310   14.6670 C   0  0  0  0  0
   14.2670   -4.6240   13.9790 C   0  0  0  0  0
   13.7360   -5.7470   13.2960 C   0  0  0  0  0
   14.3650   -6.9590   13.3090 C   0  0  0  0  0
   15.5770   -7.0730   14.0280 C   0  0  0  0  0
   16.0130   -3.5750   15.4200 C   0  0  0  0  0
   26.0934    3.1826   21.1300 H   0  0  0  0  0
   24.1388    4.2578   21.5198 H   0  0  0  0  0
   21.7240    4.2544   21.0914 H   0  0  0  0  0
   20.6414    2.3029   19.9411 H   0  0  0  0  0
   25.5737    0.9175   18.2686 H   0  0  0  0  0
   25.4777   -0.1504   19.6904 H   0  0  0  0  0
   24.3216   -0.3461   18.3502 H   0  0  0  0  0
   20.8309    1.6539   17.5804 H   0  0  0  0  0
   20.1290   -1.3467   17.4453 H   0  0  0  0  0
   18.0493   -0.6081   16.5006 H   0  0  0  0  0
   18.6927    1.0569   16.2081 H   0  0  0  0  0
   18.3614    2.7841   17.7787 H   0  0  0  0  0
   17.6320    3.4667   20.0935 H   0  0  0  0  0
   17.0173    1.7735   21.8099 H   0  0  0  0  0
   17.0798   -0.6470   21.2048 H   0  0  0  0  0
   17.8597   -1.3599   18.9893 H   0  0  0  0  0
   21.9472   -0.5198   15.7551 H   0  0  0  0  0
   20.9617    0.4740   13.9000 H   0  0  0  0  0
   22.2841   -2.4337   16.8777 H   0  0  0  0  0
   23.1923   -2.4209   15.4047 H   0  0  0  0  0
   22.9380   -3.6873   13.3905 H   0  0  0  0  0
   23.6906   -5.3010   13.4144 H   0  0  0  0  0
   22.2077   -5.0241   12.4681 H   0  0  0  0  0
   22.4840   -7.2181   14.5550 H   0  0  0  0  0
   20.9224   -6.9116   15.3541 H   0  0  0  0  0
   21.0427   -6.8428   13.5788 H   0  0  0  0  0
   20.2183   -4.1802   13.6038 H   0  0  0  0  0
   18.6967   -5.7137   13.7907 H   0  0  0  0  0
   17.3139   -5.7697   16.4756 H   0  0  0  0  0
   17.6147   -7.2762   15.5679 H   0  0  0  0  0
   13.7293   -3.6759   13.9680 H   0  0  0  0  0
   12.8010   -5.6402   12.7460 H   0  0  0  0  0
   13.9446   -7.8143   12.7800 H   0  0  0  0  0
   16.0837   -8.0372   14.0704 H   0  0  0  0  0
   16.0572   -3.8230   16.4805 H   0  0  0  0  0
   17.0138   -3.3380   15.0589 H   0  0  0  0  0
   15.3594   -2.7151   15.2736 H   0  0  0  0  0
  1  7  4  0  0  0
  1  3  4  0  0  0
  1  2  1  0  0  0
  3  4  4  0  0  0
  4  5  4  0  0  0
  5  6  4  0  0  0
  6  9  1  0  0  0
  6  7  4  0  0  0
  7  8  1  0  0  0
  9 11  1  0  0  0
  9 10  2  0  0  0
 11 12  1  0  0  0
 12 20  1  0  0  0
 12 13  1  0  0  0
 13 14  1  0  0  0
 14 19  4  0  0  0
 14 15  4  0  0  0
 15 16  4  0  0  0
 16 17  4  0  0  0
 17 18  4  0  0  0
 18 19  4  0  0  0
 20 22  1  0  0  0
 20 21  1  0  0  0
 22 24  1  0  0  0
 22 23  2  0  0  0
 24 30  1  0  0  0
 24 25  1  0  0  0
 25 26  1  0  0  0
 26 27  1  0  0  0
 27 30  1  0  0  0
 27 29  1  0  0  0
 27 28  1  0  0  0
 30 31  1  0  0  0
 31 33  1  0  0  0
 31 32  2  0  0  0
 33 34  1  0  0  0
 34 35  1  0  0  0
 35 40  4  0  0  0
 35 36  4  0  0  0
 36 41  1  0  0  0
 36 37  4  0  0  0
 37 38  4  0  0  0
 38 39  4  0  0  0
 39 40  4  0  0  0
  2 42  1  0  0  0
  3 43  1  0  0  0
  4 44  1  0  0  0
  5 45  1  0  0  0
  8 46  1  0  0  0
  8 47  1  0  0  0
  8 48  1  0  0  0
 11 49  1  0  0  0
 12 50  1  0  0  0
 13 51  1  0  0  0
 13 52  1  0  0  0
 15 53  1  0  0  0
 16 54  1  0  0  0
 17 55  1  0  0  0
 18 56  1  0  0  0
 19 57  1  0  0  0
 20 58  1  0  0  0
 21 59  1  0  0  0
 25 60  1  0  0  0
 25 61  1  0  0  0
 28 62  1  0  0  0
 28 63  1  0  0  0
 28 64  1  0  0  0
 29 65  1  0  0  0
 29 66  1  0  0  0
 29 67  1  0  0  0
 30 68  1  0  0  0
 33 69  1  0  0  0
 34 70  1  0  0  0
 34 71  1  0  0  0
 37 72  1  0  0  0
 38 73  1  0  0  0
 39 74  1  0  0  0
 40 75  1  0  0  0
 41 76  1  0  0  0
 41 77  1  0  0  0
 41 78  1  0  0  0
M  END
$$$$
