2y7z_ligand
  -I-interpret- 

 60 64  0  0  0  0  0  0  0  0999 V2000
    7.9740    6.3450   21.7500 O   0  0  0  0  0
    6.8620    5.9370   22.0180 C   0  0  0  0  0
    6.3000    4.7850   21.5610 N   0  0  0  0  0
    6.9080    3.8350   20.7200 C   0  0  0  0  0
    7.9710    4.1430   19.8700 C   0  0  0  0  0
    6.4340    2.5170   20.7640 C   0  0  0  0  0
    6.9990    1.5380   19.9750 C   0  0  0  0  0
    8.0450    1.8470   19.1170 C   0  0  0  0  0
    8.5370    3.1450   19.0810 C   0  0  0  0  0
    9.6720    3.2270   18.0950 C   0  0  0  0  0
   10.1070    1.7580   17.9070 C   0  0  0  0  0
    8.8150    0.9480   18.1590 C   0  0  0  0  0
    8.1210    0.6090   16.8730 N   0  3  0  0  0
    7.7100    1.8000   16.0970 C   0  0  0  0  0
    6.8710   -0.1230   17.1640 C   0  0  0  0  0
    5.9030    6.6160   22.9650 C   0  0  0  0  0
    4.5430    5.9790   22.6000 C   0  0  0  0  0
    4.9560    4.5770   22.1290 C   0  0  0  0  0
    5.9040    8.0660   22.8050 N   0  0  0  0  0
    6.3110    9.0510   24.0100 S   0  0  0  0  0
    6.1740   10.3420   23.4470 O   0  0  0  0  0
    5.5830    8.7370   25.1920 O   0  0  0  0  0
    8.0200    8.7750   24.3660 C   0  0  0  0  0
    8.3710    8.1060   25.5100 C   0  0  0  0  0
    9.7350    7.8740   25.8010 C   0  0  0  0  0
   10.7170    8.3440   24.8760 C   0  0  0  0  0
   10.3150    9.0220   23.7060 C   0  0  0  0  0
    8.9860    9.2360   23.4670 C   0  0  0  0  0
   10.1460    7.1910   26.9700 C   0  0  0  0  0
   11.4880    6.9850   27.2020 C   0  0  0  0  0
   12.4390    7.4560   26.2930 C   0  0  0  0  0
   14.1380    7.1930   26.5720 Cl  0  0  0  0  0
   12.0780    8.1140   25.1480 C   0  0  0  0  0
    8.3569    5.1613   19.8239 H   0  0  0  0  0
    5.6091    2.2630   21.4297 H   0  0  0  0  0
    6.6224    0.5164   20.0253 H   0  0  0  0  0
   10.4862    3.8574   18.4525 H   0  0  0  0  0
    9.3722    3.6934   17.1565 H   0  0  0  0  0
   10.9102    1.4754   18.5875 H   0  0  0  0  0
   10.5221    1.5744   16.9160 H   0  0  0  0  0
    8.9623   -0.0404   18.5942 H   0  0  0  0  0
    8.7939    0.0641   16.3338 H   0  0  0  0  0
    7.0228    2.4008   16.6927 H   0  0  0  0  0
    8.5909    2.3921   15.8488 H   0  0  0  0  0
    7.2146    1.4813   15.1799 H   0  0  0  0  0
    7.1060   -1.0408   17.7030 H   0  0  0  0  0
    6.2194    0.5018   17.7748 H   0  0  0  0  0
    6.3687   -0.3681   16.2282 H   0  0  0  0  0
    6.1656    6.4740   24.0133 H   0  0  0  0  0
    3.9943    6.5415   21.8446 H   0  0  0  0  0
    3.8394    5.9624   23.4323 H   0  0  0  0  0
    4.9537    3.8474   22.9388 H   0  0  0  0  0
    4.2575    4.1576   21.4049 H   0  0  0  0  0
    5.6395    8.4661   21.9048 H   0  0  0  0  0
    7.5994    7.7534   26.1944 H   0  0  0  0  0
   11.0619    9.3743   22.9945 H   0  0  0  0  0
    8.6773    9.7702   22.5684 H   0  0  0  0  0
    9.4048    6.8299   27.6830 H   0  0  0  0  0
   11.8092    6.4529   28.0975 H   0  0  0  0  0
   12.8415    8.4581   24.4504 H   0  0  0  0  0
  1  2  2  0  0  0
  2  3  1  0  0  0
  2 16  1  0  0  0
  3  4  1  0  0  0
  3 18  1  0  0  0
  4  5  4  0  0  0
  4  6  4  0  0  0
  5  9  4  0  0  0
  6  7  4  0  0  0
  7  8  4  0  0  0
  8  9  4  0  0  0
  8 12  1  0  0  0
  9 10  1  0  0  0
 10 11  1  0  0  0
 11 12  1  0  0  0
 12 13  1  0  0  0
 13 14  1  0  0  0
 13 15  1  0  0  0
 16 17  1  0  0  0
 16 19  1  0  0  0
 17 18  1  0  0  0
 19 20  1  0  0  0
 20 21  2  0  0  0
 20 22  2  0  0  0
 20 23  1  0  0  0
 23 24  4  0  0  0
 23 28  4  0  0  0
 24 25  4  0  0  0
 25 26  4  0  0  0
 25 29  4  0  0  0
 26 27  4  0  0  0
 26 33  4  0  0  0
 27 28  4  0  0  0
 29 30  4  0  0  0
 30 31  4  0  0  0
 31 32  1  0  0  0
 31 33  4  0  0  0
  5 34  1  0  0  0
  6 35  1  0  0  0
  7 36  1  0  0  0
 10 37  1  0  0  0
 10 38  1  0  0  0
 11 39  1  0  0  0
 11 40  1  0  0  0
 12 41  1  0  0  0
 13 42  1  0  0  0
 14 43  1  0  0  0
 14 44  1  0  0  0
 14 45  1  0  0  0
 15 46  1  0  0  0
 15 47  1  0  0  0
 15 48  1  0  0  0
 16 49  1  0  0  0
 17 50  1  0  0  0
 17 51  1  0  0  0
 18 52  1  0  0  0
 18 53  1  0  0  0
 19 54  1  0  0  0
 24 55  1  0  0  0
 27 56  1  0  0  0
 28 57  1  0  0  0
 29 58  1  0  0  0
 30 59  1  0  0  0
 33 60  1  0  0  0
M  END
$$$$
