3dm6_ligand
  -I-interpret- 

107110  0  0  0  0  0  0  0  0999 V2000
    2.5070   17.7160   30.2080 O   0  0  0  0  0
    1.6370   17.2530   30.9560 C   0  0  0  0  0
    0.3680   17.6180   30.7880 N   0  0  0  0  0
   -0.0850   18.4220   29.6770 C   0  0  0  0  0
   -0.5080   17.5060   28.5660 C   0  0  0  0  0
   -1.5590   16.5910   28.7170 C   0  0  0  0  0
   -1.9480   15.7490   27.6660 C   0  0  0  0  0
   -1.2600   15.7920   26.4430 C   0  0  0  0  0
   -0.1940   16.6920   26.2810 C   0  0  0  0  0
    0.1750   17.5420   27.3320 C   0  0  0  0  0
   -1.2020   19.3420   30.1490 C   0  0  0  0  0
    2.0320   16.3190   32.0750 C   0  0  0  0  0
    3.2330   15.5890   32.0180 C   0  0  0  0  0
    3.6140   14.7240   33.0400 C   0  0  0  0  0
    4.8280   14.0030   32.9710 N   0  0  0  0  0
    5.5170   13.7230   34.2220 C   0  0  0  0  0
    5.5280   13.5200   31.6770 S   0  0  0  0  0
    4.6050   13.3760   30.5500 O   0  0  0  0  0
    6.7020   14.6350   31.2640 C   0  0  0  0  0
    6.2090   12.2740   31.9700 O   0  0  0  0  0
    2.7830   14.6220   34.1570 C   0  0  0  0  0
    1.2290   16.1880   33.1910 C   0  0  0  0  0
    1.5870   15.3350   34.2360 C   0  0  0  0  0
    0.6470   15.2960   35.4290 C   0  0  0  0  0
    1.1170   15.3350   36.5570 O   0  0  0  0  0
   -0.6690   15.2860   35.2020 N   0  0  0  0  0
   -1.7340   15.3410   36.1830 C   0  0  0  0  0
   -2.7450   16.3920   35.7030 C   0  0  0  0  0
   -2.2890   17.2960   34.6830 O   0  0  0  0  0
   -1.4560   18.3860   34.8690 C   0  0  0  0  0
   -0.9080   18.6450   36.1170 C   0  0  0  0  0
   -0.0540   19.7220   36.3250 C   0  0  0  0  0
    0.4330   19.9170   37.5520 F   0  0  0  0  0
    0.2730   20.5870   35.2940 C   0  0  0  0  0
   -0.2630   20.3470   34.0380 C   0  0  0  0  0
    0.0750   21.1950   33.0400 F   0  0  0  0  0
   -1.1280   19.2580   33.8220 C   0  0  0  0  0
   -2.5270   14.0720   36.4140 C   0  0  0  0  0
   -2.8590   13.5780   35.1130 O   0  0  0  0  0
   -1.7820   13.0560   37.3060 C   0  0  0  0  0
   -1.6690   13.4810   38.7790 C   0  0  0  0  0
   -0.6950   14.1400   39.1130 O   0  0  0  0  0
   -2.5780   13.1710   39.7350 N   0  0  0  0  0
   -2.3680   13.5850   41.1320 C   0  0  0  0  0
   -3.4660   13.3100   42.1690 C   0  0  0  0  0
   -3.6660   14.5510   43.0450 C   0  0  0  0  0
   -4.7750   12.8150   41.6000 C   0  0  0  0  0
   -1.2160   12.8660   41.7780 C   0  0  0  0  0
   -1.0470   11.6730   41.5840 O   0  0  0  0  0
   -0.4340   13.5530   42.6200 N   0  0  0  0  0
    0.6050   12.9770   43.2270 C   0  0  0  0  0
    1.8490   13.0560   42.6320 C   0  0  0  0  0
    2.9640   12.4680   43.2140 C   0  0  0  0  0
    4.2740   12.6140   42.4790 C   0  0  0  0  0
    4.3420   12.2550   41.2780 O   0  0  0  0  0
    5.2710   13.1250   43.0460 O   0  0  0  0  0
    0.4340   12.3090   44.4130 C   0  0  0  0  0
    1.5300   11.7180   45.0070 C   0  0  0  0  0
    2.8050   11.7830   44.4280 C   0  0  0  0  0
    1.2540   11.0080   46.2860 C   0  0  0  0  0
    0.9000   11.6810   47.2850 O   0  0  0  0  0
    1.3500    9.7560   46.3140 O   0  0  0  0  0
   -0.3188   17.3147   31.4784 H   0  0  0  0  0
    0.7109   19.0598   29.2926 H   0  0  0  0  0
   -2.0841   16.5331   29.6704 H   0  0  0  0  0
   -2.7836   15.0617   27.7981 H   0  0  0  0  0
   -1.5508   15.1321   25.6256 H   0  0  0  0  0
    0.3474   16.7293   25.3357 H   0  0  0  0  0
    1.0006   18.2403   27.1944 H   0  0  0  0  0
   -1.5359   19.9623   29.3173 H   0  0  0  0  0
   -2.0355   18.7418   30.5138 H   0  0  0  0  0
   -0.8316   19.9783   30.9527 H   0  0  0  0  0
    3.8827   15.7037   31.1504 H   0  0  0  0  0
    5.6422   12.6459   34.3332 H   0  0  0  0  0
    6.4947   14.2047   34.2125 H   0  0  0  0  0
    4.9282   14.1094   35.0540 H   0  0  0  0  0
    7.2411   14.2840   30.3841 H   0  0  0  0  0
    6.2304   15.5929   31.0446 H   0  0  0  0  0
    7.3976   14.7529   32.0948 H   0  0  0  0  0
    3.0743   13.9730   34.9829 H   0  0  0  0  0
    0.3027   16.7588   33.2565 H   0  0  0  0  0
   -0.9578   15.2336   34.2252 H   0  0  0  0  0
   -1.2305   15.5566   37.1254 H   0  0  0  0  0
   -2.9780   17.0077   36.5718 H   0  0  0  0  0
   -3.5756   15.8369   35.2670 H   0  0  0  0  0
   -1.1525   17.9895   36.9529 H   0  0  0  0  0
    0.9354   21.4355   35.4657 H   0  0  0  0  0
   -1.5473   19.0910   32.8298 H   0  0  0  0  0
   -3.4365   14.2662   36.9826 H   0  0  0  0  0
   -3.3664   12.7677   35.1995 H   0  0  0  0  0
   -0.7678   12.9670   36.9167 H   0  0  0  0  0
   -2.3503   12.1262   37.2807 H   0  0  0  0  0
   -3.4157   12.6458   39.4842 H   0  0  0  0  0
   -2.2633   14.6552   40.9540 H   0  0  0  0  0
   -3.1108   12.4762   42.7746 H   0  0  0  0  0
   -2.7332   14.7867   43.5573 H   0  0  0  0  0
   -3.9606   15.3928   42.4184 H   0  0  0  0  0
   -4.4459   14.3532   43.7803 H   0  0  0  0  0
   -5.1752   13.5595   40.9118 H   0  0  0  0  0
   -4.6073   11.8789   41.0674 H   0  0  0  0  0
   -5.4836   12.6507   42.4118 H   0  0  0  0  0
   -0.6366   14.5362   42.8010 H   0  0  0  0  0
    1.9574   13.5899   41.6879 H   0  0  0  0  0
    5.0463   13.3390   43.9544 H   0  0  0  0  0
   -0.5500   12.2463   44.8776 H   0  0  0  0  0
    3.6586   11.3093   44.9129 H   0  0  0  0  0
    1.6331    9.4386   45.4534 H   0  0  0  0  0
  1  2  2  0  0  0
  2  3  1  0  0  0
  2 12  1  0  0  0
  3  4  1  0  0  0
  4  5  1  0  0  0
  4 11  1  0  0  0
  5  6  4  0  0  0
  5 10  4  0  0  0
  6  7  4  0  0  0
  7  8  4  0  0  0
  8  9  4  0  0  0
  9 10  4  0  0  0
 12 13  4  0  0  0
 12 22  4  0  0  0
 13 14  4  0  0  0
 14 15  1  0  0  0
 14 21  4  0  0  0
 15 16  1  0  0  0
 15 17  1  0  0  0
 17 18  2  0  0  0
 17 19  1  0  0  0
 17 20  2  0  0  0
 21 23  4  0  0  0
 22 23  4  0  0  0
 23 24  1  0  0  0
 24 25  2  0  0  0
 24 26  1  0  0  0
 26 27  1  0  0  0
 27 28  1  0  0  0
 27 38  1  0  0  0
 28 29  1  0  0  0
 29 30  1  0  0  0
 30 31  4  0  0  0
 30 37  4  0  0  0
 31 32  4  0  0  0
 32 33  1  0  0  0
 32 34  4  0  0  0
 34 35  4  0  0  0
 35 36  1  0  0  0
 35 37  4  0  0  0
 38 39  1  0  0  0
 38 40  1  0  0  0
 40 41  1  0  0  0
 41 42  2  0  0  0
 41 43  1  0  0  0
 43 44  1  0  0  0
 44 45  1  0  0  0
 44 48  1  0  0  0
 45 46  1  0  0  0
 45 47  1  0  0  0
 48 49  2  0  0  0
 48 50  1  0  0  0
 50 51  1  0  0  0
 51 52  4  0  0  0
 51 57  4  0  0  0
 52 53  4  0  0  0
 53 54  1  0  0  0
 53 59  4  0  0  0
 54 55  2  0  0  0
 54 56  1  0  0  0
 57 58  4  0  0  0
 58 59  4  0  0  0
 58 60  1  0  0  0
 60 61  2  0  0  0
 60 62  1  0  0  0
  3 63  1  0  0  0
  4 64  1  0  0  0
  6 65  1  0  0  0
  7 66  1  0  0  0
  8 67  1  0  0  0
  9 68  1  0  0  0
 10 69  1  0  0  0
 11 70  1  0  0  0
 11 71  1  0  0  0
 11 72  1  0  0  0
 13 73  1  0  0  0
 16 74  1  0  0  0
 16 75  1  0  0  0
 16 76  1  0  0  0
 19 77  1  0  0  0
 19 78  1  0  0  0
 19 79  1  0  0  0
 21 80  1  0  0  0
 22 81  1  0  0  0
 26 82  1  0  0  0
 27 83  1  0  0  0
 28 84  1  0  0  0
 28 85  1  0  0  0
 31 86  1  0  0  0
 34 87  1  0  0  0
 37 88  1  0  0  0
 38 89  1  0  0  0
 39 90  1  0  0  0
 40 91  1  0  0  0
 40 92  1  0  0  0
 43 93  1  0  0  0
 44 94  1  0  0  0
 45 95  1  0  0  0
 46 96  1  0  0  0
 46 97  1  0  0  0
 46 98  1  0  0  0
 47 99  1  0  0  0
 47100  1  0  0  0
 47101  1  0  0  0
 50102  1  0  0  0
 52103  1  0  0  0
 56104  1  0  0  0
 57105  1  0  0  0
 59106  1  0  0  0
 62107  1  0  0  0
M  END
$$$$
