3ty0_ligand
  -I-interpret- 

 56 61  0  0  0  0  0  0  0  0999 V2000
   18.2580    5.0890   15.2170 C   0  0  0  0  0
   19.0460    5.2010   14.0880 C   0  0  0  0  0
   18.5860    8.1050    8.5420 C   0  0  0  0  0
   12.4090    3.2260   13.0600 C   0  0  0  0  0
   17.7500    9.1820    8.7610 C   0  0  0  0  0
   18.2610    6.8550    9.0270 C   0  0  0  0  0
   16.8800    5.0650   15.1180 C   0  0  0  0  0
   18.4940    5.2950   12.8240 C   0  0  0  0  0
   11.2010    2.5870   13.2610 C   0  0  0  0  0
   16.2580    7.7610    9.9410 C   0  0  0  0  0
   10.8540    3.6360   15.4070 C   0  0  0  0  0
   12.8410    4.0930   14.0540 C   0  0  0  0  0
   16.5650    9.0210    9.4590 C   0  0  0  0  0
   17.0910    6.6770    9.7360 C   0  0  0  0  0
   16.3460    5.1650   13.8520 C   0  0  0  0  0
   17.1250    5.2750   12.7390 C   0  0  0  0  0
   12.0580    4.2570   15.1760 C   0  0  0  0  0
   10.4470    2.7890   14.3970 C   0  0  0  0  0
   13.9580    4.9480   14.2790 C   0  0  0  0  0
   14.5640   10.0290    8.6890 C   0  0  0  0  0
   15.9940   11.4750    7.9960 C   0  0  0  0  0
   14.9590    5.2960   12.0340 C   0  0  0  0  0
   15.5920   10.1370    9.7710 C   0  0  0  0  0
   15.0610   10.2080   11.1760 C   0  0  0  0  0
    8.8540    2.1210   15.8730 C   0  0  0  0  0
   16.7400    5.3240   10.2570 C   0  0  0  0  0
   13.8610    5.5710   15.4600 N   0  0  0  0  0
   14.9310   10.7610    7.6490 N   0  0  0  0  0
   15.0220    5.1570   13.4120 N   0  0  0  0  0
   16.2810    5.3560   11.6260 N   0  0  0  0  0
   13.6350    9.2360    8.7200 O   0  0  0  0  0
   16.5390   12.3330    7.3210 O   0  0  0  0  0
   13.9640    5.3700   11.3280 O   0  0  0  0  0
   12.6700    5.1290   16.0230 O   0  0  0  0  0
   16.2970   11.2730    9.3090 O   0  0  0  0  0
    9.2430    2.1080   14.5010 O   0  0  0  0  0
   18.7288    5.0187   16.1976 H   0  0  0  0  0
   20.1305    5.2156   14.1965 H   0  0  0  0  0
   19.5104    8.2436    7.9813 H   0  0  0  0  0
   12.9982    3.0565   12.1587 H   0  0  0  0  0
   18.0249   10.1662    8.3816 H   0  0  0  0  0
   18.9269    6.0103    8.8505 H   0  0  0  0  0
   16.2457    4.9714   15.9995 H   0  0  0  0  0
   19.1186    5.3811   11.9348 H   0  0  0  0  0
   10.8326    1.9018   12.4976 H   0  0  0  0  0
   15.3323    7.6189   10.4987 H   0  0  0  0  0
   10.2695    3.7990   16.3125 H   0  0  0  0  0
   14.5325    9.2840   11.4104 H   0  0  0  0  0
   15.8908   10.3397   11.8704 H   0  0  0  0  0
   14.3762   11.0516   11.2620 H   0  0  0  0  0
    9.6210    1.6293   16.4715 H   0  0  0  0  0
    8.7367    3.1521   16.2063 H   0  0  0  0  0
    7.9080    1.5914   15.9862 H   0  0  0  0  0
   17.6381    4.7074   10.2193 H   0  0  0  0  0
   15.9319    4.9278    9.6421 H   0  0  0  0  0
   14.4746   10.7739    6.7369 H   0  0  0  0  0
  2  1  4  0  0  0
  7  1  4  0  0  0
  8  2  4  0  0  0
  3  5  4  0  0  0
  6  3  4  0  0  0
  4  9  4  0  0  0
 12  4  4  0  0  0
 13  5  4  0  0  0
 14  6  4  0  0  0
 15  7  4  0  0  0
 16  8  4  0  0  0
  9 18  4  0  0  0
 10 13  4  0  0  0
 14 10  4  0  0  0
 17 11  4  0  0  0
 11 18  4  0  0  0
 12 17  4  0  0  0
 19 12  4  0  0  0
 13 23  1  0  0  0
 26 14  1  0  0  0
 16 15  4  0  0  0
 29 15  1  0  0  0
 30 16  1  0  0  0
 17 34  4  0  0  0
 18 36  1  0  0  0
 19 27  4  0  0  0
 29 19  1  0  0  0
 23 20  1  0  0  0
 20 28  1  0  0  0
 20 31  2  0  0  0
 21 28  1  0  0  0
 21 32  2  0  0  0
 35 21  1  0  0  0
 22 29  1  0  0  0
 30 22  1  0  0  0
 22 33  2  0  0  0
 23 24  1  0  0  0
 23 35  1  0  0  0
 36 25  1  0  0  0
 26 30  1  0  0  0
 27 34  4  0  0  0
  1 37  1  0  0  0
  2 38  1  0  0  0
  3 39  1  0  0  0
  4 40  1  0  0  0
  5 41  1  0  0  0
  6 42  1  0  0  0
  7 43  1  0  0  0
  8 44  1  0  0  0
  9 45  1  0  0  0
 10 46  1  0  0  0
 11 47  1  0  0  0
 24 48  1  0  0  0
 24 49  1  0  0  0
 24 50  1  0  0  0
 25 51  1  0  0  0
 25 52  1  0  0  0
 25 53  1  0  0  0
 26 54  1  0  0  0
 26 55  1  0  0  0
 28 56  1  0  0  0
M  END
$$$$
