2pyi_ligand
  -I-interpret- 

 46 48  0  0  0  0  0  0  0  0999 V2000
   37.4770   27.0690   34.3710 C   0  0  0  0  0
   38.1450   28.0950   35.0410 C   0  0  0  0  0
   39.0830   28.8750   34.3640 C   0  0  0  0  0
   39.3580   28.6220   33.0220 C   0  0  0  0  0
   38.6930   27.5940   32.3550 C   0  0  0  0  0
   37.7500   26.8160   33.0250 C   0  0  0  0  0
   37.0850   25.7900   32.3560 C   0  0  0  0  0
   37.3360   25.3420   31.1320 C   0  0  0  0  0
   36.0660   25.0610   32.8160 N   0  0  0  0  0
   35.7310   24.2410   31.9510 N   0  0  0  0  0
   36.4450   24.3770   30.9500 N   0  0  0  0  0
   36.3560   23.5880   29.7090 C   0  0  0  0  0
   34.9140   23.4540   29.1880 C   0  0  0  0  0
   33.9420   23.8780   29.8180 O   0  0  0  0  0
   34.8340   22.8440   28.0080 N   0  0  0  0  0
   33.5360   22.5910   27.3500 C   0  0  0  0  0
   33.2770   21.1790   27.5850 O   0  0  0  0  0
   32.0530   20.7010   26.9910 C   0  0  0  0  0
   31.8630   19.2380   27.4150 C   0  0  0  0  0
   32.9520   18.4460   26.9080 O   0  0  0  0  0
   32.1620   20.8690   25.4610 C   0  0  0  0  0
   30.9800   20.3750   24.8180 O   0  0  0  0  0
   32.4050   22.3470   25.0950 C   0  0  0  0  0
   32.6380   22.4610   23.6870 O   0  0  0  0  0
   33.6220   22.9060   25.8500 C   0  0  0  0  0
   33.7330   24.3210   25.6610 O   0  0  0  0  0
   36.7405   26.4638   34.8995 H   0  0  0  0  0
   37.9339   28.2869   36.0930 H   0  0  0  0  0
   39.5999   29.6812   34.8844 H   0  0  0  0  0
   40.0935   29.2281   32.4931 H   0  0  0  0  0
   38.9113   27.3978   31.3053 H   0  0  0  0  0
   38.0998   25.6882   30.4357 H   0  0  0  0  0
   36.7273   22.5859   29.9237 H   0  0  0  0  0
   36.9401   24.1012   28.9451 H   0  0  0  0  0
   35.6919   22.5431   27.5456 H   0  0  0  0  0
   32.7359   23.2193   27.7413 H   0  0  0  0  0
   31.1805   21.2633   27.3237 H   0  0  0  0  0
   30.9224   18.8624   27.0122 H   0  0  0  0  0
   31.8437   19.1748   28.5030 H   0  0  0  0  0
   32.8319   17.5314   27.1739 H   0  0  0  0  0
   33.0131   20.2863   25.1084 H   0  0  0  0  0
   31.0634   20.4865   23.8682 H   0  0  0  0  0
   31.5211   22.9187   25.3779 H   0  0  0  0  0
   32.7889   23.3821   23.4623 H   0  0  0  0  0
   34.5096   22.4226   25.4419 H   0  0  0  0  0
   33.7865   24.5141   24.7221 H   0  0  0  0  0
  1  2  4  0  0  0
  1  6  4  0  0  0
  2  3  4  0  0  0
  3  4  4  0  0  0
  4  5  4  0  0  0
  5  6  4  0  0  0
  6  7  1  0  0  0
  7  8  4  0  0  0
  7  9  4  0  0  0
  8 11  4  0  0  0
  9 10  4  0  0  0
 10 11  4  0  0  0
 11 12  1  0  0  0
 12 13  1  0  0  0
 13 14  2  0  0  0
 13 15  1  0  0  0
 15 16  1  0  0  0
 16 17  1  0  0  0
 16 25  1  0  0  0
 17 18  1  0  0  0
 18 19  1  0  0  0
 18 21  1  0  0  0
 19 20  1  0  0  0
 21 22  1  0  0  0
 21 23  1  0  0  0
 23 24  1  0  0  0
 23 25  1  0  0  0
 25 26  1  0  0  0
  1 27  1  0  0  0
  2 28  1  0  0  0
  3 29  1  0  0  0
  4 30  1  0  0  0
  5 31  1  0  0  0
  8 32  1  0  0  0
 12 33  1  0  0  0
 12 34  1  0  0  0
 15 35  1  0  0  0
 16 36  1  0  0  0
 18 37  1  0  0  0
 19 38  1  0  0  0
 19 39  1  0  0  0
 20 40  1  0  0  0
 21 41  1  0  0  0
 22 42  1  0  0  0
 23 43  1  0  0  0
 24 44  1  0  0  0
 25 45  1  0  0  0
 26 46  1  0  0  0
M  END
$$$$
