6st0_ligand
  -I-interpret- 

 22 21  0  0  0  0  0  0  0  0999 V2000
   -0.8090   95.5700  186.8020 C   0  0  0  0  0
   -2.2080   95.4900  187.3030 C   0  0  0  0  0
   -1.3960   93.8260  185.1210 C   0  0  0  0  0
   -0.6240   92.5470  185.4830 C   0  0  0  0  0
   -0.6350   95.0590  185.4070 N   0  3  0  0  0
    0.1980   92.5400  186.6040 N   0  0  0  0  0
   -1.8040   97.4550  188.8870 O   0  0  0  0  0
   -1.7620   95.2330  189.8380 O   0  0  0  0  0
   -3.8360   96.1860  189.1340 O   0  0  0  0  0
   -0.6830   91.5030  184.8570 O   0  0  0  0  0
   -2.4180   96.1490  188.9430 S   0  0  0  0  0
   -0.1950   94.9486  187.4539 H   0  0  0  0  0
   -0.5251   96.6224  186.7997 H   0  0  0  0  0
   -2.4826   94.4357  187.3373 H   0  0  0  0  0
   -2.8295   96.0821  186.6313 H   0  0  0  0  0
   -2.3036   93.8482  185.7242 H   0  0  0  0  0
   -1.5974   93.8007  184.0501 H   0  0  0  0  0
    0.3538   94.8398  185.2857 H   0  0  0  0  0
   -0.9795   95.7813  184.7745 H   0  0  0  0  0
    0.7069   91.6933  186.8580 H   0  0  0  0  0
    0.2923   93.3816  187.1725 H   0  0  0  0  0
   -2.2912   98.0104  188.2739 H   0  0  0  0  0
  1  2  1  0  0  0
  5  1  1  0  0  0
  2 11  1  0  0  0
  3  4  1  0  0  0
  3  5  1  0  0  0
  4  6  1  0  0  0
  4 10  2  0  0  0
 11  7  1  0  0  0
 11  8  2  0  0  0
 11  9  2  0  0  0
  1 12  1  0  0  0
  1 13  1  0  0  0
  2 14  1  0  0  0
  2 15  1  0  0  0
  3 16  1  0  0  0
  3 17  1  0  0  0
  5 18  1  0  0  0
  5 19  1  0  0  0
  6 20  1  0  0  0
  6 21  1  0  0  0
  7 22  1  0  0  0
M  END
$$$$
