6b33_ligand
  -I-interpret- 

 69 73  0  0  0  0  0  0  0  0999 V2000
  -27.4150  109.3050    0.6420 C   0  0  0  0  0
  -27.9790  108.0060    0.4950 C   0  0  0  0  0
  -29.3520  107.7990    0.6260 C   0  0  0  0  0
  -30.1700  108.8780    0.9870 C   0  0  0  0  0
  -32.5040  109.6410    1.3810 C   0  0  0  0  0
  -33.7910  109.4050    0.9870 N   0  0  0  0  0
  -34.8810  110.3550    1.2730 C   0  0  0  0  0
  -34.1700  108.3650    0.0020 C   0  0  0  0  0
  -30.5370  110.6340   -1.9600 C   0  0  0  0  0
  -30.0340  111.9400   -1.8860 C   0  0  0  0  0
  -27.8130  111.1790   -2.5140 C   0  0  0  0  0
  -24.5390  107.7740    1.4700 C   0  0  0  0  0
  -25.1710  108.3620    0.1920 C   0  0  0  0  0
  -24.1780  108.5490   -0.9650 C   0  0  0  0  0
  -26.0320  109.5520    0.4980 N   0  0  0  0  0
  -31.5450  108.7640    0.9830 N   0  0  0  0  0
  -32.2450  110.5960    2.1010 O   0  0  0  0  0
  -35.3830  110.8500   -0.1110 C   0  0  0  0  0
  -34.5300  110.4770   -1.2270 O   0  0  0  0  0
  -34.0620  109.1230   -1.3670 C   0  0  0  0  0
  -32.6170  109.2270   -1.8360 C   0  0  0  0  0
  -32.1140  108.2610   -2.3800 O   0  0  0  0  0
  -31.8950  110.3810   -1.6250 N   0  0  0  0  0
  -28.6940  112.2160   -2.1640 C   0  0  0  0  0
  -26.4130  111.3690   -2.8290 C   0  0  0  0  0
  -25.2950  111.5000   -3.0790 N   0  0  0  0  0
  -28.3260  109.8640   -2.5980 C   0  0  0  0  0
  -27.2800  108.5380   -3.0510 Cl  0  0  0  0  0
  -29.6590  109.6040   -2.3130 C   0  0  0  0  0
  -29.6530  110.1830    1.0550 C   0  0  0  0  0
  -28.2790  110.4170    0.9240 C   0  0  0  0  0
  -27.7010  111.7790    1.0960 C   0  0  0  0  0
  -28.3880  112.7540    1.3700 O   0  0  0  0  0
  -26.3640  111.9280    0.9440 N   0  0  0  0  0
  -25.8960  113.3180    1.1520 C   0  0  0  0  0
  -25.1450  113.9680   -0.0100 C   0  0  0  0  0
  -25.9740  114.7170   -1.0370 C   0  0  0  0  0
  -25.1440  115.4960   -0.0090 C   0  0  0  0  0
  -25.5410  110.8490    0.6510 C   0  0  0  0  0
  -24.3150  111.0390    0.5330 O   0  0  0  0  0
  -27.3274  107.1599    0.2766 H   0  0  0  0  0
  -29.7822  106.8130    0.4503 H   0  0  0  0  0
  -34.5334  111.1843    1.8891 H   0  0  0  0  0
  -35.6824  109.8809    1.8397 H   0  0  0  0  0
  -35.1637  107.9544    0.1812 H   0  0  0  0  0
  -33.5302  107.4838    0.0495 H   0  0  0  0  0
  -30.7013  112.7552   -1.6063 H   0  0  0  0  0
  -24.1150  106.7949    1.2468 H   0  0  0  0  0
  -23.7521  108.4399    1.8242 H   0  0  0  0  0
  -25.3047  107.6730    2.2391 H   0  0  0  0  0
  -25.8523  107.6083   -0.2027 H   0  0  0  0  0
  -23.3845  109.2289   -0.6548 H   0  0  0  0  0
  -23.7475  107.5839   -1.2322 H   0  0  0  0  0
  -24.6999  108.9664   -1.8261 H   0  0  0  0  0
  -31.8992  107.8778    0.6230 H   0  0  0  0  0
  -35.4029  111.9392   -0.0734 H   0  0  0  0  0
  -36.3552  110.3880   -0.2828 H   0  0  0  0  0
  -34.6602  108.5564   -2.0806 H   0  0  0  0  0
  -32.3955  111.1467   -1.1737 H   0  0  0  0  0
  -28.3292  113.2417   -2.1092 H   0  0  0  0  0
  -30.0281  108.5797   -2.3651 H   0  0  0  0  0
  -30.3298  111.0229    1.2116 H   0  0  0  0  0
  -25.1901  113.2771    1.9815 H   0  0  0  0  0
  -26.7931  113.9182    1.3041 H   0  0  0  0  0
  -24.3871  113.1871   -0.0714 H   0  0  0  0  0
  -26.9913  114.7092   -1.4283 H   0  0  0  0  0
  -26.1420  114.7091   -2.1140 H   0  0  0  0  0
  -24.4284  116.3177    0.0173 H   0  0  0  0  0
  -25.2691  116.3179    0.6960 H   0  0  0  0  0
  2  1  4  0  0  0
  1 15  1  0  0  0
  1 31  4  0  0  0
  3  2  4  0  0  0
  4  3  4  0  0  0
 16  4  1  0  0  0
  4 30  4  0  0  0
  6  5  1  0  0  0
  5 16  1  0  0  0
  5 17  2  0  0  0
  6  7  1  0  0  0
  8  6  1  0  0  0
 18  7  1  0  0  0
 20  8  1  0  0  0
  9 10  4  0  0  0
 23  9  1  0  0  0
  9 29  4  0  0  0
 10 24  4  0  0  0
 24 11  4  0  0  0
 11 25  1  0  0  0
 11 27  4  0  0  0
 13 12  1  0  0  0
 13 14  1  0  0  0
 15 13  1  0  0  0
 15 39  1  0  0  0
 19 18  1  0  0  0
 20 19  1  0  0  0
 21 20  1  0  0  0
 21 22  2  0  0  0
 21 23  1  0  0  0
 25 26  3  0  0  0
 27 28  1  0  0  0
 27 29  4  0  0  0
 30 31  4  0  0  0
 31 32  1  0  0  0
 32 33  2  0  0  0
 32 34  1  0  0  0
 34 35  1  0  0  0
 34 39  1  0  0  0
 35 36  1  0  0  0
 36 37  1  0  0  0
 36 38  1  0  0  0
 37 38  1  0  0  0
 39 40  2  0  0  0
  2 41  1  0  0  0
  3 42  1  0  0  0
  7 43  1  0  0  0
  7 44  1  0  0  0
  8 45  1  0  0  0
  8 46  1  0  0  0
 10 47  1  0  0  0
 12 48  1  0  0  0
 12 49  1  0  0  0
 12 50  1  0  0  0
 13 51  1  0  0  0
 14 52  1  0  0  0
 14 53  1  0  0  0
 14 54  1  0  0  0
 16 55  1  0  0  0
 18 56  1  0  0  0
 18 57  1  0  0  0
 20 58  1  0  0  0
 23 59  1  0  0  0
 24 60  1  0  0  0
 29 61  1  0  0  0
 30 62  1  0  0  0
 35 63  1  0  0  0
 35 64  1  0  0  0
 36 65  1  0  0  0
 37 66  1  0  0  0
 37 67  1  0  0  0
 38 68  1  0  0  0
 38 69  1  0  0  0
M  END
$$$$
