1rr6_ligand
  -I-interpret- 

 33 35  0  0  0  0  0  0  0  0999 V2000
    3.2110   18.4530   26.2170 C   0  0  0  0  0
    3.1680   19.4400   27.1920 C   0  0  0  0  0
    2.4250   19.1590   28.2330 N   0  0  0  0  0
    1.9060   17.8950   27.9780 C   0  0  0  0  0
    1.0120   17.0780   28.7820 C   0  0  0  0  0
    0.5210   17.3670   29.8700 O   0  0  0  0  0
    0.7010   15.8350   28.1940 N   0  0  0  0  0
    1.1970   15.4030   26.9570 C   0  0  0  0  0
    2.0430   16.1750   26.1910 N   0  0  0  0  0
    2.3710   17.4170   26.7510 C   0  0  0  0  0
    1.5720   21.5590   23.5540 O   0  0  0  0  0
    1.5740   20.2070   23.1250 C   0  0  0  0  0
    2.9830   19.7470   23.0530 C   0  0  0  0  0
    3.6640   19.8410   24.3220 N   0  3  0  0  0
    3.0510   18.3220   22.5980 C   0  0  0  0  0
    4.0010   18.3120   21.5170 O   0  0  0  0  0
    3.5140   17.5610   23.8110 C   0  0  0  0  0
    4.5560   16.6300   23.4710 O   0  0  0  0  0
    4.0060   18.5610   24.8960 C   0  0  0  0  0
    3.7125   20.3796   27.0981 H   0  0  0  0  0
    0.0747   15.2102   28.7017 H   0  0  0  0  0
    0.9030   14.4207   26.5872 H   0  0  0  0  0
    0.6672   21.8754   23.6069 H   0  0  0  0  0
    1.1014   20.1232   22.1464 H   0  0  0  0  0
    1.0132   19.5898   23.8269 H   0  0  0  0  0
    3.4773   20.4063   22.3395 H   0  0  0  0  0
    3.0317   20.3070   24.9727 H   0  0  0  0  0
    4.5360   20.3456   24.1626 H   0  0  0  0  0
    2.1224   17.8800   22.2368 H   0  0  0  0  0
    4.0900   17.4179   21.1789 H   0  0  0  0  0
    2.6752   16.9876   24.2055 H   0  0  0  0  0
    4.8327   16.1588   24.2603 H   0  0  0  0  0
    5.0562   18.3901   25.1325 H   0  0  0  0  0
  1  2  4  0  0  0
  1 10  4  0  0  0
 19  1  1  0  0  0
  2  3  4  0  0  0
  4  3  4  0  0  0
  4  5  1  0  0  0
 10  4  4  0  0  0
  5  6  2  0  0  0
  5  7  1  0  0  0
  8  7  1  0  0  0
  9  8  2  0  0  0
 10  9  1  0  0  0
 12 11  1  0  0  0
 13 12  1  0  0  0
 14 13  1  0  0  0
 13 15  1  0  0  0
 14 19  1  0  0  0
 15 16  1  0  0  0
 15 17  1  0  0  0
 17 18  1  0  0  0
 17 19  1  0  0  0
  2 20  1  0  0  0
  7 21  1  0  0  0
  8 22  1  0  0  0
 11 23  1  0  0  0
 12 24  1  0  0  0
 12 25  1  0  0  0
 13 26  1  0  0  0
 14 27  1  0  0  0
 14 28  1  0  0  0
 15 29  1  0  0  0
 16 30  1  0  0  0
 17 31  1  0  0  0
 18 32  1  0  0  0
 19 33  1  0  0  0
M  END
$$$$
