5u8c_ligand
  -I-interpret- 

 45 47  0  0  0  0  0  0  0  0999 V2000
  -11.2530   19.0710  -49.0820 C   0  0  0  0  0
  -10.9170   20.2500  -48.1830 C   0  0  0  0  0
  -10.9680   19.3460  -50.4630 N   0  3  0  0  0
   -9.5790   19.3710  -50.8870 C   0  0  0  0  0
   -9.6180   19.7380  -52.6400 P   0  0  0  0  0
  -10.3870   18.6170  -53.3090 O   0  0  0  0  0
   -8.1980   19.8550  -53.1600 O   0  0  0  0  0
  -10.3360   21.0510  -52.7980 O   0  0  0  0  0
   -8.8070   18.1610  -50.4160 C   0  0  0  0  0
   -9.3330   16.8770  -50.5470 C   0  0  0  0  0
  -10.5080   16.6440  -51.1930 N   0  0  0  0  0
  -10.9750   15.4280  -51.3210 C   0  0  0  0  0
  -12.1620   15.2600  -51.9970 O   0  0  0  0  0
  -10.3040   14.3810  -50.7840 C   0  0  0  0  0
  -10.8050   13.1050  -50.8740 O   0  0  0  0  0
   -9.1500   14.5580  -50.1630 N   0  0  0  0  0
   -8.6070   15.7840  -50.0010 C   0  0  0  0  0
   -7.3950   16.0300  -49.3670 C   0  0  0  0  0
   -6.9100   17.3220  -49.2320 C   0  0  0  0  0
   -7.6070   18.4010  -49.7730 C   0  0  0  0  0
  -13.7460   19.6020  -48.8890 C   0  0  0  0  0
  -15.0810   19.2000  -48.8780 C   0  0  0  0  0
  -15.3840   17.8410  -49.0250 C   0  0  0  0  0
  -17.2100   17.2480  -49.0290 Br  0  0  0  0  0
  -14.3710   16.9070  -49.1880 C   0  0  0  0  0
  -13.0540   17.3230  -49.1960 C   0  0  0  0  0
  -12.7270   18.6650  -49.0340 C   0  0  0  0  0
  -10.6287   18.2663  -48.6937 H   0  0  0  0  0
  -11.5040   21.1164  -48.4876 H   0  0  0  0  0
  -11.1518   19.9956  -47.1494 H   0  0  0  0  0
   -9.8551   20.4803  -48.2697 H   0  0  0  0  0
  -11.3154   20.2911  -50.6258 H   0  0  0  0  0
  -11.3936   18.5786  -50.9829 H   0  0  0  0  0
   -8.9852   20.1509  -50.4104 H   0  0  0  0  0
   -9.9106   17.7913  -53.1952 H   0  0  0  0  0
   -7.7494   19.0128  -53.0546 H   0  0  0  0  0
  -11.0318   17.4277  -51.5827 H   0  0  0  0  0
   -8.6556   13.7450  -49.7957 H   0  0  0  0  0
   -6.8173   15.1952  -48.9701 H   0  0  0  0  0
   -5.9756   17.4953  -48.6982 H   0  0  0  0  0
   -7.2136   19.4142  -49.6907 H   0  0  0  0  0
  -13.4984   20.6582  -48.7832 H   0  0  0  0  0
  -15.8779   19.9337  -48.7566 H   0  0  0  0  0
  -14.6131   15.8511  -49.3090 H   0  0  0  0  0
  -12.2596   16.5890  -49.3312 H   0  0  0  0  0
  1  2  1  0  0  0
  1  3  1  0  0  0
 27  1  1  0  0  0
  3  4  1  0  0  0
  4  5  1  0  0  0
  4  9  1  0  0  0
  5  6  1  0  0  0
  5  7  1  0  0  0
  5  8  2  0  0  0
  9 10  4  0  0  0
  9 20  4  0  0  0
 10 11  1  0  0  0
 10 17  4  0  0  0
 11 12  1  0  0  0
 12 13  2  0  0  0
 12 14  1  0  0  0
 14 15  2  0  0  0
 16 14  1  0  0  0
 17 16  1  0  0  0
 17 18  4  0  0  0
 19 18  4  0  0  0
 20 19  4  0  0  0
 21 22  4  0  0  0
 21 27  4  0  0  0
 22 23  4  0  0  0
 23 24  1  0  0  0
 23 25  4  0  0  0
 25 26  4  0  0  0
 26 27  4  0  0  0
  1 28  1  0  0  0
  2 29  1  0  0  0
  2 30  1  0  0  0
  2 31  1  0  0  0
  3 32  1  0  0  0
  3 33  1  0  0  0
  4 34  1  0  0  0
  6 35  1  0  0  0
  7 36  1  0  0  0
 11 37  1  0  0  0
 16 38  1  0  0  0
 18 39  1  0  0  0
 19 40  1  0  0  0
 20 41  1  0  0  0
 21 42  1  0  0  0
 22 43  1  0  0  0
 25 44  1  0  0  0
 26 45  1  0  0  0
M  END
$$$$
