### 
### Created by X-TOOL on Mon Sep 10 21:13:32 2018
### 

@<TRIPOS>MOLECULE
5u8c_ligand
   43    45     1     0     0
SMALL
GAST_HUCK


@<TRIPOS>ATOM
      1 CAY       -11.2530   19.0710  -49.0820 C.3       1 84J         0.0123
      2 CAA       -10.9170   20.2500  -48.1830 C.3       1 84J        -0.0110
      3 NAQ       -10.9680   19.3460  -50.4630 N.4       1 84J         0.2649
      4 CAZ        -9.5790   19.3710  -50.8870 C.3       1 84J         0.0743
      5 PBA        -9.6180   19.7380  -52.6400 P.3       1 84J         0.1200
      6 OAE       -10.3870   18.6170  -53.3090 O.co2     1 84J        -0.5573
      7 OAF        -8.1980   19.8550  -53.1600 O.co2     1 84J        -0.5573
      8 OAB       -10.3360   21.0510  -52.7980 O.co2     1 84J        -0.5573
      9 CAV        -8.8070   18.1610  -50.4160 C.ar      1 84J         0.0319
     10 CAX        -9.3330   16.8770  -50.5470 C.ar      1 84J         0.1014
     11 NAP       -10.5080   16.6440  -51.1930 N.am      1 84J        -0.2293
     12 CAT       -10.9750   15.4280  -51.3210 C.2       1 84J         0.3096
     13 OAD       -12.1620   15.2600  -51.9970 O.2       1 84J        -0.3532
     14 CAS       -10.3040   14.3810  -50.7840 C.2       1 84J         0.3109
     15 OAC       -10.8050   13.1050  -50.8740 O.2       1 84J        -0.3522
     16 NAO        -9.1500   14.5580  -50.1630 N.am      1 84J        -0.2277
     17 CAW        -8.6070   15.7840  -50.0010 C.ar      1 84J         0.0867
     18 CAN        -7.3950   16.0300  -49.3670 C.ar      1 84J        -0.0589
     19 CAH        -6.9100   17.3220  -49.2320 C.ar      1 84J        -0.0958
     20 CAK        -7.6070   18.4010  -49.7730 C.ar      1 84J        -0.0808
     21 CAL       -13.7460   19.6020  -48.8890 C.ar      1 84J        -0.0522
     22 CAI       -15.0810   19.2000  -48.8780 C.ar      1 84J        -0.0588
     23 CAR       -15.3840   17.8410  -49.0250 C.ar      1 84J         0.0056
     24 BRAG      -17.2100   17.2480  -49.0290 Br        1 84J        -0.0561
     25 CAJ       -14.3710   16.9070  -49.1880 C.ar      1 84J        -0.0588
     26 CAM       -13.0540   17.3230  -49.1960 C.ar      1 84J        -0.0522
     27 CAU       -12.7270   18.6650  -49.0340 C.ar      1 84J         0.0070
     28 H1        -10.6410   18.2185  -48.7522 H         1 84J         0.1020
     29 H2        -11.1511   19.9936  -47.1392 H         1 84J         0.0307
     30 H3        -11.5108   21.1244  -48.4877 H         1 84J         0.0307
     31 H4         -9.8461   20.4851  -48.2715 H         1 84J         0.0307
     32 H5        -11.3611   20.2497  -50.6748 H         1 84J         0.2061
     33 H6        -11.4346   18.6399  -51.0105 H         1 84J         0.2061
     34 H7         -9.0947   20.2295  -50.3988 H         1 84J         0.1181
     35 H8        -11.0216   17.4123  -51.5751 H         1 84J         0.2223
     36 H9         -8.6653   13.7609  -49.8029 H         1 84J         0.2243
     37 H10        -6.8205   15.1998  -48.9723 H         1 84J         0.0407
     38 H11        -5.9807   17.4944  -48.7011 H         1 84J         0.0440
     39 H12        -7.2158   19.4086  -49.6911 H         1 84J         0.0400
     40 H13       -13.4998   20.6524  -48.7838 H         1 84J         0.0566
     41 H14       -15.8735   19.9297  -48.7573 H         1 84J         0.0626
     42 H15       -14.6118   15.8570  -49.3084 H         1 84J         0.0626
     43 H16       -12.2640   16.5931  -49.3305 H         1 84J         0.0566
@<TRIPOS>BOND
     1    1    2 1  
     2    1    3 1  
     3   27    1 1  
     4    3    4 1  
     5    4    5 1  
     6    4    9 1  
     7    5    6 ar 
     8    5    7 ar 
     9    5    8 ar 
    10    9   10 ar 
    11    9   20 ar 
    12   10   11 1  
    13   10   17 ar 
    14   11   12 am 
    15   12   13 2  
    16   12   14 1  
    17   14   15 2  
    18   16   14 am 
    19   17   16 1  
    20   17   18 ar 
    21   19   18 ar 
    22   20   19 ar 
    23   21   22 ar 
    24   21   27 ar 
    25   22   23 ar 
    26   23   24 1  
    27   23   25 ar 
    28   25   26 ar 
    29   26   27 ar 
    30    1   28 1  
    31    2   29 1  
    32    2   30 1  
    33    2   31 1  
    34    3   32 1  
    35    3   33 1  
    36    4   34 1  
    37   11   35 1  
    38   16   36 1  
    39   18   37 1  
    40   19   38 1  
    41   20   39 1  
    42   21   40 1  
    43   22   41 1  
    44   25   42 1  
    45   26   43 1  
@<TRIPOS>SUBSTRUCTURE
     1 84J         1

