6b7b_ligand
  -I-interpret- 

 22 23  0  0  0  0  0  0  0  0999 V2000
  -38.2170   32.3540   54.7750 C   0  0  0  0  0
  -38.3520   31.1750   54.0690 C   0  0  0  0  0
  -34.8720   30.1670   51.6790 C   0  0  0  0  0
  -41.7940   32.0960   55.1920 C   0  0  0  0  0
  -36.9780   32.9620   54.9490 C   0  0  0  0  0
  -37.2610   30.5320   53.4970 C   0  0  0  0  0
  -39.8300   30.8970   54.1360 C   0  0  0  0  0
  -40.3490   31.9100   54.8450 C   0  0  0  0  0
  -35.8680   32.3270   54.3790 C   0  0  0  0  0
  -36.0020   31.1240   53.6590 C   0  0  0  0  0
  -39.4220   32.7520   55.2150 N   0  0  0  0  0
  -34.9050   30.4740   53.0810 O   0  0  0  0  0
  -35.7090   29.5140   51.4316 H   0  0  0  0  0
  -34.9475   31.0901   51.1043 H   0  0  0  0  0
  -33.9346   29.6646   51.4404 H   0  0  0  0  0
  -42.3797   32.1703   54.2757 H   0  0  0  0  0
  -42.1386   31.2432   55.7769 H   0  0  0  0  0
  -41.9117   33.0094   55.7750 H   0  0  0  0  0
  -36.8756   33.8935   55.5057 H   0  0  0  0  0
  -37.3806   29.6012   52.9426 H   0  0  0  0  0
  -40.3643   30.0524   53.7010 H   0  0  0  0  0
  -34.8801   32.7727   54.4948 H   0  0  0  0  0
  2  1  4  0  0  0
  5  1  4  0  0  0
  1 11  4  0  0  0
  6  2  4  0  0  0
  2  7  4  0  0  0
 12  3  1  0  0  0
  8  4  1  0  0  0
  9  5  4  0  0  0
 10  6  4  0  0  0
  7  8  4  0  0  0
 11  8  4  0  0  0
 10  9  4  0  0  0
 10 12  1  0  0  0
  3 13  1  0  0  0
  3 14  1  0  0  0
  3 15  1  0  0  0
  4 16  1  0  0  0
  4 17  1  0  0  0
  4 18  1  0  0  0
  5 19  1  0  0  0
  6 20  1  0  0  0
  7 21  1  0  0  0
  9 22  1  0  0  0
M  END
$$$$
