4kn4_ligand
  -I-interpret- 

133138  0  0  0  0  0  0  0  0999 V2000
 -113.3930   26.6490    9.2320 C   0  0  0  0  0
 -112.2230   26.3250    8.4650 C   0  0  0  0  0
 -110.9560   26.7100    8.8980 C   0  0  0  0  0
 -110.7610   27.4210   10.0990 C   0  0  0  0  0
 -111.9680   28.5240   12.2710 C   0  0  0  0  0
 -113.0680   28.8430   12.8690 C   0  0  0  0  0
 -114.5380   28.5120   12.3880 C   0  0  0  0  0
 -114.4260   27.6800   11.2190 C   0  0  0  0  0
 -113.2450   27.4030   10.5100 C   0  0  0  0  0
 -111.9800   27.7770   10.9460 C   0  0  0  0  0
 -111.0260   28.9660   13.0070 C   0  0  0  0  0
 -111.3130   29.7040   14.0800 C   0  0  0  0  0
 -110.4890   29.5170   15.3690 C   0  0  0  0  0
 -115.7630   28.5560   13.2990 C   0  0  0  0  0
 -112.7460   26.3840    6.0440 C   0  0  0  0  0
 -112.9650   25.6980    4.6570 C   0  0  0  0  0
 -113.5090   26.5520    3.4990 C   0  0  0  0  0
 -112.5270   27.4250    2.7140 C   0  0  0  0  0
 -111.1770   27.7230    3.3780 C   0  0  0  0  0
 -110.7280   29.1670    3.1400 C   0  0  0  0  0
 -111.0110   30.0410    4.3910 C   0  0  0  0  0
 -109.9530   31.1150    4.7520 C   0  0  0  0  0
 -110.4910   31.9640    5.9330 C   0  0  0  0  0
 -109.7340   31.7630    7.2760 C   0  0  0  0  0
 -110.2070   32.8300    8.2810 C   0  0  0  0  0
 -110.6070   32.1670    9.6070 C   0  0  0  0  0
 -110.5450   33.2160   10.7340 C   0  0  0  0  0
 -111.0910   32.7190   12.0580 C   0  0  0  0  0
 -110.8720   31.3920   12.3990 C   0  0  0  0  0
 -112.2710   24.3550    4.4220 C   0  0  0  0  0
 -109.2770   29.1070    2.7280 C   0  0  0  0  0
 -109.6070   32.0110    3.5880 C   0  0  0  0  0
 -108.2290   31.8430    7.1360 C   0  0  0  0  0
 -111.9790   31.6620    9.4300 C   0  0  0  0  0
 -109.2180   34.9800    7.6560 C   0  0  0  0  0
 -107.8900   35.7350    7.4280 C   0  0  0  0  0
 -110.9620   35.4890   11.1600 C   0  0  0  0  0
 -112.3800   25.5990    7.2300 N   0  0  0  0  0
 -109.8840   26.3320    8.0520 O   0  0  0  0  0
 -108.5820   26.7010    8.4550 C   0  0  0  0  0
 -108.3720   27.4060    9.6390 C   0  0  0  0  0
 -109.4580   27.7490   10.4280 N   0  0  0  0  0
 -114.4840   26.2960    8.8130 O   0  0  0  0  0
 -115.6460   27.1680   10.6940 O   0  0  0  0  0
 -112.8140   29.6260   14.2430 O   0  0  0  0  0
 -109.8640   28.7300   12.7750 O   0  0  0  0  0
 -111.1090   31.0210   13.7650 O   0  0  0  0  0
 -111.3200   34.3350   10.4110 O   0  0  0  0  0
 -109.2190   33.8210    8.4920 O   0  0  0  0  0
 -110.2580   35.5290    7.3820 O   0  0  0  0  0
 -111.8220   31.6230    6.1330 O   0  0  0  0  0
 -112.2370   30.6760    4.2110 O   0  0  0  0  0
 -112.8590   27.5880    6.1670 O   0  0  0  0  0
 -107.5590   26.3120    7.5950 C   0  0  0  0  0
 -106.2420   26.6330    7.9140 C   0  0  0  0  0
 -105.9640   27.3420    9.0910 C   0  0  0  0  0
 -107.0040   27.7270    9.9510 C   0  0  0  0  0
 -106.7260   28.4620   11.1670 O   0  0  0  0  0
 -105.3310   28.7310   11.5300 C   0  0  0  0  0
 -105.2660   29.1830   12.9850 C   0  0  0  0  0
 -105.6520   28.0880   13.8910 N   0  3  0  0  0
 -105.0600   28.3430   15.1830 C   0  0  0  0  0
 -105.2630   27.1560   16.1370 C   0  0  0  0  0
 -107.0860   28.0030   14.0320 C   0  0  0  0  0
 -107.5670   26.6250   13.5550 C   0  0  0  0  0
 -110.5864   28.4879   15.7149 H   0  0  0  0  0
 -109.4410   29.7350   15.1636 H   0  0  0  0  0
 -110.8589   30.1963   16.1370 H   0  0  0  0  0
 -115.6304   27.8495   14.1184 H   0  0  0  0  0
 -115.8795   29.5626   13.7007 H   0  0  0  0  0
 -116.6503   28.2872   12.7258 H   0  0  0  0  0
 -113.9436   25.2241    4.7340 H   0  0  0  0  0
 -114.2054   27.2510    3.9622 H   0  0  0  0  0
 -113.8974   25.8364    2.7743 H   0  0  0  0  0
 -113.0184   28.3903    2.5920 H   0  0  0  0  0
 -112.2957   26.8697    1.8050 H   0  0  0  0  0
 -110.4298   27.0578    2.9453 H   0  0  0  0  0
 -111.2844   27.5718    4.4521 H   0  0  0  0  0
 -111.2902   29.6532    2.3427 H   0  0  0  0  0
 -110.9923   29.3430    5.2280 H   0  0  0  0  0
 -109.0337   30.5999    5.0308 H   0  0  0  0  0
 -110.3497   33.0082    5.6541 H   0  0  0  0  0
 -109.9644   30.7566    7.6255 H   0  0  0  0  0
 -111.0802   33.3274    7.8588 H   0  0  0  0  0
 -109.9372   31.3499    9.8749 H   0  0  0  0  0
 -109.4846   33.4479   10.8328 H   0  0  0  0  0
 -112.1734   32.8216   11.9800 H   0  0  0  0  0
 -110.5733   33.3015   12.8201 H   0  0  0  0  0
 -109.8119   31.2109   12.2217 H   0  0  0  0  0
 -111.5801   30.8124   11.8067 H   0  0  0  0  0
 -111.1927   24.4833    4.5163 H   0  0  0  0  0
 -112.6184   23.6336    5.1616 H   0  0  0  0  0
 -112.5092   23.9946    3.4213 H   0  0  0  0  0
 -108.6934   28.6448    3.5242 H   0  0  0  0  0
 -109.1834   28.5158    1.8170 H   0  0  0  0  0
 -108.9101   30.1172    2.5464 H   0  0  0  0  0
 -109.2052   31.4079    2.7738 H   0  0  0  0  0
 -110.5049   32.5282    3.2499 H   0  0  0  0  0
 -108.8619   32.7417    3.9026 H   0  0  0  0  0
 -107.8877   31.0692    6.4483 H   0  0  0  0  0
 -107.9531   32.8234    6.7477 H   0  0  0  0  0
 -107.7662   31.6938    8.1115 H   0  0  0  0  0
 -112.6435   32.4936    9.1954 H   0  0  0  0  0
 -111.9965   30.9399    8.6137 H   0  0  0  0  0
 -112.3090   31.1801   10.3503 H   0  0  0  0  0
 -107.7953   35.9904    6.3726 H   0  0  0  0  0
 -107.8845   36.6465    8.0257 H   0  0  0  0  0
 -107.0563   35.0990    7.7254 H   0  0  0  0  0
 -111.0955   35.2867   12.2227 H   0  0  0  0  0
 -109.9191   35.7383   10.9645 H   0  0  0  0  0
 -111.5979   36.3237   10.8650 H   0  0  0  0  0
 -112.2436   24.5893    7.1820 H   0  0  0  0  0
 -115.4597   26.6301    9.9210 H   0  0  0  0  0
 -112.1770   32.1376    6.8615 H   0  0  0  0  0
 -112.4287   31.2222    4.9769 H   0  0  0  0  0
 -107.7863   25.7621    6.6817 H   0  0  0  0  0
 -105.4302   26.3341    7.2509 H   0  0  0  0  0
 -104.9336   27.5958    9.3397 H   0  0  0  0  0
 -104.9315   29.5149   10.8866 H   0  0  0  0  0
 -104.7399   27.8240   11.4033 H   0  0  0  0  0
 -105.9560   30.0150   13.1256 H   0  0  0  0  0
 -104.2438   29.4845   13.2139 H   0  0  0  0  0
 -105.3221   27.2039   13.5037 H   0  0  0  0  0
 -105.5393   29.2210   15.6161 H   0  0  0  0  0
 -103.9898   28.4997   15.0484 H   0  0  0  0  0
 -106.3299   26.9796   16.2735 H   0  0  0  0  0
 -104.7978   26.2665   15.7123 H   0  0  0  0  0
 -104.8048   27.3827   17.0997 H   0  0  0  0  0
 -107.5568   28.7803   13.4301 H   0  0  0  0  0
 -107.3567   28.1397   15.0790 H   0  0  0  0  0
 -107.2957   26.4893   12.5081 H   0  0  0  0  0
 -107.0956   25.8485   14.1574 H   0  0  0  0  0
 -108.6499   26.5625   13.6621 H   0  0  0  0  0
  1  2  1  0  0  0
  9  1  1  0  0  0
  1 43  2  0  0  0
  3  2  2  0  0  0
 38  2  1  0  0  0
  4  3  1  0  0  0
  3 39  1  0  0  0
 10  4  1  0  0  0
  4 42  2  0  0  0
  6  5  4  0  0  0
  5 10  4  0  0  0
 11  5  1  0  0  0
  6  7  4  0  0  0
 45  6  1  0  0  0
  7  8  4  0  0  0
  7 14  1  0  0  0
  8  9  4  0  0  0
  8 44  1  0  0  0
 10  9  4  0  0  0
 12 11  1  0  0  0
 11 46  2  0  0  0
 12 13  1  0  0  0
 12 45  1  0  0  0
 47 12  1  0  0  0
 16 15  1  0  0  0
 15 38  1  0  0  0
 15 53  2  0  0  0
 17 16  1  0  0  0
 16 30  1  0  0  0
 18 17  1  0  0  0
 19 18  1  0  0  0
 20 19  1  0  0  0
 21 20  1  0  0  0
 20 31  1  0  0  0
 22 21  1  0  0  0
 21 52  1  0  0  0
 23 22  1  0  0  0
 22 32  1  0  0  0
 24 23  1  0  0  0
 23 51  1  0  0  0
 25 24  1  0  0  0
 24 33  1  0  0  0
 25 26  1  0  0  0
 49 25  1  0  0  0
 26 27  1  0  0  0
 26 34  1  0  0  0
 27 28  1  0  0  0
 27 48  1  0  0  0
 28 29  1  0  0  0
 29 47  1  0  0  0
 35 36  1  0  0  0
 35 49  1  0  0  0
 35 50  2  0  0  0
 48 37  1  0  0  0
 39 40  1  0  0  0
 40 41  4  0  0  0
 40 54  4  0  0  0
 41 42  1  0  0  0
 41 57  4  0  0  0
 54 55  4  0  0  0
 55 56  4  0  0  0
 56 57  4  0  0  0
 57 58  1  0  0  0
 58 59  1  0  0  0
 59 60  1  0  0  0
 60 61  1  0  0  0
 61 62  1  0  0  0
 61 64  1  0  0  0
 62 63  1  0  0  0
 64 65  1  0  0  0
 13 66  1  0  0  0
 13 67  1  0  0  0
 13 68  1  0  0  0
 14 69  1  0  0  0
 14 70  1  0  0  0
 14 71  1  0  0  0
 16 72  1  0  0  0
 17 73  1  0  0  0
 17 74  1  0  0  0
 18 75  1  0  0  0
 18 76  1  0  0  0
 19 77  1  0  0  0
 19 78  1  0  0  0
 20 79  1  0  0  0
 21 80  1  0  0  0
 22 81  1  0  0  0
 23 82  1  0  0  0
 24 83  1  0  0  0
 25 84  1  0  0  0
 26 85  1  0  0  0
 27 86  1  0  0  0
 28 87  1  0  0  0
 28 88  1  0  0  0
 29 89  1  0  0  0
 29 90  1  0  0  0
 30 91  1  0  0  0
 30 92  1  0  0  0
 30 93  1  0  0  0
 31 94  1  0  0  0
 31 95  1  0  0  0
 31 96  1  0  0  0
 32 97  1  0  0  0
 32 98  1  0  0  0
 32 99  1  0  0  0
 33100  1  0  0  0
 33101  1  0  0  0
 33102  1  0  0  0
 34103  1  0  0  0
 34104  1  0  0  0
 34105  1  0  0  0
 36106  1  0  0  0
 36107  1  0  0  0
 36108  1  0  0  0
 37109  1  0  0  0
 37110  1  0  0  0
 37111  1  0  0  0
 38112  1  0  0  0
 44113  1  0  0  0
 51114  1  0  0  0
 52115  1  0  0  0
 54116  1  0  0  0
 55117  1  0  0  0
 56118  1  0  0  0
 59119  1  0  0  0
 59120  1  0  0  0
 60121  1  0  0  0
 60122  1  0  0  0
 61123  1  0  0  0
 62124  1  0  0  0
 62125  1  0  0  0
 63126  1  0  0  0
 63127  1  0  0  0
 63128  1  0  0  0
 64129  1  0  0  0
 64130  1  0  0  0
 65131  1  0  0  0
 65132  1  0  0  0
 65133  1  0  0  0
M  END
$$$$
