1p57_ligand
  -I-interpret- 

 30 32  0  0  0  0  0  0  0  0999 V2000
   16.3700   -6.1580   25.2670 C   0  0  0  0  0
   15.4100   -5.1810   24.8180 C   0  0  0  0  0
   15.0090   -4.0920   25.6180 C   0  0  0  0  0
   15.5910   -4.0250   26.8490 C   0  0  0  0  0
   16.4990   -4.9170   27.3080 C   0  0  0  0  0
   16.9190   -5.9940   26.5610 C   0  0  0  0  0
   16.7520   -7.2370   24.4510 C   0  0  0  0  0
   17.8350   -7.9110   24.6850 N   0  0  0  0  0
   16.0360   -7.5980   23.4340 N   0  0  0  0  0
   15.4260   -3.1650   27.7850 N   0  0  0  0  0
   16.9240   -4.6450   28.5280 N   0  0  0  0  0
   16.2160   -3.5530   28.7520 C   0  0  0  0  0
   16.2960   -2.8690   29.9730 C   0  0  0  0  0
   17.2840   -3.1240   30.9470 C   0  0  0  0  0
   17.2930   -2.4500   32.1550 C   0  0  0  0  0
   16.3110   -1.4950   32.4270 C   0  0  0  0  0
   15.3260   -1.2210   31.4800 C   0  0  0  0  0
   15.3250   -1.9020   30.2670 C   0  0  0  0  0
   14.3680   -1.6370   29.3000 O   0  0  0  0  0
   14.9782   -5.2883   23.8230 H   0  0  0  0  0
   14.2834   -3.3541   25.2759 H   0  0  0  0  0
   17.6518   -6.6988   26.9539 H   0  0  0  0  0
   18.0919   -8.6900   24.0787 H   0  0  0  0  0
   18.4298   -7.6621   25.4753 H   0  0  0  0  0
   16.3321   -8.3838   22.8550 H   0  0  0  0  0
   18.0555   -3.8667   30.7438 H   0  0  0  0  0
   18.0655   -2.6640   32.8936 H   0  0  0  0  0
   16.3150   -0.9644   33.3791 H   0  0  0  0  0
   14.5588   -0.4755   31.6891 H   0  0  0  0  0
   13.7671   -0.9615   29.6228 H   0  0  0  0  0
  1  2  4  0  0  0
  1  6  4  0  0  0
  1  7  1  0  0  0
  2  3  4  0  0  0
  3  4  4  0  0  0
  4  5  4  0  0  0
  4 10  4  0  0  0
  5  6  4  0  0  0
  5 11  4  0  0  0
  7  8  1  0  0  0
  7  9  2  0  0  0
 10 12  4  0  0  0
 11 12  4  0  0  0
 12 13  1  0  0  0
 13 14  4  0  0  0
 13 18  4  0  0  0
 14 15  4  0  0  0
 15 16  4  0  0  0
 16 17  4  0  0  0
 17 18  4  0  0  0
 18 19  1  0  0  0
  2 20  1  0  0  0
  3 21  1  0  0  0
  6 22  1  0  0  0
  8 23  1  0  0  0
  8 24  1  0  0  0
  9 25  1  0  0  0
 14 26  1  0  0  0
 15 27  1  0  0  0
 16 28  1  0  0  0
 17 29  1  0  0  0
 19 30  1  0  0  0
M  END
$$$$
