6uvy_ligand
  -I-interpret- 

 44 47  0  0  0  0  0  0  0  0999 V2000
   25.1770   56.0630   84.9920 O   0  0  0  0  0
   24.1280   54.9170   86.7860 C   0  0  0  0  0
   19.3660   55.3250   88.0600 O   0  0  0  0  0
   25.2490   55.6200   86.1370 C   0  0  0  0  0
   29.8000   54.3260   88.9550 C   0  0  0  0  0
   26.3590   55.7270   86.9490 N   0  0  0  0  0
   27.6060   56.2620   86.4480 C   0  0  0  0  0
   28.6370   56.1650   87.5350 C   0  0  0  0  0
   30.0690   56.0870   87.0760 C   0  0  0  0  0
   29.3840   54.8670   87.6150 C   0  0  0  0  0
   22.4800   54.8370   89.9640 C   0  0  0  0  0
   23.2190   54.0290   85.9730 C   0  0  0  0  0
   19.9090   56.5200   88.6660 C   0  0  0  0  0
   20.3280   54.7630   87.1530 C   0  0  0  0  0
   22.3050   57.4110   88.9010 C   0  0  0  0  0
   22.6920   55.3250   86.5180 C   0  0  0  0  0
   21.2810   56.7160   88.0290 C   0  0  0  0  0
   21.6670   55.3140   87.6100 C   0  0  0  0  0
   22.0570   54.4730   88.7620 N   0  0  0  0  0
   22.8030   53.9230   90.8830 N   0  0  0  0  0
   22.6210   56.4870   90.4230 S   0  0  0  0  0
   24.7385   54.7952   87.6807 H   0  0  0  0  0
   30.4580   55.0427   89.4464 H   0  0  0  0  0
   28.9150   54.1623   89.5700 H   0  0  0  0  0
   30.3274   53.3822   88.8165 H   0  0  0  0  0
   26.2993   55.4232   87.9209 H   0  0  0  0  0
   27.4726   57.3030   86.1535 H   0  0  0  0  0
   27.9305   55.6946   85.5757 H   0  0  0  0  0
   28.0842   56.7833   88.2423 H   0  0  0  0  0
   31.0040   56.6296   87.2155 H   0  0  0  0  0
   30.6686   56.3748   86.2124 H   0  0  0  0  0
   29.2037   53.8564   87.2487 H   0  0  0  0  0
   22.9232   52.9804   85.9400 H   0  0  0  0  0
   23.2406   53.4951   85.0229 H   0  0  0  0  0
   19.9832   56.4192   89.7488 H   0  0  0  0  0
   19.2637   57.3817   88.4953 H   0  0  0  0  0
   20.1126   55.0308   86.1186 H   0  0  0  0  0
   20.3120   53.6733   87.1712 H   0  0  0  0  0
   21.9182   58.3942   89.1692 H   0  0  0  0  0
   23.2385   57.4852   88.3432 H   0  0  0  0  0
   22.2156   56.2101   86.0964 H   0  0  0  0  0
   21.2436   57.4124   87.1913 H   0  0  0  0  0
   21.9908   53.4667   88.6093 H   0  0  0  0  0
   22.7255   52.9299   90.6638 H   0  0  0  0  0
  4  1  2  0  0  0
  2  4  1  0  0  0
 12  2  1  0  0  0
 16  2  1  0  0  0
  3 13  1  0  0  0
 14  3  1  0  0  0
  4  6  1  0  0  0
 10  5  1  0  0  0
  6  7  1  0  0  0
  7  8  1  0  0  0
  8  9  1  0  0  0
  8 10  1  0  0  0
 10  9  1  0  0  0
 11 19  1  0  0  0
 11 20  2  0  0  0
 21 11  1  0  0  0
 16 12  1  0  0  0
 13 17  1  0  0  0
 18 14  1  0  0  0
 17 15  1  0  0  0
 15 21  1  0  0  0
 16 18  1  0  0  0
 17 18  1  0  0  0
 18 19  1  0  0  0
  2 22  1  0  0  0
  5 23  1  0  0  0
  5 24  1  0  0  0
  5 25  1  0  0  0
  6 26  1  0  0  0
  7 27  1  0  0  0
  7 28  1  0  0  0
  8 29  1  0  0  0
  9 30  1  0  0  0
  9 31  1  0  0  0
 10 32  1  0  0  0
 12 33  1  0  0  0
 12 34  1  0  0  0
 13 35  1  0  0  0
 13 36  1  0  0  0
 14 37  1  0  0  0
 14 38  1  0  0  0
 15 39  1  0  0  0
 15 40  1  0  0  0
 16 41  1  0  0  0
 17 42  1  0  0  0
 19 43  1  0  0  0
 20 44  1  0  0  0
M  END
$$$$
