4q1e_ligand
  -I-interpret- 

 51 53  0  0  0  0  0  0  0  0999 V2000
   27.4870    0.2790  -13.8670 F   0  0  0  0  0
   27.3440    1.1740  -12.9220 C   0  0  0  0  0
   25.9030    1.1010  -12.5490 C   0  0  0  0  0
   25.8300    1.9160  -11.3640 O   0  0  0  0  0
   24.6850    1.7480  -10.6820 C   0  0  0  0  0
   24.2090    0.4700  -10.3770 C   0  0  0  0  0
   24.0120    2.9110  -10.2660 C   0  0  0  0  0
   24.5460    4.1070  -10.6090 O   0  0  0  0  0
   24.0330    5.3370  -10.0440 C   0  0  0  0  0
   22.8380    2.7850   -9.5480 C   0  0  0  0  0
   22.3680    1.5200   -9.2620 C   0  0  0  0  0
   23.0400    0.3660   -9.6610 C   0  0  0  0  0
   22.5360   -0.8250   -9.3500 C   0  0  0  0  0
   22.7460   -2.0110   -9.9720 N   0  0  0  0  0
   21.5890   -0.9940   -8.1510 S   0  0  0  0  0
   21.3530   -2.5440   -8.3070 C   0  0  0  0  0
   20.4650   -3.3680   -7.3990 C   0  0  0  0  0
   22.0540   -2.9990   -9.3570 C   0  0  0  0  0
   22.0360   -4.5010   -9.7600 C   0  0  0  0  0
   21.5240   -4.7030  -11.2010 C   0  0  0  0  0
   23.6660   -5.2460   -9.5660 S   0  0  0  0  0
   23.2940   -6.9640   -9.3310 C   0  0  0  0  0
   22.0120   -7.3890   -9.3690 N   0  0  0  0  0
   24.2930   -7.8380   -9.0860 N   0  0  0  0  0
   24.0070   -9.1570   -8.9210 C   0  0  0  0  0
   25.0090  -10.0020   -8.6890 N   0  0  0  0  0
   22.6980   -9.6190   -8.9690 C   0  0  0  0  0
   21.6870   -8.6770   -9.1990 C   0  0  0  0  0
   20.4070   -9.0240   -9.2310 N   0  0  0  0  0
   27.6274    2.1711  -13.2591 H   0  0  0  0  0
   27.9955    0.9754  -12.0710 H   0  0  0  0  0
   25.5632    0.0794  -12.3791 H   0  0  0  0  0
   25.2441    1.4524  -13.3430 H   0  0  0  0  0
   24.7499   -0.4202  -10.6981 H   0  0  0  0  0
   22.9796    5.4429  -10.3033 H   0  0  0  0  0
   24.1406    5.3099   -8.9597 H   0  0  0  0  0
   24.5939    6.1812  -10.4450 H   0  0  0  0  0
   22.2937    3.6684   -9.2140 H   0  0  0  0  0
   21.4373    1.4193   -8.7037 H   0  0  0  0  0
   20.8342   -3.3032   -6.3755 H   0  0  0  0  0
   19.4458   -2.9843   -7.4439 H   0  0  0  0  0
   20.4779   -4.4077   -7.7262 H   0  0  0  0  0
   21.3418   -5.0022   -9.0854 H   0  0  0  0  0
   20.5088   -4.3146  -11.2823 H   0  0  0  0  0
   22.1748   -4.1703  -11.8945 H   0  0  0  0  0
   21.5279   -5.7663  -11.4409 H   0  0  0  0  0
   25.9670   -9.6555   -8.6383 H   0  0  0  0  0
   24.8188  -10.9960   -8.5620 H   0  0  0  0  0
   22.4660  -10.6753   -8.8328 H   0  0  0  0  0
   19.6900   -8.3147   -9.3831 H   0  0  0  0  0
   20.1399  -10.0001   -9.1035 H   0  0  0  0  0
  1  2  1  0  0  0
  2  3  1  0  0  0
  3  4  1  0  0  0
  4  5  1  0  0  0
  5  6  4  0  0  0
  5  7  4  0  0  0
  6 12  4  0  0  0
  7  8  1  0  0  0
  7 10  4  0  0  0
  8  9  1  0  0  0
 10 11  4  0  0  0
 11 12  4  0  0  0
 12 13  1  0  0  0
 13 14  4  0  0  0
 13 15  4  0  0  0
 14 18  4  0  0  0
 15 16  4  0  0  0
 16 17  1  0  0  0
 16 18  4  0  0  0
 18 19  1  0  0  0
 19 20  1  0  0  0
 19 21  1  0  0  0
 21 22  1  0  0  0
 22 23  4  0  0  0
 22 24  4  0  0  0
 23 28  4  0  0  0
 24 25  4  0  0  0
 25 26  1  0  0  0
 25 27  4  0  0  0
 27 28  4  0  0  0
 28 29  1  0  0  0
  2 30  1  0  0  0
  2 31  1  0  0  0
  3 32  1  0  0  0
  3 33  1  0  0  0
  6 34  1  0  0  0
  9 35  1  0  0  0
  9 36  1  0  0  0
  9 37  1  0  0  0
 10 38  1  0  0  0
 11 39  1  0  0  0
 17 40  1  0  0  0
 17 41  1  0  0  0
 17 42  1  0  0  0
 19 43  1  0  0  0
 20 44  1  0  0  0
 20 45  1  0  0  0
 20 46  1  0  0  0
 26 47  1  0  0  0
 26 48  1  0  0  0
 27 49  1  0  0  0
 29 50  1  0  0  0
 29 51  1  0  0  0
M  END
$$$$
