4g2r_ligand
  -I-interpret- 

 35 36  0  0  0  0  0  0  0  0999 V2000
  -32.3040  -24.4510   63.7820 O   0  0  0  0  0
  -32.7770  -25.6300   63.7910 C   0  0  0  0  0
  -32.2030  -26.5370   64.4610 O   0  0  0  0  0
  -34.0300  -25.9710   63.0380 C   0  0  0  0  0
  -35.1810  -25.7240   63.9560 C   0  0  0  0  0
  -34.2120  -25.1880   61.9170 O   0  0  0  0  0
  -33.7010  -25.4820   60.6720 C   0  0  0  0  0
  -34.2470  -24.8280   59.5740 C   0  0  0  0  0
  -33.7570  -25.0880   58.3110 C   0  0  0  0  0
  -32.6630  -26.3910   60.5160 C   0  0  0  0  0
  -32.1760  -26.6540   59.2450 C   0  0  0  0  0
  -32.7310  -26.0170   58.1460 C   0  0  0  0  0
  -32.2060  -26.2650   56.8900 O   0  0  0  0  0
  -33.0070  -26.9410   55.9840 C   0  0  0  0  0
  -34.3270  -27.1370   56.1650 N   0  0  0  0  0
  -35.0550  -27.8070   55.2720 C   0  0  0  0  0
  -34.4790  -28.2890   54.1020 C   0  0  0  0  0
  -35.3270  -29.0370   53.1270 C   0  0  0  0  0
  -34.6210  -29.2090   52.0120 F   0  0  0  0  0
  -36.4410  -28.3380   52.9020 F   0  0  0  0  0
  -35.6350  -30.2360   53.6310 F   0  0  0  0  0
  -33.1070  -28.0910   53.8810 C   0  0  0  0  0
  -32.3600  -27.4070   54.8500 C   0  0  0  0  0
  -30.6480  -27.0940   54.7140 Cl  0  0  0  0  0
  -32.8543  -23.8908   63.2298 H   0  0  0  0  0
  -33.9563  -27.0078   62.7098 H   0  0  0  0  0
  -35.2060  -24.6692   64.2297 H   0  0  0  0  0
  -36.1098  -25.9921   63.4524 H   0  0  0  0  0
  -35.0647  -26.3310   64.8539 H   0  0  0  0  0
  -35.0585  -24.1131   59.7102 H   0  0  0  0  0
  -34.1703  -24.5693   57.4460 H   0  0  0  0  0
  -32.2354  -26.8927   61.3841 H   0  0  0  0  0
  -31.3575  -27.3610   59.1099 H   0  0  0  0  0
  -36.1146  -27.9791   55.4612 H   0  0  0  0  0
  -32.6315  -28.4621   52.9731 H   0  0  0  0  0
  1  2  1  0  0  0
  2  3  2  0  0  0
  2  4  1  0  0  0
  4  5  1  0  0  0
  4  6  1  0  0  0
  6  7  1  0  0  0
  7  8  4  0  0  0
  7 10  4  0  0  0
  8  9  4  0  0  0
  9 12  4  0  0  0
 10 11  4  0  0  0
 11 12  4  0  0  0
 12 13  1  0  0  0
 13 14  1  0  0  0
 14 15  4  0  0  0
 14 23  4  0  0  0
 15 16  4  0  0  0
 16 17  4  0  0  0
 17 18  1  0  0  0
 17 22  4  0  0  0
 18 19  1  0  0  0
 18 20  1  0  0  0
 18 21  1  0  0  0
 22 23  4  0  0  0
 23 24  1  0  0  0
  1 25  1  0  0  0
  4 26  1  0  0  0
  5 27  1  0  0  0
  5 28  1  0  0  0
  5 29  1  0  0  0
  8 30  1  0  0  0
  9 31  1  0  0  0
 10 32  1  0  0  0
 11 33  1  0  0  0
 16 34  1  0  0  0
 22 35  1  0  0  0
M  END
$$$$
