5oh7_ligand
  -I-interpret- 

 11 11  0  0  0  0  0  0  0  0999 V2000
   21.3620   15.0440   -7.2390 O   0  0  0  0  0
   22.4660   15.6960   -7.3290 C   0  0  0  0  0
   22.7810   16.8650   -6.4780 C   0  0  0  0  0
   24.1200   17.1340   -6.9370 N   0  0  0  0  0
   23.4080   15.3090   -8.2140 N   0  0  0  0  0
   24.4070   16.2250   -7.9000 C   0  0  0  0  0
   25.5300   16.2640   -8.4550 O   0  0  0  0  0
   22.6928   16.6867   -5.4063 H   0  0  0  0  0
   22.0882   17.7008   -6.5756 H   0  0  0  0  0
   24.7377   17.8722   -6.5994 H   0  0  0  0  0
   23.3923   14.5632   -8.9096 H   0  0  0  0  0
  1  2  2  0  0  0
  2  3  1  0  0  0
  2  5  1  0  0  0
  3  4  1  0  0  0
  4  6  1  0  0  0
  5  6  1  0  0  0
  6  7  2  0  0  0
  3  8  1  0  0  0
  3  9  1  0  0  0
  4 10  1  0  0  0
  5 11  1  0  0  0
M  END
$$$$
