2nxm_ligand
  -I-interpret- 

122123  0  0  0  0  0  0  0  0999 V2000
    0.0580    5.8630    5.8340 N   0  3  0  0  0
    0.9860    6.2260    6.9530 C   0  0  0  0  0
    1.8180    5.0310    7.4290 C   0  0  0  0  0
    1.8160    3.9720    6.7840 O   0  0  0  0  0
    0.2030    6.8310    8.0970 C   0  0  0  0  0
    2.5390    5.1970    8.5370 N   0  0  0  0  0
    3.4970    4.1670    8.9570 C   0  0  0  0  0
    3.3840    3.7050   10.4200 C   0  0  0  0  0
    3.2580    4.5030   11.3510 O   0  0  0  0  0
    4.9370    4.5620    8.6040 C   0  0  0  0  0
    5.2260    4.7850    7.1250 C   0  0  0  0  0
    5.3610    3.4910    6.3360 C   0  0  0  0  0
    5.8790    2.4900    6.8340 O   0  0  0  0  0
    4.9180    3.5170    5.0800 N   0  0  0  0  0
    3.4710    2.3890   10.5920 N   0  0  0  0  0
    2.9660    1.7080   11.7790 C   0  0  0  0  0
    3.9720    0.6410   12.2570 C   0  0  0  0  0
    4.0030   -0.4760   11.7430 O   0  0  0  0  0
    1.5660    1.1330   11.4640 C   0  0  0  0  0
    0.7690    2.1570   10.8510 O   0  0  0  0  0
    0.8650    0.6550   12.7160 C   0  0  0  0  0
    4.8270    1.0110   13.2080 N   0  0  0  0  0
    6.0270    0.2240   13.5100 C   0  0  0  0  0
    5.8740   -0.6410   14.7610 C   0  0  0  0  0
    6.7350   -0.7050   15.6530 O   0  0  0  0  0
    7.2770    1.1090   13.5490 C   0  0  0  0  0
    7.4270    1.9940   12.3400 C   0  0  0  0  0
    7.1130    3.3520   12.4110 C   0  0  0  0  0
    7.8630    1.4710   11.1250 C   0  0  0  0  0
    7.2250    4.1740   11.2940 C   0  0  0  0  0
    7.9940    2.2920   10.0110 C   0  0  0  0  0
    7.6740    3.6460   10.0920 C   0  0  0  0  0
    4.7480   -1.3350   14.8000 N   0  0  0  0  0
    4.6170   -2.4830   15.6700 C   0  0  0  0  0
    5.7550   -3.4780   15.4040 C   0  0  0  0  0
    6.0270   -3.8690   14.2600 O   0  0  0  0  0
    3.2410   -3.1160   15.4720 C   0  0  0  0  0
    3.1090   -4.4770   16.0940 C   0  0  0  0  0
    2.9930   -4.6170   17.4690 C   0  0  0  0  0
    3.1190   -5.6220   15.3100 C   0  0  0  0  0
    2.8780   -5.8600   18.0470 C   0  0  0  0  0
    3.0180   -6.8810   15.8840 C   0  0  0  0  0
    2.8920   -6.9850   17.2540 C   0  0  0  0  0
    2.7640   -8.2160   17.8420 O   0  0  0  0  0
    6.4560   -3.8370   16.4710 N   0  0  0  0  0
    7.4680   -4.8860   16.3980 C   0  0  0  0  0
    7.1240   -5.9850   17.3860 C   0  0  0  0  0
    6.9410   -5.7520   18.5920 O   0  0  0  0  0
    8.9200   -4.3680   16.6010 C   0  0  0  0  0
    9.8660   -5.5080   16.9800 C   0  0  0  0  0
    9.4160   -3.6500   15.3430 C   0  0  0  0  0
    7.0260   -7.1870   16.8330 N   0  0  0  0  0
    6.7400   -8.3850   17.5950 C   0  0  0  0  0
    8.0220   -9.2260   17.6540 C   0  0  0  0  0
    8.4760   -9.7720   16.6410 O   0  0  0  0  0
    5.5520   -9.1100   16.9510 C   0  0  0  0  0
    5.5350  -10.6010   17.2270 C   0  0  0  0  0
    5.9980  -11.0200   18.3120 O   0  0  0  0  0
    5.0420  -11.3470   16.3480 O   0  0  0  0  0
    8.5840   -9.3190   18.8600 N   0  0  0  0  0
    9.9140   -9.8770   19.0730 C   0  0  0  0  0
    9.9080  -11.2750   19.6600 C   0  0  0  0  0
   10.9510  -11.7880   20.0830 O   0  0  0  0  0
    8.7681  -11.9575   19.7208 O   0  0  0  0  0
   -0.4722    6.6876    5.5525 H   0  0  0  0  0
    0.6008    5.5195    5.0416 H   0  0  0  0  0
   -0.5840    5.1356    6.1488 H   0  0  0  0  0
    1.6912    6.9650    6.5727 H   0  0  0  0  0
   -0.4686    6.0801    8.5131 H   0  0  0  0  0
    0.8937    7.1703    8.8690 H   0  0  0  0  0
   -0.3783    7.6770    7.7304 H   0  0  0  0  0
    2.4249    6.0429    9.0955 H   0  0  0  0  0
    3.2137    3.2886    8.3772 H   0  0  0  0  0
    5.5677    3.7297    8.9166 H   0  0  0  0  0
    5.1225    5.5153    9.0989 H   0  0  0  0  0
    6.1750    5.3161    7.0513 H   0  0  0  0  0
    4.3871    5.3404    6.7056 H   0  0  0  0  0
    5.0016    2.6874    4.4924 H   0  0  0  0  0
    4.4952    4.3665    4.7058 H   0  0  0  0  0
    3.9109    1.8305    9.8606 H   0  0  0  0  0
    2.8573    2.4073   12.6080 H   0  0  0  0  0
    1.6913    0.2815   10.7951 H   0  0  0  0  0
   -0.1025    1.8067   10.6525 H   0  0  0  0  0
    1.4601   -0.1267   13.1881 H   0  0  0  0  0
    0.7469    1.4904   13.4062 H   0  0  0  0  0
   -0.1155    0.2581   12.4529 H   0  0  0  0  0
    4.6431    1.8621   13.7392 H   0  0  0  0  0
    6.1588   -0.4814   12.6895 H   0  0  0  0  0
    8.1439    0.4490   13.5805 H   0  0  0  0  0
    7.1909    1.7580   14.4205 H   0  0  0  0  0
    6.7746    3.7754   13.3567 H   0  0  0  0  0
    8.1031    0.4106   11.0471 H   0  0  0  0  0
    6.9609    5.2293   11.3630 H   0  0  0  0  0
    8.3490    1.8745    9.0688 H   0  0  0  0  0
    7.7759    4.2866    9.2160 H   0  0  0  0  0
    3.9637   -1.0573   14.2100 H   0  0  0  0  0
    4.6963   -2.1731   16.7120 H   0  0  0  0  0
    3.0858   -3.2308   14.3992 H   0  0  0  0  0
    2.5101   -2.4653   15.9521 H   0  0  0  0  0
    2.9930   -3.7289   18.1010 H   0  0  0  0  0
    3.2075   -5.5309   14.2274 H   0  0  0  0  0
    2.7762   -5.9536   19.1282 H   0  0  0  0  0
    3.0379   -7.7754   15.2614 H   0  0  0  0  0
    2.6877   -8.1088   18.7929 H   0  0  0  0  0
    6.2842   -3.3701   17.3615 H   0  0  0  0  0
    7.4514   -5.2854   15.3840 H   0  0  0  0  0
    8.9097   -3.6546   17.4251 H   0  0  0  0  0
    9.5267   -5.9664   17.9089 H   0  0  0  0  0
    9.8703   -6.2542   16.1855 H   0  0  0  0  0
   10.8730   -5.1132   17.1148 H   0  0  0  0  0
    9.4016   -4.3426   14.5014 H   0  0  0  0  0
    8.7645   -2.8027   15.1291 H   0  0  0  0  0
   10.4337   -3.2954   15.5060 H   0  0  0  0  0
    7.1581   -7.2713   15.8251 H   0  0  0  0  0
    6.4477   -8.1658   18.6220 H   0  0  0  0  0
    5.6312   -8.9764   15.8721 H   0  0  0  0  0
    4.6406   -8.6872   17.3738 H   0  0  0  0  0
    4.7512  -10.8143   15.6041 H   0  0  0  0  0
    8.0602   -8.9850   19.6690 H   0  0  0  0  0
   10.4268   -9.2294   19.7842 H   0  0  0  0  0
   10.3999   -9.9368   18.0991 H   0  0  0  0  0
    8.0577  -11.4250   19.3556 H   0  0  0  0  0
  2  1  1  0  0  0
  2  5  1  0  0  0
  3  2  1  0  0  0
  3  4  2  0  0  0
  7  6  1  0  0  0
  7 10  1  0  0  0
  8  7  1  0  0  0
  8  9  2  0  0  0
 10 11  1  0  0  0
 11 12  1  0  0  0
 12 14  1  0  0  0
 12 13  2  0  0  0
  6  3  1  0  0  0
 16 15  1  0  0  0
 16 19  1  0  0  0
 17 16  1  0  0  0
 17 18  2  0  0  0
 19 21  1  0  0  0
 19 20  1  0  0  0
 15  8  1  0  0  0
 23 22  1  0  0  0
 23 26  1  0  0  0
 24 23  1  0  0  0
 24 25  2  0  0  0
 26 27  1  0  0  0
 27 28  4  0  0  0
 27 29  4  0  0  0
 29 31  4  0  0  0
 31 32  4  0  0  0
 30 32  4  0  0  0
 28 30  4  0  0  0
 22 17  1  0  0  0
 34 33  1  0  0  0
 34 37  1  0  0  0
 35 34  1  0  0  0
 35 36  2  0  0  0
 37 38  1  0  0  0
 38 39  4  0  0  0
 38 40  4  0  0  0
 40 42  4  0  0  0
 42 43  4  0  0  0
 43 44  1  0  0  0
 41 43  4  0  0  0
 39 41  4  0  0  0
 33 24  1  0  0  0
 46 45  1  0  0  0
 46 49  1  0  0  0
 47 46  1  0  0  0
 47 48  2  0  0  0
 49 51  1  0  0  0
 49 50  1  0  0  0
 45 35  1  0  0  0
 53 52  1  0  0  0
 53 56  1  0  0  0
 54 53  1  0  0  0
 54 55  2  0  0  0
 56 57  1  0  0  0
 57 58  2  0  0  0
 57 59  1  0  0  0
 52 47  1  0  0  0
 60 61  1  0  0  0
 61 62  1  0  0  0
 62 63  2  0  0  0
 54 60  1  0  0  0
 62 64  1  0  0  0
  1 65  1  0  0  0
  1 66  1  0  0  0
  1 67  1  0  0  0
  2 68  1  0  0  0
  5 69  1  0  0  0
  5 70  1  0  0  0
  5 71  1  0  0  0
  6 72  1  0  0  0
  7 73  1  0  0  0
 10 74  1  0  0  0
 10 75  1  0  0  0
 11 76  1  0  0  0
 11 77  1  0  0  0
 14 78  1  0  0  0
 14 79  1  0  0  0
 15 80  1  0  0  0
 16 81  1  0  0  0
 19 82  1  0  0  0
 20 83  1  0  0  0
 21 84  1  0  0  0
 21 85  1  0  0  0
 21 86  1  0  0  0
 22 87  1  0  0  0
 23 88  1  0  0  0
 26 89  1  0  0  0
 26 90  1  0  0  0
 28 91  1  0  0  0
 29 92  1  0  0  0
 30 93  1  0  0  0
 31 94  1  0  0  0
 32 95  1  0  0  0
 33 96  1  0  0  0
 34 97  1  0  0  0
 37 98  1  0  0  0
 37 99  1  0  0  0
 39100  1  0  0  0
 40101  1  0  0  0
 41102  1  0  0  0
 42103  1  0  0  0
 44104  1  0  0  0
 45105  1  0  0  0
 46106  1  0  0  0
 49107  1  0  0  0
 50108  1  0  0  0
 50109  1  0  0  0
 50110  1  0  0  0
 51111  1  0  0  0
 51112  1  0  0  0
 51113  1  0  0  0
 52114  1  0  0  0
 53115  1  0  0  0
 56116  1  0  0  0
 56117  1  0  0  0
 59118  1  0  0  0
 60119  1  0  0  0
 61120  1  0  0  0
 61121  1  0  0  0
 64122  1  0  0  0
M  END
$$$$
