### 
### Created by X-TOOL on Mon Sep 10 21:12:55 2018
### 

@<TRIPOS>MOLECULE
2nxm_ligand
  121   122     1     0     0
SMALL
GAST_HUCK


@<TRIPOS>ATOM
      1 N           0.0580    5.8630    5.8340 N.4       1 ALA         0.2377
      2 CA          0.9860    6.2260    6.9530 C.3       1 ALA         0.0621
      3 C           1.8180    5.0310    7.4290 C.2       1 ALA         0.2264
      4 O           1.8160    3.9720    6.7840 O.2       1 ALA        -0.3907
      5 CB          0.2030    6.8310    8.0970 C.3       1 ALA        -0.0040
      6 N           2.5390    5.1970    8.5370 N.am      1 GLN        -0.2609
      7 CA          3.4970    4.1670    8.9570 C.3       1 GLN         0.1331
      8 C           3.3840    3.7050   10.4200 C.2       1 GLN         0.2041
      9 O           3.2580    4.5030   11.3510 O.2       1 GLN        -0.3944
     10 CB          4.9370    4.5620    8.6040 C.3       1 GLN         0.0045
     11 CG          5.2260    4.7850    7.1250 C.3       1 GLN         0.0412
     12 CD          5.3610    3.4910    6.3360 C.2       1 GLN         0.1737
     13 OE1         5.8790    2.4900    6.8340 O.2       1 GLN        -0.3973
     14 NE2         4.9180    3.5170    5.0800 N.am      1 GLN        -0.3009
     15 N           3.4710    2.3890   10.5920 N.am      1 THR        -0.2613
     16 CA          2.9660    1.7080   11.7790 C.3       1 THR         0.1565
     17 C           3.9720    0.6410   12.2570 C.2       1 THR         0.2066
     18 O           4.0030   -0.4760   11.7430 O.2       1 THR        -0.3943
     19 CB          1.5660    1.1330   11.4640 C.3       1 THR         0.0924
     20 OG1         0.7690    2.1570   10.8510 O.3       1 THR        -0.3874
     21 CG2         0.8650    0.6550   12.7160 C.3       1 THR        -0.0346
     22 N           4.8270    1.0110   13.2080 N.am      1 PHE        -0.2619
     23 CA          6.0270    0.2240   13.5100 C.3       1 PHE         0.1404
     24 C           5.8740   -0.6410   14.7610 C.2       1 PHE         0.2061
     25 O           6.7350   -0.7050   15.6530 O.2       1 PHE        -0.3942
     26 CB          7.2770    1.1090   13.5490 C.3       1 PHE         0.0214
     27 CG          7.4270    1.9940   12.3400 C.ar      1 PHE        -0.0386
     28 CD1         7.1130    3.3520   12.4110 C.ar      1 PHE        -0.0601
     29 CD2         7.8630    1.4710   11.1250 C.ar      1 PHE        -0.0601
     30 CE1         7.2250    4.1740   11.2940 C.ar      1 PHE        -0.0686
     31 CE2         7.9940    2.2920   10.0110 C.ar      1 PHE        -0.0686
     32 CZ          7.6740    3.6460   10.0920 C.ar      1 PHE        -0.0687
     33 N           4.7480   -1.3350   14.8000 N.am      1 TYR        -0.2620
     34 CA          4.6170   -2.4830   15.6700 C.3       1 TYR         0.1390
     35 C           5.7550   -3.4780   15.4040 C.2       1 TYR         0.2057
     36 O           6.0270   -3.8690   14.2600 O.2       1 TYR        -0.3942
     37 CB          3.2410   -3.1160   15.4720 C.3       1 TYR         0.0163
     38 CG          3.1090   -4.4770   16.0940 C.ar      1 TYR        -0.0493
     39 CD1         2.9930   -4.6170   17.4690 C.ar      1 TYR        -0.0685
     40 CD2         3.1190   -5.6220   15.3100 C.ar      1 TYR        -0.0685
     41 CE1         2.8780   -5.8600   18.0470 C.ar      1 TYR        -0.0398
     42 CE2         3.0180   -6.8810   15.8840 C.ar      1 TYR        -0.0398
     43 CZ          2.8920   -6.9850   17.2540 C.ar      1 TYR         0.0805
     44 OH          2.7640   -8.2160   17.8420 O.3       1 TYR        -0.3376
     45 N           6.4560   -3.8370   16.4710 N.am      1 VAL        -0.2633
     46 CA          7.4680   -4.8860   16.3980 C.3       1 VAL         0.1333
     47 C           7.1240   -5.9850   17.3860 C.2       1 VAL         0.2042
     48 O           6.9410   -5.7520   18.5920 O.2       1 VAL        -0.3944
     49 CB          8.9200   -4.3680   16.6010 C.3       1 VAL        -0.0063
     50 CG1         9.8660   -5.5080   16.9800 C.3       1 VAL        -0.0584
     51 CG2         9.4160   -3.6500   15.3430 C.3       1 VAL        -0.0584
     52 N           7.0260   -7.1870   16.8330 N.am      1 ASP        -0.2622
     53 CA          6.7400   -8.3850   17.5950 C.3       1 ASP         0.1423
     54 C           8.0220   -9.2260   17.6540 C.2       1 ASP         0.2055
     55 O           8.4760   -9.7720   16.6410 O.2       1 ASP        -0.3943
     56 CB          5.5520   -9.1100   16.9510 C.3       1 ASP         0.0406
     57 CG          5.5350  -10.6010   17.2270 C.2       1 ASP         0.0393
     58 OD1         5.9980  -11.0200   18.3120 O.co2     1 ASP        -0.5688
     59 OD2         5.0420  -11.3470   16.3480 O.co2     1 ASP        -0.5688
     60 N           8.5840   -9.3190   18.8600 N.am      1 GLY        -0.2650
     61 CA          9.9140   -9.8770   19.0730 C.3       1 GLY         0.1312
     62 C           9.9080  -11.2750   19.6600 C.2       1 GLY         0.2539
     63 O          10.9510  -11.7880   20.0830 O.2       1 GLY        -0.3683
     64 O1          8.7681  -11.9575   19.7208 O.3       1 GLY        -0.2912
     65 H1         -0.4666    6.6773    5.5550 H         1 ALA         0.2015
     66 H2         -0.5771    5.1442    6.1439 H         1 ALA         0.2015
     67 H3          0.5933    5.5234    5.0503 H         1 ALA         0.2015
     68 H4          1.6841    6.9883    6.5769 H         1 ALA         0.1095
     69 H5          0.8913    7.0944    8.9136 H         1 ALA         0.0310
     70 H6         -0.5362    6.1024    8.4612 H         1 ALA         0.0310
     71 H7         -0.3155    7.7362    7.7482 H         1 ALA         0.0310
     72 H8          2.4272    6.0263    9.0845 H         1 GLN         0.1885
     73 H9          3.2610    3.2808    8.3496 H         1 GLN         0.0801
     74 H10         5.6022    3.7614    8.9596 H         1 GLN         0.0337
     75 H11         5.1698    5.4958    9.1367 H         1 GLN         0.0337
     76 H12         6.1661    5.3489    7.0341 H         1 GLN         0.0504
     77 H13         4.4026    5.3728    6.6932 H         1 GLN         0.0504
     78 H14         4.9797    2.6970    4.5110 H         1 GLN         0.1814
     79 H15         4.5238    4.3565    4.7061 H         1 GLN         0.1814
     80 H16         3.9023    1.8415    9.8749 H         1 THR         0.1884
     81 H17         2.8555    2.4471   12.5862 H         1 THR         0.0826
     82 H18         1.6751    0.2869   10.7696 H         1 THR         0.0639
     83 H19         1.2014    2.4640   10.0629 H         1 THR         0.2101
     84 H20        -0.1247    0.2541   12.4517 H         1 THR         0.0257
     85 H21         0.7451    1.4972   13.4134 H         1 THR         0.0257
     86 H22         1.4646   -0.1340   13.1934 H         1 THR         0.0257
     87 H23         4.6467    1.8454   13.7288 H         1 PHE         0.1885
     88 H24         6.1631   -0.4729   12.6699 H         1 PHE         0.0823
     89 H25         8.1616    0.4586   13.6157 H         1 PHE         0.0474
     90 H26         7.2231    1.7477   14.4429 H         1 PHE         0.0474
     91 H27         6.7765    3.7731   13.3515 H         1 PHE         0.0557
     92 H28         8.1018    0.4165   11.0476 H         1 PHE         0.0557
     93 H29         6.9623    5.2235   11.3626 H         1 PHE         0.0599
     94 H30         8.3470    1.8768    9.0740 H         1 PHE         0.0599
     95 H31         7.7753    4.2831    9.2208 H         1 PHE         0.0559
     96 H32         3.9791   -1.0627   14.2215 H         1 TYR         0.1885
     97 H33         4.6943   -2.1450   16.7139 H         1 TYR         0.0821
     98 H34         3.0527   -3.2077   14.3921 H         1 TYR         0.0453
     99 H35         2.4860   -2.4540   15.9210 H         1 TYR         0.0453
    100 H36         2.9930   -3.7338   18.0975 H         1 TYR         0.0530
    101 H37         3.2070   -5.5314   14.2334 H         1 TYR         0.0530
    102 H38         2.7768   -5.9531   19.1222 H         1 TYR         0.0525
    103 H39         3.0378   -7.7705   15.2648 H         1 TYR         0.0525
    104 H40         2.6885   -8.1099   18.7831 H         1 TYR         0.2458
    105 H41         6.2876   -3.3793   17.3440 H         1 VAL         0.1883
    106 H42         7.4208   -5.3171   15.3871 H         1 VAL         0.0802
    107 H43         8.9110   -3.6434   17.4285 H         1 VAL         0.0343
    108 H44        10.8827   -5.1108   17.1164 H         1 VAL         0.0234
    109 H45         9.8713   -6.2618   16.1789 H         1 VAL         0.0234
    110 H46         9.5247   -5.9715   17.9174 H         1 VAL         0.0234
    111 H47         8.7223   -2.8351   15.0884 H         1 VAL         0.0234
    112 H48         9.4645   -4.3645   14.5081 H         1 VAL         0.0234
    113 H49        10.4174   -3.2344   15.5287 H         1 VAL         0.0234
    114 H50         7.1555   -7.2696   15.8449 H         1 ASP         0.1884
    115 H51         6.4589   -8.1074   18.6216 H         1 ASP         0.0819
    116 H52         5.5987   -8.9574   15.8626 H         1 ASP         0.0478
    117 H53         4.6222   -8.6722   17.3431 H         1 ASP         0.0478
    118 H54         8.0705   -8.9915   19.6531 H         1 GLY         0.1882
    119 H55        10.4610   -9.2152   19.7606 H         1 GLY         0.0780
    120 H56        10.4345   -9.9105   18.1045 H         1 GLY         0.0780
    121 H57         8.0651  -11.4305   19.3594 H         1 GLY         0.2540
@<TRIPOS>BOND
     1    2    1 1  
     2    2    5 1  
     3    3    2 1  
     4    3    4 2  
     5    7    6 1  
     6    7   10 1  
     7    8    7 1  
     8    8    9 2  
     9   10   11 1  
    10   11   12 1  
    11   12   14 am 
    12   12   13 2  
    13    6    3 am 
    14   16   15 1  
    15   16   19 1  
    16   17   16 1  
    17   17   18 2  
    18   19   21 1  
    19   19   20 1  
    20   15    8 am 
    21   23   22 1  
    22   23   26 1  
    23   24   23 1  
    24   24   25 2  
    25   26   27 1  
    26   27   28 ar 
    27   27   29 ar 
    28   29   31 ar 
    29   31   32 ar 
    30   30   32 ar 
    31   28   30 ar 
    32   22   17 am 
    33   34   33 1  
    34   34   37 1  
    35   35   34 1  
    36   35   36 2  
    37   37   38 1  
    38   38   39 ar 
    39   38   40 ar 
    40   40   42 ar 
    41   42   43 ar 
    42   43   44 1  
    43   41   43 ar 
    44   39   41 ar 
    45   33   24 am 
    46   46   45 1  
    47   46   49 1  
    48   47   46 1  
    49   47   48 2  
    50   49   51 1  
    51   49   50 1  
    52   45   35 am 
    53   53   52 1  
    54   53   56 1  
    55   54   53 1  
    56   54   55 2  
    57   56   57 1  
    58   57   58 ar 
    59   57   59 ar 
    60   52   47 am 
    61   60   61 1  
    62   61   62 1  
    63   62   63 2  
    64   54   60 am 
    65   62   64 1  
    66    1   65 1  
    67    1   66 1  
    68    1   67 1  
    69    2   68 1  
    70    5   69 1  
    71    5   70 1  
    72    5   71 1  
    73    6   72 1  
    74    7   73 1  
    75   10   74 1  
    76   10   75 1  
    77   11   76 1  
    78   11   77 1  
    79   14   78 1  
    80   14   79 1  
    81   15   80 1  
    82   16   81 1  
    83   19   82 1  
    84   20   83 1  
    85   21   84 1  
    86   21   85 1  
    87   21   86 1  
    88   22   87 1  
    89   23   88 1  
    90   26   89 1  
    91   26   90 1  
    92   28   91 1  
    93   29   92 1  
    94   30   93 1  
    95   31   94 1  
    96   32   95 1  
    97   33   96 1  
    98   34   97 1  
    99   37   98 1  
   100   37   99 1  
   101   39  100 1  
   102   40  101 1  
   103   41  102 1  
   104   42  103 1  
   105   44  104 1  
   106   45  105 1  
   107   46  106 1  
   108   49  107 1  
   109   50  108 1  
   110   50  109 1  
   111   50  110 1  
   112   51  111 1  
   113   51  112 1  
   114   51  113 1  
   115   52  114 1  
   116   53  115 1  
   117   56  116 1  
   118   56  117 1  
   119   60  118 1  
   120   61  119 1  
   121   61  120 1  
   122   64  121 1  
@<TRIPOS>SUBSTRUCTURE
     1 ALA         1

