2c6o_ligand
  -I-interpret- 

 49 52  0  0  0  0  0  0  0  0999 V2000
   11.1610  -10.9210   12.0300 C   0  0  0  0  0
   14.5130   -9.3380   14.3240 C   0  0  0  0  0
   12.7990   -8.2390    9.1340 C   0  0  0  0  0
   13.6490   -7.0450    8.6870 C   0  0  0  0  0
   13.0310   -6.0320    7.7410 C   0  0  0  0  0
   13.7020   -4.6620    7.9730 C   0  0  0  0  0
   15.2210   -4.7530    7.7320 C   0  0  0  0  0
   15.8200   -6.1550    8.1270 C   0  0  0  0  0
   14.9100   -7.4130    7.9720 C   0  0  0  0  0
    7.4550  -12.0300    9.1550 C   0  0  0  0  0
    7.6260  -10.8820    8.3830 C   0  0  0  0  0
    8.6270   -9.9700    8.7320 C   0  0  0  0  0
    9.4620  -10.2110    9.8480 C   0  0  0  0  0
    7.2460   -9.6050    5.8070 N   0  0  0  0  0
   11.7660  -10.1610   11.0430 N   0  0  0  0  0
   12.8640   -9.4250   11.2830 C   0  0  0  0  0
   13.5020   -8.6820   10.3840 O   0  0  0  0  0
   13.4100   -9.5190   12.5370 C   0  0  0  0  0
   14.4690   -8.9600   13.0550 N   0  0  0  0  0
   13.4840  -10.1640   14.5740 N   0  0  0  0  0
   12.7740  -10.2850   13.5300 C   0  0  0  0  0
   11.6770  -10.9880   13.2900 N   0  0  0  0  0
   10.0330  -11.6130   11.7300 N   0  0  0  0  0
    9.2890  -11.3560   10.6390 C   0  0  0  0  0
    8.2740  -12.2530   10.2600 C   0  0  0  0  0
    6.5670  -10.5610    6.9880 S   0  0  0  0  0
    5.3870   -9.9200    7.6140 O   0  0  0  0  0
    6.2220  -11.7970    6.2810 O   0  0  0  0  0
   15.2648   -9.0279   15.0498 H   0  0  0  0  0
   12.7304   -9.0229    8.3798 H   0  0  0  0  0
   11.7524   -7.9827    9.2985 H   0  0  0  0  0
   13.7940   -6.6084    9.6752 H   0  0  0  0  0
   11.9601   -5.9557    7.9294 H   0  0  0  0  0
   13.1840   -6.3485    6.7092 H   0  0  0  0  0
   13.5262   -4.3531    9.0034 H   0  0  0  0  0
   13.2771   -3.9387    7.2770 H   0  0  0  0  0
   15.7029   -3.9977    8.3528 H   0  0  0  0  0
   15.3992   -4.6023    6.6673 H   0  0  0  0  0
   16.0371   -6.0858    9.1929 H   0  0  0  0  0
   16.6531   -6.3157    7.4427 H   0  0  0  0  0
   14.7313   -7.6647    6.9266 H   0  0  0  0  0
   15.3721   -8.3083    8.3880 H   0  0  0  0  0
    6.6815  -12.7524    8.8945 H   0  0  0  0  0
    8.7649   -9.0658    8.1391 H   0  0  0  0  0
   10.2489   -9.4987   10.0960 H   0  0  0  0  0
    6.8411   -8.6935    5.5934 H   0  0  0  0  0
    8.0670   -9.9306    5.2968 H   0  0  0  0  0
    9.7366  -12.3598   12.3584 H   0  0  0  0  0
    8.1226  -13.1554   10.8523 H   0  0  0  0  0
  1 15  4  0  0  0
  1 22  4  0  0  0
 23  1  1  0  0  0
  2 19  4  0  0  0
 20  2  4  0  0  0
  3  4  1  0  0  0
 17  3  1  0  0  0
  4  5  1  0  0  0
  4  9  1  0  0  0
  5  6  1  0  0  0
  6  7  1  0  0  0
  8  7  1  0  0  0
  9  8  1  0  0  0
 11 10  4  0  0  0
 10 25  4  0  0  0
 12 11  4  0  0  0
 11 26  1  0  0  0
 13 12  4  0  0  0
 24 13  4  0  0  0
 26 14  1  0  0  0
 15 16  4  0  0  0
 16 17  1  0  0  0
 16 18  4  0  0  0
 18 19  4  0  0  0
 21 18  4  0  0  0
 21 20  4  0  0  0
 22 21  4  0  0  0
 23 24  1  0  0  0
 24 25  4  0  0  0
 26 27  2  0  0  0
 26 28  2  0  0  0
  2 29  1  0  0  0
  3 30  1  0  0  0
  3 31  1  0  0  0
  4 32  1  0  0  0
  5 33  1  0  0  0
  5 34  1  0  0  0
  6 35  1  0  0  0
  6 36  1  0  0  0
  7 37  1  0  0  0
  7 38  1  0  0  0
  8 39  1  0  0  0
  8 40  1  0  0  0
  9 41  1  0  0  0
  9 42  1  0  0  0
 10 43  1  0  0  0
 12 44  1  0  0  0
 13 45  1  0  0  0
 14 46  1  0  0  0
 14 47  1  0  0  0
 23 48  1  0  0  0
 25 49  1  0  0  0
M  END
$$$$
