4pum_ligand
  -I-interpret- 

 25 27  0  0  0  0  0  0  0  0999 V2000
  106.3700   18.0110   18.1270 N   0  0  0  0  0
  108.3740   18.6750   18.8690 N   0  0  0  0  0
  107.5470   18.5190   17.8110 C   0  0  0  0  0
  107.1110   18.7890   15.4080 C   0  0  0  0  0
  107.6750   18.2560   19.9830 C   0  0  0  0  0
  107.9620   18.2580   21.3320 C   0  0  0  0  0
  106.9970   17.8670   22.2500 C   0  0  0  0  0
  104.9420   17.2700   23.9900 C   0  0  0  0  0
  105.7420   17.4260   21.8000 C   0  0  0  0  0
  105.4660   17.3960   20.4230 C   0  0  0  0  0
  106.4310   17.8370   19.5120 C   0  0  0  0  0
  107.9360   18.9040   16.5960 N   0  0  0  0  0
  107.2260   18.0050   23.6940 C   0  0  0  0  0
  108.2960   18.3480   24.1860 O   0  0  0  0  0
  106.1440   17.6990   24.4810 N   0  0  0  0  0
  103.9600   17.0640   24.8720 N   0  0  0  0  0
  104.7150   17.1060   22.6880 N   0  0  0  0  0
  106.8592   17.7415   15.2420 H   0  0  0  0  0
  106.1967   19.3665   15.5448 H   0  0  0  0  0
  107.6594   19.1729   14.5478 H   0  0  0  0  0
  108.9483   18.5672   21.6779 H   0  0  0  0  0
  104.5033   17.0303   20.0659 H   0  0  0  0  0
  108.8692   19.3033   16.4952 H   0  0  0  0  0
  104.1243   17.2269   25.8654 H   0  0  0  0  0
  103.8179   16.7572   22.3506 H   0  0  0  0  0
  1  3  4  0  0  0
 11  1  4  0  0  0
  2  3  4  0  0  0
  5  2  4  0  0  0
  3 12  1  0  0  0
 12  4  1  0  0  0
  6  5  4  0  0  0
  5 11  4  0  0  0
  7  6  4  0  0  0
  9  7  4  0  0  0
  7 13  1  0  0  0
  8 15  4  0  0  0
  8 16  2  0  0  0
 17  8  1  0  0  0
  9 10  4  0  0  0
  9 17  1  0  0  0
 10 11  4  0  0  0
 13 14  2  0  0  0
 13 15  1  0  0  0
  4 18  1  0  0  0
  4 19  1  0  0  0
  4 20  1  0  0  0
  6 21  1  0  0  0
 10 22  1  0  0  0
 12 23  1  0  0  0
 16 24  1  0  0  0
 17 25  1  0  0  0
M  END
$$$$
