4men_ligand
  -I-interpret- 

 37 39  0  0  0  0  0  0  0  0999 V2000
   31.0820   19.3430    1.8980 C   0  0  0  0  0
   31.2970   18.1320    1.0030 C   0  0  0  0  0
   30.1780   17.2880    0.7560 C   0  0  0  0  0
   32.5560   17.9440    0.4690 N   0  0  0  0  0
   32.7020   16.8720   -0.3260 C   0  0  0  0  0
   31.6120   15.9080   -0.6160 N   0  0  0  0  0
   32.0700   14.9240   -1.5370 N   0  0  0  0  0
   33.3680   15.3520   -1.7550 C   0  0  0  0  0
   33.7880   16.5210   -1.0460 N   0  0  0  0  0
   30.3410   16.1250   -0.0540 C   0  0  0  0  0
   29.2790   15.2550   -0.2050 N   0  0  0  0  0
   28.0770   15.4150    0.6790 C   0  0  0  0  0
   29.1330   14.5130   -1.4930 C   0  0  0  0  0
   28.7740   15.4210   -2.6400 C   0  0  0  0  0
   27.5100   16.0460   -2.6220 C   0  0  0  0  0
   27.1230   16.8670   -3.6770 C   0  0  0  0  0
   29.6210   15.6280   -3.7060 C   0  0  0  0  0
   29.1940   16.4520   -4.7730 C   0  0  0  0  0
   27.9140   17.0760   -4.7340 C   0  0  0  0  0
   27.4280   17.9410   -5.8700 C   0  0  0  0  0
   30.3251   19.9905    1.4554 H   0  0  0  0  0
   30.7486   19.0117    2.8815 H   0  0  0  0  0
   32.0188   19.8915    1.9963 H   0  0  0  0  0
   29.2041   17.5283    1.1824 H   0  0  0  0  0
   34.0375   14.8239   -2.4339 H   0  0  0  0  0
   28.3766   15.3040    1.7211 H   0  0  0  0  0
   27.6451   16.4042    0.5272 H   0  0  0  0  0
   27.3393   14.6527    0.4285 H   0  0  0  0  0
   28.3302   13.7854   -1.3743 H   0  0  0  0  0
   30.0891   14.0421   -1.7216 H   0  0  0  0  0
   26.8354   15.8859   -1.7809 H   0  0  0  0  0
   26.1480   17.3530   -3.6403 H   0  0  0  0  0
   30.6067   15.1632   -3.7270 H   0  0  0  0  0
   29.8482   16.6106   -5.6303 H   0  0  0  0  0
   26.5231   17.5063   -6.2946 H   0  0  0  0  0
   27.2110   18.9416   -5.4960 H   0  0  0  0  0
   28.1999   17.9981   -6.6375 H   0  0  0  0  0
  1  2  1  0  0  0
  2  3  4  0  0  0
  2  4  4  0  0  0
  3 10  4  0  0  0
  4  5  4  0  0  0
  5  6  4  0  0  0
  5  9  4  0  0  0
  6  7  4  0  0  0
  6 10  4  0  0  0
  7  8  4  0  0  0
  8  9  4  0  0  0
 10 11  1  0  0  0
 11 12  1  0  0  0
 11 13  1  0  0  0
 13 14  1  0  0  0
 14 15  4  0  0  0
 14 17  4  0  0  0
 15 16  4  0  0  0
 16 19  4  0  0  0
 17 18  4  0  0  0
 18 19  4  0  0  0
 19 20  1  0  0  0
  1 21  1  0  0  0
  1 22  1  0  0  0
  1 23  1  0  0  0
  3 24  1  0  0  0
  8 25  1  0  0  0
 12 26  1  0  0  0
 12 27  1  0  0  0
 12 28  1  0  0  0
 13 29  1  0  0  0
 13 30  1  0  0  0
 15 31  1  0  0  0
 16 32  1  0  0  0
 17 33  1  0  0  0
 18 34  1  0  0  0
 20 35  1  0  0  0
 20 36  1  0  0  0
 20 37  1  0  0  0
M  END
$$$$
