1w7h_ligand
  -I-interpret- 

 27 28  0  0  0  0  0  0  0  0999 V2000
   20.8130   34.3980   31.5280 N   0  0  0  0  0
   21.6460   33.9140   30.5300 C   0  0  0  0  0
   22.7270   34.6770   30.1470 N   0  0  0  0  0
   23.6300   34.2940   29.1670 C   0  0  0  0  0
   23.4700   33.0260   28.4780 C   0  0  0  0  0
   22.3300   32.1760   28.8490 C   0  0  0  0  0
   21.3830   32.6130   29.9010 C   0  0  0  0  0
   20.2520   31.8830   30.3440 O   0  0  0  0  0
   19.5410   30.9110   29.4900 C   0  0  0  0  0
   18.1040   30.7710   30.0040 C   0  0  0  0  0
   17.0350   31.6570   29.5080 C   0  0  0  0  0
   15.6590   31.5480   30.0020 C   0  0  0  0  0
   15.2930   30.5430   31.0160 C   0  0  0  0  0
   16.3560   29.6350   31.5320 C   0  0  0  0  0
   17.7490   29.7570   31.0210 C   0  0  0  0  0
   21.0073   35.3008   31.9612 H   0  0  0  0  0
   20.0062   33.8511   31.8287 H   0  0  0  0  0
   24.4641   34.9480   28.9126 H   0  0  0  0  0
   24.1751   32.7135   27.7078 H   0  0  0  0  0
   22.1806   31.2197   28.3478 H   0  0  0  0  0
   20.0449   29.9452   29.5269 H   0  0  0  0  0
   19.5342   31.2588   28.4570 H   0  0  0  0  0
   17.2732   32.4102   28.7569 H   0  0  0  0  0
   14.8946   32.2208   29.6132 H   0  0  0  0  0
   14.2685   30.4657   31.3801 H   0  0  0  0  0
   16.1140   28.8825   32.2825 H   0  0  0  0  0
   18.5203   29.0880   31.4026 H   0  0  0  0  0
  1  2  1  0  0  0
  2  3  4  0  0  0
  2  7  4  0  0  0
  3  4  4  0  0  0
  4  5  4  0  0  0
  5  6  4  0  0  0
  6  7  4  0  0  0
  7  8  1  0  0  0
  8  9  1  0  0  0
  9 10  1  0  0  0
 10 11  4  0  0  0
 10 15  4  0  0  0
 11 12  4  0  0  0
 12 13  4  0  0  0
 13 14  4  0  0  0
 14 15  4  0  0  0
  1 16  1  0  0  0
  1 17  1  0  0  0
  4 18  1  0  0  0
  5 19  1  0  0  0
  6 20  1  0  0  0
  9 21  1  0  0  0
  9 22  1  0  0  0
 11 23  1  0  0  0
 12 24  1  0  0  0
 13 25  1  0  0  0
 14 26  1  0  0  0
 15 27  1  0  0  0
M  END
$$$$
