2ohl_ligand
  -I-interpret- 

 19 20  0  0  0  0  0  0  0  0999 V2000
   65.9390   48.6290    6.0130 N   0  0  0  0  0
   66.6300   48.6680    7.0830 C   0  0  0  0  0
   66.9230   47.5020    7.7790 C   0  0  0  0  0
   67.6720   47.5720    8.9280 C   0  0  0  0  0
   68.1000   48.8100    9.3810 C   0  0  0  0  0
   68.8550   48.9590   10.5330 C   0  0  0  0  0
   69.2520   50.2120   10.9470 C   0  0  0  0  0
   68.9030   51.3310   10.2150 C   0  0  0  0  0
   68.1580   51.2020    9.0600 C   0  0  0  0  0
   67.7480   49.9540    8.6280 C   0  0  0  0  0
   67.0270   49.8790    7.5020 N   0  0  0  0  0
   65.5954   47.7358    5.6600 H   0  0  0  0  0
   65.7295   49.4910    5.5095 H   0  0  0  0  0
   66.5615   46.5398    7.4163 H   0  0  0  0  0
   67.9267   46.6653    9.4768 H   0  0  0  0  0
   69.1363   48.0811   11.1146 H   0  0  0  0  0
   69.8439   50.3210   11.8558 H   0  0  0  0  0
   69.2172   52.3192   10.5509 H   0  0  0  0  0
   67.8914   52.0890    8.4852 H   0  0  0  0  0
  1  2  1  0  0  0
  2  3  4  0  0  0
  2 11  4  0  0  0
  3  4  4  0  0  0
  4  5  4  0  0  0
  5  6  4  0  0  0
  5 10  4  0  0  0
  6  7  4  0  0  0
  7  8  4  0  0  0
  8  9  4  0  0  0
  9 10  4  0  0  0
 10 11  4  0  0  0
  1 12  1  0  0  0
  1 13  1  0  0  0
  3 14  1  0  0  0
  4 15  1  0  0  0
  6 16  1  0  0  0
  7 17  1  0  0  0
  8 18  1  0  0  0
  9 19  1  0  0  0
M  END
$$$$
