6s9w_ligand
  -I-interpret- 

 77 82  0  0  0  0  0  0  0  0999 V2000
  -17.7340  -16.3760    7.9260 C   0  0  0  0  0
  -18.1350  -15.4260    6.9970 C   0  0  0  0  0
  -16.8470  -13.7500    8.0440 C   0  0  0  0  0
  -16.4030  -14.6710    9.0190 C   0  0  0  0  0
  -16.4850  -12.3980    7.9830 C   0  0  0  0  0
  -15.5270  -14.3660   10.0700 C   0  0  0  0  0
  -16.6590  -11.5400    9.0660 C   0  0  0  0  0
  -16.2930  -10.2000    8.9630 C   0  0  0  0  0
  -15.7700   -9.7010    7.7720 C   0  0  0  0  0
  -15.6110  -10.5520    6.6870 C   0  0  0  0  0
  -15.9750  -11.8890    6.7930 C   0  0  0  0  0
  -15.8310  -14.7750   11.3670 C   0  0  0  0  0
  -14.9620  -14.4840   12.4200 C   0  0  0  0  0
  -13.7720  -13.7970   12.1830 C   0  0  0  0  0
  -13.4630  -13.4020   10.8900 C   0  0  0  0  0
  -14.3280  -13.6950    9.8440 C   0  0  0  0  0
  -12.8850  -13.4860   13.2160 C   0  0  0  0  0
  -11.8450  -15.6190   13.5860 C   0  0  0  0  0
  -11.6640  -16.7790   14.5480 C   0  0  0  0  0
  -11.0840  -16.2590   15.8570 C   0  0  0  0  0
  -11.9830  -15.1770   16.4300 C   0  0  0  0  0
  -12.1320  -14.0700   15.4070 C   0  0  0  0  0
  -11.6720  -18.3180   17.2750 C   0  0  0  0  0
   -9.7900  -18.5790   18.2750 C   0  0  0  0  0
   -9.7000  -17.5220   17.4630 C   0  0  0  0  0
   -8.7410  -18.9510   19.0170 C   0  0  0  0  0
   -7.5300  -18.2580   18.9600 C   0  0  0  0  0
   -7.4450  -17.1390   18.1310 C   0  0  0  0  0
   -8.5700  -16.8260   17.3770 C   0  0  0  0  0
   -5.5420  -15.7800   18.8450 C   0  0  0  0  0
   -5.7500  -16.0110   20.3510 C   0  0  0  0  0
   -4.3710  -16.1900   21.0010 C   0  0  0  0  0
  -19.0050  -15.7910    5.9730 C   0  0  0  0  0
  -17.6860  -14.1650    7.0800 N   0  0  0  0  0
  -16.8620  -15.9950    8.9490 N   0  0  0  0  0
  -12.7290  -14.5940   14.1670 N   0  3  0  0  0
  -10.8630  -17.3570   16.8370 N   0  0  0  0  0
  -11.0240  -19.0770   18.1590 N   0  0  0  0  0
   -6.3570  -16.3660   17.9210 N   0  0  0  0  0
   -4.6040  -15.0670   18.4920 O   0  0  0  0  0
  -12.8410  -18.4880   16.9210 O   0  0  0  0  0
  -18.1380  -17.5360    7.8580 O   0  0  0  0  0
  -17.0826  -11.9179    9.9965 H   0  0  0  0  0
  -16.4166   -9.5375    9.8197 H   0  0  0  0  0
  -15.4880   -8.6511    7.6929 H   0  0  0  0  0
  -15.2006  -10.1715    5.7516 H   0  0  0  0  0
  -15.8594  -12.5476    5.9322 H   0  0  0  0  0
  -16.7520  -15.3249   11.5603 H   0  0  0  0  0
  -15.2152  -14.7956   13.4334 H   0  0  0  0  0
  -12.5380  -12.8597   10.6942 H   0  0  0  0  0
  -14.0642  -13.3950    8.8299 H   0  0  0  0  0
  -13.2833  -12.6281   13.7578 H   0  0  0  0  0
  -11.9102  -13.2787   12.7745 H   0  0  0  0  0
  -12.2946  -15.9914   12.6655 H   0  0  0  0  0
  -10.8712  -15.1721   13.3857 H   0  0  0  0  0
  -10.9849  -17.5122   14.1129 H   0  0  0  0  0
  -12.6282  -17.2509   14.7372 H   0  0  0  0  0
  -10.1067  -15.8240   15.6478 H   0  0  0  0  0
  -11.5425  -14.7776   17.3435 H   0  0  0  0  0
  -12.9614  -15.5966   16.6639 H   0  0  0  0  0
  -11.1475  -13.6601   15.1815 H   0  0  0  0  0
  -12.7818  -13.2954   15.8142 H   0  0  0  0  0
   -8.8333  -19.8119   19.6791 H   0  0  0  0  0
   -6.6722  -18.5833   19.5487 H   0  0  0  0  0
   -8.5244  -15.9802   16.6910 H   0  0  0  0  0
   -6.3603  -16.8993   20.5140 H   0  0  0  0  0
   -6.2664  -15.1593   20.7939 H   0  0  0  0  0
   -3.8690  -17.0484   20.5546 H   0  0  0  0  0
   -3.7742  -15.2927   20.8370 H   0  0  0  0  0
   -4.4940  -16.3555   22.0713 H   0  0  0  0  0
  -19.3219  -15.0515    5.2376 H   0  0  0  0  0
  -19.3691  -16.8162    5.9068 H   0  0  0  0  0
  -17.9953  -13.4907    6.3799 H   0  0  0  0  0
  -16.5597  -16.6780    9.6436 H   0  0  0  0  0
  -13.6370  -15.0125   14.3689 H   0  0  0  0  0
  -11.3999  -19.8859   18.6537 H   0  0  0  0  0
   -6.1132  -16.1988   16.9448 H   0  0  0  0  0
  1  2  1  0  0  0
 35  1  1  0  0  0
  1 42  2  0  0  0
  2 33  2  0  0  0
 34  2  1  0  0  0
  4  3  2  0  0  0
  3  5  1  0  0  0
  3 34  1  0  0  0
  6  4  1  0  0  0
  4 35  1  0  0  0
  5  7  4  0  0  0
  5 11  4  0  0  0
 12  6  4  0  0  0
 16  6  4  0  0  0
  7  8  4  0  0  0
  8  9  4  0  0  0
 10  9  4  0  0  0
 11 10  4  0  0  0
 13 12  4  0  0  0
 14 13  4  0  0  0
 14 15  4  0  0  0
 17 14  1  0  0  0
 15 16  4  0  0  0
 36 17  1  0  0  0
 19 18  1  0  0  0
 18 36  1  0  0  0
 20 19  1  0  0  0
 20 21  1  0  0  0
 37 20  1  0  0  0
 21 22  1  0  0  0
 22 36  1  0  0  0
 37 23  1  0  0  0
 23 38  1  0  0  0
 23 41  2  0  0  0
 25 24  4  0  0  0
 26 24  4  0  0  0
 24 38  1  0  0  0
 29 25  4  0  0  0
 25 37  1  0  0  0
 27 26  4  0  0  0
 28 27  4  0  0  0
 28 29  4  0  0  0
 39 28  1  0  0  0
 30 31  1  0  0  0
 30 39  1  0  0  0
 30 40  2  0  0  0
 31 32  1  0  0  0
  7 43  1  0  0  0
  8 44  1  0  0  0
  9 45  1  0  0  0
 10 46  1  0  0  0
 11 47  1  0  0  0
 12 48  1  0  0  0
 13 49  1  0  0  0
 15 50  1  0  0  0
 16 51  1  0  0  0
 17 52  1  0  0  0
 17 53  1  0  0  0
 18 54  1  0  0  0
 18 55  1  0  0  0
 19 56  1  0  0  0
 19 57  1  0  0  0
 20 58  1  0  0  0
 21 59  1  0  0  0
 21 60  1  0  0  0
 22 61  1  0  0  0
 22 62  1  0  0  0
 26 63  1  0  0  0
 27 64  1  0  0  0
 29 65  1  0  0  0
 31 66  1  0  0  0
 31 67  1  0  0  0
 32 68  1  0  0  0
 32 69  1  0  0  0
 32 70  1  0  0  0
 33 71  1  0  0  0
 33 72  1  0  0  0
 34 73  1  0  0  0
 35 74  1  0  0  0
 36 75  1  0  0  0
 38 76  1  0  0  0
 39 77  1  0  0  0
M  END
$$$$
