3btc_ligand
  -I-interpret- 

 51 53  0  0  0  0  0  0  0  0999 V2000
  -70.1990  -46.1460    5.5050 C   0  0  0  0  0
  -70.7100  -47.5280    5.8090 C   0  0  0  0  0
  -70.8520  -48.0000    7.1700 C   0  0  0  0  0
  -71.3170  -49.2820    7.4660 C   0  0  0  0  0
  -71.6830  -50.1810    6.4230 C   0  0  0  0  0
  -71.5610  -49.7500    5.0630 C   0  0  0  0  0
  -71.0960  -48.4620    4.7640 C   0  0  0  0  0
  -68.9750  -45.9460    4.6850 C   0  0  0  0  0
  -68.0300  -47.0390    4.4270 C   0  0  0  0  0
  -66.8980  -46.9060    3.6510 C   0  0  0  0  0
  -66.5390  -45.6410    3.0850 C   0  0  0  0  0
  -67.4600  -44.5270    3.3150 C   0  0  0  0  0
  -68.6050  -44.6850    4.1050 C   0  0  0  0  0
  -70.9620  -45.0260    6.0770 C   0  0  0  0  0
  -70.3560  -44.0770    6.9810 C   0  0  0  0  0
  -71.0750  -43.0340    7.5550 C   0  0  0  0  0
  -72.4320  -42.8530    7.2810 C   0  0  0  0  0
  -73.0660  -43.7760    6.3760 C   0  0  0  0  0
  -72.3520  -44.8210    5.7990 C   0  0  0  0  0
  -65.0540  -44.1790    1.6750 C   0  0  0  0  0
  -64.4380  -46.5950    1.9930 C   0  0  0  0  0
  -73.3680  -41.7070    9.2830 C   0  0  0  0  0
  -73.7540  -40.7890    7.0680 C   0  0  0  0  0
  -65.4100  -45.5080    2.2910 N   0  0  0  0  0
  -73.1370  -41.8420    7.8530 N   0  0  0  0  0
  -69.5327  -45.7158    4.7573 H   0  0  0  0  0
  -70.5872  -47.3326    7.9901 H   0  0  0  0  0
  -71.4011  -49.5988    8.5056 H   0  0  0  0  0
  -72.0499  -51.1805    6.6565 H   0  0  0  0  0
  -71.8318  -50.4286    4.2542 H   0  0  0  0  0
  -71.0219  -48.1528    3.7214 H   0  0  0  0  0
  -68.2348  -48.0116    4.8745 H   0  0  0  0  0
  -66.2679  -47.7759    3.4660 H   0  0  0  0  0
  -67.2508  -43.5573    2.8633 H   0  0  0  0  0
  -69.2400  -43.8179    4.2869 H   0  0  0  0  0
  -69.2981  -44.1817    7.2219 H   0  0  0  0  0
  -70.5695  -42.3449    8.2315 H   0  0  0  0  0
  -74.1229  -43.6539    6.1391 H   0  0  0  0  0
  -72.8634  -45.5012    5.1179 H   0  0  0  0  0
  -65.8655  -43.8524    1.0247 H   0  0  0  0  0
  -64.9010  -43.4433    2.4646 H   0  0  0  0  0
  -64.1391  -44.2837    1.0919 H   0  0  0  0  0
  -64.0004  -46.9547    2.9242 H   0  0  0  0  0
  -64.9535  -47.4144    1.4920 H   0  0  0  0  0
  -63.6508  -46.2092    1.3453 H   0  0  0  0  0
  -73.9053  -42.5827    9.6472 H   0  0  0  0  0
  -72.4109  -41.6261    9.7983 H   0  0  0  0  0
  -73.9603  -40.8115    9.4711 H   0  0  0  0  0
  -72.9855  -40.2598    6.5046 H   0  0  0  0  0
  -74.4753  -41.2270    6.3781 H   0  0  0  0  0
  -74.2631  -40.0920    7.7337 H   0  0  0  0  0
  1  2  1  0  0  0
  1  8  1  0  0  0
  1 14  1  0  0  0
  2  3  4  0  0  0
  2  7  4  0  0  0
  3  4  4  0  0  0
  4  5  4  0  0  0
  5  6  4  0  0  0
  6  7  4  0  0  0
  8  9  4  0  0  0
  8 13  4  0  0  0
  9 10  4  0  0  0
 10 11  4  0  0  0
 11 12  4  0  0  0
 11 24  1  0  0  0
 12 13  4  0  0  0
 14 15  4  0  0  0
 14 19  4  0  0  0
 15 16  4  0  0  0
 16 17  4  0  0  0
 17 18  4  0  0  0
 17 25  1  0  0  0
 18 19  4  0  0  0
 24 20  1  0  0  0
 24 21  1  0  0  0
 25 22  1  0  0  0
 25 23  1  0  0  0
  1 26  1  0  0  0
  3 27  1  0  0  0
  4 28  1  0  0  0
  5 29  1  0  0  0
  6 30  1  0  0  0
  7 31  1  0  0  0
  9 32  1  0  0  0
 10 33  1  0  0  0
 12 34  1  0  0  0
 13 35  1  0  0  0
 15 36  1  0  0  0
 16 37  1  0  0  0
 18 38  1  0  0  0
 19 39  1  0  0  0
 20 40  1  0  0  0
 20 41  1  0  0  0
 20 42  1  0  0  0
 21 43  1  0  0  0
 21 44  1  0  0  0
 21 45  1  0  0  0
 22 46  1  0  0  0
 22 47  1  0  0  0
 22 48  1  0  0  0
 23 49  1  0  0  0
 23 50  1  0  0  0
 23 51  1  0  0  0
M  END
$$$$
