3c3q_ligand
  -I-interpret- 

285286  0  0  0  0  0  0  0  0999 V2000
   42.7980   43.1760   -1.7980 N   0  3  0  0  0
   41.5400   43.7660   -1.2500 C   0  0  0  0  0
   40.3990   43.6990   -2.2710 C   0  0  0  0  0
   39.2360   43.9390   -1.9270 O   0  0  0  0  0
   41.7750   45.2070   -0.7630 C   0  0  0  0  0
   40.5740   45.8530   -0.0600 C   0  0  0  0  0
   40.9590   47.1210    0.6890 C   0  0  0  0  0
   41.5360   46.7980    2.0600 C   0  0  0  0  0
   41.6470   48.0050    2.9090 N   0  3  0  0  0
   40.7370   43.3630   -3.5180 N   0  0  0  0  0
   39.7200   43.1390   -4.5560 C   0  0  0  0  0
   39.0750   41.7290   -4.4770 C   0  0  0  0  0
   38.1210   41.4370   -5.2090 O   0  0  0  0  0
   40.2350   43.5060   -5.9780 C   0  0  0  0  0
   41.0170   42.4380   -6.7550 C   0  0  0  0  0
   42.5280   42.6770   -6.8300 C   0  0  0  0  0
   43.2750   41.6910   -7.0360 O   0  0  0  0  0
   42.9810   43.8390   -6.6950 O   0  0  0  0  0
   39.5960   40.8720   -3.5890 N   0  0  0  0  0
   38.9550   39.5830   -3.2490 C   0  0  0  0  0
   38.3670   39.5520   -1.8210 C   0  0  0  0  0
   37.5050   38.7290   -1.5290 O   0  0  0  0  0
   39.8920   38.3840   -3.4720 C   0  0  0  0  0
   39.8750   37.7900   -4.8750 C   0  0  0  0  0
   41.1020   38.1720   -5.6880 C   0  0  0  0  0
   42.0860   37.3930   -5.6880 O   0  0  0  0  0
   41.0960   39.2510   -6.3200 O   0  0  0  0  0
   38.8340   40.4490   -0.9470 N   0  0  0  0  0
   38.2140   40.6790    0.3740 C   0  0  0  0  0
   36.8770   41.4320    0.2690 C   0  0  0  0  0
   36.1420   41.5560    1.2590 O   0  0  0  0  0
   39.1640   41.4480    1.2930 C   0  0  0  0  0
   40.4620   40.7230    1.6260 C   0  0  0  0  0
   41.1680   41.3400    2.8200 C   0  0  0  0  0
   40.4910   41.5640    3.8540 O   0  0  0  0  0
   42.3940   41.5970    2.7260 O   0  0  0  0  0
   36.6180   41.9840   -0.9220 N   0  0  0  0  0
   35.2840   42.3540   -1.3740 C   0  0  0  0  0
   34.5860   41.0520   -1.7410 C   0  0  0  0  0
   33.5830   40.6750   -1.1330 O   0  0  0  0  0
   35.3580   43.2330   -2.6350 C   0  0  0  0  0
   35.5330   44.7220   -2.3290 C   0  0  0  0  0
   35.8390   45.0870   -1.1630 O   0  0  0  0  0
   35.3890   45.6040   -3.2190 O   0  0  0  0  0
   35.1690   40.3580   -2.7200 N   0  0  0  0  0
   34.6000   39.1640   -3.3560 C   0  0  0  0  0
   34.3470   37.9850   -2.4260 C   0  0  0  0  0
   33.6020   37.0550   -2.7680 O   0  0  0  0  0
   35.5200   38.6970   -4.4870 C   0  0  0  0  0
   35.2980   39.4590   -5.7750 C   0  0  0  0  0
   35.2140   40.7070   -5.7220 O   0  0  0  0  0
   35.2010   38.8840   -6.8830 O   0  0  0  0  0
   34.9920   38.0110   -1.2670 N   0  0  0  0  0
   34.8360   36.9470   -0.3000 C   0  0  0  0  0
   33.8960   37.3720    0.8320 C   0  0  0  0  0
   32.9200   36.6810    1.0980 O   0  0  0  0  0
   36.2080   36.4470    0.1850 C   0  0  0  0  0
   36.9170   35.5460   -0.8530 C   0  0  0  0  0
   36.2970   35.1570   -1.8660 O   0  0  0  0  0
   38.0980   35.1580   -0.7320 O   0  0  0  0  0
   34.1540   38.5220    1.4540 N   0  0  0  0  0
   33.2580   39.0430    2.4890 C   0  0  0  0  0
   31.8170   39.2050    1.9970 C   0  0  0  0  0
   30.8760   38.8880    2.7370 O   0  0  0  0  0
   33.7770   40.3760    3.0420 C   0  0  0  0  0
   33.0140   40.9540    4.2620 C   0  0  0  0  0
   33.1410   40.0360    5.8440 S   0  0  0  0  0
   34.5750   38.9710    5.5990 C   0  0  0  0  0
   31.6580   39.7040    0.7600 N   0  0  0  0  0
   30.3350   39.9630    0.1480 C   0  0  0  0  0
   29.5130   38.6760   -0.0310 C   0  0  0  0  0
   28.3640   38.5970    0.3920 O   0  0  0  0  0
   30.4800   40.7000   -1.2030 C   0  0  0  0  0
   30.7630   42.2100   -1.1290 C   0  0  0  0  0
   30.8960   42.8140   -2.5450 C   0  0  0  0  0
   31.6750   44.1500   -2.5520 C   0  0  0  0  0
   30.8830   45.3830   -2.2260 N   0  3  0  0  0
   30.1370   37.6700   -0.6320 N   0  0  0  0  0
   29.5370   36.3640   -0.8670 C   0  0  0  0  0
   29.2150   35.5390    0.4040 C   0  0  0  0  0
   28.6570   34.4500    0.2970 O   0  0  0  0  0
   30.4520   35.5670   -1.7980 C   0  0  0  0  0
   29.7270   34.6370   -2.7580 C   0  0  0  0  0
   29.5450   33.2260   -2.2040 C   0  0  0  0  0
   28.3900   32.7160   -2.2180 O   0  0  0  0  0
   30.5570   32.6220   -1.7570 O   0  0  0  0  0
   29.5830   36.0280    1.5900 N   0  0  0  0  0
   29.1640   35.4040    2.8620 C   0  0  0  0  0
   28.0490   36.2300    3.4860 C   0  0  0  0  0
   27.2150   35.7030    4.2160 O   0  0  0  0  0
   30.3050   35.3240    3.8880 C   0  0  0  0  0
   31.6320   34.5880    3.7450 C   0  0  0  0  0
   32.4670   34.9480    4.9690 C   0  0  0  0  0
   31.4710   33.0770    3.6220 C   0  0  0  0  0
   28.0800   37.5350    3.2330 N   0  0  0  0  0
   26.9930   38.4510    3.5760 C   0  0  0  0  0
   25.7170   38.1830    2.7070 C   0  0  0  0  0
   24.5930   38.5700    3.0770 O   0  0  0  0  0
   27.5120   39.8820    3.4060 C   0  0  0  0  0
   26.5650   41.0020    3.7950 C   0  0  0  0  0
   27.1240   42.3600    3.3950 C   0  0  0  0  0
   26.4810   43.0690    2.5680 O   0  0  0  0  0
   28.2300   42.6990    3.8940 O   0  0  0  0  0
   25.9150   37.5210    1.5620 N   0  0  0  0  0
   24.8190   37.0360    0.7060 C   0  0  0  0  0
   24.3310   35.6560    1.1270 C   0  0  0  0  0
   23.1250   35.4110    1.1670 O   0  0  0  0  0
   25.2460   36.9580   -0.7640 C   0  0  0  0  0
   25.3880   38.3130   -1.4060 C   0  0  0  0  0
   25.0260   39.3500   -0.8210 O   0  0  0  0  0
   25.9290   38.3180   -2.6220 N   0  0  0  0  0
   25.2700   34.7530    1.4070 N   0  0  0  0  0
   24.9470   33.4640    2.0160 C   0  0  0  0  0
   24.1220   33.7050    3.2960 C   0  0  0  0  0
   23.1090   33.0290    3.5240 O   0  0  0  0  0
   26.2450   32.7490    2.3260 C   0  0  0  0  0
   26.2440   31.2720    2.4240 C   0  0  0  0  0
   26.1130   30.3740    1.4010 C   0  0  0  0  0
   26.5070   30.4980    3.6080 C   0  0  0  0  0
   26.2560   29.0850    1.8760 N   0  0  0  0  0
   26.4950   29.1310    3.2290 C   0  0  0  0  0
   26.7430   30.8230    4.9590 C   0  0  0  0  0
   26.7050   28.0920    4.1500 C   0  0  0  0  0
   26.9590   29.7940    5.8770 C   0  0  0  0  0
   26.9310   28.4430    5.4680 C   0  0  0  0  0
   24.5530   34.6900    4.0980 N   0  0  0  0  0
   23.8840   35.0970    5.3430 C   0  0  0  0  0
   22.4200   35.5190    5.1500 C   0  0  0  0  0
   21.5220   34.9780    5.7980 O   0  0  0  0  0
   24.6740   36.2260    6.0370 C   0  0  0  0  0
   22.1940   36.4900    4.2720 N   0  0  0  0  0
   20.8490   36.9860    3.9840 C   0  0  0  0  0
   19.9030   36.0110    3.2890 C   0  0  0  0  0
   18.6830   36.2040    3.3290 O   0  0  0  0  0
   20.4570   34.9720    2.6590 N   0  0  0  0  0
   19.6660   33.9190    2.0050 C   0  0  0  0  0
   19.2570   32.8100    2.9870 C   0  0  0  0  0
   19.0390   31.6530    2.5880 O   0  0  0  0  0
   20.4690   33.2960    0.8710 C   0  0  0  0  0
   21.3940   32.3480    1.3910 O   0  0  0  0  0
   19.1990   33.1670    4.2720 N   0  0  0  0  0
   18.7200   32.2810    5.3360 C   0  0  0  0  0
   17.3510   32.7690    5.8680 C   0  0  0  0  0
   16.3220   32.1470    5.5720 O   0  0  0  0  0
   19.7610   32.1480    6.4640 C   0  0  0  0  0
   20.9490   31.2710    6.0840 C   0  0  0  0  0
   22.3440   31.4600    7.2090 S   0  0  0  0  0
   23.5730   30.4080    6.4550 C   0  0  0  0  0
   17.2140   33.7860    6.5720 O   0  0  0  0  0
   42.6161   42.2231   -2.1132 H   0  0  0  0  0
   43.1221   43.7394   -2.5841 H   0  0  0  0  0
   43.5119   43.1640   -1.0696 H   0  0  0  0  0
   41.2393   43.1685   -0.3894 H   0  0  0  0  0
   41.9856   45.8092   -1.6468 H   0  0  0  0  0
   42.5841   45.1664   -0.0337 H   0  0  0  0  0
   40.1801   45.1387    0.6630 H   0  0  0  0  0
   39.8390   46.1182   -0.8199 H   0  0  0  0  0
   40.0653   47.7305    0.8229 H   0  0  0  0  0
   41.7152   47.6508    0.1097 H   0  0  0  0  0
   42.5347   46.3837    1.9220 H   0  0  0  0  0
   40.8687   46.0920    2.5544 H   0  0  0  0  0
   42.0364   47.7468    3.8157 H   0  0  0  0  0
   42.2591   48.6832    2.4554 H   0  0  0  0  0
   40.7217   48.4140    3.0390 H   0  0  0  0  0
   41.7234   43.2593   -3.7562 H   0  0  0  0  0
   38.9076   43.8348   -4.3461 H   0  0  0  0  0
   40.9350   44.3284   -5.8301 H   0  0  0  0  0
   39.3404   43.6991   -6.5700 H   0  0  0  0  0
   40.6427   42.4534   -7.7786 H   0  0  0  0  0
   40.8713   41.4940   -6.2298 H   0  0  0  0  0
   42.2548   44.4490   -6.5462 H   0  0  0  0  0
   40.4717   41.1187   -3.1278 H   0  0  0  0  0
   38.1193   39.4924   -3.9429 H   0  0  0  0  0
   39.5546   37.5969   -2.7977 H   0  0  0  0  0
   40.9057   38.7463   -3.3007 H   0  0  0  0  0
   38.9969   38.1769   -5.3920 H   0  0  0  0  0
   39.8615   36.7043   -4.7790 H   0  0  0  0  0
   41.8865   36.6272   -5.1445 H   0  0  0  0  0
   39.6541   40.9986   -1.2033 H   0  0  0  0  0
   38.0123   39.6957    0.7988 H   0  0  0  0  0
   38.6372   41.6002    2.2350 H   0  0  0  0  0
   39.4394   42.3626    0.7678 H   0  0  0  0  0
   41.1242   40.7962    0.7633 H   0  0  0  0  0
   40.2215   39.6882    1.8696 H   0  0  0  0  0
   42.7064   41.3463    1.8535 H   0  0  0  0  0
   37.4021   42.1560   -1.5512 H   0  0  0  0  0
   34.7605   42.9113   -0.5972 H   0  0  0  0  0
   34.4167   43.1166   -3.1722 H   0  0  0  0  0
   36.2270   42.9114   -3.2090 H   0  0  0  0  0
   35.1584   45.1833   -4.0505 H   0  0  0  0  0
   36.0779   40.6814   -3.0511 H   0  0  0  0  0
   33.6220   39.4799   -3.7190 H   0  0  0  0  0
   35.3055   37.6458   -4.6796 H   0  0  0  0  0
   36.5495   38.8667   -4.1717 H   0  0  0  0  0
   35.2854   37.9358   -6.7587 H   0  0  0  0  0
   35.6087   38.7951   -1.0542 H   0  0  0  0  0
   34.3572   36.0928   -0.7787 H   0  0  0  0  0
   36.0488   35.8563    1.0871 H   0  0  0  0  0
   36.8394   37.3185    0.3580 H   0  0  0  0  0
   35.4065   35.5153   -1.8520 H   0  0  0  0  0
   34.9909   39.0491    1.2047 H   0  0  0  0  0
   33.2471   38.3016    3.2879 H   0  0  0  0  0
   33.6631   41.1040    2.2388 H   0  0  0  0  0
   34.7960   40.1891    3.3807 H   0  0  0  0  0
   31.9589   40.9284    3.9896 H   0  0  0  0  0
   33.4573   41.9316    4.4514 H   0  0  0  0  0
   34.3955   38.3118    4.7496 H   0  0  0  0  0
   35.4536   39.5859    5.4040 H   0  0  0  0  0
   34.7398   38.3736    6.4957 H   0  0  0  0  0
   32.4928   39.9156    0.2135 H   0  0  0  0  0
   29.7914   40.6055    0.8407 H   0  0  0  0  0
   29.5208   40.5956   -1.7101 H   0  0  0  0  0
   31.3409   40.2540   -1.7010 H   0  0  0  0  0
   31.6982   42.3662   -0.5913 H   0  0  0  0  0
   29.9346   42.6979   -0.6154 H   0  0  0  0  0
   29.8920   43.0096   -2.9215 H   0  0  0  0  0
   31.4448   42.1029   -3.1624 H   0  0  0  0  0
   32.0395   44.2837   -3.5705 H   0  0  0  0  0
   32.4346   44.0627   -1.7751 H   0  0  0  0  0
   31.4954   46.1980   -2.2605 H   0  0  0  0  0
   30.1309   45.4923   -2.9063 H   0  0  0  0  0
   30.4865   45.2935   -1.2905 H   0  0  0  0  0
   31.0949   37.8210   -0.9484 H   0  0  0  0  0
   28.5638   36.5543   -1.3195 H   0  0  0  0  0
   31.0816   34.9416   -1.1651 H   0  0  0  0  0
   30.9942   36.2910   -2.4062 H   0  0  0  0  0
   30.3289   34.5617   -3.6636 H   0  0  0  0  0
   28.7353   35.0530   -2.9360 H   0  0  0  0  0
   27.7695   33.3423   -2.5979 H   0  0  0  0  0
   30.1728   36.8597    1.6192 H   0  0  0  0  0
   28.8389   34.3918    2.6215 H   0  0  0  0  0
   29.8317   34.7563    4.6892 H   0  0  0  0  0
   30.6387   36.3613    3.9169 H   0  0  0  0  0
   32.1182   34.8967    2.8196 H   0  0  0  0  0
   32.6222   36.0265    4.9969 H   0  0  0  0  0
   31.9427   34.6316    5.8707 H   0  0  0  0  0
   33.4309   34.4423    4.9112 H   0  0  0  0  0
   30.9748   32.6920    4.5129 H   0  0  0  0  0
   30.8701   32.8474    2.7420 H   0  0  0  0  0
   32.4533   32.6151    3.5234 H   0  0  0  0  0
   28.9069   37.9179    2.7748 H   0  0  0  0  0
   26.6854   38.2939    4.6098 H   0  0  0  0  0
   27.7028   40.0072    2.3402 H   0  0  0  0  0
   28.3708   39.9706    4.0714 H   0  0  0  0  0
   26.4326   40.9854    4.8768 H   0  0  0  0  0
   25.6168   40.8506    3.2791 H   0  0  0  0  0
   25.6704   42.6169    2.3229 H   0  0  0  0  0
   26.8748   37.3427    1.2662 H   0  0  0  0  0
   24.0109   37.7581    0.8227 H   0  0  0  0  0
   24.4741   36.4120   -1.3063 H   0  0  0  0  0
   26.2188   36.4679   -0.8024 H   0  0  0  0  0
   26.0631   39.1997   -3.1169 H   0  0  0  0  0
   26.2095   37.4401   -3.0590 H   0  0  0  0  0
   26.2432   34.9676    1.1899 H   0  0  0  0  0
   24.3542   32.8465    1.3412 H   0  0  0  0  0
   26.5269   33.0965    3.3199 H   0  0  0  0  0
   26.8983   32.9744    1.4831 H   0  0  0  0  0
   25.9231   30.6376    0.3605 H   0  0  0  0  0
   26.7566   31.8638    5.2825 H   0  0  0  0  0
   26.6904   27.0479    3.8375 H   0  0  0  0  0
   27.1516   30.0364    6.9221 H   0  0  0  0  0
   27.0912   27.6590    6.2081 H   0  0  0  0  0
   25.4000   35.1894    3.8267 H   0  0  0  0  0
   23.8674   34.2107    5.9773 H   0  0  0  0  0
   25.6780   35.8732    6.2729 H   0  0  0  0  0
   24.7370   37.0863    5.3707 H   0  0  0  0  0
   24.1632   36.5133    6.9560 H   0  0  0  0  0
   22.9867   36.9041    3.7815 H   0  0  0  0  0
   20.9751   37.8257    3.3006 H   0  0  0  0  0
   20.3960   37.2125    4.9492 H   0  0  0  0  0
   21.4744   34.9059    2.6302 H   0  0  0  0  0
   18.7606   34.3888    1.6208 H   0  0  0  0  0
   21.0161   34.0798    0.3472 H   0  0  0  0  0
   19.7881   32.7925    0.1848 H   0  0  0  0  0
   21.8946   31.9616    0.6687 H   0  0  0  0  0
   19.5043   34.1063    4.5266 H   0  0  0  0  0
   18.5789   31.2843    4.9180 H   0  0  0  0  0
   19.2665   31.6831    7.3169 H   0  0  0  0  0
   20.1427   33.1457    6.6808 H   0  0  0  0  0
   21.2796   31.5693    5.0891 H   0  0  0  0  0
   20.6239   30.2315    6.1268 H   0  0  0  0  0
   23.1960   29.3863    6.4090 H   0  0  0  0  0
   23.7852   30.7641    5.4469 H   0  0  0  0  0
   24.4857   30.4334    7.0503 H   0  0  0  0  0
   18.0743   34.1798    6.7342 H   0  0  0  0  0
  1  2  1  0  0  0
  2  3  1  0  0  0
  2  5  1  0  0  0
  3  4  2  0  0  0
  3 10  1  0  0  0
  5  6  1  0  0  0
  6  7  1  0  0  0
  7  8  1  0  0  0
  8  9  1  0  0  0
 10 11  1  0  0  0
 11 12  1  0  0  0
 11 14  1  0  0  0
 12 13  2  0  0  0
 12 19  1  0  0  0
 14 15  1  0  0  0
 15 16  1  0  0  0
 16 17  2  0  0  0
 16 18  1  0  0  0
 19 20  1  0  0  0
 20 21  1  0  0  0
 20 23  1  0  0  0
 21 22  2  0  0  0
 21 28  1  0  0  0
 23 24  1  0  0  0
 24 25  1  0  0  0
 25 26  1  0  0  0
 25 27  2  0  0  0
 28 29  1  0  0  0
 29 30  1  0  0  0
 29 32  1  0  0  0
 30 31  2  0  0  0
 30 37  1  0  0  0
 32 33  1  0  0  0
 33 34  1  0  0  0
 34 35  2  0  0  0
 34 36  1  0  0  0
 37 38  1  0  0  0
 38 39  1  0  0  0
 38 41  1  0  0  0
 39 40  2  0  0  0
 39 45  1  0  0  0
 41 42  1  0  0  0
 42 43  2  0  0  0
 42 44  1  0  0  0
 45 46  1  0  0  0
 46 47  1  0  0  0
 46 49  1  0  0  0
 47 48  2  0  0  0
 47 53  1  0  0  0
 49 50  1  0  0  0
 50 51  2  0  0  0
 50 52  1  0  0  0
 53 54  1  0  0  0
 54 55  1  0  0  0
 54 57  1  0  0  0
 55 56  2  0  0  0
 55 61  1  0  0  0
 57 58  1  0  0  0
 58 59  1  0  0  0
 58 60  2  0  0  0
 61 62  1  0  0  0
 62 63  1  0  0  0
 62 65  1  0  0  0
 63 64  2  0  0  0
 63 69  1  0  0  0
 65 66  1  0  0  0
 66 67  1  0  0  0
 67 68  1  0  0  0
 69 70  1  0  0  0
 70 71  1  0  0  0
 70 73  1  0  0  0
 71 72  2  0  0  0
 71 78  1  0  0  0
 73 74  1  0  0  0
 74 75  1  0  0  0
 75 76  1  0  0  0
 76 77  1  0  0  0
 78 79  1  0  0  0
 79 80  1  0  0  0
 79 82  1  0  0  0
 80 81  2  0  0  0
 80 87  1  0  0  0
 82 83  1  0  0  0
 83 84  1  0  0  0
 84 85  1  0  0  0
 84 86  2  0  0  0
 87 88  1  0  0  0
 88 89  1  0  0  0
 88 91  1  0  0  0
 89 90  2  0  0  0
 89 95  1  0  0  0
 91 92  1  0  0  0
 92 93  1  0  0  0
 92 94  1  0  0  0
 95 96  1  0  0  0
 96 97  1  0  0  0
 96 99  1  0  0  0
 97 98  2  0  0  0
 97104  1  0  0  0
 99100  1  0  0  0
100101  1  0  0  0
101102  1  0  0  0
101103  2  0  0  0
104105  1  0  0  0
105106  1  0  0  0
105108  1  0  0  0
106107  2  0  0  0
106112  1  0  0  0
108109  1  0  0  0
109110  2  0  0  0
109111  1  0  0  0
112113  1  0  0  0
113114  1  0  0  0
113116  1  0  0  0
114115  2  0  0  0
114126  1  0  0  0
116117  1  0  0  0
117118  4  0  0  0
117119  4  0  0  0
118120  4  0  0  0
119121  4  0  0  0
119122  4  0  0  0
120121  4  0  0  0
121123  4  0  0  0
122124  4  0  0  0
123125  4  0  0  0
124125  4  0  0  0
126127  1  0  0  0
127128  1  0  0  0
127130  1  0  0  0
128129  2  0  0  0
128131  1  0  0  0
131132  1  0  0  0
132133  1  0  0  0
133134  2  0  0  0
133135  1  0  0  0
135136  1  0  0  0
136137  1  0  0  0
136139  1  0  0  0
137138  2  0  0  0
137141  1  0  0  0
139140  1  0  0  0
141142  1  0  0  0
142143  1  0  0  0
142145  1  0  0  0
143144  2  0  0  0
143149  1  0  0  0
145146  1  0  0  0
146147  1  0  0  0
147148  1  0  0  0
  1150  1  0  0  0
  1151  1  0  0  0
  1152  1  0  0  0
  2153  1  0  0  0
  5154  1  0  0  0
  5155  1  0  0  0
  6156  1  0  0  0
  6157  1  0  0  0
  7158  1  0  0  0
  7159  1  0  0  0
  8160  1  0  0  0
  8161  1  0  0  0
  9162  1  0  0  0
  9163  1  0  0  0
  9164  1  0  0  0
 10165  1  0  0  0
 11166  1  0  0  0
 14167  1  0  0  0
 14168  1  0  0  0
 15169  1  0  0  0
 15170  1  0  0  0
 18171  1  0  0  0
 19172  1  0  0  0
 20173  1  0  0  0
 23174  1  0  0  0
 23175  1  0  0  0
 24176  1  0  0  0
 24177  1  0  0  0
 26178  1  0  0  0
 28179  1  0  0  0
 29180  1  0  0  0
 32181  1  0  0  0
 32182  1  0  0  0
 33183  1  0  0  0
 33184  1  0  0  0
 36185  1  0  0  0
 37186  1  0  0  0
 38187  1  0  0  0
 41188  1  0  0  0
 41189  1  0  0  0
 44190  1  0  0  0
 45191  1  0  0  0
 46192  1  0  0  0
 49193  1  0  0  0
 49194  1  0  0  0
 52195  1  0  0  0
 53196  1  0  0  0
 54197  1  0  0  0
 57198  1  0  0  0
 57199  1  0  0  0
 59200  1  0  0  0
 61201  1  0  0  0
 62202  1  0  0  0
 65203  1  0  0  0
 65204  1  0  0  0
 66205  1  0  0  0
 66206  1  0  0  0
 68207  1  0  0  0
 68208  1  0  0  0
 68209  1  0  0  0
 69210  1  0  0  0
 70211  1  0  0  0
 73212  1  0  0  0
 73213  1  0  0  0
 74214  1  0  0  0
 74215  1  0  0  0
 75216  1  0  0  0
 75217  1  0  0  0
 76218  1  0  0  0
 76219  1  0  0  0
 77220  1  0  0  0
 77221  1  0  0  0
 77222  1  0  0  0
 78223  1  0  0  0
 79224  1  0  0  0
 82225  1  0  0  0
 82226  1  0  0  0
 83227  1  0  0  0
 83228  1  0  0  0
 85229  1  0  0  0
 87230  1  0  0  0
 88231  1  0  0  0
 91232  1  0  0  0
 91233  1  0  0  0
 92234  1  0  0  0
 93235  1  0  0  0
 93236  1  0  0  0
 93237  1  0  0  0
 94238  1  0  0  0
 94239  1  0  0  0
 94240  1  0  0  0
 95241  1  0  0  0
 96242  1  0  0  0
 99243  1  0  0  0
 99244  1  0  0  0
100245  1  0  0  0
100246  1  0  0  0
102247  1  0  0  0
104248  1  0  0  0
105249  1  0  0  0
108250  1  0  0  0
108251  1  0  0  0
111252  1  0  0  0
111253  1  0  0  0
112254  1  0  0  0
113255  1  0  0  0
116256  1  0  0  0
116257  1  0  0  0
118258  1  0  0  0
122259  1  0  0  0
123260  1  0  0  0
124261  1  0  0  0
125262  1  0  0  0
126263  1  0  0  0
127264  1  0  0  0
130265  1  0  0  0
130266  1  0  0  0
130267  1  0  0  0
131268  1  0  0  0
132269  1  0  0  0
132270  1  0  0  0
135271  1  0  0  0
136272  1  0  0  0
139273  1  0  0  0
139274  1  0  0  0
140275  1  0  0  0
141276  1  0  0  0
142277  1  0  0  0
145278  1  0  0  0
145279  1  0  0  0
146280  1  0  0  0
146281  1  0  0  0
148282  1  0  0  0
148283  1  0  0  0
148284  1  0  0  0
149285  1  0  0  0
M  END
$$$$
