### 
### Created by X-TOOL on Mon Sep 10 21:12:59 2018
### 

@<TRIPOS>MOLECULE
3c3q_ligand
  277   278     1     0     0
SMALL
GAST_HUCK


@<TRIPOS>ATOM
      1 N          42.7980   43.1760   -1.7980 N.4       1 LYS         0.2379
      2 CA         41.5400   43.7660   -1.2500 C.3       1 LYS         0.0650
      3 C          40.3990   43.6990   -2.2710 C.2       1 LYS         0.2267
      4 O          39.2360   43.9390   -1.9270 O.2       1 LYS        -0.3907
      5 CB         41.7750   45.2070   -0.7630 C.3       1 LYS         0.0080
      6 CG         40.5740   45.8530   -0.0600 C.3       1 LYS        -0.0410
      7 CD         40.9590   47.1210    0.6890 C.3       1 LYS        -0.0123
      8 CE         41.5360   46.7980    2.0600 C.3       1 LYS        -0.0354
      9 NZ         41.6470   48.0050    2.9090 N.4       1 LYS         0.2185
     10 N          40.7370   43.3630   -3.5180 N.am      1 GLU        -0.2609
     11 CA         39.7200   43.1390   -4.5560 C.3       1 GLU         0.1326
     12 C          39.0750   41.7290   -4.4770 C.2       1 GLU         0.2040
     13 O          38.1210   41.4370   -5.2090 O.2       1 GLU        -0.3944
     14 CB         40.2350   43.5060   -5.9780 C.3       1 GLU        -0.0008
     15 CG         41.0170   42.4380   -6.7550 C.3       1 GLU         0.0044
     16 CD         42.5280   42.6770   -6.8300 C.2       1 GLU         0.0350
     17 OE1        43.2750   41.6910   -7.0360 O.co2     1 GLU        -0.5690
     18 OE2        42.9810   43.8390   -6.6950 O.co2     1 GLU        -0.5690
     19 N          39.5960   40.8720   -3.5890 N.am      1 GLU        -0.2636
     20 CA         38.9550   39.5830   -3.2490 C.3       1 GLU         0.1325
     21 C          38.3670   39.5520   -1.8210 C.2       1 GLU         0.2040
     22 O          37.5050   38.7290   -1.5290 O.2       1 GLU        -0.3944
     23 CB         39.8920   38.3840   -3.4720 C.3       1 GLU        -0.0008
     24 CG         39.8750   37.7900   -4.8750 C.3       1 GLU         0.0044
     25 CD         41.1020   38.1720   -5.6880 C.2       1 GLU         0.0350
     26 OE1        42.0860   37.3930   -5.6880 O.co2     1 GLU        -0.5690
     27 OE2        41.0960   39.2510   -6.3200 O.co2     1 GLU        -0.5690
     28 N          38.8340   40.4490   -0.9470 N.am      1 GLU        -0.2636
     29 CA         38.2140   40.6790    0.3740 C.3       1 GLU         0.1325
     30 C          36.8770   41.4320    0.2690 C.2       1 GLU         0.2041
     31 O          36.1420   41.5560    1.2590 O.2       1 GLU        -0.3944
     32 CB         39.1640   41.4480    1.2930 C.3       1 GLU        -0.0008
     33 CG         40.4620   40.7230    1.6260 C.3       1 GLU         0.0044
     34 CD         41.1680   41.3400    2.8200 C.2       1 GLU         0.0350
     35 OE1        40.4910   41.5640    3.8540 O.co2     1 GLU        -0.5690
     36 OE2        42.3940   41.5970    2.7260 O.co2     1 GLU        -0.5690
     37 N          36.6180   41.9840   -0.9220 N.am      1 ASP        -0.2622
     38 CA         35.2840   42.3540   -1.3740 C.3       1 ASP         0.1423
     39 C          34.5860   41.0520   -1.7410 C.2       1 ASP         0.2057
     40 O          33.5830   40.6750   -1.1330 O.2       1 ASP        -0.3943
     41 CB         35.3580   43.2330   -2.6350 C.3       1 ASP         0.0406
     42 CG         35.5330   44.7220   -2.3290 C.2       1 ASP         0.0393
     43 OD1        35.8390   45.0870   -1.1630 O.co2     1 ASP        -0.5688
     44 OD2        35.3890   45.6040   -3.2190 O.co2     1 ASP        -0.5688
     45 N          35.1690   40.3580   -2.7200 N.am      1 ASP        -0.2621
     46 CA         34.6000   39.1640   -3.3560 C.3       1 ASP         0.1423
     47 C          34.3470   37.9850   -2.4260 C.2       1 ASP         0.2057
     48 O          33.6020   37.0550   -2.7680 O.2       1 ASP        -0.3943
     49 CB         35.5200   38.6970   -4.4870 C.3       1 ASP         0.0406
     50 CG         35.2980   39.4590   -5.7750 C.2       1 ASP         0.0393
     51 OD1        35.2140   40.7070   -5.7220 O.co2     1 ASP        -0.5688
     52 OD2        35.2010   38.8840   -6.8830 O.co2     1 ASP        -0.5688
     53 N          34.9920   38.0110   -1.2670 N.am      1 ASP        -0.2621
     54 CA         34.8360   36.9470   -0.3000 C.3       1 ASP         0.1423
     55 C          33.8960   37.3720    0.8320 C.2       1 ASP         0.2056
     56 O          32.9200   36.6810    1.0980 O.2       1 ASP        -0.3943
     57 CB         36.2080   36.4470    0.1850 C.3       1 ASP         0.0406
     58 CG         36.9170   35.5460   -0.8530 C.2       1 ASP         0.0393
     59 OD1        36.2970   35.1570   -1.8660 O.co2     1 ASP        -0.5688
     60 OD2        38.0980   35.1580   -0.7320 O.co2     1 ASP        -0.5688
     61 N          34.1540   38.5220    1.4540 N.am      1 MET        -0.2636
     62 CA         33.2580   39.0430    2.4890 C.3       1 MET         0.1317
     63 C          31.8170   39.2050    1.9970 C.2       1 MET         0.2039
     64 O          30.8760   38.8880    2.7370 O.2       1 MET        -0.3944
     65 CB         33.7770   40.3760    3.0420 C.3       1 MET        -0.0034
     66 CG         33.0140   40.9540    4.2620 C.3       1 MET        -0.0024
     67 SD         33.1410   40.0360    5.8440 S.3       1 MET        -0.1639
     68 CE         34.5750   38.9710    5.5990 C.3       1 MET        -0.0181
     69 N          31.6580   39.7040    0.7600 N.am      1 LYS        -0.2637
     70 CA         30.3350   39.9630    0.1480 C.3       1 LYS         0.1310
     71 C          29.5130   38.6760   -0.0310 C.2       1 LYS         0.2039
     72 O          28.3640   38.5970    0.3920 O.2       1 LYS        -0.3944
     73 CB         30.4800   40.7000   -1.2030 C.3       1 LYS        -0.0122
     74 CG         30.7630   42.2100   -1.1290 C.3       1 LYS        -0.0440
     75 CD         30.8960   42.8140   -2.5450 C.3       1 LYS        -0.0124
     76 CE         31.6750   44.1500   -2.5520 C.3       1 LYS        -0.0354
     77 NZ         30.8830   45.3830   -2.2260 N.4       1 LYS         0.2185
     78 N          30.1370   37.6700   -0.6320 N.am      1 GLU        -0.2636
     79 CA         29.5370   36.3640   -0.8670 C.3       1 GLU         0.1325
     80 C          29.2150   35.5390    0.4040 C.2       1 GLU         0.2040
     81 O          28.6570   34.4500    0.2970 O.2       1 GLU        -0.3944
     82 CB         30.4520   35.5670   -1.7980 C.3       1 GLU        -0.0008
     83 CG         29.7270   34.6370   -2.7580 C.3       1 GLU         0.0044
     84 CD         29.5450   33.2260   -2.2040 C.2       1 GLU         0.0350
     85 OE1        28.3900   32.7160   -2.2180 O.co2     1 GLU        -0.5690
     86 OE2        30.5570   32.6220   -1.7570 O.co2     1 GLU        -0.5690
     87 N          29.5830   36.0280    1.5900 N.am      1 LEU        -0.2637
     88 CA         29.1640   35.4040    2.8620 C.3       1 LEU         0.1312
     89 C          28.0490   36.2300    3.4860 C.2       1 LEU         0.2039
     90 O          27.2150   35.7030    4.2160 O.2       1 LEU        -0.3944
     91 CB         30.3050   35.3240    3.8880 C.3       1 LEU        -0.0101
     92 CG         31.6320   34.5880    3.7450 C.3       1 LEU        -0.0425
     93 CD1        32.4670   34.9480    4.9690 C.3       1 LEU        -0.0625
     94 CD2        31.4710   33.0770    3.6220 C.3       1 LEU        -0.0625
     95 N          28.0800   37.5350    3.2330 N.am      1 GLU        -0.2636
     96 CA         26.9930   38.4510    3.5760 C.3       1 GLU         0.1325
     97 C          25.7170   38.1830    2.7070 C.2       1 GLU         0.2041
     98 O          24.5930   38.5700    3.0770 O.2       1 GLU        -0.3944
     99 CB         27.5120   39.8820    3.4060 C.3       1 GLU        -0.0008
    100 CG         26.5650   41.0020    3.7950 C.3       1 GLU         0.0044
    101 CD         27.1240   42.3600    3.3950 C.2       1 GLU         0.0350
    102 OE1        26.4810   43.0690    2.5680 O.co2     1 GLU        -0.5690
    103 OE2        28.2300   42.6990    3.8940 O.co2     1 GLU        -0.5690
    104 N          25.9150   37.5210    1.5620 N.am      1 ASN        -0.2616
    105 CA         24.8190   37.0360    0.7060 C.3       1 ASN         0.1476
    106 C          24.3310   35.6560    1.1270 C.2       1 ASN         0.2063
    107 O          23.1250   35.4110    1.1670 O.2       1 ASN        -0.3942
    108 CB         25.2460   36.9580   -0.7640 C.3       1 ASN         0.0773
    109 CG         25.3880   38.3130   -1.4060 C.2       1 ASN         0.1780
    110 OD1        25.0260   39.3500   -0.8210 O.2       1 ASN        -0.3970
    111 ND2        25.9290   38.3180   -2.6220 N.am      1 ASN        -0.3007
    112 N          25.2700   34.7530    1.4070 N.am      1 TRP        -0.2625
    113 CA         24.9470   33.4640    2.0160 C.3       1 TRP         0.1352
    114 C          24.1220   33.7050    3.2960 C.2       1 TRP         0.2052
    115 O          23.1090   33.0290    3.5240 O.2       1 TRP        -0.3942
    116 CB         26.2450   32.7490    2.3260 C.3       1 TRP         0.0042
    117 CG         26.2440   31.2720    2.4240 C.2       1 TRP        -0.0418
    118 CD1        26.1130   30.3740    1.4010 C.2       1 TRP         0.0167
    119 CD2        26.5070   30.4980    3.6080 C.ar      1 TRP        -0.0214
    120 NE1        26.2560   29.0850    1.8760 N.pl3     1 TRP        -0.2890
    121 CE2        26.4950   29.1310    3.2290 C.ar      1 TRP         0.0603
    122 CE3        26.7430   30.8230    4.9590 C.ar      1 TRP        -0.0747
    123 CZ2        26.7050   28.0920    4.1500 C.ar      1 TRP        -0.0443
    124 CZ3        26.9590   29.7940    5.8770 C.ar      1 TRP        -0.0792
    125 CH2        26.9310   28.4430    5.4680 C.ar      1 TRP        -0.0768
    126 N          24.5530   34.6900    4.0980 N.am      1 ALA        -0.2639
    127 CA         23.8840   35.0970    5.3430 C.3       1 ALA         0.1282
    128 C          22.4200   35.5190    5.1500 C.2       1 ALA         0.2034
    129 O          21.5220   34.9780    5.7980 O.2       1 ALA        -0.3944
    130 CB         24.6740   36.2260    6.0370 C.3       1 ALA        -0.0244
    131 N          22.1940   36.4900    4.2720 N.am      1 GLY        -0.2664
    132 CA         20.8490   36.9860    3.9840 C.3       1 GLY         0.1201
    133 C          19.9030   36.0110    3.2890 C.2       1 GLY         0.2008
    134 O          18.6830   36.2040    3.3290 O.2       1 GLY        -0.3947
    135 N          20.4570   34.9720    2.6590 N.am      1 SER        -0.2618
    136 CA         19.6660   33.9190    2.0050 C.3       1 SER         0.1539
    137 C          19.2570   32.8100    2.9870 C.2       1 SER         0.2056
    138 O          19.0390   31.6530    2.5880 O.2       1 SER        -0.3943
    139 CB         20.4690   33.2960    0.8710 C.3       1 SER         0.0843
    140 OG         21.3940   32.3480    1.3910 O.3       1 SER        -0.3903
    141 N          19.1990   33.1670    4.2720 N.am      1 MET        -0.2694
    142 CA         18.7200   32.2810    5.3360 C.3       1 MET         0.0951
    143 C          17.3510   32.7690    5.8680 C.2       1 MET         0.0601
    144 O          16.3220   32.1470    5.5720 O.co2     1 MET        -0.5666
    145 CB         19.7610   32.1480    6.4640 C.3       1 MET        -0.0089
    146 CG         20.9490   31.2710    6.0840 C.3       1 MET        -0.0030
    147 SD         22.3440   31.4600    7.2090 S.3       1 MET        -0.1639
    148 CE         23.5730   30.4080    6.4550 C.3       1 MET        -0.0181
    149 OXT        17.2140   33.7860    6.5720 O.co2     1 MET        -0.5666
    150 H1         43.5269   43.2353   -1.1043 H         1 LYS         0.2015
    151 H2         43.0766   43.6849   -2.6223 H         1 LYS         0.2015
    152 H3         42.6396   42.2097   -2.0372 H         1 LYS         0.2015
    153 H4         41.2413   43.1643   -0.3790 H         1 LYS         0.1098
    154 H5         42.0338   45.8250   -1.6354 H         1 LYS         0.0346
    155 H6         42.6191   45.1964   -0.0577 H         1 LYS         0.0346
    156 H7         40.1535   45.1323    0.6567 H         1 LYS         0.0270
    157 H8         39.8149   46.1046   -0.8152 H         1 LYS         0.0270
    158 H9         40.0645   47.7486    0.8152 H         1 LYS         0.0317
    159 H10        41.7117   47.6690    0.1032 H         1 LYS         0.0317
    160 H11        42.5370   46.3606    1.9308 H         1 LYS         0.0813
    161 H12        40.8797   46.0705    2.5599 H         1 LYS         0.0813
    162 H13        42.0317   47.7510    3.8054 H         1 LYS         0.1994
    163 H14        40.7331   48.4101    3.0383 H         1 LYS         0.1994
    164 H15        42.2518   48.6760    2.4617 H         1 LYS         0.1994
    165 H16        41.7040   43.2613   -3.7515 H         1 GLU         0.1885
    166 H17        38.9082   43.8491   -4.3398 H         1 GLU         0.0801
    167 H18        40.8922   44.3818   -5.8728 H         1 GLU         0.0330
    168 H19        39.3581   43.7764   -6.5846 H         1 GLU         0.0330
    169 H20        40.6242   42.4055   -7.7820 H         1 GLU         0.0433
    170 H21        40.8479   41.4669   -6.2668 H         1 GLU         0.0433
    171 H22        40.4545   41.1139   -3.1369 H         1 GLU         0.1883
    172 H23        38.1102   39.4633   -3.9432 H         1 GLU         0.0801
    173 H24        39.6031   37.5921   -2.7653 H         1 GLU         0.0330
    174 H25        40.9194   38.7119   -3.2553 H         1 GLU         0.0330
    175 H26        38.9785   38.1518   -5.3997 H         1 GLU         0.0433
    176 H27        39.8345   36.6938   -4.7928 H         1 GLU         0.0433
    177 H28        39.6381   40.9878   -1.1983 H         1 GLU         0.1883
    178 H29        38.0157   39.6964    0.8269 H         1 GLU         0.0801
    179 H30        38.6358   41.6532    2.2358 H         1 GLU         0.0330
    180 H31        39.4199   42.3983    0.8017 H         1 GLU         0.0330
    181 H32        41.1303   40.7726    0.7537 H         1 GLU         0.0433
    182 H33        40.2331   39.6714    1.8533 H         1 GLU         0.0433
    183 H34        37.3868   42.1526   -1.5389 H         1 ASP         0.1884
    184 H35        34.7401   42.8823   -0.5771 H         1 ASP         0.0819
    185 H36        34.4274   43.1017   -3.2066 H         1 ASP         0.0478
    186 H37        36.2119   42.8994   -3.2429 H         1 ASP         0.0478
    187 H38        36.0601   40.6750   -3.0446 H         1 ASP         0.1884
    188 H39        33.6319   39.4561   -3.7889 H         1 ASP         0.0819
    189 H40        35.3335   37.6291   -4.6737 H         1 ASP         0.0478
    190 H41        36.5643   38.8371   -4.1712 H         1 ASP         0.0478
    191 H42        35.5966   38.7797   -1.0584 H         1 ASP         0.1884
    192 H43        34.3531   36.1029   -0.8141 H         1 ASP         0.0819
    193 H44        36.0652   35.8712    1.1113 H         1 ASP         0.0478
    194 H45        36.8476   37.3182    0.3897 H         1 ASP         0.0478
    195 H46        34.9745   39.0388    1.2096 H         1 MET         0.1883
    196 H47        33.2481   38.3147    3.3133 H         1 MET         0.0800
    197 H48        33.7260   41.1183    2.2318 H         1 MET         0.0320
    198 H49        34.8257   40.2302    3.3403 H         1 MET         0.0320
    199 H50        31.9486   41.0028    3.9928 H         1 MET         0.0378
    200 H51        33.3946   41.9709    4.4385 H         1 MET         0.0378
    201 H52        34.7423   38.3676    6.5034 H         1 MET         0.0340
    202 H53        35.4624   39.5904    5.4022 H         1 MET         0.0340
    203 H54        34.3952   38.3052    4.7421 H         1 MET         0.0340
    204 H55        32.4765   39.9115    0.2242 H         1 LYS         0.1883
    205 H56        29.7785   40.6205    0.8321 H         1 LYS         0.0800
    206 H57        29.5430   40.5618   -1.7624 H         1 LYS         0.0312
    207 H58        31.3085   40.2305   -1.7536 H         1 LYS         0.0312
    208 H59        31.7004   42.3745   -0.5774 H         1 LYS         0.0269
    209 H60        29.9352   42.7065   -0.6016 H         1 LYS         0.0269
    210 H61        29.8881   42.9920   -2.9480 H         1 LYS         0.0317
    211 H62        31.4256   42.0943   -3.1865 H         1 LYS         0.0317
    212 H63        32.1037   44.2828   -3.5562 H         1 LYS         0.0813
    213 H64        32.4870   44.0685   -1.8144 H         1 LYS         0.0813
    214 H65        31.4872   46.1891   -2.2598 H         1 LYS         0.1994
    215 H66        30.4906   45.2957   -1.3016 H         1 LYS         0.1994
    216 H67        30.1394   45.4921   -2.8977 H         1 LYS         0.1994
    217 H68        31.0761   37.8180   -0.9422 H         1 GLU         0.1883
    218 H69        28.5825   36.5343   -1.3865 H         1 GLU         0.0801
    219 H70        31.1275   34.9599   -1.1774 H         1 GLU         0.0330
    220 H71        31.0419   36.2805   -2.3920 H         1 GLU         0.0330
    221 H72        30.3076   34.5746   -3.6902 H         1 GLU         0.0433
    222 H73        28.7342   35.0596   -2.9719 H         1 GLU         0.0433
    223 H74        30.1612   36.8434    1.6187 H         1 LEU         0.1883
    224 H75        28.7994   34.3878    2.6515 H         1 LEU         0.0800
    225 H76        29.8424   34.8962    4.7896 H         1 LEU         0.0315
    226 H77        30.5837   36.3706    4.0802 H         1 LEU         0.0315
    227 H78        32.1414   34.9495    2.8396 H         1 LEU         0.0298
    228 H79        33.4401   34.4382    4.9119 H         1 LEU         0.0232
    229 H80        31.9390   34.6292    5.8798 H         1 LEU         0.0232
    230 H81        32.6244   36.0363    4.9983 H         1 LEU         0.0232
    231 H82        30.8662   32.8439    2.7333 H         1 LEU         0.0232
    232 H83        30.9687   32.6875    4.5198 H         1 LEU         0.0232
    233 H84        32.4618   32.6094    3.5241 H         1 LEU         0.0232
    234 H85        28.8907   37.9104    2.7838 H         1 GLU         0.1883
    235 H86        26.7221   38.2982    4.6311 H         1 GLU         0.0801
    236 H87        27.7717   40.0185    2.3458 H         1 GLU         0.0330
    237 H88        28.4181   39.9831    4.0214 H         1 GLU         0.0330
    238 H89        26.4149   40.9827    4.8845 H         1 GLU         0.0433
    239 H90        25.6004   40.8481    3.2892 H         1 GLU         0.0433
    240 H91        26.8559   37.3462    1.2720 H         1 ASN         0.1885
    241 H92        23.9828   37.7454    0.7933 H         1 ASN         0.0826
    242 H93        24.4894   36.3842   -1.3193 H         1 ASN         0.0551
    243 H94        26.2144   36.4394   -0.8211 H         1 ASN         0.0551
    244 H95        26.0545   39.1819   -3.1099 H         1 ASN         0.1814
    245 H96        26.2100   37.4579   -3.0478 H         1 ASN         0.1814
    246 H97        26.2242   34.9634    1.1942 H         1 TRP         0.1884
    247 H98        24.3558   32.8579    1.3138 H         1 TRP         0.0815
    248 H99        26.6039   33.1360    3.2911 H         1 TRP         0.0397
    249 H100       26.9591   33.0192    1.5342 H         1 TRP         0.0397
    250 H101       25.9232   30.6373    0.3615 H         1 TRP         0.0795
    251 H102       26.1937   28.2278    1.3083 H         1 TRP         0.2216
    252 H103       26.7566   31.8581    5.2808 H         1 TRP         0.0540
    253 H104       26.6905   27.0536    3.8392 H         1 TRP         0.0541
    254 H105       27.1505   30.0350    6.9164 H         1 TRP         0.0510
    255 H106       27.0903   27.6633    6.2040 H         1 TRP         0.0530
    256 H107       25.3834   35.1796    3.8321 H         1 ALA         0.1883
    257 H108       23.8855   34.2238    6.0120 H         1 ALA         0.0797
    258 H109       24.1594   36.5168    6.9647 H         1 ALA         0.0277
    259 H110       24.7382   37.0949    5.3655 H         1 ALA         0.0277
    260 H111       25.6875   35.8712    6.2756 H         1 ALA         0.0277
    261 H112       22.9711   36.8960    3.7911 H         1 GLY         0.1881
    262 H113       20.9494   37.8721    3.3400 H         1 GLY         0.0763
    263 H114       20.3876   37.2772    4.9391 H         1 GLY         0.0763
    264 H115       21.4545   34.9072    2.6307 H         1 SER         0.1884
    265 H116       18.7548   34.3756    1.5913 H         1 SER         0.0823
    266 H117       21.0184   34.0856    0.3375 H         1 SER         0.0606
    267 H118       19.7836   32.7913    0.1742 H         1 SER         0.0606
    268 H119       21.9874   32.7830    1.9919 H         1 SER         0.2097
    269 H120       19.4983   34.0879    4.5216 H         1 MET         0.1875
    270 H121       18.5730   31.2813    4.9013 H         1 MET         0.0726
    271 H122       19.2689   31.7080    7.3439 H         1 MET         0.0313
    272 H123       20.1338   33.1517    6.7160 H         1 MET         0.0313
    273 H124       21.2763   31.5426    5.0696 H         1 MET         0.0378
    274 H125       20.6276   30.2191    6.0963 H         1 MET         0.0378
    275 H126       24.4947   30.4328    7.0549 H         1 MET         0.0340
    276 H127       23.7881   30.7664    5.4375 H         1 MET         0.0340
    277 H128       23.1938   29.3765    6.4080 H         1 MET         0.0340
@<TRIPOS>BOND
     1    1    2 1  
     2    2    3 1  
     3    2    5 1  
     4    3    4 2  
     5    3   10 am 
     6    5    6 1  
     7    6    7 1  
     8    7    8 1  
     9    8    9 1  
    10   10   11 1  
    11   11   12 1  
    12   11   14 1  
    13   12   13 2  
    14   12   19 am 
    15   14   15 1  
    16   15   16 1  
    17   16   17 ar 
    18   16   18 ar 
    19   19   20 1  
    20   20   21 1  
    21   20   23 1  
    22   21   22 2  
    23   21   28 am 
    24   23   24 1  
    25   24   25 1  
    26   25   26 ar 
    27   25   27 ar 
    28   28   29 1  
    29   29   30 1  
    30   29   32 1  
    31   30   31 2  
    32   30   37 am 
    33   32   33 1  
    34   33   34 1  
    35   34   35 ar 
    36   34   36 ar 
    37   37   38 1  
    38   38   39 1  
    39   38   41 1  
    40   39   40 2  
    41   39   45 am 
    42   41   42 1  
    43   42   43 ar 
    44   42   44 ar 
    45   45   46 1  
    46   46   47 1  
    47   46   49 1  
    48   47   48 2  
    49   47   53 am 
    50   49   50 1  
    51   50   51 ar 
    52   50   52 ar 
    53   53   54 1  
    54   54   55 1  
    55   54   57 1  
    56   55   56 2  
    57   55   61 am 
    58   57   58 1  
    59   58   59 ar 
    60   58   60 ar 
    61   61   62 1  
    62   62   63 1  
    63   62   65 1  
    64   63   64 2  
    65   63   69 am 
    66   65   66 1  
    67   66   67 1  
    68   67   68 1  
    69   69   70 1  
    70   70   71 1  
    71   70   73 1  
    72   71   72 2  
    73   71   78 am 
    74   73   74 1  
    75   74   75 1  
    76   75   76 1  
    77   76   77 1  
    78   78   79 1  
    79   79   80 1  
    80   79   82 1  
    81   80   81 2  
    82   80   87 am 
    83   82   83 1  
    84   83   84 1  
    85   84   85 ar 
    86   84   86 ar 
    87   87   88 1  
    88   88   89 1  
    89   88   91 1  
    90   89   90 2  
    91   89   95 am 
    92   91   92 1  
    93   92   93 1  
    94   92   94 1  
    95   95   96 1  
    96   96   97 1  
    97   96   99 1  
    98   97   98 2  
    99   97  104 am 
   100   99  100 1  
   101  100  101 1  
   102  101  102 ar 
   103  101  103 ar 
   104  104  105 1  
   105  105  106 1  
   106  105  108 1  
   107  106  107 2  
   108  106  112 am 
   109  108  109 1  
   110  109  110 2  
   111  109  111 am 
   112  112  113 1  
   113  113  114 1  
   114  113  116 1  
   115  114  115 2  
   116  114  126 am 
   117  116  117 1  
   118  117  118 2  
   119  117  119 1  
   120  118  120 1  
   121  119  121 ar 
   122  119  122 ar 
   123  120  121 1  
   124  121  123 ar 
   125  122  124 ar 
   126  123  125 ar 
   127  124  125 ar 
   128  126  127 1  
   129  127  128 1  
   130  127  130 1  
   131  128  129 2  
   132  128  131 am 
   133  131  132 1  
   134  132  133 1  
   135  133  134 2  
   136  133  135 am 
   137  135  136 1  
   138  136  137 1  
   139  136  139 1  
   140  137  138 2  
   141  137  141 am 
   142  139  140 1  
   143  141  142 1  
   144  142  143 1  
   145  142  145 1  
   146  143  144 ar 
   147  143  149 ar 
   148  145  146 1  
   149  146  147 1  
   150  147  148 1  
   151    1  150 1  
   152    1  151 1  
   153    1  152 1  
   154    2  153 1  
   155    5  154 1  
   156    5  155 1  
   157    6  156 1  
   158    6  157 1  
   159    7  158 1  
   160    7  159 1  
   161    8  160 1  
   162    8  161 1  
   163    9  162 1  
   164    9  163 1  
   165    9  164 1  
   166   10  165 1  
   167   11  166 1  
   168   14  167 1  
   169   14  168 1  
   170   15  169 1  
   171   15  170 1  
   172   19  171 1  
   173   20  172 1  
   174   23  173 1  
   175   23  174 1  
   176   24  175 1  
   177   24  176 1  
   178   28  177 1  
   179   29  178 1  
   180   32  179 1  
   181   32  180 1  
   182   33  181 1  
   183   33  182 1  
   184   37  183 1  
   185   38  184 1  
   186   41  185 1  
   187   41  186 1  
   188   45  187 1  
   189   46  188 1  
   190   49  189 1  
   191   49  190 1  
   192   53  191 1  
   193   54  192 1  
   194   57  193 1  
   195   57  194 1  
   196   61  195 1  
   197   62  196 1  
   198   65  197 1  
   199   65  198 1  
   200   66  199 1  
   201   66  200 1  
   202   68  201 1  
   203   68  202 1  
   204   68  203 1  
   205   69  204 1  
   206   70  205 1  
   207   73  206 1  
   208   73  207 1  
   209   74  208 1  
   210   74  209 1  
   211   75  210 1  
   212   75  211 1  
   213   76  212 1  
   214   76  213 1  
   215   77  214 1  
   216   77  215 1  
   217   77  216 1  
   218   78  217 1  
   219   79  218 1  
   220   82  219 1  
   221   82  220 1  
   222   83  221 1  
   223   83  222 1  
   224   87  223 1  
   225   88  224 1  
   226   91  225 1  
   227   91  226 1  
   228   92  227 1  
   229   93  228 1  
   230   93  229 1  
   231   93  230 1  
   232   94  231 1  
   233   94  232 1  
   234   94  233 1  
   235   95  234 1  
   236   96  235 1  
   237   99  236 1  
   238   99  237 1  
   239  100  238 1  
   240  100  239 1  
   241  104  240 1  
   242  105  241 1  
   243  108  242 1  
   244  108  243 1  
   245  111  244 1  
   246  111  245 1  
   247  112  246 1  
   248  113  247 1  
   249  116  248 1  
   250  116  249 1  
   251  118  250 1  
   252  120  251 1  
   253  122  252 1  
   254  123  253 1  
   255  124  254 1  
   256  125  255 1  
   257  126  256 1  
   258  127  257 1  
   259  130  258 1  
   260  130  259 1  
   261  130  260 1  
   262  131  261 1  
   263  132  262 1  
   264  132  263 1  
   265  135  264 1  
   266  136  265 1  
   267  139  266 1  
   268  139  267 1  
   269  140  268 1  
   270  141  269 1  
   271  142  270 1  
   272  145  271 1  
   273  145  272 1  
   274  146  273 1  
   275  146  274 1  
   276  148  275 1  
   277  148  276 1  
   278  148  277 1  
@<TRIPOS>SUBSTRUCTURE
     1 LYS         1

