6gfs_ligand
  -I-interpret- 

 47 46  0  0  0  0  0  0  0  0999 V2000
    2.5620   -0.4540   56.7220 C   0  0  0  0  0
    1.7300   -0.1760   57.6270 O   0  0  0  0  0
    2.5170    0.0630   55.5770 O   0  0  0  0  0
    3.6410   -1.4810   57.0160 C   0  0  0  0  0
    5.0040   -1.1560   56.3990 C   0  0  0  0  0
    7.3750   -0.2960   56.7710 C   0  0  0  0  0
    8.1090   -1.6130   56.5410 C   0  0  0  0  0
    5.9920   -0.5210   57.3810 C   0  0  0  0  0
    9.4580   -1.3970   55.8830 C   0  0  0  0  0
   10.3210   -2.5870   56.2360 C   0  0  0  0  0
   11.6140   -2.5920   55.4610 C   0  0  0  0  0
   12.4220   -3.8410   55.7440 C   0  0  0  0  0
   13.7360   -3.6880   54.9970 C   0  0  0  0  0
   14.6170   -4.9060   55.1210 C   0  0  0  0  0
   15.6260   -4.7790   53.9970 C   0  0  0  0  0
   16.9590   -5.4010   54.3340 C   0  0  0  0  0
   17.8300   -5.2960   53.1090 C   0  0  0  0  0
    1.9412   -0.6760   58.4188 H   0  0  0  0  0
    3.3106   -2.4261   56.5849 H   0  0  0  0  0
    3.7756   -1.5046   58.0974 H   0  0  0  0  0
    4.8346   -0.4365   55.5979 H   0  0  0  0  0
    5.4403   -2.0962   56.0617 H   0  0  0  0  0
    7.2501    0.2009   55.8089 H   0  0  0  0  0
    7.9618    0.3088   57.4624 H   0  0  0  0  0
    7.5016   -2.2338   55.8824 H   0  0  0  0  0
    8.2713   -2.0887   57.5082 H   0  0  0  0  0
    6.1069   -1.2016   58.2246 H   0  0  0  0  0
    5.5941    0.4513   57.6717 H   0  0  0  0  0
    9.9146   -0.4725   56.2364 H   0  0  0  0  0
    9.3488   -1.3083   54.8021 H   0  0  0  0  0
    9.7703   -3.4945   55.9885 H   0  0  0  0  0
   10.5591   -2.5339   57.2984 H   0  0  0  0  0
   12.2012   -1.7241   55.7612 H   0  0  0  0  0
   11.3801   -2.5644   54.3967 H   0  0  0  0  0
   11.8885   -4.7323   55.4138 H   0  0  0  0  0
   12.5943   -3.9585   56.8139 H   0  0  0  0  0
   14.2707   -2.8413   55.4275 H   0  0  0  0  0
   13.5074   -3.5447   53.9409 H   0  0  0  0  0
   14.0421   -5.8289   55.0444 H   0  0  0  0  0
   15.1029   -4.9546   56.0955 H   0  0  0  0  0
   15.7900   -3.7170   53.8143 H   0  0  0  0  0
   15.2247   -5.3004   53.1280 H   0  0  0  0  0
   16.8309   -6.4443   54.6225 H   0  0  0  0  0
   17.4198   -4.8829   55.1751 H   0  0  0  0  0
   17.3585   -5.8282   52.2828 H   0  0  0  0  0
   17.9551   -4.2465   52.8426 H   0  0  0  0  0
   18.8043   -5.7376   53.3185 H   0  0  0  0  0
  1  2  1  0  0  0
  1  3  2  0  0  0
  4  1  1  0  0  0
  5  4  1  0  0  0
  8  5  1  0  0  0
  6  7  1  0  0  0
  6  8  1  0  0  0
  7  9  1  0  0  0
  9 10  1  0  0  0
 10 11  1  0  0  0
 11 12  1  0  0  0
 12 13  1  0  0  0
 13 14  1  0  0  0
 14 15  1  0  0  0
 15 16  1  0  0  0
 16 17  1  0  0  0
  2 18  1  0  0  0
  4 19  1  0  0  0
  4 20  1  0  0  0
  5 21  1  0  0  0
  5 22  1  0  0  0
  6 23  1  0  0  0
  6 24  1  0  0  0
  7 25  1  0  0  0
  7 26  1  0  0  0
  8 27  1  0  0  0
  8 28  1  0  0  0
  9 29  1  0  0  0
  9 30  1  0  0  0
 10 31  1  0  0  0
 10 32  1  0  0  0
 11 33  1  0  0  0
 11 34  1  0  0  0
 12 35  1  0  0  0
 12 36  1  0  0  0
 13 37  1  0  0  0
 13 38  1  0  0  0
 14 39  1  0  0  0
 14 40  1  0  0  0
 15 41  1  0  0  0
 15 42  1  0  0  0
 16 43  1  0  0  0
 16 44  1  0  0  0
 17 45  1  0  0  0
 17 46  1  0  0  0
 17 47  1  0  0  0
M  END
$$$$
