4x1f_ligand
  -I-interpret- 

 45 48  0  0  0  0  0  0  0  0999 V2000
   13.2690   77.1610    0.4730 C   0  0  0  0  0
   13.4010   78.6440    0.7280 C   0  0  0  0  0
   12.7420   79.0240    2.0160 C   0  0  0  0  0
   11.2440   78.8180    1.9050 C   0  0  0  0  0
   10.6430   79.5090    0.7060 C   0  0  0  0  0
    9.2730   79.2850    0.6080 C   0  0  0  0  0
    8.5520   78.9650    1.7410 C   0  0  0  0  0
    7.2040   78.7350    1.7440 C   0  0  0  0  0
    6.5260   78.8350    0.5600 C   0  0  0  0  0
    5.2110   78.6280    0.5720 O   0  0  0  0  0
    7.2330   79.1720   -0.5960 C   0  0  0  0  0
    8.5990   79.3820   -0.5770 C   0  0  0  0  0
    9.2450   79.7200   -1.7420 C   0  0  0  0  0
   10.7230   79.9960   -1.5960 C   0  0  0  0  0
   11.3420   79.1250   -0.5370 C   0  0  0  0  0
   12.7850   79.4680   -0.3430 C   0  0  0  0  0
   13.6610   79.1500   -1.4940 C   0  0  0  0  0
   15.0360   78.9360   -0.8920 C   0  0  0  0  0
   14.8580   79.0300    0.5780 C   0  0  0  0  0
   15.6590   78.1060    1.2190 O   0  0  0  0  0
   15.1180   80.3630    1.0080 C   0  0  0  0  0
   15.2670   81.2040    1.2690 C   0  0  0  0  0
   12.2133   76.8964    0.4135 H   0  0  0  0  0
   13.7613   76.9099   -0.4665 H   0  0  0  0  0
   13.7375   76.6103    1.2887 H   0  0  0  0  0
   12.9472   80.0727    2.2308 H   0  0  0  0  0
   13.1336   78.4002    2.8196 H   0  0  0  0  0
   10.7830   79.2401    2.7980 H   0  0  0  0  0
   11.0622   77.7486    1.7984 H   0  0  0  0  0
   10.7805   80.5808    0.8491 H   0  0  0  0  0
    9.0879   78.8915    2.6873 H   0  0  0  0  0
    6.6829   78.4785    2.6664 H   0  0  0  0  0
    4.8643   78.7285   -0.3175 H   0  0  0  0  0
    6.6936   79.2721   -1.5379 H   0  0  0  0  0
    8.7867   80.6420   -2.0997 H   0  0  0  0  0
    9.1492   78.8669   -2.4137 H   0  0  0  0  0
   10.8535   81.0387   -1.3065 H   0  0  0  0  0
   11.2105   79.7835   -2.5475 H   0  0  0  0  0
   11.2631   78.0704   -0.8010 H   0  0  0  0  0
   12.7404   80.5387   -0.1439 H   0  0  0  0  0
   13.6636   79.9508   -2.2335 H   0  0  0  0  0
   13.3147   78.2690   -2.0344 H   0  0  0  0  0
   15.7450   79.6814   -1.2523 H   0  0  0  0  0
   15.4462   77.9677   -1.1789 H   0  0  0  0  0
   15.5331   78.1787    2.1679 H   0  0  0  0  0
  1  2  1  0  0  0
  2  3  1  0  0  0
  2 16  1  0  0  0
  2 19  1  0  0  0
  3  4  1  0  0  0
  4  5  1  0  0  0
  5  6  1  0  0  0
  5 15  1  0  0  0
  6  7  4  0  0  0
  6 12  4  0  0  0
  7  8  4  0  0  0
  8  9  4  0  0  0
  9 10  1  0  0  0
  9 11  4  0  0  0
 11 12  4  0  0  0
 12 13  1  0  0  0
 13 14  1  0  0  0
 14 15  1  0  0  0
 15 16  1  0  0  0
 16 17  1  0  0  0
 17 18  1  0  0  0
 18 19  1  0  0  0
 19 20  1  0  0  0
 19 21  1  0  0  0
 21 22  3  0  0  0
  1 23  1  0  0  0
  1 24  1  0  0  0
  1 25  1  0  0  0
  3 26  1  0  0  0
  3 27  1  0  0  0
  4 28  1  0  0  0
  4 29  1  0  0  0
  5 30  1  0  0  0
  7 31  1  0  0  0
  8 32  1  0  0  0
 10 33  1  0  0  0
 11 34  1  0  0  0
 13 35  1  0  0  0
 13 36  1  0  0  0
 14 37  1  0  0  0
 14 38  1  0  0  0
 15 39  1  0  0  0
 16 40  1  0  0  0
 17 41  1  0  0  0
 17 42  1  0  0  0
 18 43  1  0  0  0
 18 44  1  0  0  0
 20 45  1  0  0  0
M  END
$$$$
