5aqj_ligand
  -I-interpret- 

 16 17  0  0  0  0  0  0  0  0999 V2000
  153.3650   -4.7480   57.0840 N   0  0  0  0  0
  153.4020   -3.4580   56.7270 C   0  0  0  0  0
  152.6730   -2.8260   55.8040 N   0  0  0  0  0
  151.8060   -3.6660   55.2060 C   0  0  0  0  0
  151.6600   -5.0200   55.4690 C   0  0  0  0  0
  152.4950   -5.5750   56.4560 C   0  0  0  0  0
  152.5380   -6.8770   56.7430 N   0  0  0  0  0
  150.6610   -5.5720   54.6800 N   0  0  0  0  0
  150.2060   -4.5310   53.9710 C   0  0  0  0  0
  149.1560   -4.5830   53.1460 N   0  0  0  0  0
  150.8710   -3.3620   54.2370 N   0  0  0  0  0
  154.1242   -2.8410   57.2616 H   0  0  0  0  0
  153.2146   -7.2277   57.4209 H   0  0  0  0  0
  151.8942   -7.5218   56.2846 H   0  0  0  0  0
  148.6451   -5.4575   53.0253 H   0  0  0  0  0
  148.8655   -3.7482   52.6370 H   0  0  0  0  0
  1  2  4  0  0  0
  1  6  4  0  0  0
  2  3  4  0  0  0
  3  4  4  0  0  0
  4  5  4  0  0  0
  4 11  4  0  0  0
  5  6  4  0  0  0
  5  8  4  0  0  0
  6  7  1  0  0  0
  8  9  4  0  0  0
  9 10  1  0  0  0
  9 11  4  0  0  0
  2 12  1  0  0  0
  7 13  1  0  0  0
  7 14  1  0  0  0
 10 15  1  0  0  0
 10 16  1  0  0  0
M  END
$$$$
