5ya5_ligand
  -I-interpret- 

 40 44  0  0  0  0  0  0  0  0999 V2000
   16.5560  -15.0110  -17.2240 C   0  0  0  0  0
   17.2390  -13.9120  -17.7090 O   0  0  0  0  0
   16.6250  -13.1000  -18.6310 C   0  0  0  0  0
   17.3210  -12.0210  -19.1530 C   0  0  0  0  0
   16.7170  -11.1910  -20.0830 C   0  0  0  0  0
   15.3240  -13.3470  -19.0340 C   0  0  0  0  0
   14.7140  -12.5130  -19.9640 C   0  0  0  0  0
   15.4140  -11.4320  -20.4880 C   0  0  0  0  0
   14.7880  -10.5210  -21.4930 C   0  0  0  0  0
   14.3770   -9.2190  -20.8690 C   0  0  0  0  0
   14.9520   -8.0360  -21.0170 N   0  0  0  0  0
   14.2700   -7.1370  -20.3010 N   0  0  0  0  0
   13.2390   -7.7360  -19.6770 C   0  0  0  0  0
   11.8750   -7.5770  -18.6190 S   0  0  0  0  0
   13.2810   -9.0500  -20.0220 N   0  0  0  0  0
   12.3200   -9.8800  -19.4960 N   0  0  0  0  0
   11.4500   -9.2760  -18.6790 C   0  0  0  0  0
   10.2960   -9.9290  -18.0380 C   0  0  0  0  0
    9.9690  -11.2840  -18.1280 C   0  0  0  0  0
    8.7420  -11.4220  -17.4030 C   0  0  0  0  0
    7.9100  -12.5290  -17.1070 C   0  0  0  0  0
    6.7490  -12.3410  -16.3550 C   0  0  0  0  0
    6.3970  -11.0650  -15.8930 C   0  0  0  0  0
    7.2130   -9.9740  -16.1780 C   0  0  0  0  0
    8.3980  -10.1680  -16.9430 C   0  0  0  0  0
    9.3520   -9.2760  -17.3590 N   0  0  0  0  0
   15.6412  -14.6806  -16.7320 H   0  0  0  0  0
   16.3057  -15.6756  -18.0509 H   0  0  0  0  0
   17.1843  -15.5406  -16.5078 H   0  0  0  0  0
   18.3440  -11.8255  -18.8315 H   0  0  0  0  0
   17.2679  -10.3465  -20.4971 H   0  0  0  0  0
   14.7777  -14.1955  -18.6221 H   0  0  0  0  0
   13.6893  -12.7061  -20.2817 H   0  0  0  0  0
   13.9000  -11.0077  -21.8963 H   0  0  0  0  0
   15.5177  -10.3150  -22.2761 H   0  0  0  0  0
   10.5276  -12.0676  -18.6399 H   0  0  0  0  0
    8.1750  -13.5239  -17.4649 H   0  0  0  0  0
    6.1104  -13.1939  -16.1250 H   0  0  0  0  0
    5.4855  -10.9275  -15.3114 H   0  0  0  0  0
    6.9471   -8.9799  -15.8187 H   0  0  0  0  0
  1  2  1  0  0  0
  2  3  1  0  0  0
  3  4  4  0  0  0
  3  6  4  0  0  0
  4  5  4  0  0  0
  5  8  4  0  0  0
  6  7  4  0  0  0
  7  8  4  0  0  0
  8  9  1  0  0  0
  9 10  1  0  0  0
 10 11  4  0  0  0
 10 15  4  0  0  0
 11 12  4  0  0  0
 12 13  4  0  0  0
 13 14  4  0  0  0
 13 15  4  0  0  0
 14 17  4  0  0  0
 15 16  4  0  0  0
 16 17  4  0  0  0
 17 18  1  0  0  0
 18 19  4  0  0  0
 18 26  4  0  0  0
 19 20  4  0  0  0
 20 21  4  0  0  0
 20 25  4  0  0  0
 21 22  4  0  0  0
 22 23  4  0  0  0
 23 24  4  0  0  0
 24 25  4  0  0  0
 25 26  4  0  0  0
  1 27  1  0  0  0
  1 28  1  0  0  0
  1 29  1  0  0  0
  4 30  1  0  0  0
  5 31  1  0  0  0
  6 32  1  0  0  0
  7 33  1  0  0  0
  9 34  1  0  0  0
  9 35  1  0  0  0
 19 36  1  0  0  0
 21 37  1  0  0  0
 22 38  1  0  0  0
 23 39  1  0  0  0
 24 40  1  0  0  0
M  END
$$$$
