5cy9_ligand
  -I-interpret- 

 43 45  0  0  0  0  0  0  0  0999 V2000
   -8.8750   24.3160   -6.4940 C   0  0  0  0  0
   -8.5290   22.9580   -6.9770 C   0  0  0  0  0
   -7.0850   22.8260   -6.5660 C   0  0  0  0  0
   -6.7720   21.3800   -6.8980 C   0  0  0  0  0
   -4.9900   21.1780   -6.6360 S   0  0  0  0  0
   -4.6470   19.7790   -7.0960 O   0  0  0  0  0
   -4.2640   22.2350   -7.4580 O   0  0  0  0  0
   -4.6160   21.3760   -5.0860 N   0  0  0  0  0
   -5.3110   20.7300   -4.0890 C   0  0  0  0  0
   -5.7320   19.3870   -4.1700 C   0  0  0  0  0
   -6.4260   18.8120   -3.0860 C   0  0  0  0  0
   -6.6670   19.5480   -1.9610 C   0  0  0  0  0
   -6.2490   20.8070   -1.8830 C   0  0  0  0  0
   -5.5910   21.4500   -2.8860 C   0  0  0  0  0
   -5.2070   22.7860   -2.5980 C   0  0  0  0  0
   -5.5560   23.3570   -1.3600 C   0  0  0  0  0
   -6.2300   22.5980   -0.3880 C   0  0  0  0  0
   -6.5930   21.3320   -0.6690 C   0  0  0  0  0
   -7.2400   20.3560    0.0030 C   0  0  0  0  0
   -7.8020   20.4080    1.1210 O   0  0  0  0  0
   -7.3090   19.2660   -0.7980 N   0  0  0  0  0
   -7.9650   18.0500   -0.3940 C   0  0  0  0  0
   -9.3640   18.0790   -0.9780 C   0  0  0  0  0
   -8.7354   24.3626   -5.4140 H   0  0  0  0  0
   -8.2278   25.0480   -6.9772 H   0  0  0  0  0
   -9.9153   24.5325   -6.7369 H   0  0  0  0  0
   -8.6818   22.8334   -8.0490 H   0  0  0  0  0
   -9.1661   22.1795   -6.5574 H   0  0  0  0  0
   -6.9193   23.0656   -5.5156 H   0  0  0  0  0
   -6.4314   23.5304   -7.0804 H   0  0  0  0  0
   -7.0482   21.1433   -7.9255 H   0  0  0  0  0
   -7.3425   20.6987   -6.2667 H   0  0  0  0  0
   -3.8452   21.9951   -4.8349 H   0  0  0  0  0
   -5.5227   18.7983   -5.0631 H   0  0  0  0  0
   -6.7704   17.7796   -3.1457 H   0  0  0  0  0
   -4.6456   23.3656   -3.3308 H   0  0  0  0  0
   -5.3015   24.3965   -1.1533 H   0  0  0  0  0
   -6.4573   23.0309    0.5862 H   0  0  0  0  0
   -8.0045   17.9784    0.6929 H   0  0  0  0  0
   -7.4165   17.1800   -0.7552 H   0  0  0  0  0
   -9.8982   18.9486   -0.5952 H   0  0  0  0  0
   -9.3016   18.1386   -2.0646 H   0  0  0  0  0
   -9.8944   17.1705   -0.6925 H   0  0  0  0  0
  1  2  1  0  0  0
  2  3  1  0  0  0
  3  4  1  0  0  0
  4  5  1  0  0  0
  5  6  2  0  0  0
  5  7  2  0  0  0
  5  8  1  0  0  0
  8  9  1  0  0  0
  9 10  4  0  0  0
  9 14  4  0  0  0
 10 11  4  0  0  0
 11 12  4  0  0  0
 12 13  4  0  0  0
 12 21  1  0  0  0
 13 14  4  0  0  0
 13 18  4  0  0  0
 14 15  4  0  0  0
 15 16  4  0  0  0
 16 17  4  0  0  0
 17 18  4  0  0  0
 18 19  1  0  0  0
 19 20  2  0  0  0
 19 21  1  0  0  0
 21 22  1  0  0  0
 22 23  1  0  0  0
  1 24  1  0  0  0
  1 25  1  0  0  0
  1 26  1  0  0  0
  2 27  1  0  0  0
  2 28  1  0  0  0
  3 29  1  0  0  0
  3 30  1  0  0  0
  4 31  1  0  0  0
  4 32  1  0  0  0
  8 33  1  0  0  0
 10 34  1  0  0  0
 11 35  1  0  0  0
 15 36  1  0  0  0
 16 37  1  0  0  0
 17 38  1  0  0  0
 22 39  1  0  0  0
 22 40  1  0  0  0
 23 41  1  0  0  0
 23 42  1  0  0  0
 23 43  1  0  0  0
M  END
$$$$
