6hk4_ligand
  -I-interpret- 

 51 54  0  0  0  0  0  0  0  0999 V2000
  -17.1300    0.5750  -11.1170 C   0  0  0  0  0
  -12.6690    3.2350   -6.1590 C   0  0  0  0  0
  -12.2380    4.3220   -6.9360 C   0  0  0  0  0
  -11.7710    5.4820   -4.9990 C   0  0  0  0  0
  -12.2060    4.3960   -4.2400 C   0  0  0  0  0
  -12.1970    4.3700   -2.7260 C   0  0  0  0  0
  -12.7840    2.8300   -0.7530 C   0  0  0  0  0
  -12.3780    3.7460    0.1570 C   0  0  0  0  0
  -12.4610    3.4660    1.4670 C   0  0  0  0  0
  -12.9740    2.2530    1.8890 C   0  0  0  0  0
  -13.3000    1.6260   -0.3280 C   0  0  0  0  0
  -18.3630   -0.9740   -9.8350 C   0  0  0  0  0
  -15.8990   -0.1290  -10.5200 C   0  0  0  0  0
  -17.0250   -1.1960   -9.1280 C   0  0  0  0  0
  -14.1590   -0.1850   -8.2390 C   0  0  0  0  0
  -14.5860    0.0450   -6.9250 C   0  0  0  0  0
  -14.0970    1.1450   -6.2360 C   0  0  0  0  0
  -13.1990    2.0000   -6.8680 C   0  0  0  0  0
  -12.7970    1.7650   -8.1690 C   0  0  0  0  0
  -13.2580    0.6610   -8.8750 C   0  0  0  0  0
  -16.0660   -1.2140   -9.9200 N   0  0  0  0  0
  -11.7790    5.4230   -6.3400 N   0  0  0  0  0
  -12.6590    3.3040   -4.8230 N   0  0  0  0  0
  -12.7020    3.1010   -2.1730 N   0  0  0  0  0
  -13.3990    1.3500    0.9930 N   0  0  0  0  0
  -11.2740    6.6540   -4.3440 N   0  0  0  0  0
  -18.3780    0.1930  -10.6080 O   0  0  0  0  0
  -13.6630   -2.0380  -10.2620 O   0  0  0  0  0
  -15.2230   -2.7910   -8.1030 O   0  0  0  0  0
  -11.7790    5.2950   -2.0910 O   0  0  0  0  0
  -14.7910   -1.6060   -9.1490 S   0  0  0  0  0
  -17.1432    0.3134  -12.1751 H   0  0  0  0  0
  -17.0179    1.6325  -10.8779 H   0  0  0  0  0
  -12.2785    4.2661   -8.0238 H   0  0  0  0  0
  -11.9850    4.7077   -0.1729 H   0  0  0  0  0
  -12.1228    4.1974    2.2010 H   0  0  0  0  0
  -13.0332    2.0299    2.9543 H   0  0  0  0  0
  -13.6310    0.8902   -1.0609 H   0  0  0  0  0
  -19.1340   -0.8791   -9.0704 H   0  0  0  0  0
  -18.5338   -1.8194  -10.5016 H   0  0  0  0  0
  -15.5149    0.5580   -9.7660 H   0  0  0  0  0
  -15.2656   -0.3694  -11.3738 H   0  0  0  0  0
  -17.0656   -2.1629   -8.6264 H   0  0  0  0  0
  -16.8712   -0.3716   -8.4318 H   0  0  0  0  0
  -15.2947   -0.6329   -6.4492 H   0  0  0  0  0
  -14.4126    1.3377   -5.2106 H   0  0  0  0  0
  -12.1063    2.4578   -8.6496 H   0  0  0  0  0
  -12.9242    0.4647   -9.8939 H   0  0  0  0  0
  -13.0091    2.3774   -2.8229 H   0  0  0  0  0
  -11.2389    6.6928   -3.3253 H   0  0  0  0  0
  -10.9550    7.4502   -4.8960 H   0  0  0  0  0
 13  1  1  0  0  0
  1 27  1  0  0  0
  2  3  4  0  0  0
 18  2  1  0  0  0
  2 23  4  0  0  0
  3 22  4  0  0  0
  5  4  4  0  0  0
 22  4  4  0  0  0
  4 26  1  0  0  0
  5  6  1  0  0  0
 23  5  4  0  0  0
  6 24  1  0  0  0
  6 30  2  0  0  0
  7  8  4  0  0  0
  7 11  4  0  0  0
 24  7  1  0  0  0
  8  9  4  0  0  0
  9 10  4  0  0  0
 25 10  4  0  0  0
 11 25  4  0  0  0
 14 12  1  0  0  0
 12 27  1  0  0  0
 21 13  1  0  0  0
 21 14  1  0  0  0
 15 16  4  0  0  0
 15 20  4  0  0  0
 31 15  1  0  0  0
 16 17  4  0  0  0
 17 18  4  0  0  0
 19 18  4  0  0  0
 20 19  4  0  0  0
 21 31  1  0  0  0
 31 28  2  0  0  0
 31 29  2  0  0  0
  1 32  1  0  0  0
  1 33  1  0  0  0
  3 34  1  0  0  0
  8 35  1  0  0  0
  9 36  1  0  0  0
 10 37  1  0  0  0
 11 38  1  0  0  0
 12 39  1  0  0  0
 12 40  1  0  0  0
 13 41  1  0  0  0
 13 42  1  0  0  0
 14 43  1  0  0  0
 14 44  1  0  0  0
 16 45  1  0  0  0
 17 46  1  0  0  0
 19 47  1  0  0  0
 20 48  1  0  0  0
 24 49  1  0  0  0
 26 50  1  0  0  0
 26 51  1  0  0  0
M  END
$$$$
