6cpa_ligand
  -I-interpret- 

 60 61  0  0  0  0  0  0  0  0999 V2000
   43.3530   21.9810   33.0060 O   0  0  0  0  0
   44.9330   20.7080   33.7910 O   0  0  0  0  0
   44.3810   21.7620   33.7870 C   0  0  0  0  0
   45.8010   23.7200   33.8630 C   0  0  0  0  0
   45.4530   24.3240   32.6120 C   0  0  0  0  0
   44.9300   25.5720   32.5610 C   0  0  0  0  0
   44.5940   26.1140   31.3700 C   0  0  0  0  0
   44.8270   25.4430   30.2220 C   0  0  0  0  0
   45.3800   24.2100   30.2690 C   0  0  0  0  0
   45.6730   23.6490   31.4630 C   0  0  0  0  0
   44.7860   22.8600   34.6250 C   0  0  0  0  0
   45.3620   22.1520   35.7500 O   0  0  0  0  0
   44.3570   21.6130   37.0050 P   0  0  0  0  0
   43.1950   20.7680   36.4200 O   0  0  0  0  0
   43.9570   22.8250   37.8750 O   0  0  0  0  0
   45.3160   20.6070   38.0430 C   0  0  0  0  0
   46.5850   21.2440   38.6590 C   0  0  0  0  0
   45.7960   19.4980   37.2930 N   0  0  0  0  0
   45.3570   18.2410   37.4320 C   0  0  0  0  0
   44.3410   18.0080   38.0120 O   0  0  0  0  0
   46.1970   17.2370   36.8460 C   0  0  0  0  0
   45.5300   16.7620   35.5390 C   0  0  0  0  0
   46.5150   16.1430   37.6990 N   0  0  0  0  0
   47.2360   16.1680   38.8220 C   0  0  0  0  0
   47.3660   15.1310   39.4080 O   0  0  0  0  0
   47.7820   17.3100   39.2160 O   0  0  0  0  0
   48.9620   17.2330   39.9760 C   0  0  0  0  0
   49.7750   18.4090   40.1040 C   0  0  0  0  0
   50.2630   18.9960   38.9920 C   0  0  0  0  0
   51.0300   20.1000   39.0890 C   0  0  0  0  0
   51.3450   20.5950   40.3010 C   0  0  0  0  0
   50.8600   20.0080   41.4110 C   0  0  0  0  0
   50.0880   18.9060   41.3200 C   0  0  0  0  0
   43.0392   22.8789   33.1362 H   0  0  0  0  0
   45.9856   24.5655   34.5257 H   0  0  0  0  0
   46.6029   23.0262   33.6107 H   0  0  0  0  0
   44.7803   26.1387   33.4800 H   0  0  0  0  0
   44.1314   27.1004   31.3357 H   0  0  0  0  0
   44.5708   25.8926   29.2627 H   0  0  0  0  0
   45.5890   23.6697   29.3457 H   0  0  0  0  0
   46.0906   22.6428   31.4991 H   0  0  0  0  0
   44.0031   23.5547   34.9294 H   0  0  0  0  0
   43.5559   20.0462   35.9001 H   0  0  0  0  0
   44.6363   20.3689   38.8612 H   0  0  0  0  0
   47.2535   21.5646   37.8600 H   0  0  0  0  0
   46.3007   22.1050   39.2640 H   0  0  0  0  0
   47.0913   20.5095   39.2853 H   0  0  0  0  0
   46.5251   19.6725   36.6014 H   0  0  0  0  0
   47.1660   17.6962   36.6503 H   0  0  0  0  0
   44.5473   16.3475   35.7639 H   0  0  0  0  0
   45.4223   17.6074   34.8595 H   0  0  0  0  0
   46.1507   15.9966   35.0732 H   0  0  0  0  0
   46.1489   15.2330   37.4193 H   0  0  0  0  0
   49.5889   16.5096   39.4547 H   0  0  0  0  0
   48.6327   17.0036   40.9894 H   0  0  0  0  0
   50.0364   18.5762   38.0119 H   0  0  0  0  0
   51.3950   20.5917   38.1872 H   0  0  0  0  0
   51.9912   21.4690   40.3831 H   0  0  0  0  0
   51.0929   20.4263   42.3902 H   0  0  0  0  0
   49.7188   18.4193   42.2227 H   0  0  0  0  0
  3  1  1  0  0  0
 11  3  1  0  0  0
  4  5  1  0  0  0
 11  4  1  0  0  0
  5  6  4  0  0  0
  5 10  4  0  0  0
  6  7  4  0  0  0
  7  8  4  0  0  0
  8  9  4  0  0  0
  9 10  4  0  0  0
 11 12  1  0  0  0
 12 13  1  0  0  0
 13 14  1  0  0  0
 13 15  2  0  0  0
 13 16  1  0  0  0
 16 17  1  0  0  0
 16 18  1  0  0  0
 18 19  1  0  0  0
 19 20  2  0  0  0
 19 21  1  0  0  0
 21 22  1  0  0  0
 21 23  1  0  0  0
 23 24  1  0  0  0
 24 25  2  0  0  0
 24 26  1  0  0  0
 26 27  1  0  0  0
 27 28  1  0  0  0
 28 29  4  0  0  0
 28 33  4  0  0  0
 29 30  4  0  0  0
 30 31  4  0  0  0
 31 32  4  0  0  0
 32 33  4  0  0  0
  3  2  2  0  0  0
  1 34  1  0  0  0
  4 35  1  0  0  0
  4 36  1  0  0  0
  6 37  1  0  0  0
  7 38  1  0  0  0
  8 39  1  0  0  0
  9 40  1  0  0  0
 10 41  1  0  0  0
 11 42  1  0  0  0
 14 43  1  0  0  0
 16 44  1  0  0  0
 17 45  1  0  0  0
 17 46  1  0  0  0
 17 47  1  0  0  0
 18 48  1  0  0  0
 21 49  1  0  0  0
 22 50  1  0  0  0
 22 51  1  0  0  0
 22 52  1  0  0  0
 23 53  1  0  0  0
 27 54  1  0  0  0
 27 55  1  0  0  0
 29 56  1  0  0  0
 30 57  1  0  0  0
 31 58  1  0  0  0
 32 59  1  0  0  0
 33 60  1  0  0  0
M  END
$$$$
