2wf2_ligand
  -I-interpret- 

 85 89  0  0  0  0  0  0  0  0999 V2000
   30.5630    1.3650   34.7320 C   0  0  0  0  0
   29.3620    1.3030   34.0910 N   0  0  0  0  0
   29.0290    2.2730   33.0400 C   0  0  0  0  0
   28.1710    3.4650   33.5180 C   0  0  0  0  0
   28.3780    1.4980   31.8540 C   0  0  0  0  0
   28.9830    4.4320   34.3660 C   0  0  0  0  0
   31.3780    2.2620   34.5060 O   0  0  0  0  0
   30.8990    0.2050   35.5510 C   0  0  0  0  0
   31.5450    0.3730   36.7840 C   0  0  0  0  0
   31.9170   -0.7490   37.5690 C   0  0  0  0  0
   31.6390   -2.1050   37.1020 C   0  0  0  0  0
   30.9480   -2.2770   35.8440 C   0  0  0  0  0
   30.5940   -1.0970   35.0800 C   0  0  0  0  0
   29.1840    0.2640   31.4150 C   0  0  0  0  0
   28.4390   -0.9400   31.1480 C   0  0  0  0  0
   29.1260   -2.1360   30.7520 C   0  0  0  0  0
   30.5530   -2.1170   30.6310 C   0  0  0  0  0
   31.3100   -0.9230   30.8950 C   0  0  0  0  0
   30.6270    0.2720   31.2880 C   0  0  0  0  0
   28.1070    5.5620   34.7890 N   0  3  0  0  0
   27.7070    4.2370   32.4050 O   0  0  0  0  0
   28.8850    6.5690   35.5530 C   0  0  0  0  0
   29.9720    7.1960   34.6780 C   0  0  0  0  0
   29.6470    7.6780   33.3630 C   0  0  0  0  0
   30.6850    8.2480   32.5360 C   0  0  0  0  0
   32.0190    8.3210   33.0460 C   0  0  0  0  0
   32.3460    7.8490   34.3520 C   0  0  0  0  0
   31.3130    7.2850   35.1630 C   0  0  0  0  0
   30.4950    8.7470   31.2400 O   0  0  0  0  0
   29.1850    8.7110   30.6530 C   0  0  0  0  0
   32.0810   -3.2740   37.7790 N   0  0  0  0  0
   30.9220   -4.8100   36.1070 C   0  0  0  0  0
   30.6190   -3.5620   35.3500 N   0  0  0  0  0
   32.3170   -0.4430   38.9020 N   0  0  0  0  0
   31.6130   -1.3220   40.2220 S   0  0  0  0  0
   32.4220   -2.8910   40.2980 C   0  0  0  0  0
   33.0030   -3.2640   38.9370 C   0  0  0  0  0
   29.9190   -3.7890   34.0730 C   0  0  0  0  0
   28.4050   -3.9410   34.3250 C   0  0  0  0  0
   33.5990    0.3120   39.0400 C   0  0  0  0  0
   30.2330   -1.5320   39.8820 O   0  0  0  0  0
   31.9330   -0.5510   41.3970 O   0  0  0  0  0
   31.8280   -4.6500   37.3220 C   0  0  0  0  0
   28.6900    0.5781   34.3429 H   0  0  0  0  0
   29.9525    2.7505   32.7126 H   0  0  0  0  0
   27.3484    3.0317   34.0869 H   0  0  0  0  0
   28.3298    2.1785   31.0038 H   0  0  0  0  0
   27.3998    1.1504   32.1862 H   0  0  0  0  0
   29.8215    4.8153   33.7846 H   0  0  0  0  0
   29.3667    3.9157   35.2459 H   0  0  0  0  0
   31.7642    1.3782   37.1441 H   0  0  0  0  0
   30.0831   -1.2131   34.1242 H   0  0  0  0  0
   27.3535   -0.9424   31.2468 H   0  0  0  0  0
   28.5678   -3.0492   30.5455 H   0  0  0  0  0
   31.0758   -3.0258   30.3328 H   0  0  0  0  0
   32.3955   -0.9280   30.7966 H   0  0  0  0  0
   31.1898    1.1832   31.4906 H   0  0  0  0  0
   27.3629    5.1982   35.3844 H   0  0  0  0  0
   27.7171    6.0068   33.9580 H   0  0  0  0  0
   27.1827    3.6787   31.8261 H   0  0  0  0  0
   29.3588    6.0761   36.4019 H   0  0  0  0  0
   28.2081    7.3547   35.8886 H   0  0  0  0  0
   28.6239    7.6137   32.9926 H   0  0  0  0  0
   32.8046    8.7474   32.4221 H   0  0  0  0  0
   33.3677    7.9174   34.7255 H   0  0  0  0  0
   31.5507    6.9190   36.1618 H   0  0  0  0  0
   28.8419    7.6780   30.5964 H   0  0  0  0  0
   28.4966    9.2907   31.2680 H   0  0  0  0  0
   29.2256    9.1371   29.6506 H   0  0  0  0  0
   31.4496   -5.4672   35.4158 H   0  0  0  0  0
   29.9680   -5.1797   36.4828 H   0  0  0  0  0
   31.6952   -3.6487   40.5908 H   0  0  0  0  0
   33.2329   -2.8348   41.0242 H   0  0  0  0  0
   33.7446   -2.4967   38.7146 H   0  0  0  0  0
   33.3553   -4.2903   39.0400 H   0  0  0  0  0
   30.3000   -4.6996   33.6108 H   0  0  0  0  0
   30.0903   -2.9388   33.4127 H   0  0  0  0  0
   28.2315   -4.7895   34.9869 H   0  0  0  0  0
   28.0222   -3.0321   34.7893 H   0  0  0  0  0
   27.8951   -4.1084   33.3763 H   0  0  0  0  0
   33.4874    1.0777   39.8077 H   0  0  0  0  0
   34.3955   -0.3758   39.3241 H   0  0  0  0  0
   33.8461    0.7829   38.0885 H   0  0  0  0  0
   31.3190   -5.1516   38.1450 H   0  0  0  0  0
   32.7976   -5.0530   37.0295 H   0  0  0  0  0
  1  2  1  0  0  0
  1  7  2  0  0  0
  1  8  1  0  0  0
  2  3  1  0  0  0
  3  4  1  0  0  0
  3  5  1  0  0  0
  4  6  1  0  0  0
  4 21  1  0  0  0
  5 14  1  0  0  0
  6 20  1  0  0  0
  8  9  4  0  0  0
  8 13  4  0  0  0
  9 10  4  0  0  0
 10 11  4  0  0  0
 10 34  1  0  0  0
 11 12  4  0  0  0
 11 31  1  0  0  0
 12 13  4  0  0  0
 12 33  1  0  0  0
 14 15  4  0  0  0
 14 19  4  0  0  0
 15 16  4  0  0  0
 16 17  4  0  0  0
 17 18  4  0  0  0
 18 19  4  0  0  0
 20 22  1  0  0  0
 22 23  1  0  0  0
 23 24  4  0  0  0
 23 28  4  0  0  0
 24 25  4  0  0  0
 25 26  4  0  0  0
 25 29  1  0  0  0
 26 27  4  0  0  0
 27 28  4  0  0  0
 29 30  1  0  0  0
 31 37  1  0  0  0
 31 43  1  0  0  0
 33 32  1  0  0  0
 32 43  1  0  0  0
 33 38  1  0  0  0
 34 35  1  0  0  0
 34 40  1  0  0  0
 35 36  1  0  0  0
 35 41  2  0  0  0
 35 42  2  0  0  0
 36 37  1  0  0  0
 38 39  1  0  0  0
  2 44  1  0  0  0
  3 45  1  0  0  0
  4 46  1  0  0  0
  5 47  1  0  0  0
  5 48  1  0  0  0
  6 49  1  0  0  0
  6 50  1  0  0  0
  9 51  1  0  0  0
 13 52  1  0  0  0
 15 53  1  0  0  0
 16 54  1  0  0  0
 17 55  1  0  0  0
 18 56  1  0  0  0
 19 57  1  0  0  0
 20 58  1  0  0  0
 20 59  1  0  0  0
 21 60  1  0  0  0
 22 61  1  0  0  0
 22 62  1  0  0  0
 24 63  1  0  0  0
 26 64  1  0  0  0
 27 65  1  0  0  0
 28 66  1  0  0  0
 30 67  1  0  0  0
 30 68  1  0  0  0
 30 69  1  0  0  0
 32 70  1  0  0  0
 32 71  1  0  0  0
 36 72  1  0  0  0
 36 73  1  0  0  0
 37 74  1  0  0  0
 37 75  1  0  0  0
 38 76  1  0  0  0
 38 77  1  0  0  0
 39 78  1  0  0  0
 39 79  1  0  0  0
 39 80  1  0  0  0
 40 81  1  0  0  0
 40 82  1  0  0  0
 40 83  1  0  0  0
 43 84  1  0  0  0
 43 85  1  0  0  0
M  END
$$$$
