5hvu_ligand
  -I-interpret- 

 60 63  0  0  0  0  0  0  0  0999 V2000
   49.9970  104.8480   34.4160 C   0  0  0  0  0
   48.9500  105.1880   35.2600 C   0  0  0  0  0
   48.0920  104.2030   35.7300 C   0  0  0  0  0
   49.7930  107.0880   36.4140 C   0  0  0  0  0
   49.4860  109.5230   36.8830 C   0  0  0  0  0
   51.1840  112.9770   36.8230 C   0  0  0  0  0
   51.5990  111.9600   38.9830 C   0  0  0  0  0
   51.3200  103.1590   33.1280 C   0  0  0  0  0
   50.8930  102.5340   29.4380 C   0  0  0  0  0
   50.1970  103.1550   27.1280 C   0  0  0  0  0
   50.1790  100.8070   26.3350 C   0  0  0  0  0
   49.5400  100.1500   24.1240 C   0  0  0  0  0
   48.2830  102.8880   35.3560 C   0  0  0  0  0
   49.3270  102.5510   34.5140 C   0  0  0  0  0
   50.1830  103.5300   34.0450 C   0  0  0  0  0
   48.7650  106.4840   35.6270 O   0  0  0  0  0
   50.0640  108.5040   35.8990 C   0  0  0  0  0
   50.5370  110.5930   37.1850 C   0  0  0  0  0
   50.1630  111.8940   36.4690 C   0  0  0  0  0
   51.1970  113.1830   38.2770 N   0  3  0  0  0
   50.5900  110.8470   38.6940 C   0  0  0  0  0
   50.8840  103.3240   31.6950 C   0  0  0  0  0
   50.1870  104.2690   31.3850 O   0  0  0  0  0
   51.2730  102.4190   30.7710 N   0  0  0  0  0
   50.7480  101.5460   28.6120 N   0  0  0  0  0
   50.3780  101.8440   27.3740 C   0  0  0  0  0
   50.5320  104.0460   28.6100 S   0  0  0  0  0
   49.7120  101.1470   25.0610 C   0  0  0  0  0
   49.8100   98.8910   24.4160 N   0  0  0  0  0
   50.2530   98.5280   25.6050 C   0  0  0  0  0
   50.4520   99.4610   26.6010 C   0  0  0  0  0
   50.6722  105.6195   34.0459 H   0  0  0  0  0
   47.2686  104.4676   36.3934 H   0  0  0  0  0
   50.7038  106.4938   36.3400 H   0  0  0  0  0
   49.4736  107.1348   37.4551 H   0  0  0  0  0
   49.2062  109.0174   37.8072 H   0  0  0  0  0
   48.6052  109.9923   36.4447 H   0  0  0  0  0
   50.9115  113.9086   36.3270 H   0  0  0  0  0
   52.1743  112.6641   36.4920 H   0  0  0  0  0
   51.6285  112.1533   40.0553 H   0  0  0  0  0
   52.5869  111.6518   38.6407 H   0  0  0  0  0
   51.6050  102.1217   33.3039 H   0  0  0  0  0
   52.1727  103.8086   33.3254 H   0  0  0  0  0
   49.8950  103.5904   26.1754 H   0  0  0  0  0
   49.1761  100.4048   23.1286 H   0  0  0  0  0
   47.6099  102.1141   35.7249 H   0  0  0  0  0
   49.4752  101.5120   34.2197 H   0  0  0  0  0
   49.5936  108.6326   34.9242 H   0  0  0  0  0
   51.1391  108.6576   35.8061 H   0  0  0  0  0
   51.5111  110.2496   36.8367 H   0  0  0  0  0
   50.1630  111.7306   35.3913 H   0  0  0  0  0
   49.1694  112.2118   36.7848 H   0  0  0  0  0
   50.2565  113.4385   38.5780 H   0  0  0  0  0
   51.8672  113.9202   38.4954 H   0  0  0  0  0
   49.6039  111.1467   39.0489 H   0  0  0  0  0
   50.8949  109.9351   39.2075 H   0  0  0  0  0
   51.8582  101.6341   31.0570 H   0  0  0  0  0
   49.4875  102.1843   24.8127 H   0  0  0  0  0
   50.4644   97.4771   25.8024 H   0  0  0  0  0
   50.8167   99.1541   27.5812 H   0  0  0  0  0
  1  2  4  0  0  0
 15  1  4  0  0  0
  2  3  4  0  0  0
  2 16  1  0  0  0
 13  3  4  0  0  0
 16  4  1  0  0  0
  4 17  1  0  0  0
 17  5  1  0  0  0
  5 18  1  0  0  0
 19  6  1  0  0  0
  6 20  1  0  0  0
  7 20  1  0  0  0
 21  7  1  0  0  0
  8 15  1  0  0  0
 22  8  1  0  0  0
 24  9  1  0  0  0
  9 25  4  0  0  0
  9 27  4  0  0  0
 10 26  4  0  0  0
 27 10  4  0  0  0
 26 11  1  0  0  0
 11 28  4  0  0  0
 11 31  4  0  0  0
 28 12  4  0  0  0
 12 29  4  0  0  0
 14 13  4  0  0  0
 15 14  4  0  0  0
 18 19  1  0  0  0
 18 21  1  0  0  0
 22 23  2  0  0  0
 22 24  1  0  0  0
 25 26  4  0  0  0
 29 30  4  0  0  0
 30 31  4  0  0  0
  1 32  1  0  0  0
  3 33  1  0  0  0
  4 34  1  0  0  0
  4 35  1  0  0  0
  5 36  1  0  0  0
  5 37  1  0  0  0
  6 38  1  0  0  0
  6 39  1  0  0  0
  7 40  1  0  0  0
  7 41  1  0  0  0
  8 42  1  0  0  0
  8 43  1  0  0  0
 10 44  1  0  0  0
 12 45  1  0  0  0
 13 46  1  0  0  0
 14 47  1  0  0  0
 17 48  1  0  0  0
 17 49  1  0  0  0
 18 50  1  0  0  0
 19 51  1  0  0  0
 19 52  1  0  0  0
 20 53  1  0  0  0
 20 54  1  0  0  0
 21 55  1  0  0  0
 21 56  1  0  0  0
 24 57  1  0  0  0
 28 58  1  0  0  0
 30 59  1  0  0  0
 31 60  1  0  0  0
M  END
$$$$
