2uym_ligand
  -I-interpret- 

 52 54  0  0  0  0  0  0  0  0999 V2000
   31.1390   14.3270   12.6180 O   0  0  0  0  0
   30.6700   13.8940   13.6450 C   0  0  0  0  0
   31.5810   13.2950   14.6720 C   0  0  0  0  0
   33.3590   13.4870   14.5000 S   0  0  0  0  0
   33.6980   12.5870   15.9980 C   0  0  0  0  0
   32.4640   12.2050   16.5280 C   0  0  0  0  0
   31.3110   12.5740   15.8260 C   0  0  0  0  0
   29.3480   13.9360   13.8890 N   0  0  0  0  0
   28.4510   14.3570   12.9410 C   0  0  0  0  0
   28.3580   13.6670   11.3060 S   0  0  0  0  0
   27.0370   14.7930   10.9010 C   0  0  0  0  0
   26.7190   15.6320   11.9710 C   0  0  0  0  0
   25.6250   16.6670   11.7970 C   0  0  0  0  0
   25.2640   16.8910   10.3040 C   0  0  0  0  0
   26.2900   17.7950    9.6270 C   0  0  0  0  0
   23.9570   17.6560   10.2870 C   0  0  0  0  0
   25.1390   15.5680    9.5210 C   0  0  0  0  0
   26.4380   14.7300    9.5160 C   0  0  0  0  0
   27.5330   15.3930   13.1200 C   0  0  0  0  0
   27.3970   16.1320   14.4270 C   0  0  0  0  0
   26.3360   16.0160   15.0300 O   0  0  0  0  0
   28.3660   16.8550   15.0080 N   0  0  0  0  0
   29.6470   17.2030   14.4030 C   0  0  0  0  0
   29.6060   18.6120   13.8560 C   0  0  0  0  0
   28.1520   17.3220   16.3850 C   0  0  0  0  0
   29.2960   16.9990   17.3190 C   0  0  0  0  0
   34.6802   12.3749   16.4204 H   0  0  0  0  0
   32.4009   11.6385   17.4571 H   0  0  0  0  0
   30.3026   12.3205   16.1529 H   0  0  0  0  0
   29.0031   13.6468   14.8043 H   0  0  0  0  0
   25.9834   17.6120   12.2053 H   0  0  0  0  0
   24.7336   16.3089   12.3120 H   0  0  0  0  0
   26.3111   18.7606   10.1323 H   0  0  0  0  0
   27.2749   17.3316    9.6849 H   0  0  0  0  0
   26.0144   17.9363    8.5819 H   0  0  0  0  0
   23.1880   17.0701   10.7904 H   0  0  0  0  0
   24.0873   18.6070   10.8035 H   0  0  0  0  0
   23.6583   17.8396    9.2549 H   0  0  0  0  0
   24.9076   15.8202    8.4861 H   0  0  0  0  0
   24.3661   14.9718   10.0061 H   0  0  0  0  0
   26.2194   13.6968    9.2461 H   0  0  0  0  0
   27.1402   15.1268    8.7828 H   0  0  0  0  0
   29.8537   16.5110   13.5866 H   0  0  0  0  0
   30.4270   17.1392   15.1617 H   0  0  0  0  0
   28.8243   18.6842   13.0998 H   0  0  0  0  0
   29.3945   19.3091   14.6668 H   0  0  0  0  0
   30.5697   18.8548   13.4084 H   0  0  0  0  0
   27.2654   16.8161   16.7673 H   0  0  0  0  0
   28.0550   18.4071   16.3505 H   0  0  0  0  0
   29.4365   15.9188   17.3594 H   0  0  0  0  0
   30.2072   17.4718   16.9525 H   0  0  0  0  0
   29.0662   17.3743   18.3162 H   0  0  0  0  0
  1  2  2  0  0  0
  2  3  1  0  0  0
  2  8  1  0  0  0
  3  4  4  0  0  0
  3  7  4  0  0  0
  4  5  4  0  0  0
  5  6  4  0  0  0
  6  7  4  0  0  0
  8  9  1  0  0  0
  9 10  4  0  0  0
  9 19  4  0  0  0
 10 11  4  0  0  0
 11 12  4  0  0  0
 11 18  1  0  0  0
 12 13  1  0  0  0
 12 19  4  0  0  0
 13 14  1  0  0  0
 14 15  1  0  0  0
 14 16  1  0  0  0
 14 17  1  0  0  0
 17 18  1  0  0  0
 19 20  1  0  0  0
 20 21  2  0  0  0
 20 22  1  0  0  0
 22 23  1  0  0  0
 22 25  1  0  0  0
 23 24  1  0  0  0
 25 26  1  0  0  0
  5 27  1  0  0  0
  6 28  1  0  0  0
  7 29  1  0  0  0
  8 30  1  0  0  0
 13 31  1  0  0  0
 13 32  1  0  0  0
 15 33  1  0  0  0
 15 34  1  0  0  0
 15 35  1  0  0  0
 16 36  1  0  0  0
 16 37  1  0  0  0
 16 38  1  0  0  0
 17 39  1  0  0  0
 17 40  1  0  0  0
 18 41  1  0  0  0
 18 42  1  0  0  0
 23 43  1  0  0  0
 23 44  1  0  0  0
 24 45  1  0  0  0
 24 46  1  0  0  0
 24 47  1  0  0  0
 25 48  1  0  0  0
 25 49  1  0  0  0
 26 50  1  0  0  0
 26 51  1  0  0  0
 26 52  1  0  0  0
M  END
$$$$
