6hvv_ligand
  -I-interpret- 

 96 98  0  0  0  0  0  0  0  0999 V2000
   64.1740 -130.9210   43.7560 C   0  0  0  0  0
   63.9580 -129.4420   44.0510 C   0  0  0  0  0
   64.9160 -128.6340   43.1840 C   0  0  0  0  0
   63.6470 -133.6650   42.8230 C   0  0  0  0  0
   63.5980 -135.0510   42.1900 C   0  0  0  0  0
   63.9720 -137.8250   41.2420 C   0  0  0  0  0
   61.1490 -135.3590   39.2810 C   0  0  0  0  0
   60.8370 -134.3080   37.0780 C   0  0  0  0  0
   64.8310 -130.2610   41.4380 C   0  0  0  0  0
   64.5390 -128.8370   41.7650 C   0  0  0  0  0
   63.9300 -131.1840   42.2550 C   0  0  0  0  0
   64.2170 -132.6410   41.8320 C   0  0  0  0  0
   63.4200 -136.1600   43.2650 C   0  0  0  0  0
   62.1370 -135.9310   43.8460 O   0  0  0  0  0
   64.4310 -138.6720   43.4650 C   0  0  0  0  0
   63.4720 -137.6690   42.7050 C   0  0  0  0  0
   62.1130 -138.1520   42.6960 O   0  0  0  0  0
   62.4350 -135.0870   41.2940 N   0  0  0  0  0
   62.5060 -135.3160   39.9730 C   0  0  0  0  0
   63.5400 -135.5370   39.3380 O   0  0  0  0  0
   60.4990 -136.6900   39.6390 C   0  0  0  0  0
   59.1480 -136.6770   39.3530 C   0  0  0  0  0
   58.7080 -136.8970   38.0570 C   0  0  0  0  0
   57.3440 -136.8960   37.7760 C   0  0  0  0  0
   56.3970 -136.6790   38.7800 C   0  0  0  0  0
   55.0740 -136.6930   38.4010 O   0  0  0  0  0
   53.9740 -136.6070   39.3340 C   0  0  0  0  0
   56.8560 -136.4570   40.0870 C   0  0  0  0  0
   58.2180 -136.4580   40.3640 C   0  0  0  0  0
   61.4020 -135.2520   37.8440 N   0  0  0  0  0
   60.0220 -133.4710   37.4660 O   0  0  0  0  0
   61.2930 -134.3370   35.6180 C   0  0  0  0  0
   62.4940 -133.3920   35.4600 C   0  0  0  0  0
   60.1660 -133.9750   34.7330 N   0  0  0  0  0
   59.2030 -134.8730   34.4630 C   0  0  0  0  0
   59.1910 -136.0210   34.8980 O   0  0  0  0  0
   58.0760 -134.4230   33.5330 C   0  0  0  0  0
   56.9550 -133.7670   34.2470 N   0  3  0  0  0
   56.5930 -134.3670   35.5380 C   0  0  0  0  0
   55.3650 -133.5870   36.0790 C   0  0  0  0  0
   54.2710 -133.5520   35.1280 O   0  0  0  0  0
   54.6660 -132.8820   33.9090 C   0  0  0  0  0
   55.8220 -133.6700   33.3290 C   0  0  0  0  0
   63.4786 -131.5160   44.3480 H   0  0  0  0  0
   65.1963 -131.1984   44.0131 H   0  0  0  0  0
   64.1483 -129.2401   45.1051 H   0  0  0  0  0
   62.9280 -129.1636   43.8281 H   0  0  0  0  0
   65.9414 -128.9642   43.3504 H   0  0  0  0  0
   64.8531 -127.5766   43.4410 H   0  0  0  0  0
   64.2884 -133.7004   43.7036 H   0  0  0  0  0
   62.6358 -133.3658   43.0988 H   0  0  0  0  0
   64.5323 -135.2341   41.6594 H   0  0  0  0  0
   63.3129 -137.2716   40.5732 H   0  0  0  0  0
   64.9857 -137.4324   41.1620 H   0  0  0  0  0
   63.9669 -138.8800   40.9682 H   0  0  0  0  0
   60.4834 -134.5521   39.5874 H   0  0  0  0  0
   65.8726 -130.4759   41.6765 H   0  0  0  0  0
   64.6462 -130.4289   40.3770 H   0  0  0  0  0
   65.1037 -128.1679   41.1157 H   0  0  0  0  0
   63.4835 -128.6136   41.6100 H   0  0  0  0  0
   62.8729 -130.9931   42.0699 H   0  0  0  0  0
   63.7431 -132.8096   40.8650 H   0  0  0  0  0
   65.2983 -132.7737   41.7966 H   0  0  0  0  0
   64.2529 -136.0900   43.9646 H   0  0  0  0  0
   62.0954 -135.0332   44.1833 H   0  0  0  0  0
   65.4547 -138.3006   43.4171 H   0  0  0  0  0
   64.1201 -138.7510   44.5067 H   0  0  0  0  0
   64.3765 -139.6529   42.9929 H   0  0  0  0  0
   62.0973 -139.0538   42.3671 H   0  0  0  0  0
   61.5137 -134.9277   41.7017 H   0  0  0  0  0
   60.6275 -136.8645   40.7072 H   0  0  0  0  0
   60.9719 -137.4778   39.0526 H   0  0  0  0  0
   59.4292 -137.0707   37.2584 H   0  0  0  0  0
   57.0088 -137.0678   36.7531 H   0  0  0  0  0
   54.0212 -137.4464   40.0277 H   0  0  0  0  0
   54.0422 -135.6712   39.8888 H   0  0  0  0  0
   53.0318 -136.6387   38.7868 H   0  0  0  0  0
   56.1401 -136.2827   40.8902 H   0  0  0  0  0
   58.5610 -136.2854   41.3841 H   0  0  0  0  0
   62.0340 -135.9230   37.4072 H   0  0  0  0  0
   61.6109 -135.3390   35.3299 H   0  0  0  0  0
   62.1974 -132.3802   35.7365 H   0  0  0  0  0
   63.3042 -133.7246   36.1089 H   0  0  0  0  0
   62.8294 -133.4031   34.4230 H   0  0  0  0  0
   60.1189 -133.0409   34.3259 H   0  0  0  0  0
   57.6793 -135.3114   33.0416 H   0  0  0  0  0
   58.4937 -133.6962   32.8363 H   0  0  0  0  0
   57.2698 -132.8363   34.5210 H   0  0  0  0  0
   57.4264 -134.3036   36.2377 H   0  0  0  0  0
   56.3534 -135.4234   35.4164 H   0  0  0  0  0
   55.6760 -132.5606   36.2738 H   0  0  0  0  0
   55.0140 -134.0919   36.9790 H   0  0  0  0  0
   54.9625 -131.8529   34.1119 H   0  0  0  0  0
   53.8352 -132.8389   33.2047 H   0  0  0  0  0
   55.4691 -134.6809   33.1248 H   0  0  0  0  0
   56.1619 -133.1539   32.4311 H   0  0  0  0  0
  1  2  1  0  0  0
 11  1  1  0  0  0
  2  3  1  0  0  0
 10  3  1  0  0  0
  5  4  1  0  0  0
  4 12  1  0  0  0
  5 13  1  0  0  0
 18  5  1  0  0  0
 16  6  1  0  0  0
 19  7  1  0  0  0
  7 21  1  0  0  0
  7 30  1  0  0  0
 30  8  1  0  0  0
  8 31  2  0  0  0
  8 32  1  0  0  0
  9 10  1  0  0  0
 11  9  1  0  0  0
 12 11  1  0  0  0
 13 14  1  0  0  0
 13 16  1  0  0  0
 16 15  1  0  0  0
 16 17  1  0  0  0
 18 19  1  0  0  0
 19 20  2  0  0  0
 21 22  1  0  0  0
 22 23  4  0  0  0
 22 29  4  0  0  0
 23 24  4  0  0  0
 24 25  4  0  0  0
 25 26  1  0  0  0
 25 28  4  0  0  0
 26 27  1  0  0  0
 28 29  4  0  0  0
 32 33  1  0  0  0
 32 34  1  0  0  0
 34 35  1  0  0  0
 35 36  2  0  0  0
 35 37  1  0  0  0
 37 38  1  0  0  0
 38 39  1  0  0  0
 38 43  1  0  0  0
 39 40  1  0  0  0
 40 41  1  0  0  0
 41 42  1  0  0  0
 42 43  1  0  0  0
  1 44  1  0  0  0
  1 45  1  0  0  0
  2 46  1  0  0  0
  2 47  1  0  0  0
  3 48  1  0  0  0
  3 49  1  0  0  0
  4 50  1  0  0  0
  4 51  1  0  0  0
  5 52  1  0  0  0
  6 53  1  0  0  0
  6 54  1  0  0  0
  6 55  1  0  0  0
  7 56  1  0  0  0
  9 57  1  0  0  0
  9 58  1  0  0  0
 10 59  1  0  0  0
 10 60  1  0  0  0
 11 61  1  0  0  0
 12 62  1  0  0  0
 12 63  1  0  0  0
 13 64  1  0  0  0
 14 65  1  0  0  0
 15 66  1  0  0  0
 15 67  1  0  0  0
 15 68  1  0  0  0
 17 69  1  0  0  0
 18 70  1  0  0  0
 21 71  1  0  0  0
 21 72  1  0  0  0
 23 73  1  0  0  0
 24 74  1  0  0  0
 27 75  1  0  0  0
 27 76  1  0  0  0
 27 77  1  0  0  0
 28 78  1  0  0  0
 29 79  1  0  0  0
 30 80  1  0  0  0
 32 81  1  0  0  0
 33 82  1  0  0  0
 33 83  1  0  0  0
 33 84  1  0  0  0
 34 85  1  0  0  0
 37 86  1  0  0  0
 37 87  1  0  0  0
 38 88  1  0  0  0
 39 89  1  0  0  0
 39 90  1  0  0  0
 40 91  1  0  0  0
 40 92  1  0  0  0
 42 93  1  0  0  0
 42 94  1  0  0  0
 43 95  1  0  0  0
 43 96  1  0  0  0
M  END
$$$$
