1lf2_ligand
  -I-interpret- 

 80 82  0  0  0  0  0  0  0  0999 V2000
   34.1440   28.6370    9.3600 C   0  0  0  0  0
   34.4550   29.8420    9.9500 C   0  0  0  0  0
   35.7770   30.3190    9.8970 C   0  0  0  0  0
   36.7600   29.5670    9.2490 C   0  0  0  0  0
   36.4420   28.3600    8.6640 C   0  0  0  0  0
   35.1420   27.8940    8.7150 C   0  0  0  0  0
   36.1130   31.6830   10.4710 C   0  0  0  0  0
   32.7130   28.1320    9.4040 C   0  0  0  0  0
   30.5510   37.7260   14.5130 C   0  0  0  0  0
   30.8790   37.9050   15.8680 C   0  0  0  0  0
   30.2110   38.8700   16.6540 C   0  0  0  0  0
   29.2110   39.6630   16.0890 C   0  0  0  0  0
   28.8810   39.4870   14.7410 C   0  0  0  0  0
   28.5020   40.7120   16.9060 N   0  0  0  0  0
   29.5450   38.5360   13.9670 C   0  0  0  0  0
   33.3890   30.5060   10.5520 O   0  0  0  0  0
   32.6180   31.4240    9.8390 C   0  0  0  0  0
   31.8510   32.3740   10.7840 C   0  0  0  0  0
   31.3740   33.4380   10.3640 O   0  0  0  0  0
   31.7520   31.9970   12.0620 N   0  0  0  0  0
   31.4780   32.7950   14.4050 C   0  0  0  0  0
   31.7720   31.5180   14.9670 O   0  0  0  0  0
   32.8010   33.4970   14.2870 C   0  0  0  0  0
   32.8490   34.9690   13.9220 C   0  0  0  0  0
   34.0810   35.7040   14.4990 C   0  0  0  0  0
   35.4800   35.0900   14.3640 C   0  0  0  0  0
   35.7850   34.9700   12.8550 C   0  0  0  0  0
   36.4740   36.0300   14.9950 C   0  0  0  0  0
   31.6080   35.6450   14.3040 N   0  0  0  0  0
   31.2080   36.7690   13.7090 C   0  0  0  0  0
   31.3480   36.9550   12.4870 O   0  0  0  0  0
   30.8170   32.5980   12.9980 C   0  0  0  0  0
   29.5810   31.6840   13.1110 C   0  0  0  0  0
   28.9220   31.3680   11.7820 C   0  0  0  0  0
   28.1970   32.3300   11.1050 C   0  0  0  0  0
   27.5980   32.0270    9.8720 C   0  0  0  0  0
   27.7320   30.7570    9.3070 C   0  0  0  0  0
   28.4590   29.7790    9.9750 C   0  0  0  0  0
   29.0460   30.0930   11.2140 C   0  0  0  0  0
   37.7844   29.9368    9.2057 H   0  0  0  0  0
   37.2133   27.7751    8.1629 H   0  0  0  0  0
   34.8908   26.9408    8.2498 H   0  0  0  0  0
   35.5346   32.4469    9.9514 H   0  0  0  0  0
   35.8678   31.6993   11.5329 H   0  0  0  0  0
   37.1771   31.8790   10.3395 H   0  0  0  0  0
   32.3367   28.0214    8.3870 H   0  0  0  0  0
   32.6850   27.1670    9.9101 H   0  0  0  0  0
   32.0935   28.8463    9.9463 H   0  0  0  0  0
   31.6591   37.2911   16.3182 H   0  0  0  0  0
   30.4769   38.9956   17.7036 H   0  0  0  0  0
   28.0983   40.0984   14.2919 H   0  0  0  0  0
   28.7509   40.8500   17.8855 H   0  0  0  0  0
   27.7732   41.2841   16.4795 H   0  0  0  0  0
   29.2768   38.4200   12.9169 H   0  0  0  0  0
   31.8927   30.8737    9.2396 H   0  0  0  0  0
   33.2822   32.0210    9.2141 H   0  0  0  0  0
   32.3622   31.2513   12.3968 H   0  0  0  0  0
   30.7832   33.3739   15.0134 H   0  0  0  0  0
   32.1772   31.6348   15.8294 H   0  0  0  0  0
   33.3032   32.9947   13.4602 H   0  0  0  0  0
   33.2242   33.4512   15.2904 H   0  0  0  0  0
   32.9514   35.0099   12.8376 H   0  0  0  0  0
   33.9005   35.7322   15.5736 H   0  0  0  0  0
   34.1358   36.6303   13.9271 H   0  0  0  0  0
   35.5365   34.1152   14.8484 H   0  0  0  0  0
   35.0386   34.3300   12.3845 H   0  0  0  0  0
   35.7555   35.9600   12.3998 H   0  0  0  0  0
   36.7755   34.5357   12.7192 H   0  0  0  0  0
   36.4372   36.9921   14.4841 H   0  0  0  0  0
   36.2257   36.1664   16.0475 H   0  0  0  0  0
   37.4758   35.6092   14.9083 H   0  0  0  0  0
   31.0335   35.2450   15.0459 H   0  0  0  0  0
   30.5228   33.5819   12.6326 H   0  0  0  0  0
   28.8451   32.2100   13.7192 H   0  0  0  0  0
   29.9164   30.7388   13.5378 H   0  0  0  0  0
   28.0898   33.3280   11.5300 H   0  0  0  0  0
   27.0221   32.7913    9.3501 H   0  0  0  0  0
   27.2683   30.5337    8.3461 H   0  0  0  0  0
   28.5726   28.7837    9.5453 H   0  0  0  0  0
   29.6106   29.3265   11.7449 H   0  0  0  0  0
  1  8  1  0  0  0
  1  6  4  0  0  0
  1  2  4  0  0  0
  2 16  1  0  0  0
  2  3  4  0  0  0
  3  7  1  0  0  0
  3  4  4  0  0  0
  4  5  4  0  0  0
  5  6  4  0  0  0
 16 17  1  0  0  0
 17 18  1  0  0  0
 18 20  1  0  0  0
 18 19  2  0  0  0
 20 32  1  0  0  0
 32 33  1  0  0  0
 32 21  1  0  0  0
 21 23  1  0  0  0
 21 22  1  0  0  0
 23 24  1  0  0  0
 24 29  1  0  0  0
 24 25  1  0  0  0
 25 26  1  0  0  0
 26 28  1  0  0  0
 26 27  1  0  0  0
 29 30  1  0  0  0
 30 31  2  0  0  0
 30  9  1  0  0  0
  9 15  4  0  0  0
  9 10  4  0  0  0
 10 11  4  0  0  0
 11 12  4  0  0  0
 12 14  1  0  0  0
 12 13  4  0  0  0
 13 15  4  0  0  0
 33 34  1  0  0  0
 34 39  4  0  0  0
 34 35  4  0  0  0
 35 36  4  0  0  0
 36 37  4  0  0  0
 37 38  4  0  0  0
 38 39  4  0  0  0
  4 40  1  0  0  0
  5 41  1  0  0  0
  6 42  1  0  0  0
  7 43  1  0  0  0
  7 44  1  0  0  0
  7 45  1  0  0  0
  8 46  1  0  0  0
  8 47  1  0  0  0
  8 48  1  0  0  0
 10 49  1  0  0  0
 11 50  1  0  0  0
 13 51  1  0  0  0
 14 52  1  0  0  0
 14 53  1  0  0  0
 15 54  1  0  0  0
 17 55  1  0  0  0
 17 56  1  0  0  0
 20 57  1  0  0  0
 21 58  1  0  0  0
 22 59  1  0  0  0
 23 60  1  0  0  0
 23 61  1  0  0  0
 24 62  1  0  0  0
 25 63  1  0  0  0
 25 64  1  0  0  0
 26 65  1  0  0  0
 27 66  1  0  0  0
 27 67  1  0  0  0
 27 68  1  0  0  0
 28 69  1  0  0  0
 28 70  1  0  0  0
 28 71  1  0  0  0
 29 72  1  0  0  0
 32 73  1  0  0  0
 33 74  1  0  0  0
 33 75  1  0  0  0
 35 76  1  0  0  0
 36 77  1  0  0  0
 37 78  1  0  0  0
 38 79  1  0  0  0
 39 80  1  0  0  0
M  END
$$$$
