3wt5_ligand
  -I-interpret- 

 86 88  0  0  0  0  0  0  0  0999 V2000
   12.5990    8.9660   55.8230 O   0  0  0  0  0
   11.4810    8.8990   54.9070 C   0  0  0  0  0
   11.6460    7.6600   54.0680 C   0  0  0  0  0
   11.8500    7.8200   52.8100 C   0  0  0  0  0
   11.6650    6.3650   54.7650 C   0  0  0  0  0
   11.7730    5.2790   53.8150 O   0  0  0  0  0
   10.4430    6.2070   55.6170 C   0  0  0  0  0
   10.1520    8.7940   55.6310 C   0  0  0  0  0
   10.0010    7.4680   56.3240 C   0  0  0  0  0
    9.3830    7.4390   57.5040 C   0  0  0  0  0
    9.1280    6.2020   58.2670 C   0  0  0  0  0
    8.1220    6.1320   59.1570 C   0  0  0  0  0
    7.1920    7.2760   59.4780 C   0  0  0  0  0
    5.6880    6.8080   59.4490 C   0  0  0  0  0
    5.4370    5.4590   60.1050 C   0  0  0  0  0
    7.8220    4.8690   59.8760 C   0  0  0  0  0
    6.4030    4.4170   59.5930 C   0  0  0  0  0
    6.1560    4.2450   58.1170 C   0  0  0  0  0
    8.6790    3.6530   59.6940 C   0  0  0  0  0
    7.7640    2.5230   60.2120 C   0  0  0  0  0
    6.3660    3.0580   60.3370 C   0  0  0  0  0
    5.2760    2.0690   59.8460 C   0  0  0  0  0
    3.8790    2.7150   59.7600 C   0  0  0  0  0
    5.2210    0.8170   60.6990 C   0  0  0  0  0
    4.0930   -0.1400   60.2260 C   0  0  0  0  0
    4.2370   -0.5060   58.7560 C   0  0  0  0  0
    5.3480   -1.4810   58.6000 C   0  0  0  0  0
    5.2090   -2.3170   57.3290 C   0  0  0  0  0
    4.9750    1.1190   62.1790 C   0  0  0  0  0
    4.9120   -0.1790   62.9970 C   0  0  0  0  0
    5.0380   -0.0220   64.5350 C   0  0  0  0  0
    6.4350    0.4150   64.8990 C   0  0  0  0  0
    3.9730    0.9520   65.0550 C   0  0  0  0  0
    4.8430   -1.3130   65.1350 O   0  0  0  0  0
   13.4166    9.0313   55.3241 H   0  0  0  0  0
   11.4743    9.8113   54.3106 H   0  0  0  0  0
   12.0559    6.9568   52.1771 H   0  0  0  0  0
   11.8172    8.8190   52.3753 H   0  0  0  0  0
   12.5388    6.3367   55.4160 H   0  0  0  0  0
   12.5613    5.4000   53.2806 H   0  0  0  0  0
   10.6862    5.4778   56.3898 H   0  0  0  0  0
    9.6293    5.9121   54.9544 H   0  0  0  0  0
    9.3519    8.8916   54.8972 H   0  0  0  0  0
   10.1066    9.5821   56.3827 H   0  0  0  0  0
    9.0462    8.3839   57.9305 H   0  0  0  0  0
    9.7646    5.3318   58.1069 H   0  0  0  0  0
    7.3290    8.0576   58.7307 H   0  0  0  0  0
    7.4238    7.6446   60.4772 H   0  0  0  0  0
    5.4030    6.7122   58.4013 H   0  0  0  0  0
    5.1123    7.5468   60.0065 H   0  0  0  0  0
    4.4220    5.1397   59.8685 H   0  0  0  0  0
    5.5749    5.5635   61.1812 H   0  0  0  0  0
    8.0300    5.2007   60.8933 H   0  0  0  0  0
    5.1281    3.9192   57.9575 H   0  0  0  0  0
    6.3202    5.1954   57.6093 H   0  0  0  0  0
    6.8416    3.4963   57.7200 H   0  0  0  0  0
    9.6278    3.7141   60.2271 H   0  0  0  0  0
    8.9997    3.5055   58.6627 H   0  0  0  0  0
    8.1167    2.1755   61.1831 H   0  0  0  0  0
    7.7796    1.6843   59.5160 H   0  0  0  0  0
    6.0682    3.1959   61.3764 H   0  0  0  0  0
    5.5706    1.7860   58.8354 H   0  0  0  0  0
    3.5845    3.0735   60.7463 H   0  0  0  0  0
    3.9094    3.5517   59.0620 H   0  0  0  0  0
    3.1588    1.9750   59.4110 H   0  0  0  0  0
    6.1988    0.3492   60.5843 H   0  0  0  0  0
    3.1372    0.3666   60.3596 H   0  0  0  0  0
    4.1540   -1.0561   60.8134 H   0  0  0  0  0
    4.4541    0.3909   58.1759 H   0  0  0  0  0
    3.3083   -0.9501   58.3975 H   0  0  0  0  0
    5.3276   -2.1575   59.4544 H   0  0  0  0  0
    6.2823   -0.9230   58.5381 H   0  0  0  0  0
    4.2722   -2.8732   57.3621 H   0  0  0  0  0
    5.2116   -1.6585   56.4604 H   0  0  0  0  0
    6.0445   -3.0138   57.2608 H   0  0  0  0  0
    4.0244    1.6431   62.2776 H   0  0  0  0  0
    5.7951    1.7313   62.5539 H   0  0  0  0  0
    5.7636   -0.7813   62.6805 H   0  0  0  0  0
    3.9271   -0.6084   62.8133 H   0  0  0  0  0
    7.1494   -0.3332   64.5556 H   0  0  0  0  0
    6.6510    1.3712   64.4224 H   0  0  0  0  0
    6.5106    0.5216   65.9811 H   0  0  0  0  0
    4.1109    1.9249   64.5832 H   0  0  0  0  0
    2.9820    0.5672   64.8143 H   0  0  0  0  0
    4.0721    1.0536   66.1357 H   0  0  0  0  0
    4.9175   -1.2358   66.0890 H   0  0  0  0  0
  1  2  1  0  0  0
  2  3  1  0  0  0
  2  8  1  0  0  0
  3  4  2  0  0  0
  3  5  1  0  0  0
  5  6  1  0  0  0
  5  7  1  0  0  0
  7  9  1  0  0  0
  8  9  1  0  0  0
  9 10  2  0  0  0
 10 11  1  0  0  0
 11 12  2  0  0  0
 12 13  1  0  0  0
 12 16  1  0  0  0
 13 14  1  0  0  0
 14 15  1  0  0  0
 15 17  1  0  0  0
 16 17  1  0  0  0
 16 19  1  0  0  0
 17 18  1  0  0  0
 17 21  1  0  0  0
 19 20  1  0  0  0
 20 21  1  0  0  0
 21 22  1  0  0  0
 22 23  1  0  0  0
 22 24  1  0  0  0
 24 25  1  0  0  0
 24 29  1  0  0  0
 25 26  1  0  0  0
 26 27  1  0  0  0
 27 28  1  0  0  0
 29 30  1  0  0  0
 30 31  1  0  0  0
 31 32  1  0  0  0
 31 33  1  0  0  0
 31 34  1  0  0  0
  1 35  1  0  0  0
  2 36  1  0  0  0
  4 37  1  0  0  0
  4 38  1  0  0  0
  5 39  1  0  0  0
  6 40  1  0  0  0
  7 41  1  0  0  0
  7 42  1  0  0  0
  8 43  1  0  0  0
  8 44  1  0  0  0
 10 45  1  0  0  0
 11 46  1  0  0  0
 13 47  1  0  0  0
 13 48  1  0  0  0
 14 49  1  0  0  0
 14 50  1  0  0  0
 15 51  1  0  0  0
 15 52  1  0  0  0
 16 53  1  0  0  0
 18 54  1  0  0  0
 18 55  1  0  0  0
 18 56  1  0  0  0
 19 57  1  0  0  0
 19 58  1  0  0  0
 20 59  1  0  0  0
 20 60  1  0  0  0
 21 61  1  0  0  0
 22 62  1  0  0  0
 23 63  1  0  0  0
 23 64  1  0  0  0
 23 65  1  0  0  0
 24 66  1  0  0  0
 25 67  1  0  0  0
 25 68  1  0  0  0
 26 69  1  0  0  0
 26 70  1  0  0  0
 27 71  1  0  0  0
 27 72  1  0  0  0
 28 73  1  0  0  0
 28 74  1  0  0  0
 28 75  1  0  0  0
 29 76  1  0  0  0
 29 77  1  0  0  0
 30 78  1  0  0  0
 30 79  1  0  0  0
 32 80  1  0  0  0
 32 81  1  0  0  0
 32 82  1  0  0  0
 33 83  1  0  0  0
 33 84  1  0  0  0
 33 85  1  0  0  0
 34 86  1  0  0  0
M  END
$$$$
