5wg7_ligand
  -I-interpret- 

 15 15  0  0  0  0  0  0  0  0999 V2000
   -1.9930    7.5400   84.0250 C   0  0  0  0  0
   -1.7300    6.4630   85.0640 C   0  0  0  0  0
   -2.8490    5.7270   85.6100 O   0  0  0  0  0
   -2.5780    4.9640   86.9630 S   0  0  0  0  0
   -3.4600    3.7910   86.9680 O   0  0  0  0  0
   -2.7580    5.9810   87.9960 O   0  0  0  0  0
   -1.1300    4.3310   87.1160 N   0  0  0  0  0
   -0.1050    4.8200   86.2900 C   0  0  0  0  0
    0.9960    4.3920   86.3550 O   0  0  0  0  0
   -0.4210    5.9920   85.2540 C   0  0  0  0  0
   -1.4191    8.4323   84.2752 H   0  0  0  0  0
   -1.6920    7.1764   83.0425 H   0  0  0  0  0
   -3.0559    7.7812   84.0146 H   0  0  0  0  0
   -0.9496    3.5909   87.7943 H   0  0  0  0  0
    0.3949    6.4353   84.6830 H   0  0  0  0  0
  1  2  1  0  0  0
  2  3  1  0  0  0
  2 10  2  0  0  0
  3  4  1  0  0  0
  4  5  2  0  0  0
  4  6  2  0  0  0
  4  7  1  0  0  0
  7  8  1  0  0  0
  8  9  2  0  0  0
  8 10  1  0  0  0
  1 11  1  0  0  0
  1 12  1  0  0  0
  1 13  1  0  0  0
  7 14  1  0  0  0
 10 15  1  0  0  0
M  END
$$$$
