3zll_ligand
  -I-interpret- 

 28 29  0  0  0  0  0  0  0  0999 V2000
   36.8260    4.0340   10.0790 C   0  0  0  0  0
   34.9260    2.8040    9.3610 N   0  0  0  0  0
   36.4190    5.1200    9.3640 O   0  0  0  0  0
   36.0620    2.8560   10.0780 C   0  0  0  0  0
   36.4740    1.7350   10.8140 C   0  0  0  0  0
   39.4980    3.0930   12.1980 O   0  0  0  0  0
   38.1930    8.4900   13.6930 C   0  0  0  0  0
   37.6640    7.2250   13.9270 C   0  0  0  0  0
   38.9290    8.7370   12.5400 C   0  0  0  0  0
   37.8580    6.1920   13.0120 C   0  0  0  0  0
   39.1180    7.6990   11.6310 C   0  0  0  0  0
   38.4530    3.0040   11.5530 C   0  0  0  0  0
   38.8430    5.3560   10.8050 C   0  0  0  0  0
   38.0170    4.1250   10.8300 N   0  0  0  0  0
   35.8010    0.6850   10.8050 O   0  0  0  0  0
   37.6850    1.8160   11.5510 N   0  0  0  0  0
   38.5830    6.4290   11.8580 C   0  0  0  0  0
   34.6248    3.6166    8.8230 H   0  0  0  0  0
   34.3653    1.9520    9.3550 H   0  0  0  0  0
   37.0535    5.8316    9.4761 H   0  0  0  0  0
   38.0300    9.2896   14.4156 H   0  0  0  0  0
   37.0915    7.0397   14.8359 H   0  0  0  0  0
   39.3502    9.7244   12.3509 H   0  0  0  0  0
   37.4411    5.2034   13.2044 H   0  0  0  0  0
   39.6949    7.8813   10.7244 H   0  0  0  0  0
   38.6159    5.8321    9.8511 H   0  0  0  0  0
   39.8631    5.0183   10.9882 H   0  0  0  0  0
   38.0049    1.0081   12.0852 H   0  0  0  0  0
  1  3  1  0  0  0
  1  4  2  0  0  0
 14  1  1  0  0  0
  4  2  1  0  0  0
  4  5  1  0  0  0
  5 15  2  0  0  0
 16  5  1  0  0  0
 12  6  2  0  0  0
  8  7  4  0  0  0
  9  7  4  0  0  0
 10  8  4  0  0  0
 11  9  4  0  0  0
 17 10  4  0  0  0
 17 11  4  0  0  0
 14 12  1  0  0  0
 12 16  1  0  0  0
 13 14  1  0  0  0
 13 17  1  0  0  0
  2 18  1  0  0  0
  2 19  1  0  0  0
  3 20  1  0  0  0
  7 21  1  0  0  0
  8 22  1  0  0  0
  9 23  1  0  0  0
 10 24  1  0  0  0
 11 25  1  0  0  0
 13 26  1  0  0  0
 13 27  1  0  0  0
 16 28  1  0  0  0
M  END
$$$$
