1pus_ligand
  -I-interpret- 

 38 40  0  0  0  0  0  0  0  0999 V2000
   -8.8290    5.2470   -4.3040 O   0  0  0  0  0
   -9.7020    3.8970   -4.3770 P   0  0  0  0  0
   -8.7850    2.7380   -4.2910 O   0  0  0  0  0
  -10.6210    4.0020   -5.5330 O   0  0  0  0  0
  -10.5660    3.9770   -3.0210 O   0  0  0  0  0
  -11.3510    2.8570   -2.6040 C   0  0  0  0  0
  -10.4660    1.6280   -2.3810 C   0  0  0  0  0
   -9.4000    1.6730   -1.4260 O   0  0  0  0  0
  -11.2510    0.3930   -1.9350 C   0  0  0  0  0
  -11.2300   -0.6310   -2.9330 O   0  0  0  0  0
  -10.6290   -0.0870   -0.6200 C   0  0  0  0  0
   -9.4700    0.8460   -0.2570 C   0  0  0  0  0
   -9.4160    1.3000    1.1510 N   0  0  0  0  0
  -10.5000    1.8580    1.7760 C   0  0  0  0  0
  -10.0720    2.1000    3.0540 N   0  0  0  0  0
   -8.7710    1.7080    3.2280 C   0  0  0  0  0
   -7.8960    1.7200    4.2580 C   0  0  0  0  0
   -8.2840    2.1880    5.3840 O   0  0  0  0  0
   -6.5940    1.2440    4.1510 N   0  0  0  0  0
   -6.2000    0.7430    2.9390 C   0  0  0  0  0
   -4.9450    0.2840    2.8390 N   0  0  0  0  0
   -7.0280    0.6850    1.8130 N   0  0  0  0  0
   -8.3370    1.1950    2.0220 C   0  0  0  0  0
  -11.6590    2.0900    1.2850 O   0  0  0  0  0
   -9.4124    6.0074   -4.3588 H   0  0  0  0  0
  -11.1484    4.7998   -5.4496 H   0  0  0  0  0
  -12.0804    2.6293   -3.3813 H   0  0  0  0  0
  -11.8502    3.1060   -1.6676 H   0  0  0  0  0
  -10.0384    1.5947   -3.3831 H   0  0  0  0  0
  -12.3017    0.6429   -1.7876 H   0  0  0  0  0
  -11.7301   -1.3893   -2.6224 H   0  0  0  0  0
  -10.2620   -1.1070   -0.7341 H   0  0  0  0  0
  -11.3783   -0.0726    0.1715 H   0  0  0  0  0
   -8.4707    0.4377   -0.1062 H   0  0  0  0  0
  -10.6486    2.5189    3.7837 H   0  0  0  0  0
   -5.9557    1.2671    4.9462 H   0  0  0  0  0
   -4.6107   -0.0980    1.9543 H   0  0  0  0  0
   -4.3241    0.3166    3.6476 H   0  0  0  0  0
  1  2  1  0  0  0
  2  3  2  0  0  0
  2  4  1  0  0  0
  2  5  1  0  0  0
  5  6  1  0  0  0
  6  7  1  0  0  0
  7  8  1  0  0  0
  7  9  1  0  0  0
  8 12  1  0  0  0
  9 10  1  0  0  0
  9 11  1  0  0  0
 11 12  1  0  0  0
 12 13  1  0  0  0
 13 14  1  0  0  0
 13 23  1  0  0  0
 14 15  1  0  0  0
 14 24  2  0  0  0
 15 16  1  0  0  0
 16 17  1  0  0  0
 16 23  2  0  0  0
 17 18  2  0  0  0
 17 19  1  0  0  0
 19 20  1  0  0  0
 20 21  1  0  0  0
 20 22  2  0  0  0
 22 23  1  0  0  0
  1 25  1  0  0  0
  4 26  1  0  0  0
  6 27  1  0  0  0
  6 28  1  0  0  0
  7 29  1  0  0  0
  9 30  1  0  0  0
 10 31  1  0  0  0
 11 32  1  0  0  0
 11 33  1  0  0  0
 12 34  1  0  0  0
 15 35  1  0  0  0
 19 36  1  0  0  0
 21 37  1  0  0  0
 21 38  1  0  0  0
M  END
$$$$
