### 
### Created by X-TOOL on Mon Sep 10 21:12:51 2018
### 

@<TRIPOS>MOLECULE
1pus_ligand
   36    38     1     0     0
SMALL
GAST_HUCK


@<TRIPOS>ATOM
      1 O3P        -8.8290    5.2470   -4.3040 O.co2     1 8OG        -0.5537
      2 P          -9.7020    3.8970   -4.3770 P.3       1 8OG         0.2008
      3 O1P        -8.7850    2.7380   -4.2910 O.co2     1 8OG        -0.5537
      4 O2P       -10.6210    4.0020   -5.5330 O.co2     1 8OG        -0.5537
      5 O5        -10.5660    3.9770   -3.0210 O.3       1 8OG        -0.2734
      6 C5        -11.3510    2.8570   -2.6040 C.3       1 8OG         0.1071
      7 C4        -10.4660    1.6280   -2.3810 C.3       1 8OG         0.1155
      8 O4         -9.4000    1.6730   -1.4260 O.3       1 8OG        -0.3405
      9 C3        -11.2510    0.3930   -1.9350 C.3       1 8OG         0.0888
     10 O3        -11.2300   -0.6310   -2.9330 O.3       1 8OG        -0.3890
     11 C2        -10.6290   -0.0870   -0.6200 C.3       1 8OG         0.0297
     12 C1         -9.4700    0.8460   -0.2570 C.3       1 8OG         0.1711
     13 N9         -9.4160    1.3000    1.1510 N.am      1 8OG        -0.1800
     14 C8        -10.5000    1.8580    1.7760 C.2       1 8OG         0.3009
     15 N7        -10.0720    2.1000    3.0540 N.am      1 8OG        -0.2392
     16 C5         -8.7710    1.7080    3.2280 C.2       1 8OG         0.1376
     17 C6         -7.8960    1.7200    4.2580 C.2       1 8OG         0.2169
     18 O6         -8.2840    2.1880    5.3840 O.2       1 8OG        -0.4208
     19 N1         -6.5940    1.2440    4.1510 N.am      1 8OG        -0.1896
     20 C2         -6.2000    0.7430    2.9390 C.2       1 8OG         0.2257
     21 N2         -4.9450    0.2840    2.8390 N.pl3     1 8OG        -0.2848
     22 N3         -7.0280    0.6850    1.8130 N.2       1 8OG        -0.2899
     23 C4         -8.3370    1.1950    2.0220 C.2       1 8OG         0.1142
     24 O8        -11.6590    2.0900    1.2850 O.2       1 8OG        -0.4065
     25 H1        -12.0960    2.6292   -3.3806 H         1 8OG         0.0639
     26 H2        -11.8654    3.1066   -1.6643 H         1 8OG         0.0639
     27 H3        -10.0132    1.4197   -3.3616 H         1 8OG         0.0649
     28 H4        -12.2983    0.6772   -1.7552 H         1 8OG         0.0622
     29 H5        -11.7249   -1.3814   -2.6256 H         1 8OG         0.2099
     30 H6        -10.2538   -1.1139   -0.7409 H         1 8OG         0.0343
     31 H7        -11.3861   -0.0647    0.1777 H         1 8OG         0.0343
     32 H8         -8.5587    0.2327   -0.3161 H         1 8OG         0.0946
     33 H9        -10.6373    2.5107    3.7694 H         1 8OG         0.2143
     34 H10        -5.9682    1.2667    4.9306 H         1 8OG         0.2492
     35 H11        -4.6073   -0.1015    1.9455 H         1 8OG         0.1875
     36 H12        -4.3181    0.3167    3.6556 H         1 8OG         0.1875
@<TRIPOS>BOND
     1    1    2 ar 
     2    2    3 ar 
     3    2    4 ar 
     4    2    5 1  
     5    5    6 1  
     6    6    7 1  
     7    6   25 1  
     8    6   26 1  
     9    7    8 1  
    10    7    9 1  
    11    7   27 1  
    12    8   12 1  
    13    9   10 1  
    14    9   11 1  
    15    9   28 1  
    16   10   29 1  
    17   11   12 1  
    18   11   30 1  
    19   11   31 1  
    20   12   13 1  
    21   12   32 1  
    22   13   14 am 
    23   13   23 am 
    24   14   15 am 
    25   14   24 2  
    26   15   16 am 
    27   15   33 1  
    28   16   17 1  
    29   16   23 2  
    30   17   18 2  
    31   17   19 am 
    32   19   20 am 
    33   19   34 1  
    34   20   21 1  
    35   20   22 2  
    36   21   35 1  
    37   21   36 1  
    38   22   23 1  
@<TRIPOS>SUBSTRUCTURE
     1 8OG         1

