### 
### Created by X-TOOL on Mon Aug  2 16:12:08 2021
### 

@<TRIPOS>MOLECULE
5ol3_ligand
  277   278     1     0     0
SMALL
GAST_HUCK


@<TRIPOS>ATOM
      1 N          -7.9220   -0.8860   34.3790 N.4       1 THR         0.2398
      2 CA         -6.6540   -0.2200   34.6560 C.3       1 THR         0.0910
      3 C          -6.5690    1.0970   33.8910 C.2       1 THR         0.2293
      4 O          -7.4010    1.3640   33.0230 O.2       1 THR        -0.3906
      5 CB         -5.4790   -1.1040   34.2550 C.3       1 THR         0.1120
      6 OG1        -5.5270   -1.3170   32.8450 O.3       1 THR        -0.3840
      7 CG2        -5.5430   -2.4570   34.9710 C.3       1 THR        -0.0314
      8 N          -5.5640    1.9170   34.2010 N.am      1 THR        -0.2585
      9 CA         -5.3820    3.1440   33.4350 C.3       1 THR         0.1566
     10 C          -5.0610    2.8340   31.9820 C.2       1 THR         0.2066
     11 O          -5.5660    3.5080   31.0740 O.2       1 THR        -0.3943
     12 CB         -4.2980    4.0230   34.0590 C.3       1 THR         0.0924
     13 OG1        -4.6800    4.3660   35.4000 O.3       1 THR        -0.3874
     14 CG2        -4.1180    5.3190   33.2380 C.3       1 THR        -0.0346
     15 N          -4.2530    1.7970   31.7340 N.am      1 THR        -0.2621
     16 CA         -4.0210    1.3690   30.3640 C.3       1 THR         0.1390
     17 C          -5.3300    1.0110   29.6770 C.2       1 THR         0.2057
     18 O          -5.5520    1.3920   28.5200 O.2       1 THR        -0.3942
     19 CB         -3.0520    0.1840   30.3260 C.3       1 THR         0.0163
     20 CG         -2.8420   -0.3850   28.9580 C.ar      1 THR        -0.0493
     21 CD1        -3.2740   -1.6620   28.6570 C.ar      1 THR        -0.0685
     22 CD2        -2.2040    0.3430   27.9650 C.ar      1 THR        -0.0685
     23 CE1        -3.0820   -2.2090   27.4140 C.ar      1 THR        -0.0398
     24 CE2        -2.0040   -0.1930   26.7010 C.ar      1 THR        -0.0398
     25 CZ         -2.4420   -1.4800   26.4360 C.ar      1 THR         0.0805
     26 OH         -2.2600   -2.0450   25.1980 O.3       1 THR        -0.3376
     27 N          -6.2040    0.2540   30.3620 N.am      1 THR        -0.2639
     28 CA         -7.4710   -0.1230   29.7550 C.3       1 THR         0.1282
     29 C          -8.2800    1.1120   29.3980 C.2       1 THR         0.2037
     30 O          -8.9290    1.1620   28.3450 O.2       1 THR        -0.3944
     31 CB         -8.2680   -1.0360   30.6910 C.3       1 THR        -0.0244
     32 N          -8.2530    2.1150   30.2700 N.am      1 THR        -0.2622
     33 CA         -8.9840    3.3520   30.0110 C.3       1 THR         0.1423
     34 C          -8.3900    4.0910   28.8240 C.2       1 THR         0.2057
     35 O          -9.1200    4.7050   28.0330 O.2       1 THR        -0.3943
     36 CB         -8.9570    4.2430   31.2480 C.3       1 THR         0.0406
     37 CG         -9.7430    3.6720   32.4090 C.2       1 THR         0.0393
     38 OD1       -10.5020    2.7040   32.2280 O.co2     1 THR        -0.5688
     39 OD2        -9.5940    4.2010   33.5170 O.co2     1 THR        -0.5688
     40 N          -7.0630    4.0430   28.6890 N.am      1 THR        -0.2618
     41 CA         -6.4190    4.6190   27.5240 C.3       1 THR         0.1404
     42 C          -6.8840    3.9210   26.2510 C.2       1 THR         0.2060
     43 O          -7.2340    4.5790   25.2680 O.2       1 THR        -0.3942
     44 CB         -4.9030    4.5370   27.6780 C.3       1 THR         0.0214
     45 CG         -4.1460    4.9180   26.4460 C.ar      1 THR        -0.0386
     46 CD1        -4.2330    6.2030   25.9290 C.ar      1 THR        -0.0601
     47 CD2        -3.3390    3.9940   25.8110 C.ar      1 THR        -0.0601
     48 CE1        -3.5290    6.5590   24.7880 C.ar      1 THR        -0.0686
     49 CE2        -2.6300    4.3400   24.6680 C.ar      1 THR        -0.0686
     50 CZ         -2.7290    5.6320   24.1550 C.ar      1 THR        -0.0687
     51 N          -6.9080    2.5800   26.2480 N.am      1 THR        -0.2633
     52 CA         -7.3900    1.8750   25.0580 C.3       1 THR         0.1335
     53 C          -8.8400    2.2490   24.7720 C.2       1 THR         0.2041
     54 O          -9.2250    2.4860   23.6150 O.2       1 THR        -0.3944
     55 CB         -7.2040    0.3560   25.2270 C.3       1 THR        -0.0037
     56 CG1        -5.7170    0.0390   25.4530 C.3       1 THR        -0.0491
     57 CG2        -7.7450   -0.3870   24.0140 C.3       1 THR        -0.0582
     58 CD1        -4.7950    0.5570   24.3580 C.3       1 THR        -0.0648
     59 N          -9.6590    2.3570   25.8220 N.am      1 THR        -0.2640
     60 CA        -11.0690    2.6970   25.6320 C.3       1 THR         0.1282
     61 C         -11.2520    4.0930   25.0520 C.2       1 THR         0.2037
     62 O         -12.2790    4.3670   24.4220 O.2       1 THR        -0.3944
     63 CB        -11.8080    2.5930   26.9610 C.3       1 THR        -0.0244
     64 N         -10.2880    4.9900   25.2780 N.am      1 THR        -0.2616
     65 CA        -10.3900    6.3570   24.7800 C.3       1 THR         0.1539
     66 C         -10.3910    6.4120   23.2630 C.2       1 THR         0.2060
     67 O         -10.8730    7.3960   22.6870 O.2       1 THR        -0.3943
     68 CB         -9.2260    7.2040   25.2930 C.3       1 THR         0.0843
     69 OG         -8.0380    6.9570   24.5390 O.3       1 THR        -0.3903
     70 N          -9.8320    5.3980   22.6120 N.am      1 THR        -0.2663
     71 CA         -9.7660    5.3410   21.1710 C.3       1 THR         0.1201
     72 C          -8.6720    6.1730   20.5500 C.2       1 THR         0.2007
     73 O          -8.5150    6.1340   19.3240 O.2       1 THR        -0.3947
     74 N          -7.9020    6.9100   21.3390 N.am      1 THR        -0.2640
     75 CA         -6.8330    7.7520   20.7950 C.3       1 THR         0.1311
     76 C          -5.4720    7.0740   20.9310 C.2       1 THR         0.2040
     77 O          -4.5170    7.6340   21.4790 O.2       1 THR        -0.3944
     78 CB         -6.8590    9.1180   21.4730 C.3       1 THR        -0.0092
     79 CG         -8.1310    9.9010   21.1630 C.3       1 THR        -0.0156
     80 CD         -8.1360   11.2830   21.7810 C.3       1 THR         0.0627
     81 NE         -7.0570   12.1460   21.3120 N.pl3     1 THR        -0.2723
     82 CZ         -7.1210   12.9340   20.2440 C.cat     1 THR         0.2882
     83 NH1        -8.2170   12.9710   19.4830 N.pl3     1 THR        -0.2849
     84 NH2        -6.0830   13.6910   19.9340 N.pl3     1 THR        -0.2849
     85 N          -5.3830    5.8410   20.4230 N.am      1 THR        -0.2613
     86 CA         -4.1530    5.0640   20.4870 C.3       1 THR         0.1565
     87 C          -3.3440    5.1260   19.2030 C.2       1 THR         0.2063
     88 O          -2.1870    4.6890   19.2080 O.2       1 THR        -0.3943
     89 CB         -4.4500    3.5910   20.7840 C.3       1 THR         0.0924
     90 OG1        -5.3460    3.1000   19.7850 O.3       1 THR        -0.3874
     91 CG2        -5.0640    3.4090   22.1570 C.3       1 THR        -0.0346
     92 N          -3.9240    5.6180   18.1090 N.am      1 THR        -0.2663
     93 CA         -3.2110    5.7790   16.8610 C.3       1 THR         0.1201
     94 C          -2.5300    7.1320   16.7550 C.2       1 THR         0.2007
     95 O          -2.5060    7.9320   17.6870 O.2       1 THR        -0.3947
     96 N          -1.9550    7.3870   15.5870 N.am      1 THR        -0.2640
     97 CA         -1.2600    8.6460   15.3730 C.3       1 THR         0.1311
     98 C          -2.2380    9.8080   15.5090 C.2       1 THR         0.2039
     99 O          -3.3540    9.7650   14.9850 O.2       1 THR        -0.3944
    100 CB         -0.5800    8.6460   14.0060 C.3       1 THR        -0.0092
    101 CG          0.6000    7.6840   13.9470 C.3       1 THR        -0.0156
    102 CD          1.1130    7.5060   12.5380 C.3       1 THR         0.0627
    103 NE          2.3060    6.6560   12.4640 N.pl3     1 THR        -0.2723
    104 CZ          2.2970    5.3230   12.4600 C.cat     1 THR         0.2882
    105 NH1         3.4390    4.6640   12.3690 N.pl3     1 THR        -0.2849
    106 NH2         1.1590    4.6450   12.5490 N.pl3     1 THR        -0.2849
    107 N          -1.8150   10.8450   16.2280 N.am      1 THR        -0.2637
    108 CA         -2.6840   11.9560   16.5830 C.3       1 THR         0.1311
    109 C          -2.4000   13.1710   15.7100 C.2       1 THR         0.2040
    110 O          -1.2460   13.5750   15.5600 O.2       1 THR        -0.3944
    111 CB         -2.4980   12.3140   18.0580 C.3       1 THR        -0.0092
    112 CG         -2.8990   11.1840   18.9890 C.3       1 THR        -0.0156
    113 CD         -2.2090   11.2120   20.3280 C.3       1 THR         0.0627
    114 NE         -0.7770   10.9610   20.2090 N.pl3     1 THR        -0.2723
    115 CZ          0.0110   10.5260   21.1900 C.cat     1 THR         0.2882
    116 NH1        -0.4700   10.2670   22.4040 N.pl3     1 THR        -0.2849
    117 NH2         1.2960   10.3440   20.9500 N.pl3     1 THR        -0.2849
    118 N          -3.4610   13.7620   15.1630 N.am      1 THR        -0.2616
    119 CA         -3.3360   14.9630   14.3590 C.3       1 THR         0.1476
    120 C          -3.2260   16.2170   15.2240 C.2       1 THR         0.2062
    121 O          -3.7200   16.2770   16.3570 O.2       1 THR        -0.3942
    122 CB         -4.5330   15.1060   13.4330 C.3       1 THR         0.0773
    123 CG         -4.5840   14.0360   12.3860 C.2       1 THR         0.1780
    124 OD1        -3.5580   13.4970   11.9740 O.2       1 THR        -0.3970
    125 ND2        -5.7790   13.7270   11.9380 N.am      1 THR        -0.3007
    126 N          -2.5710   17.2290   14.6670 N.am      1 THR        -0.2639
    127 CA         -2.6190   18.5630   15.2460 C.3       1 THR         0.1282
    128 C          -4.0280   19.1340   15.1270 C.2       1 THR         0.2031
    129 O          -4.8040   18.7590   14.2380 O.2       1 THR        -0.3944
    130 CB         -1.6150   19.4690   14.5410 C.3       1 THR        -0.0244
    131 N          -4.3610   20.0430   16.0360 N.am      1 THR        -0.2692
    132 CA         -5.6810   20.6840   16.0270 C.3       1 THR         0.0969
    133 C          -5.7340   21.7310   14.9220 C.2       1 THR         0.0604
    134 O          -6.8310   22.1600   14.5350 O.co2     1 THR        -0.5666
    135 CB         -6.0240   21.3160   17.3930 C.3       1 THR        -0.0092
    136 CG1        -5.1030   22.5030   17.6810 C.3       1 THR        -0.0497
    137 CG2        -5.9510   20.2750   18.4910 C.3       1 THR        -0.0588
    138 CD1        -5.3130   23.1320   19.0570 C.3       1 THR        -0.0649
    139 OXT        -4.6950   22.1670   14.4000 O.co2     1 THR        -0.5666
    140 H1         -8.6838   -0.2847   34.6513 H         1 THR         0.2016
    141 H2         -7.9704   -1.7470   34.9010 H         1 THR         0.2016
    142 H3         -7.9880   -1.0864   33.3933 H         1 THR         0.2016
    143 H4         -6.5931   -0.0129   35.7346 H         1 THR         0.1125
    144 H5         -4.5383   -0.5994   34.5202 H         1 THR         0.0674
    145 H6         -4.7980   -1.8676   32.5840 H         1 THR         0.2102
    146 H7         -4.6858   -3.0747   34.6650 H         1 THR         0.0258
    147 H8         -6.4786   -2.9698   34.7031 H         1 THR         0.0258
    148 H9         -5.5105   -2.2980   36.0590 H         1 THR         0.0258
    149 H10        -4.9418    1.6926   34.9510 H         1 THR         0.1885
    150 H11        -6.3286    3.7036   33.4612 H         1 THR         0.0826
    151 H12        -3.3477    3.4693   34.0776 H         1 THR         0.0639
    152 H13        -4.0076    4.9124   35.7897 H         1 THR         0.2101
    153 H14        -3.3357    5.9396   33.6994 H         1 THR         0.0257
    154 H15        -5.0659    5.8768   33.2208 H         1 THR         0.0257
    155 H16        -3.8241    5.0635   32.2092 H         1 THR         0.0257
    156 H17        -3.8089    1.3166   32.4903 H         1 THR         0.1885
    157 H18        -3.5634    2.2058   29.8160 H         1 THR         0.0821
    158 H19        -3.4510   -0.6104   30.9738 H         1 THR         0.0453
    159 H20        -2.0791    0.5197   30.7143 H         1 THR         0.0453
    160 H21        -3.7762   -2.2451   29.4205 H         1 THR         0.0530
    161 H22        -1.8560    1.3469   28.1798 H         1 THR         0.0530
    162 H23        -3.4330   -3.2124   27.2018 H         1 THR         0.0525
    163 H24        -1.5110    0.3884   25.9303 H         1 THR         0.0525
    164 H25        -2.6193   -2.9245   25.1966 H         1 THR         0.2458
    165 H26        -5.9834   -0.0500   31.2888 H         1 THR         0.1883
    166 H27        -7.2592   -0.6776   28.8289 H         1 THR         0.0797
    167 H28        -9.2207   -1.3087   30.2136 H         1 THR         0.0277
    168 H29        -8.4688   -0.5081   31.6349 H         1 THR         0.0277
    169 H30        -7.6871   -1.9471   30.8969 H         1 THR         0.0277
    170 H31        -7.7252    2.0211   31.1142 H         1 THR         0.1884
    171 H32       -10.0294    3.0999   29.7798 H         1 THR         0.0819
    172 H33        -9.3841    5.2216   30.9838 H         1 THR         0.0478
    173 H34        -7.9112    4.3724   31.5634 H         1 THR         0.0478
    174 H35        -6.5081    3.6062   29.3970 H         1 THR         0.1885
    175 H36        -6.7034    5.6795   27.4573 H         1 THR         0.0823
    176 H37        -4.6373    3.5026   27.9413 H         1 THR         0.0474
    177 H38        -4.6008    5.2119   28.4924 H         1 THR         0.0474
    178 H39        -4.8588    6.9375   26.4229 H         1 THR         0.0557
    179 H40        -3.2583    2.9889   26.2088 H         1 THR         0.0557
    180 H41        -3.6080    7.5659   24.3943 H         1 THR         0.0599
    181 H42        -2.0011    3.6068   24.1761 H         1 THR         0.0599
    182 H43        -2.1793    5.9067   23.2620 H         1 THR         0.0559
    183 H44        -6.6002    2.0671   27.0494 H         1 THR         0.1883
    184 H45        -6.7832    2.1957   24.1984 H         1 THR         0.0803
    185 H46        -7.7689    0.0296   26.1126 H         1 THR         0.0345
    186 H47        -5.6023   -1.0534   25.5123 H         1 THR         0.0267
    187 H48        -5.4087    0.4924   26.4066 H         1 THR         0.0267
    188 H49        -8.8085   -0.1411   23.8777 H         1 THR         0.0235
    189 H50        -7.6362   -1.4705   24.1691 H         1 THR         0.0235
    190 H51        -7.1815   -0.0864   23.1184 H         1 THR         0.0235
    191 H52        -3.7553    0.2886   24.5968 H         1 THR         0.0230
    192 H53        -4.8849    1.6512   24.2902 H         1 THR         0.0230
    193 H54        -5.0785    0.1054   23.3959 H         1 THR         0.0230
    194 H55        -9.3054    2.2042   26.7449 H         1 THR         0.1883
    195 H56       -11.5051    1.9726   24.9284 H         1 THR         0.0797
    196 H57       -12.8673    2.8496   26.8125 H         1 THR         0.0277
    197 H58       -11.3601    3.2894   27.6851 H         1 THR         0.0277
    198 H59       -11.7300    1.5650   27.3445 H         1 THR         0.0277
    199 H60        -9.4793    4.7183   25.7997 H         1 THR         0.1884
    200 H61       -11.3332    6.7872   25.1478 H         1 THR         0.0823
    201 H62        -9.0394    6.9564   26.3484 H         1 THR         0.0606
    202 H63        -9.4910    8.2681   25.2073 H         1 THR         0.0606
    203 H64        -7.8024    6.0396   24.6128 H         1 THR         0.2097
    204 H65        -9.4415    4.6445   23.1409 H         1 THR         0.1881
    205 H66       -10.7293    5.6905   20.7711 H         1 THR         0.0763
    206 H67        -9.6058    4.2930   20.8778 H         1 THR         0.0763
    207 H68        -8.0542    6.8908   22.3272 H         1 THR         0.1883
    208 H69        -7.0267    7.9011   19.7225 H         1 THR         0.0800
    209 H70        -5.9930    9.7006   21.1257 H         1 THR         0.0313
    210 H71        -6.7908    8.9729   22.5612 H         1 THR         0.0313
    211 H72        -8.9929    9.3392   21.5522 H         1 THR         0.0301
    212 H73        -8.2229   10.0040   20.0717 H         1 THR         0.0301
    213 H74        -8.0431   11.1747   22.8717 H         1 THR         0.0689
    214 H75        -9.0946   11.7660   21.5408 H         1 THR         0.0689
    215 H76        -6.1786   12.1443   21.8499 H         1 THR         0.2642
    216 H77        -8.2508   13.5872   18.6584 H         1 THR         0.2615
    217 H78        -9.0289   12.3833   19.7204 H         1 THR         0.2615
    218 H79        -5.2349   13.6662   20.5179 H         1 THR         0.2615
    219 H80        -6.1222   14.3058   19.1085 H         1 THR         0.2615
    220 H81        -6.1870    5.4390   19.9848 H         1 THR         0.1884
    221 H82        -3.5397    5.4732   21.3033 H         1 THR         0.0826
    222 H83        -3.5097    3.0218   20.7407 H         1 THR         0.0639
    223 H84        -4.9415    3.1841   18.9296 H         1 THR         0.2101
    224 H85        -5.2617    2.3411   22.3316 H         1 THR         0.0257
    225 H86        -6.0080    3.9707   22.2139 H         1 THR         0.0257
    226 H87        -4.3681    3.7829   22.9224 H         1 THR         0.0257
    227 H88        -4.8866    5.8855   18.1524 H         1 THR         0.1881
    228 H89        -3.9248    5.6766   16.0303 H         1 THR         0.0763
    229 H90        -2.4464    4.9917   16.7866 H         1 THR         0.0763
    230 H91        -1.9997    6.7111   14.8514 H         1 THR         0.1883
    231 H92        -0.4838    8.7542   16.1449 H         1 THR         0.0800
    232 H93        -0.2188    9.6624   13.7906 H         1 THR         0.0313
    233 H94        -1.3164    8.3495   13.2446 H         1 THR         0.0313
    234 H95         0.2806    6.7056   14.3352 H         1 THR         0.0301
    235 H96         1.4128    8.0796   14.5738 H         1 THR         0.0301
    236 H97         1.3624    8.4959   12.1284 H         1 THR         0.0689
    237 H98         0.3182    7.0476   11.9312 H         1 THR         0.0689
    238 H99         3.2214    7.1253   12.4110 H         1 THR         0.2642
    239 H100        3.4403    3.6340   12.3653 H         1 THR         0.2615
    240 H101        4.3277    5.1804   12.3018 H         1 THR         0.2615
    241 H102        0.2635    5.1489   12.6203 H         1 THR         0.2615
    242 H103        1.1716    3.6151   12.5467 H         1 THR         0.2615
    243 H104       -0.8637   10.8609   16.5358 H         1 THR         0.1883
    244 H105       -3.7279   11.6480   16.4237 H         1 THR         0.0800
    245 H106       -3.1156   13.1949   18.2871 H         1 THR         0.0313
    246 H107       -1.4385   12.5538   18.2313 H         1 THR         0.0313
    247 H108       -2.6585   10.2300   18.4970 H         1 THR         0.0301
    248 H109       -3.9840   11.2457   19.1589 H         1 THR         0.0301
    249 H110       -2.6528   10.4391   20.9727 H         1 THR         0.0689
    250 H111       -2.3595   12.2013   20.7847 H         1 THR         0.0689
    251 H112       -0.3404   11.1342   19.2923 H         1 THR         0.2642
    252 H113        0.1598    9.9313   23.1467 H         1 THR         0.2615
    253 H114       -1.4720   10.4023   22.6006 H         1 THR         0.2615
    254 H115        1.6781   10.5414   20.0141 H         1 THR         0.2615
    255 H116        1.9167   10.0045   21.6986 H         1 THR         0.2615
    256 H117       -4.3679   13.3673   15.3105 H         1 THR         0.1885
    257 H118       -2.4240   14.8769   13.7500 H         1 THR         0.0826
    258 H119       -4.4770   16.0846   12.9338 H         1 THR         0.0551
    259 H120       -5.4521   15.0535   14.0350 H         1 THR         0.0551
    260 H121       -5.8833   13.0205   11.2380 H         1 THR         0.1814
    261 H122       -6.5848   14.1982   12.2968 H         1 THR         0.1814
    262 H123       -2.0364   17.0718   13.8366 H         1 THR         0.1883
    263 H124       -2.3519   18.4989   16.3111 H         1 THR         0.0797
    264 H125       -1.6560   20.4755   14.9829 H         1 THR         0.0277
    265 H126       -1.8627   19.5281   13.4709 H         1 THR         0.0277
    266 H127       -0.6021   19.0570   14.6607 H         1 THR         0.0277
    267 H128       -3.6986   20.2959   16.7412 H         1 THR         0.1875
    268 H129       -6.4351   19.9128   15.8113 H         1 THR         0.0729
    269 H130       -7.0572   21.6909   17.3485 H         1 THR         0.0338
    270 H131       -5.2829   23.2738   16.9172 H         1 THR         0.0267
    271 H132       -4.0611   22.1567   17.6143 H         1 THR         0.0267
    272 H133       -6.6245   19.4395   18.2495 H         1 THR         0.0234
    273 H134       -6.2559   20.7274   19.4461 H         1 THR         0.0234
    274 H135       -4.9196   19.9020   18.5747 H         1 THR         0.0234
    275 H136       -4.6166   23.9738   19.1855 H         1 THR         0.0230
    276 H137       -5.1259   22.3791   19.8368 H         1 THR         0.0230
    277 H138       -6.3476   23.4962   19.1397 H         1 THR         0.0230
@<TRIPOS>BOND
     1    1    2 1  
     2    2    3 1  
     3    2    5 1  
     4    3    4 2  
     5    3    8 am 
     6    5    6 1  
     7    5    7 1  
     8    8    9 1  
     9    9   10 1  
    10    9   12 1  
    11   10   11 2  
    12   10   15 am 
    13   12   13 1  
    14   12   14 1  
    15   15   16 1  
    16   16   17 1  
    17   16   19 1  
    18   17   18 2  
    19   17   27 am 
    20   19   20 1  
    21   20   21 ar 
    22   20   22 ar 
    23   21   23 ar 
    24   22   24 ar 
    25   23   25 ar 
    26   24   25 ar 
    27   25   26 1  
    28   27   28 1  
    29   28   29 1  
    30   28   31 1  
    31   29   30 2  
    32   29   32 am 
    33   32   33 1  
    34   33   34 1  
    35   33   36 1  
    36   34   35 2  
    37   34   40 am 
    38   36   37 1  
    39   37   38 ar 
    40   37   39 ar 
    41   40   41 1  
    42   41   42 1  
    43   41   44 1  
    44   42   43 2  
    45   42   51 am 
    46   44   45 1  
    47   45   46 ar 
    48   45   47 ar 
    49   46   48 ar 
    50   47   49 ar 
    51   48   50 ar 
    52   49   50 ar 
    53   51   52 1  
    54   52   53 1  
    55   52   55 1  
    56   53   54 2  
    57   53   59 am 
    58   55   56 1  
    59   55   57 1  
    60   56   58 1  
    61   59   60 1  
    62   60   61 1  
    63   60   63 1  
    64   61   62 2  
    65   61   64 am 
    66   64   65 1  
    67   65   66 1  
    68   65   68 1  
    69   66   67 2  
    70   66   70 am 
    71   68   69 1  
    72   70   71 1  
    73   71   72 1  
    74   72   73 2  
    75   72   74 am 
    76   74   75 1  
    77   75   76 1  
    78   75   78 1  
    79   76   77 2  
    80   76   85 am 
    81   78   79 1  
    82   79   80 1  
    83   80   81 1  
    84   81   82 ar 
    85   82   83 ar 
    86   82   84 ar 
    87   85   86 1  
    88   86   87 1  
    89   86   89 1  
    90   87   88 2  
    91   87   92 am 
    92   89   90 1  
    93   89   91 1  
    94   92   93 1  
    95   93   94 1  
    96   94   95 2  
    97   94   96 am 
    98   96   97 1  
    99   97   98 1  
   100   97  100 1  
   101   98   99 2  
   102   98  107 am 
   103  100  101 1  
   104  101  102 1  
   105  102  103 1  
   106  103  104 ar 
   107  104  105 ar 
   108  104  106 ar 
   109  107  108 1  
   110  108  109 1  
   111  108  111 1  
   112  109  110 2  
   113  109  118 am 
   114  111  112 1  
   115  112  113 1  
   116  113  114 1  
   117  114  115 ar 
   118  115  116 ar 
   119  115  117 ar 
   120  118  119 1  
   121  119  120 1  
   122  119  122 1  
   123  120  121 2  
   124  120  126 am 
   125  122  123 1  
   126  123  124 2  
   127  123  125 am 
   128  126  127 1  
   129  127  128 1  
   130  127  130 1  
   131  128  129 2  
   132  128  131 am 
   133  131  132 1  
   134  132  133 1  
   135  132  135 1  
   136  133  134 ar 
   137  133  139 ar 
   138  135  136 1  
   139  135  137 1  
   140  136  138 1  
   141    1  140 1  
   142    1  141 1  
   143    1  142 1  
   144    2  143 1  
   145    5  144 1  
   146    6  145 1  
   147    7  146 1  
   148    7  147 1  
   149    7  148 1  
   150    8  149 1  
   151    9  150 1  
   152   12  151 1  
   153   13  152 1  
   154   14  153 1  
   155   14  154 1  
   156   14  155 1  
   157   15  156 1  
   158   16  157 1  
   159   19  158 1  
   160   19  159 1  
   161   21  160 1  
   162   22  161 1  
   163   23  162 1  
   164   24  163 1  
   165   26  164 1  
   166   27  165 1  
   167   28  166 1  
   168   31  167 1  
   169   31  168 1  
   170   31  169 1  
   171   32  170 1  
   172   33  171 1  
   173   36  172 1  
   174   36  173 1  
   175   40  174 1  
   176   41  175 1  
   177   44  176 1  
   178   44  177 1  
   179   46  178 1  
   180   47  179 1  
   181   48  180 1  
   182   49  181 1  
   183   50  182 1  
   184   51  183 1  
   185   52  184 1  
   186   55  185 1  
   187   56  186 1  
   188   56  187 1  
   189   57  188 1  
   190   57  189 1  
   191   57  190 1  
   192   58  191 1  
   193   58  192 1  
   194   58  193 1  
   195   59  194 1  
   196   60  195 1  
   197   63  196 1  
   198   63  197 1  
   199   63  198 1  
   200   64  199 1  
   201   65  200 1  
   202   68  201 1  
   203   68  202 1  
   204   69  203 1  
   205   70  204 1  
   206   71  205 1  
   207   71  206 1  
   208   74  207 1  
   209   75  208 1  
   210   78  209 1  
   211   78  210 1  
   212   79  211 1  
   213   79  212 1  
   214   80  213 1  
   215   80  214 1  
   216   81  215 1  
   217   83  216 1  
   218   83  217 1  
   219   84  218 1  
   220   84  219 1  
   221   85  220 1  
   222   86  221 1  
   223   89  222 1  
   224   90  223 1  
   225   91  224 1  
   226   91  225 1  
   227   91  226 1  
   228   92  227 1  
   229   93  228 1  
   230   93  229 1  
   231   96  230 1  
   232   97  231 1  
   233  100  232 1  
   234  100  233 1  
   235  101  234 1  
   236  101  235 1  
   237  102  236 1  
   238  102  237 1  
   239  103  238 1  
   240  105  239 1  
   241  105  240 1  
   242  106  241 1  
   243  106  242 1  
   244  107  243 1  
   245  108  244 1  
   246  111  245 1  
   247  111  246 1  
   248  112  247 1  
   249  112  248 1  
   250  113  249 1  
   251  113  250 1  
   252  114  251 1  
   253  116  252 1  
   254  116  253 1  
   255  117  254 1  
   256  117  255 1  
   257  118  256 1  
   258  119  257 1  
   259  122  258 1  
   260  122  259 1  
   261  125  260 1  
   262  125  261 1  
   263  126  262 1  
   264  127  263 1  
   265  130  264 1  
   266  130  265 1  
   267  130  266 1  
   268  131  267 1  
   269  132  268 1  
   270  135  269 1  
   271  136  270 1  
   272  136  271 1  
   273  137  272 1  
   274  137  273 1  
   275  137  274 1  
   276  138  275 1  
   277  138  276 1  
   278  138  277 1  
@<TRIPOS>SUBSTRUCTURE
     1 THR         1

