5ol3_ligand
  -I-interpret- 

276277  0  0  0  0  0  0  0  0999 V2000
   -7.9220   -0.8860   34.3790 N   0  3  0  0  0
   -6.6540   -0.2200   34.6560 C   0  0  0  0  0
   -6.5690    1.0970   33.8910 C   0  0  0  0  0
   -7.4010    1.3640   33.0230 O   0  0  0  0  0
   -5.4790   -1.1040   34.2550 C   0  0  0  0  0
   -5.5270   -1.3170   32.8450 O   0  0  0  0  0
   -5.5430   -2.4570   34.9710 C   0  0  0  0  0
   -5.5640    1.9170   34.2010 N   0  0  0  0  0
   -5.3820    3.1440   33.4350 C   0  0  0  0  0
   -5.0610    2.8340   31.9820 C   0  0  0  0  0
   -5.5660    3.5080   31.0740 O   0  0  0  0  0
   -4.2980    4.0230   34.0590 C   0  0  0  0  0
   -4.6800    4.3660   35.4000 O   0  0  0  0  0
   -4.1180    5.3190   33.2380 C   0  0  0  0  0
   -4.2530    1.7970   31.7340 N   0  0  0  0  0
   -4.0210    1.3690   30.3640 C   0  0  0  0  0
   -5.3300    1.0110   29.6770 C   0  0  0  0  0
   -5.5520    1.3920   28.5200 O   0  0  0  0  0
   -3.0520    0.1840   30.3260 C   0  0  0  0  0
   -2.8420   -0.3850   28.9580 C   0  0  0  0  0
   -3.2740   -1.6620   28.6570 C   0  0  0  0  0
   -2.2040    0.3430   27.9650 C   0  0  0  0  0
   -3.0820   -2.2090   27.4140 C   0  0  0  0  0
   -2.0040   -0.1930   26.7010 C   0  0  0  0  0
   -2.4420   -1.4800   26.4360 C   0  0  0  0  0
   -2.2600   -2.0450   25.1980 O   0  0  0  0  0
   -6.2040    0.2540   30.3620 N   0  0  0  0  0
   -7.4710   -0.1230   29.7550 C   0  0  0  0  0
   -8.2800    1.1120   29.3980 C   0  0  0  0  0
   -8.9290    1.1620   28.3450 O   0  0  0  0  0
   -8.2680   -1.0360   30.6910 C   0  0  0  0  0
   -8.2530    2.1150   30.2700 N   0  0  0  0  0
   -8.9840    3.3520   30.0110 C   0  0  0  0  0
   -8.3900    4.0910   28.8240 C   0  0  0  0  0
   -9.1200    4.7050   28.0330 O   0  0  0  0  0
   -8.9570    4.2430   31.2480 C   0  0  0  0  0
   -9.7430    3.6720   32.4090 C   0  0  0  0  0
  -10.5020    2.7040   32.2280 O   0  0  0  0  0
   -9.5940    4.2010   33.5170 O   0  0  0  0  0
   -7.0630    4.0430   28.6890 N   0  0  0  0  0
   -6.4190    4.6190   27.5240 C   0  0  0  0  0
   -6.8840    3.9210   26.2510 C   0  0  0  0  0
   -7.2340    4.5790   25.2680 O   0  0  0  0  0
   -4.9030    4.5370   27.6780 C   0  0  0  0  0
   -4.1460    4.9180   26.4460 C   0  0  0  0  0
   -4.2330    6.2030   25.9290 C   0  0  0  0  0
   -3.3390    3.9940   25.8110 C   0  0  0  0  0
   -3.5290    6.5590   24.7880 C   0  0  0  0  0
   -2.6300    4.3400   24.6680 C   0  0  0  0  0
   -2.7290    5.6320   24.1550 C   0  0  0  0  0
   -6.9080    2.5800   26.2480 N   0  0  0  0  0
   -7.3900    1.8750   25.0580 C   0  0  0  0  0
   -8.8400    2.2490   24.7720 C   0  0  0  0  0
   -9.2250    2.4860   23.6150 O   0  0  0  0  0
   -7.2040    0.3560   25.2270 C   0  0  0  0  0
   -5.7170    0.0390   25.4530 C   0  0  0  0  0
   -7.7450   -0.3870   24.0140 C   0  0  0  0  0
   -4.7950    0.5570   24.3580 C   0  0  0  0  0
   -9.6590    2.3570   25.8220 N   0  0  0  0  0
  -11.0690    2.6970   25.6320 C   0  0  0  0  0
  -11.2520    4.0930   25.0520 C   0  0  0  0  0
  -12.2790    4.3670   24.4220 O   0  0  0  0  0
  -11.8080    2.5930   26.9610 C   0  0  0  0  0
  -10.2880    4.9900   25.2780 N   0  0  0  0  0
  -10.3900    6.3570   24.7800 C   0  0  0  0  0
  -10.3910    6.4120   23.2630 C   0  0  0  0  0
  -10.8730    7.3960   22.6870 O   0  0  0  0  0
   -9.2260    7.2040   25.2930 C   0  0  0  0  0
   -8.0380    6.9570   24.5390 O   0  0  0  0  0
   -9.8320    5.3980   22.6120 N   0  0  0  0  0
   -9.7660    5.3410   21.1710 C   0  0  0  0  0
   -8.6720    6.1730   20.5500 C   0  0  0  0  0
   -8.5150    6.1340   19.3240 O   0  0  0  0  0
   -7.9020    6.9100   21.3390 N   0  0  0  0  0
   -6.8330    7.7520   20.7950 C   0  0  0  0  0
   -5.4720    7.0740   20.9310 C   0  0  0  0  0
   -4.5170    7.6340   21.4790 O   0  0  0  0  0
   -6.8590    9.1180   21.4730 C   0  0  0  0  0
   -8.1310    9.9010   21.1630 C   0  0  0  0  0
   -8.1360   11.2830   21.7810 C   0  0  0  0  0
   -7.0570   12.1460   21.3120 N   0  0  0  0  0
   -7.1210   12.9340   20.2440 C   0  0  0  0  0
   -8.2170   12.9710   19.4830 N   0  0  0  0  0
   -6.0830   13.6910   19.9340 N   0  0  0  0  0
   -5.3830    5.8410   20.4230 N   0  0  0  0  0
   -4.1530    5.0640   20.4870 C   0  0  0  0  0
   -3.3440    5.1260   19.2030 C   0  0  0  0  0
   -2.1870    4.6890   19.2080 O   0  0  0  0  0
   -4.4500    3.5910   20.7840 C   0  0  0  0  0
   -5.3460    3.1000   19.7850 O   0  0  0  0  0
   -5.0640    3.4090   22.1570 C   0  0  0  0  0
   -3.9240    5.6180   18.1090 N   0  0  0  0  0
   -3.2110    5.7790   16.8610 C   0  0  0  0  0
   -2.5300    7.1320   16.7550 C   0  0  0  0  0
   -2.5060    7.9320   17.6870 O   0  0  0  0  0
   -1.9550    7.3870   15.5870 N   0  0  0  0  0
   -1.2600    8.6460   15.3730 C   0  0  0  0  0
   -2.2380    9.8080   15.5090 C   0  0  0  0  0
   -3.3540    9.7650   14.9850 O   0  0  0  0  0
   -0.5800    8.6460   14.0060 C   0  0  0  0  0
    0.6000    7.6840   13.9470 C   0  0  0  0  0
    1.1130    7.5060   12.5380 C   0  0  0  0  0
    2.3060    6.6560   12.4640 N   0  0  0  0  0
    2.2970    5.3230   12.4600 C   0  0  0  0  0
    3.4390    4.6640   12.3690 N   0  0  0  0  0
    1.1590    4.6450   12.5490 N   0  0  0  0  0
   -1.8150   10.8450   16.2280 N   0  0  0  0  0
   -2.6840   11.9560   16.5830 C   0  0  0  0  0
   -2.4000   13.1710   15.7100 C   0  0  0  0  0
   -1.2460   13.5750   15.5600 O   0  0  0  0  0
   -2.4980   12.3140   18.0580 C   0  0  0  0  0
   -2.8990   11.1840   18.9890 C   0  0  0  0  0
   -2.2090   11.2120   20.3280 C   0  0  0  0  0
   -0.7770   10.9610   20.2090 N   0  0  0  0  0
    0.0110   10.5260   21.1900 C   0  0  0  0  0
   -0.4700   10.2670   22.4040 N   0  0  0  0  0
    1.2960   10.3440   20.9500 N   0  0  0  0  0
   -3.4610   13.7620   15.1630 N   0  0  0  0  0
   -3.3360   14.9630   14.3590 C   0  0  0  0  0
   -3.2260   16.2170   15.2240 C   0  0  0  0  0
   -3.7200   16.2770   16.3570 O   0  0  0  0  0
   -4.5330   15.1060   13.4330 C   0  0  0  0  0
   -4.5840   14.0360   12.3860 C   0  0  0  0  0
   -3.5580   13.4970   11.9740 O   0  0  0  0  0
   -5.7790   13.7270   11.9380 N   0  0  0  0  0
   -2.5710   17.2290   14.6670 N   0  0  0  0  0
   -2.6190   18.5630   15.2460 C   0  0  0  0  0
   -4.0280   19.1340   15.1270 C   0  0  0  0  0
   -4.8040   18.7590   14.2380 O   0  0  0  0  0
   -1.6150   19.4690   14.5410 C   0  0  0  0  0
   -4.3610   20.0430   16.0360 N   0  0  0  0  0
   -5.6810   20.6840   16.0270 C   0  0  0  0  0
   -5.7340   21.7310   14.9220 C   0  0  0  0  0
   -6.8310   22.1600   14.5350 O   0  0  0  0  0
   -6.0240   21.3160   17.3930 C   0  0  0  0  0
   -5.1030   22.5030   17.6810 C   0  0  0  0  0
   -5.9510   20.2750   18.4910 C   0  0  0  0  0
   -5.3130   23.1320   19.0570 C   0  0  0  0  0
   -4.6950   22.1670   14.4000 O   0  0  0  0  0
   -8.6921   -0.2767   34.6549 H   0  0  0  0  0
   -7.9876   -1.0883   33.3814 H   0  0  0  0  0
   -7.9698   -1.7570   34.9077 H   0  0  0  0  0
   -6.6063   -0.0256   35.7275 H   0  0  0  0  0
   -4.5506   -0.6078   34.5378 H   0  0  0  0  0
   -5.4871   -0.4709   32.3932 H   0  0  0  0  0
   -6.4724   -2.9622   34.7080 H   0  0  0  0  0
   -4.6954   -3.0697   34.6638 H   0  0  0  0  0
   -5.5066   -2.2984   36.0488 H   0  0  0  0  0
   -4.9293    1.6881   34.9660 H   0  0  0  0  0
   -6.3198    3.6989   33.4613 H   0  0  0  0  0
   -3.3575    3.4721   34.0653 H   0  0  0  0  0
   -4.0005    4.9181   35.7938 H   0  0  0  0  0
   -3.8269    5.0645   32.2189 H   0  0  0  0  0
   -5.0579    5.8707   33.2217 H   0  0  0  0  0
   -3.3427    5.9331   33.6961 H   0  0  0  0  0
   -3.8001    1.3070   32.5054 H   0  0  0  0  0
   -3.5704    2.2006   29.8222 H   0  0  0  0  0
   -3.4815   -0.6055   30.9427 H   0  0  0  0  0
   -2.0857    0.5444   30.6787 H   0  0  0  0  0
   -3.7789   -2.2483   29.4247 H   0  0  0  0  0
   -1.8541    1.3525   28.1810 H   0  0  0  0  0
   -3.4349   -3.2180   27.2006 H   0  0  0  0  0
   -1.5083    0.3916   25.9260 H   0  0  0  0  0
   -1.8034   -1.4225   24.6274 H   0  0  0  0  0
   -5.9789   -0.0561   31.3073 H   0  0  0  0  0
   -7.2606   -0.6732   28.8379 H   0  0  0  0  0
   -7.6913   -1.9383   30.8942 H   0  0  0  0  0
   -8.4663   -0.5117   31.6258 H   0  0  0  0  0
   -9.2117   -1.3055   30.2168 H   0  0  0  0  0
   -7.7147    2.0192   31.1311 H   0  0  0  0  0
  -10.0175    3.0979   29.7754 H   0  0  0  0  0
   -9.4102    5.1970   30.9787 H   0  0  0  0  0
   -7.9186    4.3370   31.5656 H   0  0  0  0  0
  -10.4741    2.4454   31.3039 H   0  0  0  0  0
   -6.4970    3.5975   29.4112 H   0  0  0  0  0
   -6.7013    5.6688   27.4442 H   0  0  0  0  0
   -4.6560    3.4992   27.9017 H   0  0  0  0  0
   -4.6189    5.2385   28.4624 H   0  0  0  0  0
   -4.8623    6.9416   26.4256 H   0  0  0  0  0
   -3.2579    2.9833   26.2110 H   0  0  0  0  0
   -3.6084    7.5715   24.3921 H   0  0  0  0  0
   -1.9976    3.6028   24.1733 H   0  0  0  0  0
   -2.1762    5.9083   23.2571 H   0  0  0  0  0
   -6.5941    2.0569   27.0654 H   0  0  0  0  0
   -6.8003    2.1808   24.1938 H   0  0  0  0  0
   -7.7671    0.0210   26.0981 H   0  0  0  0  0
   -5.6185   -1.0464   25.4695 H   0  0  0  0  0
   -5.4212    0.5287   26.3808 H   0  0  0  0  0
   -8.8073   -0.1707   23.9011 H   0  0  0  0  0
   -7.2098   -0.0618   23.1219 H   0  0  0  0  0
   -7.6039   -1.4588   24.1534 H   0  0  0  0  0
   -5.0770    0.1089   23.4052 H   0  0  0  0  0
   -4.8850    1.6413   24.2918 H   0  0  0  0  0
   -3.7652    0.2905   24.5957 H   0  0  0  0  0
   -9.2983    2.2012   26.7633 H   0  0  0  0  0
  -11.4827    1.9867   24.9162 H   0  0  0  0  0
  -11.7300    1.5740   27.3399 H   0  0  0  0  0
  -11.3632    3.2835   27.6776 H   0  0  0  0  0
  -12.8574    2.8474   26.8126 H   0  0  0  0  0
   -9.4631    4.7129   25.8102 H   0  0  0  0  0
  -11.3371    6.7523   25.1472 H   0  0  0  0  0
   -9.0381    6.9438   26.3347 H   0  0  0  0  0
   -9.4901    8.2567   25.1925 H   0  0  0  0  0
   -7.3244    7.5004   24.8812 H   0  0  0  0  0
   -9.4337    4.6294   23.1515 H   0  0  0  0  0
  -10.7113    5.7340   20.7968 H   0  0  0  0  0
   -9.5615    4.3037   20.9060 H   0  0  0  0  0
   -8.0572    6.8904   22.3469 H   0  0  0  0  0
   -7.0040    7.8971   19.7283 H   0  0  0  0  0
   -6.0112    9.6936   21.1015 H   0  0  0  0  0
   -6.8165    8.9591   22.5505 H   0  0  0  0  0
   -8.9729    9.3471   21.5782 H   0  0  0  0  0
   -8.1943   10.0193   20.0813 H   0  0  0  0  0
   -8.0058   11.1573   22.8559 H   0  0  0  0  0
   -9.0758   11.7591   21.5014 H   0  0  0  0  0
   -6.1871   12.1443   21.8447 H   0  0  0  0  0
   -8.2506   13.5815   18.6666 H   0  0  0  0  0
   -9.0209   12.3887   19.7179 H   0  0  0  0  0
   -5.2432   13.6668   20.5124 H   0  0  0  0  0
   -6.2031    5.4310   19.9760 H   0  0  0  0  0
   -3.5683    5.5116   21.2907 H   0  0  0  0  0
   -3.5129    3.0345   20.7692 H   0  0  0  0  0
   -5.5416    2.1763   19.9583 H   0  0  0  0  0
   -4.3735    3.7799   22.9145 H   0  0  0  0  0
   -5.9993    3.9661   22.2121 H   0  0  0  0  0
   -5.2594    2.3505   22.3288 H   0  0  0  0  0
   -4.9058    5.8908   18.1532 H   0  0  0  0  0
   -3.9321    5.6993   16.0475 H   0  0  0  0  0
   -2.4414    5.0088   16.8100 H   0  0  0  0  0
   -2.0006    6.6976   14.8366 H   0  0  0  0  0
   -0.4853    8.7654   16.1304 H   0  0  0  0  0
   -0.2062    9.6518   13.8143 H   0  0  0  0  0
   -1.3126    8.3284   13.2640 H   0  0  0  0  0
    0.2676    6.7131   14.3144 H   0  0  0  0  0
    1.4063    8.0951   14.5544 H   0  0  0  0  0
    1.3834    8.4907   12.1568 H   0  0  0  0  0
    0.3263    7.0245   11.9571 H   0  0  0  0  0
    3.2125    7.1207   12.4116 H   0  0  0  0  0
    4.3190    5.1754   12.3025 H   0  0  0  0  0
    1.1715    3.6251   12.5467 H   0  0  0  0  0
    0.2722    5.1440   12.6196 H   0  0  0  0  0
   -0.8447   10.8613   16.5420 H   0  0  0  0  0
   -3.7167   11.6503   16.4151 H   0  0  0  0  0
   -3.1346   13.1711   18.2777 H   0  0  0  0  0
   -1.4409   12.5235   18.2212 H   0  0  0  0  0
   -2.6171   10.2507   18.5016 H   0  0  0  0  0
   -3.9680   11.2857   19.1761 H   0  0  0  0  0
   -2.6419   10.4296   20.9514 H   0  0  0  0  0
   -2.3469   12.2022   20.7623 H   0  0  0  0  0
   -0.3446   11.1325   19.3012 H   0  0  0  0  0
    0.1530    9.9312   23.1385 H   0  0  0  0  0
   -1.4616   10.4044   22.5997 H   0  0  0  0  0
    1.6738   10.5362   20.0222 H   0  0  0  0  0
   -4.3860   13.3594   15.3134 H   0  0  0  0  0
   -2.4209   14.8635   13.7752 H   0  0  0  0  0
   -4.4511   16.0673   12.9258 H   0  0  0  0  0
   -5.4361   15.0258   14.0381 H   0  0  0  0  0
   -5.8846   13.0125   11.2178 H   0  0  0  0  0
   -6.6016   14.2015   12.3102 H   0  0  0  0  0
   -2.0257   17.0687   13.8200 H   0  0  0  0  0
   -2.3570   18.5048   16.3025 H   0  0  0  0  0
   -0.6119   19.0597   14.6603 H   0  0  0  0  0
   -1.8615   19.5267   13.4808 H   0  0  0  0  0
   -1.6566   20.4659   14.9797 H   0  0  0  0  0
   -3.6853   20.3010   16.7553 H   0  0  0  0  0
   -6.4294   19.9153   15.8342 H   0  0  0  0  0
   -7.0466   21.6919   17.3599 H   0  0  0  0  0
   -5.3216   23.2699   16.9379 H   0  0  0  0  0
   -4.0783   22.1330   17.6474 H   0  0  0  0  0
   -6.6623   19.4763   18.2805 H   0  0  0  0  0
   -4.9426   19.8634   18.5332 H   0  0  0  0  0
   -6.1958   20.7388   19.4465 H   0  0  0  0  0
   -6.3385   23.4924   19.1376 H   0  0  0  0  0
   -5.1273   22.3850   19.8287 H   0  0  0  0  0
   -4.6225   23.9659   19.1831 H   0  0  0  0  0
   -3.9337   21.7425   14.8023 H   0  0  0  0  0
  1  2  1  0  0  0
  2  3  1  0  0  0
  2  5  1  0  0  0
  3  4  2  0  0  0
  3  8  1  0  0  0
  5  6  1  0  0  0
  5  7  1  0  0  0
  8  9  1  0  0  0
  9 10  1  0  0  0
  9 12  1  0  0  0
 10 11  2  0  0  0
 10 15  1  0  0  0
 12 13  1  0  0  0
 12 14  1  0  0  0
 15 16  1  0  0  0
 16 17  1  0  0  0
 16 19  1  0  0  0
 17 18  2  0  0  0
 17 27  1  0  0  0
 19 20  1  0  0  0
 20 21  4  0  0  0
 20 22  4  0  0  0
 21 23  4  0  0  0
 22 24  4  0  0  0
 23 25  4  0  0  0
 24 25  4  0  0  0
 25 26  1  0  0  0
 27 28  1  0  0  0
 28 29  1  0  0  0
 28 31  1  0  0  0
 29 30  2  0  0  0
 29 32  1  0  0  0
 32 33  1  0  0  0
 33 34  1  0  0  0
 33 36  1  0  0  0
 34 35  2  0  0  0
 34 40  1  0  0  0
 36 37  1  0  0  0
 37 38  1  0  0  0
 37 39  2  0  0  0
 40 41  1  0  0  0
 41 42  1  0  0  0
 41 44  1  0  0  0
 42 43  2  0  0  0
 42 51  1  0  0  0
 44 45  1  0  0  0
 45 46  4  0  0  0
 45 47  4  0  0  0
 46 48  4  0  0  0
 47 49  4  0  0  0
 48 50  4  0  0  0
 49 50  4  0  0  0
 51 52  1  0  0  0
 52 53  1  0  0  0
 52 55  1  0  0  0
 53 54  2  0  0  0
 53 59  1  0  0  0
 55 56  1  0  0  0
 55 57  1  0  0  0
 56 58  1  0  0  0
 59 60  1  0  0  0
 60 61  1  0  0  0
 60 63  1  0  0  0
 61 62  2  0  0  0
 61 64  1  0  0  0
 64 65  1  0  0  0
 65 66  1  0  0  0
 65 68  1  0  0  0
 66 67  2  0  0  0
 66 70  1  0  0  0
 68 69  1  0  0  0
 70 71  1  0  0  0
 71 72  1  0  0  0
 72 73  2  0  0  0
 72 74  1  0  0  0
 74 75  1  0  0  0
 75 76  1  0  0  0
 75 78  1  0  0  0
 76 77  2  0  0  0
 76 85  1  0  0  0
 78 79  1  0  0  0
 79 80  1  0  0  0
 80 81  1  0  0  0
 81 82  1  0  0  0
 82 83  1  0  0  0
 82 84  2  0  0  0
 85 86  1  0  0  0
 86 87  1  0  0  0
 86 89  1  0  0  0
 87 88  2  0  0  0
 87 92  1  0  0  0
 89 90  1  0  0  0
 89 91  1  0  0  0
 92 93  1  0  0  0
 93 94  1  0  0  0
 94 95  2  0  0  0
 94 96  1  0  0  0
 96 97  1  0  0  0
 97 98  1  0  0  0
 97100  1  0  0  0
 98 99  2  0  0  0
 98107  1  0  0  0
100101  1  0  0  0
101102  1  0  0  0
102103  1  0  0  0
103104  1  0  0  0
104105  2  0  0  0
104106  1  0  0  0
107108  1  0  0  0
108109  1  0  0  0
108111  1  0  0  0
109110  2  0  0  0
109118  1  0  0  0
111112  1  0  0  0
112113  1  0  0  0
113114  1  0  0  0
114115  1  0  0  0
115116  1  0  0  0
115117  2  0  0  0
118119  1  0  0  0
119120  1  0  0  0
119122  1  0  0  0
120121  2  0  0  0
120126  1  0  0  0
122123  1  0  0  0
123124  2  0  0  0
123125  1  0  0  0
126127  1  0  0  0
127128  1  0  0  0
127130  1  0  0  0
128129  2  0  0  0
128131  1  0  0  0
131132  1  0  0  0
132133  1  0  0  0
132135  1  0  0  0
133134  2  0  0  0
133139  1  0  0  0
135136  1  0  0  0
135137  1  0  0  0
136138  1  0  0  0
  1140  1  0  0  0
  1141  1  0  0  0
  1142  1  0  0  0
  2143  1  0  0  0
  5144  1  0  0  0
  6145  1  0  0  0
  7146  1  0  0  0
  7147  1  0  0  0
  7148  1  0  0  0
  8149  1  0  0  0
  9150  1  0  0  0
 12151  1  0  0  0
 13152  1  0  0  0
 14153  1  0  0  0
 14154  1  0  0  0
 14155  1  0  0  0
 15156  1  0  0  0
 16157  1  0  0  0
 19158  1  0  0  0
 19159  1  0  0  0
 21160  1  0  0  0
 22161  1  0  0  0
 23162  1  0  0  0
 24163  1  0  0  0
 26164  1  0  0  0
 27165  1  0  0  0
 28166  1  0  0  0
 31167  1  0  0  0
 31168  1  0  0  0
 31169  1  0  0  0
 32170  1  0  0  0
 33171  1  0  0  0
 36172  1  0  0  0
 36173  1  0  0  0
 38174  1  0  0  0
 40175  1  0  0  0
 41176  1  0  0  0
 44177  1  0  0  0
 44178  1  0  0  0
 46179  1  0  0  0
 47180  1  0  0  0
 48181  1  0  0  0
 49182  1  0  0  0
 50183  1  0  0  0
 51184  1  0  0  0
 52185  1  0  0  0
 55186  1  0  0  0
 56187  1  0  0  0
 56188  1  0  0  0
 57189  1  0  0  0
 57190  1  0  0  0
 57191  1  0  0  0
 58192  1  0  0  0
 58193  1  0  0  0
 58194  1  0  0  0
 59195  1  0  0  0
 60196  1  0  0  0
 63197  1  0  0  0
 63198  1  0  0  0
 63199  1  0  0  0
 64200  1  0  0  0
 65201  1  0  0  0
 68202  1  0  0  0
 68203  1  0  0  0
 69204  1  0  0  0
 70205  1  0  0  0
 71206  1  0  0  0
 71207  1  0  0  0
 74208  1  0  0  0
 75209  1  0  0  0
 78210  1  0  0  0
 78211  1  0  0  0
 79212  1  0  0  0
 79213  1  0  0  0
 80214  1  0  0  0
 80215  1  0  0  0
 81216  1  0  0  0
 83217  1  0  0  0
 83218  1  0  0  0
 84219  1  0  0  0
 85220  1  0  0  0
 86221  1  0  0  0
 89222  1  0  0  0
 90223  1  0  0  0
 91224  1  0  0  0
 91225  1  0  0  0
 91226  1  0  0  0
 92227  1  0  0  0
 93228  1  0  0  0
 93229  1  0  0  0
 96230  1  0  0  0
 97231  1  0  0  0
100232  1  0  0  0
100233  1  0  0  0
101234  1  0  0  0
101235  1  0  0  0
102236  1  0  0  0
102237  1  0  0  0
103238  1  0  0  0
105239  1  0  0  0
106240  1  0  0  0
106241  1  0  0  0
107242  1  0  0  0
108243  1  0  0  0
111244  1  0  0  0
111245  1  0  0  0
112246  1  0  0  0
112247  1  0  0  0
113248  1  0  0  0
113249  1  0  0  0
114250  1  0  0  0
116251  1  0  0  0
116252  1  0  0  0
117253  1  0  0  0
118254  1  0  0  0
119255  1  0  0  0
122256  1  0  0  0
122257  1  0  0  0
125258  1  0  0  0
125259  1  0  0  0
126260  1  0  0  0
127261  1  0  0  0
130262  1  0  0  0
130263  1  0  0  0
130264  1  0  0  0
131265  1  0  0  0
132266  1  0  0  0
135267  1  0  0  0
136268  1  0  0  0
136269  1  0  0  0
137270  1  0  0  0
137271  1  0  0  0
137272  1  0  0  0
138273  1  0  0  0
138274  1  0  0  0
138275  1  0  0  0
139276  1  0  0  0
M  END
$$$$
