5zzw_ligand
  -I-interpret- 

 47 49  0  0  0  0  0  0  0  0999 V2000
  -18.2070   31.9750  -12.4240 N   0  3  0  0  0
  -18.1840   32.5470  -13.7740 C   0  0  0  0  0
  -17.0360   31.9870  -14.6180 C   0  0  0  0  0
  -16.8420   30.4610  -14.4860 C   0  0  0  0  0
  -15.5640   29.9490  -15.5820 S   0  0  0  0  0
  -19.4870   32.2990  -14.4790 C   0  0  0  0  0
  -19.6360   32.5980  -15.6670 O   0  0  0  0  0
  -20.4390   31.7960  -13.8850 O   0  0  0  0  0
  -14.2080   29.6630  -14.4780 C   0  0  0  0  0
  -13.5550   30.9530  -13.9970 C   0  0  0  0  0
  -12.5410   30.6380  -13.0440 O   0  0  0  0  0
  -12.8470   31.7460  -15.0820 C   0  0  0  0  0
  -13.0160   33.1430  -14.7970 O   0  0  0  0  0
  -11.3930   31.2980  -14.9900 C   0  0  0  0  0
  -10.4640   32.2440  -15.5020 O   0  0  0  0  0
  -11.2470   31.0830  -13.4950 C   0  0  0  0  0
  -10.2730   30.0400  -13.0870 N   0  0  0  0  0
  -10.0970   28.8160  -13.6400 C   0  0  0  0  0
   -9.1350   28.1230  -12.9800 N   0  0  0  0  0
   -8.6880   28.9000  -11.9810 C   0  0  0  0  0
   -7.6750   28.7810  -10.9050 C   0  0  0  0  0
   -6.9460   27.6470  -10.7860 N   0  0  0  0  0
   -7.5160   29.8440  -10.0620 N   0  0  0  0  0
   -8.2490   30.9730  -10.1840 C   0  0  0  0  0
   -9.1850   31.1500  -11.1390 N   0  0  0  0  0
   -9.4440   30.1670  -12.0480 C   0  0  0  0  0
  -17.3142   32.1548  -11.9646 H   0  0  0  0  0
  -18.9599   32.4049  -11.8867 H   0  0  0  0  0
  -18.3628   30.9688  -12.4850 H   0  0  0  0  0
  -18.0288   33.6196  -13.6576 H   0  0  0  0  0
  -16.1184   32.4600  -14.2683 H   0  0  0  0  0
  -17.2733   32.1926  -15.6618 H   0  0  0  0  0
  -17.7704   29.9492  -14.7393 H   0  0  0  0  0
  -16.5682   30.2126  -13.4606 H   0  0  0  0  0
  -18.8217   32.9780  -16.0047 H   0  0  0  0  0
  -13.4546   29.0886  -15.0169 H   0  0  0  0  0
  -14.5944   29.1387  -13.6040 H   0  0  0  0  0
  -14.3754   31.5509  -13.6001 H   0  0  0  0  0
  -13.2301   31.5834  -16.0894 H   0  0  0  0  0
  -12.5745   33.6621  -15.4732 H   0  0  0  0  0
  -11.1737   30.4194  -15.5966 H   0  0  0  0  0
   -9.5734   31.8971  -15.4121 H   0  0  0  0  0
  -10.8837   32.0178  -13.0680 H   0  0  0  0  0
  -10.6527   28.4390  -14.4986 H   0  0  0  0  0
   -7.0937   26.8751  -11.4362 H   0  0  0  0  0
   -6.2488   27.5642  -10.0461 H   0  0  0  0  0
   -8.0749   31.7818   -9.4744 H   0  0  0  0  0
  1  2  1  0  0  0
  2  3  1  0  0  0
  2  6  1  0  0  0
  3  4  1  0  0  0
  4  5  1  0  0  0
  5  9  1  0  0  0
  6  7  1  0  0  0
  6  8  2  0  0  0
  9 10  1  0  0  0
 10 11  1  0  0  0
 10 12  1  0  0  0
 11 16  1  0  0  0
 12 13  1  0  0  0
 12 14  1  0  0  0
 14 15  1  0  0  0
 14 16  1  0  0  0
 16 17  1  0  0  0
 17 18  4  0  0  0
 17 26  4  0  0  0
 18 19  4  0  0  0
 19 20  4  0  0  0
 20 21  4  0  0  0
 20 26  4  0  0  0
 21 22  1  0  0  0
 21 23  4  0  0  0
 23 24  4  0  0  0
 24 25  4  0  0  0
 25 26  4  0  0  0
  1 27  1  0  0  0
  1 28  1  0  0  0
  1 29  1  0  0  0
  2 30  1  0  0  0
  3 31  1  0  0  0
  3 32  1  0  0  0
  4 33  1  0  0  0
  4 34  1  0  0  0
  7 35  1  0  0  0
  9 36  1  0  0  0
  9 37  1  0  0  0
 10 38  1  0  0  0
 12 39  1  0  0  0
 13 40  1  0  0  0
 14 41  1  0  0  0
 15 42  1  0  0  0
 16 43  1  0  0  0
 18 44  1  0  0  0
 22 45  1  0  0  0
 22 46  1  0  0  0
 24 47  1  0  0  0
M  END
$$$$
