4yt7_ligand
  -I-interpret- 

 69 72  0  0  0  0  0  0  0  0999 V2000
   10.2940   32.5880   27.3060 C   0  0  0  0  0
    4.2150   33.1580   23.3380 C   0  0  0  0  0
   10.7370   32.2510   29.7470 C   0  0  0  0  0
    8.9260   34.9450   27.7910 C   0  0  0  0  0
    9.4600   34.2230   28.8410 C   0  0  0  0  0
    3.3540   32.1730   22.7550 C   0  0  0  0  0
    7.8610   38.0580   22.4140 C   0  0  0  0  0
    7.2280   39.0020   23.1720 C   0  0  0  0  0
    9.0520   34.4830   26.4850 C   0  0  0  0  0
    9.7520   33.3040   26.2500 C   0  0  0  0  0
    9.5410   38.1080   18.5000 C   0  0  0  0  0
    2.8790   35.3180   30.6680 C   0  0  0  0  0
   10.2630   37.6300   19.5760 C   0  0  0  0  0
    5.5610   36.1880   27.0630 C   0  0  0  0  0
    6.1910   35.8840   25.8650 C   0  0  0  0  0
    5.5080   35.0750   24.9660 C   0  0  0  0  0
    4.2360   34.6160   25.2650 C   0  0  0  0  0
    3.6040   34.9710   26.4470 C   0  0  0  0  0
    4.2780   35.7590   27.3690 C   0  0  0  0  0
    3.5630   33.6890   24.5100 O   0  0  0  0  0
    7.6210   36.3370   25.5860 C   0  0  0  0  0
    8.4670   35.1630   25.4130 N   0  0  0  0  0
    7.5530   37.1980   24.3620 C   0  0  0  0  0
   10.1710   33.0420   28.6180 C   0  0  0  0  0
    8.0500   36.9250   23.1730 N   0  0  0  0  0
    7.0250   38.4410   24.3880 N   0  0  0  0  0
    6.2420   36.9150   27.9720 F   0  0  0  0  0
    3.7420   36.1740   28.5760 O   0  0  0  0  0
    2.6440   35.4280   29.2060 C   0  0  0  0  0
    1.4040   36.1740   28.8970 C   0  0  0  0  0
    8.4150   38.0960   21.0470 C   0  0  0  0  0
   11.1990   31.0860   29.4950 N   0  0  0  0  0
   10.6590   32.7620   30.9930 N   0  0  0  0  0
    9.7080   37.6090   20.8420 C   0  0  0  0  0
    8.2570   38.5950   18.6790 C   0  0  0  0  0
    7.6800   38.5950   19.9510 C   0  0  0  0  0
    6.2750   39.0950   20.0820 C   0  0  0  0  0
    5.3150   38.3630   19.5340 N   0  0  0  0  0
    6.0460   40.1630   20.6930 O   0  0  0  0  0
   10.8240   31.6565   27.1074 H   0  0  0  0  0
    4.4089   33.9571   22.6225 H   0  0  0  0  0
    5.1690   32.7073   23.6116 H   0  0  0  0  0
    8.4034   35.8813   27.9870 H   0  0  0  0  0
    9.3239   34.5815   29.8613 H   0  0  0  0  0
    3.1735   31.3768   23.4773 H   0  0  0  0  0
    2.4070   32.6372   22.4798 H   0  0  0  0  0
    3.8286   31.7580   21.8658 H   0  0  0  0  0
    6.9430   40.0068   22.8602 H   0  0  0  0  0
    9.8750   32.9411   25.2296 H   0  0  0  0  0
    9.9843   38.1019   17.5042 H   0  0  0  0  0
    3.8180   34.7937   30.8453 H   0  0  0  0  0
    2.9311   36.3163   31.1025 H   0  0  0  0  0
    2.0598   34.7635   31.1257 H   0  0  0  0  0
   11.2794   37.2661   19.4257 H   0  0  0  0  0
    5.9754   34.8000   24.0205 H   0  0  0  0  0
    2.5874   34.6343   26.6500 H   0  0  0  0  0
    8.0578   36.9102   26.4038 H   0  0  0  0  0
    8.6400   34.8223   24.4673 H   0  0  0  0  0
    2.5705   34.4081   28.8286 H   0  0  0  0  0
    0.5518   35.6595   29.3410 H   0  0  0  0  0
    1.4758   37.1814   29.3070 H   0  0  0  0  0
    1.2742   36.2287   27.8161 H   0  0  0  0  0
   11.1736   30.7224   28.5424 H   0  0  0  0  0
   10.9777   32.2120   31.7907 H   0  0  0  0  0
   10.2813   33.6984   31.1375 H   0  0  0  0  0
   10.2798   37.2121   21.6808 H   0  0  0  0  0
    7.6963   38.9786   17.8266 H   0  0  0  0  0
    4.3428   38.6640   19.6012 H   0  0  0  0  0
    5.5487   37.4988   19.0452 H   0  0  0  0  0
 10  1  4  0  0  0
  1 24  4  0  0  0
  2  6  1  0  0  0
 20  2  1  0  0  0
 24  3  1  0  0  0
  3 32  2  0  0  0
  3 33  1  0  0  0
  4  5  4  0  0  0
  9  4  4  0  0  0
  5 24  4  0  0  0
  7  8  4  0  0  0
  7 25  4  0  0  0
 31  7  1  0  0  0
  8 26  4  0  0  0
  9 10  4  0  0  0
 22  9  1  0  0  0
 13 11  4  0  0  0
 11 35  4  0  0  0
 29 12  1  0  0  0
 34 13  4  0  0  0
 15 14  4  0  0  0
 14 19  4  0  0  0
 14 27  1  0  0  0
 15 16  4  0  0  0
 21 15  1  0  0  0
 16 17  4  0  0  0
 17 18  4  0  0  0
 17 20  1  0  0  0
 19 18  4  0  0  0
 19 28  1  0  0  0
 21 22  1  0  0  0
 23 21  1  0  0  0
 25 23  4  0  0  0
 23 26  4  0  0  0
 28 29  1  0  0  0
 29 30  1  0  0  0
 31 34  4  0  0  0
 31 36  4  0  0  0
 35 36  4  0  0  0
 36 37  1  0  0  0
 37 38  1  0  0  0
 37 39  2  0  0  0
  1 40  1  0  0  0
  2 41  1  0  0  0
  2 42  1  0  0  0
  4 43  1  0  0  0
  5 44  1  0  0  0
  6 45  1  0  0  0
  6 46  1  0  0  0
  6 47  1  0  0  0
  8 48  1  0  0  0
 10 49  1  0  0  0
 11 50  1  0  0  0
 12 51  1  0  0  0
 12 52  1  0  0  0
 12 53  1  0  0  0
 13 54  1  0  0  0
 16 55  1  0  0  0
 18 56  1  0  0  0
 21 57  1  0  0  0
 22 58  1  0  0  0
 29 59  1  0  0  0
 30 60  1  0  0  0
 30 61  1  0  0  0
 30 62  1  0  0  0
 32 63  1  0  0  0
 33 64  1  0  0  0
 33 65  1  0  0  0
 34 66  1  0  0  0
 35 67  1  0  0  0
 38 68  1  0  0  0
 38 69  1  0  0  0
M  END
$$$$
