4csd_ligand
  -I-interpret- 

 26 26  0  0  0  0  0  0  0  0999 V2000
  -11.5430   -4.0470   40.8300 C   0  0  0  0  0
  -10.1290   -4.1620   41.3860 C   0  0  0  0  0
  -10.0740   -5.3310   42.3880 C   0  0  0  0  0
  -10.5610   -6.5770   41.6270 C   0  0  0  0  0
  -12.0180   -6.3720   41.1640 C   0  0  0  0  0
  -12.5970   -7.5710   40.4060 C   0  0  0  0  0
  -12.4210   -3.6400   41.8820 O   0  0  0  0  0
   -9.7610   -2.9190   41.9790 O   0  0  0  0  0
   -8.7380   -5.4920   42.8800 O   0  0  0  0  0
   -9.7590   -6.9010   40.4780 O   0  0  0  0  0
  -12.0100   -5.2570   40.2510 O   0  0  0  0  0
  -13.7810   -3.4560   41.5070 C   0  0  0  0  0
  -11.5257   -3.3061   40.0307 H   0  0  0  0  0
   -9.4122   -4.3753   40.5931 H   0  0  0  0  0
  -10.7048   -5.1537   43.2591 H   0  0  0  0  0
  -10.4793   -7.4080   42.3276 H   0  0  0  0  0
  -12.6316   -6.2200   42.0520 H   0  0  0  0  0
  -13.6091   -7.3364   40.0762 H   0  0  0  0  0
  -11.9722   -7.7876   39.5395 H   0  0  0  0  0
  -12.6202   -8.4390   41.0649 H   0  0  0  0  0
   -9.8102   -2.2238   41.3188 H   0  0  0  0  0
   -8.4721   -4.6964   43.3469 H   0  0  0  0  0
   -8.8481   -7.0316   40.7515 H   0  0  0  0  0
  -13.8435   -2.6861   40.7379 H   0  0  0  0  0
  -14.1793   -4.3931   41.1181 H   0  0  0  0  0
  -14.3585   -3.1483   42.3787 H   0  0  0  0  0
  1  2  1  0  0  0
  1  7  1  0  0  0
  1 11  1  0  0  0
  2  3  1  0  0  0
  2  8  1  0  0  0
  3  4  1  0  0  0
  3  9  1  0  0  0
  4  5  1  0  0  0
  4 10  1  0  0  0
  5  6  1  0  0  0
  5 11  1  0  0  0
  7 12  1  0  0  0
  1 13  1  0  0  0
  2 14  1  0  0  0
  3 15  1  0  0  0
  4 16  1  0  0  0
  5 17  1  0  0  0
  6 18  1  0  0  0
  6 19  1  0  0  0
  6 20  1  0  0  0
  8 21  1  0  0  0
  9 22  1  0  0  0
 10 23  1  0  0  0
 12 24  1  0  0  0
 12 25  1  0  0  0
 12 26  1  0  0  0
M  END
$$$$
