### 
### Created by X-TOOL on Mon Sep 10 21:13:34 2018
### 

@<TRIPOS>MOLECULE
5xxf_ligand
  265   267     1     0     0
SMALL
GAST_HUCK


@<TRIPOS>ATOM
      1 N           6.5580   37.0350  -20.6970 N.4       1 ASN         0.2396
      2 CA          5.2170   36.9340  -21.3700 C.3       1 ASN         0.0818
      3 C           5.2110   35.8880  -22.4990 C.2       1 ASN         0.2291
      4 O           4.8520   36.1770  -23.6460 O.2       1 ASN        -0.3905
      5 CB          4.7490   38.3120  -21.8760 C.3       1 ASN         0.0972
      6 CG          4.4450   39.2820  -20.7440 C.2       1 ASN         0.1813
      7 OD1         3.2910   39.4280  -20.3380 O.2       1 ASN        -0.3969
      8 ND2         5.4760   39.9510  -20.2260 N.am      1 ASN        -0.3006
      9 N           5.6100   34.6670  -22.1430 N.am      1 SER        -0.2587
     10 CA          5.6790   33.5500  -23.0830 C.3       1 SER         0.1540
     11 C           4.2870   32.9940  -23.3610 C.2       1 SER         0.2063
     12 O           3.3610   33.1840  -22.5670 O.2       1 SER        -0.3943
     13 CB          6.5700   32.4360  -22.5230 C.3       1 SER         0.0843
     14 OG          7.8820   32.9090  -22.2740 O.3       1 SER        -0.3903
     15 N           4.1570   32.3080  -24.4930 N.am      1 ASP        -0.2621
     16 CA          2.9170   31.6130  -24.8610 C.3       1 ASP         0.1423
     17 C           2.8750   30.1670  -24.3350 C.2       1 ASP         0.2057
     18 O           1.8810   29.4650  -24.5370 O.2       1 ASP        -0.3943
     19 CB          2.7230   31.6470  -26.3820 C.3       1 ASP         0.0406
     20 CG          2.5370   33.0630  -26.9170 C.2       1 ASP         0.0393
     21 OD1         1.6970   33.8090  -26.3690 O.co2     1 ASP        -0.5688
     22 OD2         3.2280   33.4270  -27.8930 O.co2     1 ASP        -0.5688
     23 N           3.9530   29.7330  -23.6760 N.am      1 ASN        -0.2615
     24 CA          4.0000   28.4680  -22.9430 C.3       1 ASN         0.1476
     25 C           4.6380   28.6800  -21.5740 C.2       1 ASN         0.2063
     26 O           5.6560   29.3690  -21.4690 O.2       1 ASN        -0.3942
     27 CB          4.8070   27.4380  -23.7300 C.3       1 ASN         0.0773
     28 CG          4.0850   26.9620  -24.9720 C.2       1 ASN         0.1780
     29 OD1         4.5210   27.2170  -26.0950 O.2       1 ASN        -0.3970
     30 ND2         2.9620   26.2780  -24.7770 N.am      1 ASN        -0.3007
     31 N           4.0270   28.1060  -20.5330 N.am      1 ILE        -0.2633
     32 CA          4.5840   28.1040  -19.1660 C.3       1 ILE         0.1335
     33 C           4.4700   26.6900  -18.5740 C.2       1 ILE         0.2043
     34 O           5.4840   26.0210  -18.3670 O.2       1 ILE        -0.3944
     35 CB          3.9130   29.1640  -18.2450 C.3       1 ILE        -0.0037
     36 CG1         4.1970   30.5870  -18.7510 C.3       1 ILE        -0.0491
     37 CG2         4.4260   29.0540  -16.8110 C.3       1 ILE        -0.0582
     38 CD1         3.2490   31.6450  -18.2240 C.3       1 ILE        -0.0648
     39 N           3.2410   26.2470  -18.3130 N.am      1 PHE        -0.2619
     40 CA          2.9670   24.9130  -17.7570 C.3       1 PHE         0.1404
     41 C           2.6520   23.8470  -18.8130 C.2       1 PHE         0.2060
     42 O           2.7410   22.6510  -18.5180 O.2       1 PHE        -0.3942
     43 CB          1.8180   24.9830  -16.7410 C.3       1 PHE         0.0214
     44 CG          2.2400   25.4720  -15.3850 C.ar      1 PHE        -0.0386
     45 CD1         2.7790   24.5920  -14.4520 C.ar      1 PHE        -0.0601
     46 CD2         2.1000   26.8100  -15.0360 C.ar      1 PHE        -0.0601
     47 CE1         3.1710   25.0370  -13.1970 C.ar      1 PHE        -0.0686
     48 CE2         2.4930   27.2620  -13.7860 C.ar      1 PHE        -0.0686
     49 CZ          3.0240   26.3750  -12.8620 C.ar      1 PHE        -0.0687
     50 N           2.2740   24.2750  -20.0210 N.am      1 VAL        -0.2633
     51 CA          1.9670   23.3560  -21.1210 C.3       1 VAL         0.1333
     52 C           3.0460   23.4590  -22.1940 C.2       1 VAL         0.2041
     53 O           3.4260   24.5590  -22.6030 O.2       1 VAL        -0.3944
     54 CB          0.5700   23.6080  -21.7340 C.3       1 VAL        -0.0063
     55 CG1         0.2060   22.5010  -22.7160 C.3       1 VAL        -0.0584
     56 CG2        -0.4930   23.6720  -20.6450 C.3       1 VAL        -0.0584
     57 N           3.5290   22.2980  -22.6370 N.am      1 LYS        -0.2637
     58 CA          4.5520   22.2130  -23.6780 C.3       1 LYS         0.1312
     59 C           3.9340   22.5910  -25.0360 C.2       1 LYS         0.2064
     60 O           2.8060   22.1770  -25.3180 O.2       1 LYS        -0.3942
     61 CB          5.1430   20.7970  -23.7240 C.3       1 LYS        -0.0122
     62 CG          5.8940   20.3980  -22.4570 C.3       1 LYS        -0.0440
     63 CD          6.0990   18.8940  -22.3580 C.3       1 LYS        -0.0124
     64 CE          6.9450   18.5350  -21.1450 C.3       1 LYS        -0.0354
     65 NZ          7.2690   17.0830  -21.0920 N.4       1 LYS         0.2185
     66 N           4.6610   23.3750  -25.8730 N.am      1 PRO        -0.2498
     67 CA          4.1030   23.9760  -27.1050 C.3       1 PRO         0.1338
     68 C           3.2950   23.0140  -27.9750 C.2       1 PRO         0.2039
     69 O           2.1530   23.3160  -28.3280 O.2       1 PRO        -0.3944
     70 CB          5.3480   24.4780  -27.8620 C.3       1 PRO        -0.0104
     71 CG          6.5220   23.8820  -27.1630 C.3       1 PRO        -0.0281
     72 CD          6.0970   23.6840  -25.7440 C.3       1 PRO         0.0369
     73 N           3.8950   21.8720  -28.3000 N.am      1 GLY        -0.2664
     74 CA          3.2160   20.7950  -29.0150 C.3       1 GLY         0.1201
     75 C           2.9200   19.6530  -28.0650 C.2       1 GLY         0.2007
     76 O           3.7580   18.7650  -27.8800 O.2       1 GLY        -0.3947
     77 N           1.7360   19.6910  -27.4510 N.am      1 GLU        -0.2639
     78 CA          1.2860   18.6390  -26.5350 C.3       1 GLU         0.1325
     79 C          -0.1920   18.3350  -26.7520 C.2       1 GLU         0.2041
     80 O          -1.0280   19.2390  -26.7250 O.2       1 GLU        -0.3944
     81 CB          1.5220   19.0490  -25.0810 C.3       1 GLU        -0.0008
     82 CG          1.4420   17.8850  -24.0990 C.3       1 GLU         0.0044
     83 CD          1.4640   18.3230  -22.6480 C.2       1 GLU         0.0350
     84 OE1         1.0650   17.5140  -21.7830 O.co2     1 GLU        -0.5690
     85 OE2         1.8750   19.4690  -22.3610 O.co2     1 GLU        -0.5690
     86 N          -0.4990   17.0540  -26.9490 N.am      1 ASP        -0.2622
     87 CA         -1.8630   16.6080  -27.2110 C.3       1 ASP         0.1423
     88 C          -2.6410   16.4770  -25.8980 C.2       1 ASP         0.2056
     89 O          -2.4600   15.5120  -25.1510 O.2       1 ASP        -0.3943
     90 CB         -1.8460   15.2740  -27.9760 C.3       1 ASP         0.0406
     91 CG         -3.2080   14.8990  -28.5460 C.2       1 ASP         0.0393
     92 OD1        -3.8810   15.7700  -29.1380 O.co2     1 ASP        -0.5688
     93 OD2        -3.6010   13.7200  -28.4130 O.co2     1 ASP        -0.5688
     94 N          -3.4960   17.4670  -25.6290 N.am      1 LEU        -0.2636
     95 CA         -4.4130   17.4500  -24.4820 C.3       1 LEU         0.1312
     96 C          -5.8240   16.9960  -24.8970 C.2       1 LEU         0.2039
     97 O          -6.7740   17.1120  -24.1170 O.2       1 LEU        -0.3944
     98 CB         -4.4690   18.8400  -23.8290 C.3       1 LEU        -0.0101
     99 CG         -3.1600   19.4250  -23.2800 C.3       1 LEU        -0.0425
    100 CD1        -3.3620   20.8750  -22.8660 C.3       1 LEU        -0.0625
    101 CD2        -2.6210   18.6170  -22.1070 C.3       1 LEU        -0.0625
    102 N          -5.9470   16.4690  -26.1180 N.am      1 GLU        -0.2636
    103 CA         -7.2110   15.9950  -26.6670 C.3       1 GLU         0.1325
    104 C          -7.3790   14.5170  -26.3070 C.2       1 GLU         0.2040
    105 O          -6.5910   13.6750  -26.7450 O.2       1 GLU        -0.3944
    106 CB         -7.2180   16.1860  -28.1930 C.3       1 GLU        -0.0008
    107 CG         -8.6020   16.1780  -28.8310 C.3       1 GLU         0.0044
    108 CD         -8.5650   15.9460  -30.3360 C.2       1 GLU         0.0350
    109 OE1        -7.7240   16.5660  -31.0230 O.co2     1 GLU        -0.5690
    110 OE2        -9.3860   15.1450  -30.8350 O.co2     1 GLU        -0.5690
    111 N          -8.3960   14.2130  -25.5010 N.am      1 ILE        -0.2635
    112 CA         -8.7080   12.8360  -25.1070 C.3       1 ILE         0.1337
    113 C          -9.9100   12.3820  -25.9550 C.2       1 ILE         0.2067
    114 O         -10.9490   13.0480  -25.9350 O.2       1 ILE        -0.3942
    115 CB         -9.0650   12.7030  -23.6000 C.3       1 ILE        -0.0037
    116 CG1        -8.2430   13.6510  -22.7020 C.3       1 ILE        -0.0491
    117 CG2        -8.8950   11.2610  -23.1410 C.3       1 ILE        -0.0582
    118 CD1        -6.7400   13.4610  -22.7370 C.3       1 ILE        -0.0648
    119 N          -9.7810   11.2630  -26.7050 N.am      1 PRO        -0.2498
    120 CA        -10.8650   10.8290  -27.6000 C.3       1 PRO         0.1337
    121 C         -11.9340    9.9380  -26.9420 C.2       1 PRO         0.2035
    122 O         -11.7920    9.5450  -25.7800 O.2       1 PRO        -0.3944
    123 CB        -10.1130   10.0500  -28.6810 C.3       1 PRO        -0.0104
    124 CG         -8.9460    9.4630  -27.9660 C.3       1 PRO        -0.0281
    125 CD         -8.6240   10.3510  -26.7920 C.3       1 PRO         0.0369
    126 N         -12.9870    9.6390  -27.7090 N.am      1 LEU        -0.2695
    127 CA        -14.0820    8.7360  -27.3070 C.3       1 LEU         0.0946
    128 C         -14.7870    9.1790  -26.0280 C.2       1 LEU         0.0601
    129 O         -15.8410    9.8100  -26.0780 O.co2     1 LEU        -0.5666
    130 CB        -13.5810    7.2880  -27.1750 C.3       1 LEU        -0.0156
    131 CG        -14.6450    6.1760  -27.0700 C.3       1 LEU        -0.0431
    132 CD1       -14.2880    4.9780  -27.9430 C.3       1 LEU        -0.0625
    133 CD2       -14.8780    5.7280  -25.6310 C.3       1 LEU        -0.0625
    134 OXT       -14.3130    8.9130  -24.9250 O.co2     1 LEU        -0.5666
    135 H1          6.5162   37.7290  -19.9672 H         1 ASN         0.2017
    136 H2          7.2549   37.3017  -21.3747 H         1 ASN         0.2017
    137 H3          6.8018   36.1421  -20.2979 H         1 ASN         0.2017
    138 H4          4.4945   36.5984  -20.6115 H         1 ASN         0.1125
    139 H5          3.8375   38.1753  -22.4763 H         1 ASN         0.0585
    140 H6          5.5413   38.7433  -22.5054 H         1 ASN         0.0585
    141 H7          5.3269   40.6001  -19.4800 H         1 ASN         0.1814
    142 H8          6.3982   39.8035  -20.5836 H         1 ASN         0.1814
    143 H9          5.8736   34.5084  -21.1915 H         1 SER         0.1885
    144 H10         6.1120   33.9114  -24.0274 H         1 SER         0.0823
    145 H11         6.6170   31.6131  -23.2515 H         1 SER         0.0606
    146 H12         6.1361   32.0680  -21.5816 H         1 SER         0.0606
    147 H13         8.4125   32.2008  -21.9283 H         1 SER         0.2097
    148 H14         4.9355   32.2637  -25.1191 H         1 ASP         0.1884
    149 H15         2.0799   32.1575  -24.3999 H         1 ASP         0.0819
    150 H16         1.8323   31.0540  -26.6371 H         1 ASP         0.0478
    151 H17         3.6085   31.2030  -26.8603 H         1 ASP         0.0478
    152 H18         4.7734   30.3047  -23.6843 H         1 ASN         0.1885
    153 H19         2.9743   28.0942  -22.8077 H         1 ASN         0.0826
    154 H20         5.0013   26.5714  -23.0810 H         1 ASN         0.0551
    155 H21         5.7625   27.8929  -24.0300 H         1 ASN         0.0551
    156 H22         2.4414   25.9378  -25.5601 H         1 ASN         0.1814
    157 H23         2.6378   26.1037  -23.8472 H         1 ASN         0.1814
    158 H24         3.1480   27.6551  -20.6881 H         1 ILE         0.1883
    159 H25         5.6517   28.3588  -19.2369 H         1 ILE         0.0803
    160 H26         2.8266   28.9917  -18.2500 H         1 ILE         0.0345
    161 H27         4.1281   30.5809  -19.8488 H         1 ILE         0.0267
    162 H28         5.2187   30.8609  -18.4492 H         1 ILE         0.0267
    163 H29         4.2321   28.0409  -16.4290 H         1 ILE         0.0235
    164 H30         3.9075   29.7897  -16.1786 H         1 ILE         0.0235
    165 H31         5.5078   29.2521  -16.7924 H         1 ILE         0.0235
    166 H32         3.5276   32.6256  -18.6373 H         1 ILE         0.0230
    167 H33         3.3109   31.6788  -17.1263 H         1 ILE         0.0230
    168 H34         2.2203   31.3988  -18.5259 H         1 ILE         0.0230
    169 H35         2.4671   26.8507  -18.5044 H         1 PHE         0.1885
    170 H36         3.8741   24.5900  -17.2252 H         1 PHE         0.0823
    171 H37         1.3912   23.9753  -16.6294 H         1 PHE         0.0474
    172 H38         1.0493   25.6655  -17.1325 H         1 PHE         0.0474
    173 H39         2.8944   23.5451  -14.7085 H         1 PHE         0.0557
    174 H40         1.6784   27.5084  -15.7499 H         1 PHE         0.0557
    175 H41         3.5910   24.3405  -12.4804 H         1 PHE         0.0599
    176 H42         2.3851   28.3099  -13.5306 H         1 PHE         0.0599
    177 H43         3.3233   26.7260  -11.8810 H         1 PHE         0.0559
    178 H44         2.1977   25.2592  -20.1807 H         1 VAL         0.1883
    179 H45         1.9765   22.3324  -20.7185 H         1 VAL         0.0802
    180 H46         0.5902   24.5684  -22.2699 H         1 VAL         0.0343
    181 H47        -0.7896   22.6994  -23.1396 H         1 VAL         0.0234
    182 H48         0.1951   21.5343  -22.1913 H         1 VAL         0.0234
    183 H49         0.9496   22.4702  -23.5260 H         1 VAL         0.0234
    184 H50        -0.2386   24.4689  -19.9307 H         1 VAL         0.0234
    185 H51        -0.5366   22.7075  -20.1179 H         1 VAL         0.0234
    186 H52        -1.4715   23.8859  -21.0998 H         1 VAL         0.0234
    187 H53         3.1769   21.4500  -22.2408 H         1 LYS         0.1883
    188 H54         5.3585   22.9239  -23.4450 H         1 LYS         0.0800
    189 H55         5.8409   20.7406  -24.5723 H         1 LYS         0.0312
    190 H56         4.3202   20.0833  -23.8779 H         1 LYS         0.0312
    191 H57         5.3174   20.7348  -21.5829 H         1 LYS         0.0269
    192 H58         6.8779   20.8899  -22.4590 H         1 LYS         0.0269
    193 H59         6.6065   18.5400  -23.2674 H         1 LYS         0.0317
    194 H60         5.1187   18.4028  -22.2703 H         1 LYS         0.0317
    195 H61         6.3913   18.8073  -20.2344 H         1 LYS         0.0813
    196 H62         7.8844   19.1057  -21.1874 H         1 LYS         0.0813
    197 H63         7.8283   16.8932  -20.2752 H         1 LYS         0.1994
    198 H64         7.7832   16.8230  -21.9191 H         1 LYS         0.1994
    199 H65         6.4150   16.5496  -21.0458 H         1 LYS         0.1994
    200 H66         3.4531   24.8221  -26.8373 H         1 PRO         0.0802
    201 H67         5.3995   25.5762  -27.8271 H         1 PRO         0.0313
    202 H68         5.3180   24.1454  -28.9101 H         1 PRO         0.0313
    203 H69         7.3836   24.5640  -27.2126 H         1 PRO         0.0287
    204 H70         6.7905   22.9181  -27.6199 H         1 PRO         0.0287
    205 H71         6.6419   22.8486  -25.2802 H         1 PRO         0.0524
    206 H72         6.2540   24.5979  -25.1522 H         1 PRO         0.0524
    207 H73         4.8532   21.7456  -28.0433 H         1 GLY         0.1881
    208 H74         3.8613   20.4341  -29.8294 H         1 GLY         0.0763
    209 H75         2.2726   21.1739  -29.4351 H         1 GLY         0.0763
    210 H76         1.1312   20.4687  -27.6227 H         1 GLU         0.1883
    211 H77         1.8660   17.7273  -26.7407 H         1 GLU         0.0801
    212 H78         0.7615   19.7930  -24.8014 H         1 GLU         0.0330
    213 H79         2.5222   19.5005  -25.0047 H         1 GLU         0.0330
    214 H80         2.2996   17.2192  -24.2759 H         1 GLU         0.0433
    215 H81         0.5071   17.3357  -24.2838 H         1 GLU         0.0433
    216 H82         0.2325   16.3729  -26.9161 H         1 ASP         0.1884
    217 H83        -2.3634   17.3613  -27.8371 H         1 ASP         0.0819
    218 H84        -1.5228   14.4790  -27.2878 H         1 ASP         0.0478
    219 H85        -1.1286   15.3546  -28.8059 H         1 ASP         0.0478
    220 H86        -3.5126   18.2593  -26.2389 H         1 LEU         0.1883
    221 H87        -4.0257   16.7337  -23.7425 H         1 LEU         0.0800
    222 H88        -5.1790   18.7807  -22.9909 H         1 LEU         0.0315
    223 H89        -4.8511   19.5424  -24.5843 H         1 LEU         0.0315
    224 H90        -2.4114   19.3959  -24.0854 H         1 LEU         0.0298
    225 H91        -2.4168   21.2798  -22.4753 H         1 LEU         0.0232
    226 H92        -4.1347   20.9291  -22.0850 H         1 LEU         0.0232
    227 H93        -3.6805   21.4645  -23.7384 H         1 LEU         0.0232
    228 H94        -2.4787   17.5712  -22.4168 H         1 LEU         0.0232
    229 H95        -3.3374   18.6582  -21.2733 H         1 LEU         0.0232
    230 H96        -1.6575   19.0379  -21.7837 H         1 LEU         0.0232
    231 H97        -5.1274   16.3957  -26.6863 H         1 GLU         0.1883
    232 H98        -8.0394   16.5713  -26.2293 H         1 GLU         0.0801
    233 H99        -6.6292   15.3729  -28.6425 H         1 GLU         0.0330
    234 H100       -6.7423   17.1516  -28.4194 H         1 GLU         0.0330
    235 H101       -9.0820   17.1488  -28.6382 H         1 GLU         0.0433
    236 H102       -9.1964   15.3766  -28.3678 H         1 GLU         0.0433
    237 H103       -8.9692   14.9540  -25.1510 H         1 ILE         0.1883
    238 H104       -7.8390   12.1962  -25.3201 H         1 ILE         0.0803
    239 H105      -10.1249   12.9742  -23.4855 H         1 ILE         0.0345
    240 H106       -8.5767   13.5051  -21.6640 H         1 ILE         0.0267
    241 H107       -8.4592   14.6831  -23.0151 H         1 ILE         0.0267
    242 H108       -9.4860   10.5977  -23.7897 H         1 ILE         0.0235
    243 H109       -9.2432   11.1634  -22.1022 H         1 ILE         0.0235
    244 H110       -7.8331   10.9803  -23.1997 H         1 ILE         0.0235
    245 H111       -6.2628   14.1871  -22.0624 H         1 ILE         0.0230
    246 H112       -6.3743   13.6180  -23.7625 H         1 ILE         0.0230
    247 H113       -6.4918   12.4400  -22.4114 H         1 ILE         0.0230
    248 H114      -11.3663   11.7082  -28.0310 H         1 PRO         0.0802
    249 H115       -9.7794   10.7223  -29.4852 H         1 PRO         0.0313
    250 H116      -10.7488    9.2587  -29.1047 H         1 PRO         0.0313
    251 H117       -8.0807    9.4114  -28.6432 H         1 PRO         0.0287
    252 H118       -9.1953    8.4519  -27.6118 H         1 PRO         0.0287
    253 H119       -8.5228    9.7590  -25.8704 H         1 PRO         0.0524
    254 H120       -7.6956   10.9133  -26.9704 H         1 PRO         0.0524
    255 H121      -13.0358   10.0556  -28.6168 H         1 LEU         0.1875
    256 H122      -14.8300    8.7565  -28.1133 H         1 LEU         0.0726
    257 H123      -12.9583    7.2354  -26.2698 H         1 LEU         0.0308
    258 H124      -12.9628    7.0708  -28.0585 H         1 LEU         0.0308
    259 H125      -15.5915    6.5930  -27.4445 H         1 LEU         0.0297
    260 H126      -15.0663    4.2070  -27.8436 H         1 LEU         0.0232
    261 H127      -13.3202    4.5656  -27.6217 H         1 LEU         0.0232
    262 H128      -14.2201    5.2971  -28.9935 H         1 LEU         0.0232
    263 H129      -15.1345    6.6006  -25.0123 H         1 LEU         0.0232
    264 H130      -13.9633    5.2579  -25.2406 H         1 LEU         0.0232
    265 H131      -15.7043    5.0025  -25.6020 H         1 LEU         0.0232
@<TRIPOS>BOND
     1    1    2 1  
     2    2    3 1  
     3    2    5 1  
     4    3    4 2  
     5    3    9 am 
     6    5    6 1  
     7    6    7 2  
     8    6    8 am 
     9    9   10 1  
    10   10   11 1  
    11   10   13 1  
    12   11   12 2  
    13   11   15 am 
    14   13   14 1  
    15   15   16 1  
    16   16   17 1  
    17   16   19 1  
    18   17   18 2  
    19   17   23 am 
    20   19   20 1  
    21   20   21 ar 
    22   20   22 ar 
    23   23   24 1  
    24   24   25 1  
    25   24   27 1  
    26   25   26 2  
    27   25   31 am 
    28   27   28 1  
    29   28   29 2  
    30   28   30 am 
    31   31   32 1  
    32   32   33 1  
    33   32   35 1  
    34   33   34 2  
    35   33   39 am 
    36   35   36 1  
    37   35   37 1  
    38   36   38 1  
    39   39   40 1  
    40   40   41 1  
    41   40   43 1  
    42   41   42 2  
    43   41   50 am 
    44   43   44 1  
    45   44   45 ar 
    46   44   46 ar 
    47   45   47 ar 
    48   46   48 ar 
    49   47   49 ar 
    50   48   49 ar 
    51   50   51 1  
    52   51   52 1  
    53   51   54 1  
    54   52   53 2  
    55   52   57 am 
    56   54   55 1  
    57   54   56 1  
    58   57   58 1  
    59   58   59 1  
    60   58   61 1  
    61   59   60 2  
    62   59   66 am 
    63   61   62 1  
    64   62   63 1  
    65   63   64 1  
    66   64   65 1  
    67   66   67 1  
    68   66   72 1  
    69   67   68 1  
    70   67   70 1  
    71   68   69 2  
    72   68   73 am 
    73   70   71 1  
    74   71   72 1  
    75   73   74 1  
    76   74   75 1  
    77   75   76 2  
    78   75   77 am 
    79   77   78 1  
    80   78   79 1  
    81   78   81 1  
    82   79   80 2  
    83   79   86 am 
    84   81   82 1  
    85   82   83 1  
    86   83   84 ar 
    87   83   85 ar 
    88   86   87 1  
    89   87   88 1  
    90   87   90 1  
    91   88   89 2  
    92   88   94 am 
    93   90   91 1  
    94   91   92 ar 
    95   91   93 ar 
    96   94   95 1  
    97   95   96 1  
    98   95   98 1  
    99   96   97 2  
   100   96  102 am 
   101   98   99 1  
   102   99  100 1  
   103   99  101 1  
   104  102  103 1  
   105  103  104 1  
   106  103  106 1  
   107  104  105 2  
   108  104  111 am 
   109  106  107 1  
   110  107  108 1  
   111  108  109 ar 
   112  108  110 ar 
   113  111  112 1  
   114  112  113 1  
   115  112  115 1  
   116  113  114 2  
   117  113  119 am 
   118  115  116 1  
   119  115  117 1  
   120  116  118 1  
   121  119  120 1  
   122  119  125 1  
   123  120  121 1  
   124  120  123 1  
   125  121  122 2  
   126  121  126 am 
   127  123  124 1  
   128  124  125 1  
   129  126  127 1  
   130  127  128 1  
   131  127  130 1  
   132  128  129 ar 
   133  128  134 ar 
   134  130  131 1  
   135  131  132 1  
   136  131  133 1  
   137    1  135 1  
   138    1  136 1  
   139    1  137 1  
   140    2  138 1  
   141    5  139 1  
   142    5  140 1  
   143    8  141 1  
   144    8  142 1  
   145    9  143 1  
   146   10  144 1  
   147   13  145 1  
   148   13  146 1  
   149   14  147 1  
   150   15  148 1  
   151   16  149 1  
   152   19  150 1  
   153   19  151 1  
   154   23  152 1  
   155   24  153 1  
   156   27  154 1  
   157   27  155 1  
   158   30  156 1  
   159   30  157 1  
   160   31  158 1  
   161   32  159 1  
   162   35  160 1  
   163   36  161 1  
   164   36  162 1  
   165   37  163 1  
   166   37  164 1  
   167   37  165 1  
   168   38  166 1  
   169   38  167 1  
   170   38  168 1  
   171   39  169 1  
   172   40  170 1  
   173   43  171 1  
   174   43  172 1  
   175   45  173 1  
   176   46  174 1  
   177   47  175 1  
   178   48  176 1  
   179   49  177 1  
   180   50  178 1  
   181   51  179 1  
   182   54  180 1  
   183   55  181 1  
   184   55  182 1  
   185   55  183 1  
   186   56  184 1  
   187   56  185 1  
   188   56  186 1  
   189   57  187 1  
   190   58  188 1  
   191   61  189 1  
   192   61  190 1  
   193   62  191 1  
   194   62  192 1  
   195   63  193 1  
   196   63  194 1  
   197   64  195 1  
   198   64  196 1  
   199   65  197 1  
   200   65  198 1  
   201   65  199 1  
   202   67  200 1  
   203   70  201 1  
   204   70  202 1  
   205   71  203 1  
   206   71  204 1  
   207   72  205 1  
   208   72  206 1  
   209   73  207 1  
   210   74  208 1  
   211   74  209 1  
   212   77  210 1  
   213   78  211 1  
   214   81  212 1  
   215   81  213 1  
   216   82  214 1  
   217   82  215 1  
   218   86  216 1  
   219   87  217 1  
   220   90  218 1  
   221   90  219 1  
   222   94  220 1  
   223   95  221 1  
   224   98  222 1  
   225   98  223 1  
   226   99  224 1  
   227  100  225 1  
   228  100  226 1  
   229  100  227 1  
   230  101  228 1  
   231  101  229 1  
   232  101  230 1  
   233  102  231 1  
   234  103  232 1  
   235  106  233 1  
   236  106  234 1  
   237  107  235 1  
   238  107  236 1  
   239  111  237 1  
   240  112  238 1  
   241  115  239 1  
   242  116  240 1  
   243  116  241 1  
   244  117  242 1  
   245  117  243 1  
   246  117  244 1  
   247  118  245 1  
   248  118  246 1  
   249  118  247 1  
   250  120  248 1  
   251  123  249 1  
   252  123  250 1  
   253  124  251 1  
   254  124  252 1  
   255  125  253 1  
   256  125  254 1  
   257  126  255 1  
   258  127  256 1  
   259  130  257 1  
   260  130  258 1  
   261  131  259 1  
   262  132  260 1  
   263  132  261 1  
   264  132  262 1  
   265  133  263 1  
   266  133  264 1  
   267  133  265 1  
@<TRIPOS>SUBSTRUCTURE
     1 ASN         1

