5xxf_ligand
  -I-interpret- 

270272  0  0  0  0  0  0  0  0999 V2000
    6.5580   37.0350  -20.6970 N   0  3  0  0  0
    5.2170   36.9340  -21.3700 C   0  0  0  0  0
    5.2110   35.8880  -22.4990 C   0  0  0  0  0
    4.8520   36.1770  -23.6460 O   0  0  0  0  0
    4.7490   38.3120  -21.8760 C   0  0  0  0  0
    4.4450   39.2820  -20.7440 C   0  0  0  0  0
    3.2910   39.4280  -20.3380 O   0  0  0  0  0
    5.4760   39.9510  -20.2260 N   0  0  0  0  0
    5.6100   34.6670  -22.1430 N   0  0  0  0  0
    5.6790   33.5500  -23.0830 C   0  0  0  0  0
    4.2870   32.9940  -23.3610 C   0  0  0  0  0
    3.3610   33.1840  -22.5670 O   0  0  0  0  0
    6.5700   32.4360  -22.5230 C   0  0  0  0  0
    7.8820   32.9090  -22.2740 O   0  0  0  0  0
    4.1570   32.3080  -24.4930 N   0  0  0  0  0
    2.9170   31.6130  -24.8610 C   0  0  0  0  0
    2.8750   30.1670  -24.3350 C   0  0  0  0  0
    1.8810   29.4650  -24.5370 O   0  0  0  0  0
    2.7230   31.6470  -26.3820 C   0  0  0  0  0
    2.5370   33.0630  -26.9170 C   0  0  0  0  0
    1.6970   33.8090  -26.3690 O   0  0  0  0  0
    3.2280   33.4270  -27.8930 O   0  0  0  0  0
    3.9530   29.7330  -23.6760 N   0  0  0  0  0
    4.0000   28.4680  -22.9430 C   0  0  0  0  0
    4.6380   28.6800  -21.5740 C   0  0  0  0  0
    5.6560   29.3690  -21.4690 O   0  0  0  0  0
    4.8070   27.4380  -23.7300 C   0  0  0  0  0
    4.0850   26.9620  -24.9720 C   0  0  0  0  0
    4.5210   27.2170  -26.0950 O   0  0  0  0  0
    2.9620   26.2780  -24.7770 N   0  0  0  0  0
    4.0270   28.1060  -20.5330 N   0  0  0  0  0
    4.5840   28.1040  -19.1660 C   0  0  0  0  0
    4.4700   26.6900  -18.5740 C   0  0  0  0  0
    5.4840   26.0210  -18.3670 O   0  0  0  0  0
    3.9130   29.1640  -18.2450 C   0  0  0  0  0
    4.1970   30.5870  -18.7510 C   0  0  0  0  0
    4.4260   29.0540  -16.8110 C   0  0  0  0  0
    3.2490   31.6450  -18.2240 C   0  0  0  0  0
    3.2410   26.2470  -18.3130 N   0  0  0  0  0
    2.9670   24.9130  -17.7570 C   0  0  0  0  0
    2.6520   23.8470  -18.8130 C   0  0  0  0  0
    2.7410   22.6510  -18.5180 O   0  0  0  0  0
    1.8180   24.9830  -16.7410 C   0  0  0  0  0
    2.2400   25.4720  -15.3850 C   0  0  0  0  0
    2.7790   24.5920  -14.4520 C   0  0  0  0  0
    2.1000   26.8100  -15.0360 C   0  0  0  0  0
    3.1710   25.0370  -13.1970 C   0  0  0  0  0
    2.4930   27.2620  -13.7860 C   0  0  0  0  0
    3.0240   26.3750  -12.8620 C   0  0  0  0  0
    2.2740   24.2750  -20.0210 N   0  0  0  0  0
    1.9670   23.3560  -21.1210 C   0  0  0  0  0
    3.0460   23.4590  -22.1940 C   0  0  0  0  0
    3.4260   24.5590  -22.6030 O   0  0  0  0  0
    0.5700   23.6080  -21.7340 C   0  0  0  0  0
    0.2060   22.5010  -22.7160 C   0  0  0  0  0
   -0.4930   23.6720  -20.6450 C   0  0  0  0  0
    3.5290   22.2980  -22.6370 N   0  0  0  0  0
    4.5520   22.2130  -23.6780 C   0  0  0  0  0
    3.9340   22.5910  -25.0360 C   0  0  0  0  0
    2.8060   22.1770  -25.3180 O   0  0  0  0  0
    5.1430   20.7970  -23.7240 C   0  0  0  0  0
    5.8940   20.3980  -22.4570 C   0  0  0  0  0
    6.0990   18.8940  -22.3580 C   0  0  0  0  0
    6.9450   18.5350  -21.1450 C   0  0  0  0  0
    7.2690   17.0830  -21.0920 N   0  3  0  0  0
    4.6610   23.3750  -25.8730 N   0  0  0  0  0
    4.1030   23.9760  -27.1050 C   0  0  0  0  0
    3.2950   23.0140  -27.9750 C   0  0  0  0  0
    2.1530   23.3160  -28.3280 O   0  0  0  0  0
    5.3480   24.4780  -27.8620 C   0  0  0  0  0
    6.5220   23.8820  -27.1630 C   0  0  0  0  0
    6.0970   23.6840  -25.7440 C   0  0  0  0  0
    3.8950   21.8720  -28.3000 N   0  0  0  0  0
    3.2160   20.7950  -29.0150 C   0  0  0  0  0
    2.9200   19.6530  -28.0650 C   0  0  0  0  0
    3.7580   18.7650  -27.8800 O   0  0  0  0  0
    1.7360   19.6910  -27.4510 N   0  0  0  0  0
    1.2860   18.6390  -26.5350 C   0  0  0  0  0
   -0.1920   18.3350  -26.7520 C   0  0  0  0  0
   -1.0280   19.2390  -26.7250 O   0  0  0  0  0
    1.5220   19.0490  -25.0810 C   0  0  0  0  0
    1.4420   17.8850  -24.0990 C   0  0  0  0  0
    1.4640   18.3230  -22.6480 C   0  0  0  0  0
    1.0650   17.5140  -21.7830 O   0  0  0  0  0
    1.8750   19.4690  -22.3610 O   0  0  0  0  0
   -0.4990   17.0540  -26.9490 N   0  0  0  0  0
   -1.8630   16.6080  -27.2110 C   0  0  0  0  0
   -2.6410   16.4770  -25.8980 C   0  0  0  0  0
   -2.4600   15.5120  -25.1510 O   0  0  0  0  0
   -1.8460   15.2740  -27.9760 C   0  0  0  0  0
   -3.2080   14.8990  -28.5460 C   0  0  0  0  0
   -3.8810   15.7700  -29.1380 O   0  0  0  0  0
   -3.6010   13.7200  -28.4130 O   0  0  0  0  0
   -3.4960   17.4670  -25.6290 N   0  0  0  0  0
   -4.4130   17.4500  -24.4820 C   0  0  0  0  0
   -5.8240   16.9960  -24.8970 C   0  0  0  0  0
   -6.7740   17.1120  -24.1170 O   0  0  0  0  0
   -4.4690   18.8400  -23.8290 C   0  0  0  0  0
   -3.1600   19.4250  -23.2800 C   0  0  0  0  0
   -3.3620   20.8750  -22.8660 C   0  0  0  0  0
   -2.6210   18.6170  -22.1070 C   0  0  0  0  0
   -5.9470   16.4690  -26.1180 N   0  0  0  0  0
   -7.2110   15.9950  -26.6670 C   0  0  0  0  0
   -7.3790   14.5170  -26.3070 C   0  0  0  0  0
   -6.5910   13.6750  -26.7450 O   0  0  0  0  0
   -7.2180   16.1860  -28.1930 C   0  0  0  0  0
   -8.6020   16.1780  -28.8310 C   0  0  0  0  0
   -8.5650   15.9460  -30.3360 C   0  0  0  0  0
   -7.7240   16.5660  -31.0230 O   0  0  0  0  0
   -9.3860   15.1450  -30.8350 O   0  0  0  0  0
   -8.3960   14.2130  -25.5010 N   0  0  0  0  0
   -8.7080   12.8360  -25.1070 C   0  0  0  0  0
   -9.9100   12.3820  -25.9550 C   0  0  0  0  0
  -10.9490   13.0480  -25.9350 O   0  0  0  0  0
   -9.0650   12.7030  -23.6000 C   0  0  0  0  0
   -8.2430   13.6510  -22.7020 C   0  0  0  0  0
   -8.8950   11.2610  -23.1410 C   0  0  0  0  0
   -6.7400   13.4610  -22.7370 C   0  0  0  0  0
   -9.7810   11.2630  -26.7050 N   0  0  0  0  0
  -10.8650   10.8290  -27.6000 C   0  0  0  0  0
  -11.9340    9.9380  -26.9420 C   0  0  0  0  0
  -11.7920    9.5450  -25.7800 O   0  0  0  0  0
  -10.1130   10.0500  -28.6810 C   0  0  0  0  0
   -8.9460    9.4630  -27.9660 C   0  0  0  0  0
   -8.6240   10.3510  -26.7920 C   0  0  0  0  0
  -12.9870    9.6390  -27.7090 N   0  0  0  0  0
  -14.0820    8.7360  -27.3070 C   0  0  0  0  0
  -14.7870    9.1790  -26.0280 C   0  0  0  0  0
  -15.8410    9.8100  -26.0780 O   0  0  0  0  0
  -13.5810    7.2880  -27.1750 C   0  0  0  0  0
  -14.6450    6.1760  -27.0700 C   0  0  0  0  0
  -14.2880    4.9780  -27.9430 C   0  0  0  0  0
  -14.8780    5.7280  -25.6310 C   0  0  0  0  0
  -14.3130    8.9130  -24.9250 O   0  0  0  0  0
    6.8444   36.1116  -20.3720 H   0  0  0  0  0
    7.2448   37.3908  -21.3619 H   0  0  0  0  0
    6.4912   37.6709  -19.9023 H   0  0  0  0  0
    4.5044   36.5901  -20.6204 H   0  0  0  0  0
    3.8315   38.1650  -22.4458 H   0  0  0  0  0
    5.5532   38.7389  -22.4752 H   0  0  0  0  0
    5.3239   40.6127  -19.4648 H   0  0  0  0  0
    6.4165   39.8010  -20.5911 H   0  0  0  0  0
    5.8788   34.5052  -21.1725 H   0  0  0  0  0
    6.1065   33.9193  -24.0152 H   0  0  0  0  0
    6.6228   31.6303  -23.2552 H   0  0  0  0  0
    6.1415   32.0854  -21.5841 H   0  0  0  0  0
    8.4181   32.1933  -21.9247 H   0  0  0  0  0
    4.9511   32.2628  -25.1316 H   0  0  0  0  0
    2.0924   32.1430  -24.3842 H   0  0  0  0  0
    1.8240   31.0779  -26.6186 H   0  0  0  0  0
    3.6171   31.2283  -26.8440 H   0  0  0  0  0
    3.8061   32.7086  -28.1600 H   0  0  0  0  0
    4.7898   30.3161  -23.6844 H   0  0  0  0  0
    2.9820   28.1016  -22.8107 H   0  0  0  0  0
    4.9709   26.5749  -23.0848 H   0  0  0  0  0
    5.7392   27.9086  -24.0425 H   0  0  0  0  0
    2.4245   25.9416  -25.5759 H   0  0  0  0  0
    2.6378   26.0895  -23.8284 H   0  0  0  0  0
    3.1304   27.6461  -20.6912 H   0  0  0  0  0
    5.6350   28.3867  -19.2265 H   0  0  0  0  0
    2.8407   28.9693  -18.2653 H   0  0  0  0  0
    4.0818   30.5681  -19.8347 H   0  0  0  0  0
    5.1956   30.8541  -18.4053 H   0  0  0  0  0
    4.2008   28.0614  -16.4210 H   0  0  0  0  0
    5.5040   29.2146  -16.7988 H   0  0  0  0  0
    3.9381   29.8078  -16.1931 H   0  0  0  0  0
    2.2301   31.3999  -18.5238 H   0  0  0  0  0
    3.3112   31.6775  -17.1363 H   0  0  0  0  0
    3.5261   32.6161  -18.6342 H   0  0  0  0  0
    2.4516   26.8628  -18.5082 H   0  0  0  0  0
    3.8913   24.6033  -17.2693 H   0  0  0  0  0
    1.4307   23.9717  -16.6168 H   0  0  0  0  0
    1.0833   25.6891  -17.1280 H   0  0  0  0  0
    2.8950   23.5393  -14.7099 H   0  0  0  0  0
    1.6761   27.5123  -15.7538 H   0  0  0  0  0
    3.5934   24.3367  -12.4764 H   0  0  0  0  0
    2.3845   28.3157  -13.5292 H   0  0  0  0  0
    3.3249   26.7280  -11.8756 H   0  0  0  0  0
    2.1961   25.2789  -20.1839 H   0  0  0  0  0
    1.9512   22.3468  -20.7095 H   0  0  0  0  0
    0.6075   24.5621  -22.2598 H   0  0  0  0  0
    0.9436   22.4715  -23.5180 H   0  0  0  0  0
    0.1956   21.5437  -22.1949 H   0  0  0  0  0
   -0.7806   22.6987  -23.1351 H   0  0  0  0  0
   -0.5116   22.7275  -20.1013 H   0  0  0  0  0
   -0.2581   24.4842  -19.9570 H   0  0  0  0  0
   -1.4673   23.8500  -21.1001 H   0  0  0  0  0
    3.1699   21.4331  -22.2328 H   0  0  0  0  0
    5.3590   22.9101  -23.4524 H   0  0  0  0  0
    5.8582   20.7712  -24.5461 H   0  0  0  0  0
    4.3110   20.1024  -23.8396 H   0  0  0  0  0
    5.3025   20.7162  -21.5985 H   0  0  0  0  0
    6.8750   20.8725  -22.4814 H   0  0  0  0  0
    6.6140   18.5523  -23.2559 H   0  0  0  0  0
    5.1250   18.4151  -22.2580 H   0  0  0  0  0
    6.3769   18.7876  -20.2497 H   0  0  0  0  0
    7.8818   19.0884  -21.2103 H   0  0  0  0  0
    7.8349   16.8921  -20.2651 H   0  0  0  0  0
    6.4041   16.5444  -21.0453 H   0  0  0  0  0
    7.7892   16.8212  -21.9294 H   0  0  0  0  0
    3.3829   24.7551  -26.8547 H   0  0  0  0  0
    5.3986   25.5668  -27.8604 H   0  0  0  0  0
    5.3195   24.1800  -28.9101 H   0  0  0  0  0
    7.3935   24.5335  -27.2277 H   0  0  0  0  0
    6.8190   22.9391  -27.6222 H   0  0  0  0  0
    6.6567   22.8964  -25.2395 H   0  0  0  0  0
    6.2888   24.5556  -25.1182 H   0  0  0  0  0
    4.8724   21.7430  -28.0382 H   0  0  0  0  0
    3.8581   20.4365  -29.8195 H   0  0  0  0  0
    2.2800   21.1714  -29.4278 H   0  0  0  0  0
    1.1191   20.4842  -27.6262 H   0  0  0  0  0
    1.8665   17.7406  -26.7448 H   0  0  0  0  0
    0.7410   19.7596  -24.8105 H   0  0  0  0  0
    2.5284   19.4626  -25.0169 H   0  0  0  0  0
    2.3139   17.2525  -24.2657 H   0  0  0  0  0
    0.4971   17.3706  -24.2738 H   0  0  0  0  0
    2.1326   19.9260  -23.1650 H   0  0  0  0  0
    0.2471   16.3593  -26.9154 H   0  0  0  0  0
   -2.3660   17.3509  -27.8301 H   0  0  0  0  0
   -1.5521   14.4925  -27.2753 H   0  0  0  0  0
   -1.1533   15.3783  -28.8111 H   0  0  0  0  0
   -2.9407   13.2162  -27.9316 H   0  0  0  0  0
   -3.5130   18.2751  -26.2511 H   0  0  0  0  0
   -4.0322   16.7305  -23.7572 H   0  0  0  0  0
   -5.1238   18.7296  -22.9646 H   0  0  0  0  0
   -4.7832   19.5210  -24.6200 H   0  0  0  0  0
   -2.4218   19.3765  -24.0805 H   0  0  0  0  0
   -3.6776   21.4580  -23.7312 H   0  0  0  0  0
   -4.1278   20.9272  -22.0921 H   0  0  0  0  0
   -2.4248   21.2750  -22.4790 H   0  0  0  0  0
   -3.3562   18.6125  -21.3022 H   0  0  0  0  0
   -2.4280   17.5941  -22.4303 H   0  0  0  0  0
   -1.6945   19.0682  -21.7519 H   0  0  0  0  0
   -5.1110   16.3942  -26.6976 H   0  0  0  0  0
   -8.0409   16.5640  -26.2479 H   0  0  0  0  0
   -6.6677   15.3474  -28.6197 H   0  0  0  0  0
   -6.7834   17.1657  -28.3916 H   0  0  0  0  0
   -9.0523   17.1554  -28.6576 H   0  0  0  0  0
   -9.1681   15.3609  -28.3838 H   0  0  0  0  0
   -9.9376   14.7793  -30.1396 H   0  0  0  0  0
   -8.9806   14.9688  -25.1440 H   0  0  0  0  0
   -7.8257   12.2178  -25.2728 H   0  0  0  0  0
  -10.1092   12.9981  -23.4971 H   0  0  0  0  0
   -8.5536   13.4481  -21.6771 H   0  0  0  0  0
   -8.4328   14.6603  -23.0674 H   0  0  0  0  0
   -9.5547   10.6161  -23.7215 H   0  0  0  0  0
   -7.8601   10.9531  -23.2904 H   0  0  0  0  0
   -9.1490   11.1853  -22.0837 H   0  0  0  0  0
   -6.4954   12.4490  -22.4143 H   0  0  0  0  0
   -6.3789   13.6168  -23.7536 H   0  0  0  0  0
   -6.2684   14.1810  -22.0682 H   0  0  0  0  0
  -11.4406   11.6839  -27.9550 H   0  0  0  0  0
   -9.8078   10.6885  -29.5100 H   0  0  0  0  0
  -10.7366    9.2861  -29.1455 H   0  0  0  0  0
   -8.0882    9.3981  -28.6353 H   0  0  0  0  0
   -9.1826    8.4559  -27.6226 H   0  0  0  0  0
   -8.4759    9.7833  -25.8734 H   0  0  0  0  0
   -7.6846   10.8875  -26.9256 H   0  0  0  0  0
  -13.0368   10.0640  -28.6349 H   0  0  0  0  0
  -14.8238    8.7839  -28.1042 H   0  0  0  0  0
  -13.0252    7.2531  -26.2380 H   0  0  0  0  0
  -13.0299    7.0824  -28.0926 H   0  0  0  0  0
  -15.5760    6.6090  -27.4358 H   0  0  0  0  0
  -14.2210    5.2955  -28.9836 H   0  0  0  0  0
  -13.3289    4.5703  -27.6237 H   0  0  0  0  0
  -15.0598    4.2148  -27.8437 H   0  0  0  0  0
  -13.9463    5.3434  -25.2162 H   0  0  0  0  0
  -15.2180    6.5770  -25.0380 H   0  0  0  0  0
  -15.6356    4.9445  -25.6139 H   0  0  0  0  0
  -13.4963    8.4215  -25.0390 H   0  0  0  0  0
  1  2  1  0  0  0
  2  3  1  0  0  0
  2  5  1  0  0  0
  3  4  2  0  0  0
  3  9  1  0  0  0
  5  6  1  0  0  0
  6  7  2  0  0  0
  6  8  1  0  0  0
  9 10  1  0  0  0
 10 11  1  0  0  0
 10 13  1  0  0  0
 11 12  2  0  0  0
 11 15  1  0  0  0
 13 14  1  0  0  0
 15 16  1  0  0  0
 16 17  1  0  0  0
 16 19  1  0  0  0
 17 18  2  0  0  0
 17 23  1  0  0  0
 19 20  1  0  0  0
 20 21  2  0  0  0
 20 22  1  0  0  0
 23 24  1  0  0  0
 24 25  1  0  0  0
 24 27  1  0  0  0
 25 26  2  0  0  0
 25 31  1  0  0  0
 27 28  1  0  0  0
 28 29  2  0  0  0
 28 30  1  0  0  0
 31 32  1  0  0  0
 32 33  1  0  0  0
 32 35  1  0  0  0
 33 34  2  0  0  0
 33 39  1  0  0  0
 35 36  1  0  0  0
 35 37  1  0  0  0
 36 38  1  0  0  0
 39 40  1  0  0  0
 40 41  1  0  0  0
 40 43  1  0  0  0
 41 42  2  0  0  0
 41 50  1  0  0  0
 43 44  1  0  0  0
 44 45  4  0  0  0
 44 46  4  0  0  0
 45 47  4  0  0  0
 46 48  4  0  0  0
 47 49  4  0  0  0
 48 49  4  0  0  0
 50 51  1  0  0  0
 51 52  1  0  0  0
 51 54  1  0  0  0
 52 53  2  0  0  0
 52 57  1  0  0  0
 54 55  1  0  0  0
 54 56  1  0  0  0
 57 58  1  0  0  0
 58 59  1  0  0  0
 58 61  1  0  0  0
 59 60  2  0  0  0
 59 66  1  0  0  0
 61 62  1  0  0  0
 62 63  1  0  0  0
 63 64  1  0  0  0
 64 65  1  0  0  0
 66 67  1  0  0  0
 66 72  1  0  0  0
 67 68  1  0  0  0
 67 70  1  0  0  0
 68 69  2  0  0  0
 68 73  1  0  0  0
 70 71  1  0  0  0
 71 72  1  0  0  0
 73 74  1  0  0  0
 74 75  1  0  0  0
 75 76  2  0  0  0
 75 77  1  0  0  0
 77 78  1  0  0  0
 78 79  1  0  0  0
 78 81  1  0  0  0
 79 80  2  0  0  0
 79 86  1  0  0  0
 81 82  1  0  0  0
 82 83  1  0  0  0
 83 84  2  0  0  0
 83 85  1  0  0  0
 86 87  1  0  0  0
 87 88  1  0  0  0
 87 90  1  0  0  0
 88 89  2  0  0  0
 88 94  1  0  0  0
 90 91  1  0  0  0
 91 92  2  0  0  0
 91 93  1  0  0  0
 94 95  1  0  0  0
 95 96  1  0  0  0
 95 98  1  0  0  0
 96 97  2  0  0  0
 96102  1  0  0  0
 98 99  1  0  0  0
 99100  1  0  0  0
 99101  1  0  0  0
102103  1  0  0  0
103104  1  0  0  0
103106  1  0  0  0
104105  2  0  0  0
104111  1  0  0  0
106107  1  0  0  0
107108  1  0  0  0
108109  2  0  0  0
108110  1  0  0  0
111112  1  0  0  0
112113  1  0  0  0
112115  1  0  0  0
113114  2  0  0  0
113119  1  0  0  0
115116  1  0  0  0
115117  1  0  0  0
116118  1  0  0  0
119120  1  0  0  0
119125  1  0  0  0
120121  1  0  0  0
120123  1  0  0  0
121122  2  0  0  0
121126  1  0  0  0
123124  1  0  0  0
124125  1  0  0  0
126127  1  0  0  0
127128  1  0  0  0
127130  1  0  0  0
128129  2  0  0  0
128134  1  0  0  0
130131  1  0  0  0
131132  1  0  0  0
131133  1  0  0  0
  1135  1  0  0  0
  1136  1  0  0  0
  1137  1  0  0  0
  2138  1  0  0  0
  5139  1  0  0  0
  5140  1  0  0  0
  8141  1  0  0  0
  8142  1  0  0  0
  9143  1  0  0  0
 10144  1  0  0  0
 13145  1  0  0  0
 13146  1  0  0  0
 14147  1  0  0  0
 15148  1  0  0  0
 16149  1  0  0  0
 19150  1  0  0  0
 19151  1  0  0  0
 22152  1  0  0  0
 23153  1  0  0  0
 24154  1  0  0  0
 27155  1  0  0  0
 27156  1  0  0  0
 30157  1  0  0  0
 30158  1  0  0  0
 31159  1  0  0  0
 32160  1  0  0  0
 35161  1  0  0  0
 36162  1  0  0  0
 36163  1  0  0  0
 37164  1  0  0  0
 37165  1  0  0  0
 37166  1  0  0  0
 38167  1  0  0  0
 38168  1  0  0  0
 38169  1  0  0  0
 39170  1  0  0  0
 40171  1  0  0  0
 43172  1  0  0  0
 43173  1  0  0  0
 45174  1  0  0  0
 46175  1  0  0  0
 47176  1  0  0  0
 48177  1  0  0  0
 49178  1  0  0  0
 50179  1  0  0  0
 51180  1  0  0  0
 54181  1  0  0  0
 55182  1  0  0  0
 55183  1  0  0  0
 55184  1  0  0  0
 56185  1  0  0  0
 56186  1  0  0  0
 56187  1  0  0  0
 57188  1  0  0  0
 58189  1  0  0  0
 61190  1  0  0  0
 61191  1  0  0  0
 62192  1  0  0  0
 62193  1  0  0  0
 63194  1  0  0  0
 63195  1  0  0  0
 64196  1  0  0  0
 64197  1  0  0  0
 65198  1  0  0  0
 65199  1  0  0  0
 65200  1  0  0  0
 67201  1  0  0  0
 70202  1  0  0  0
 70203  1  0  0  0
 71204  1  0  0  0
 71205  1  0  0  0
 72206  1  0  0  0
 72207  1  0  0  0
 73208  1  0  0  0
 74209  1  0  0  0
 74210  1  0  0  0
 77211  1  0  0  0
 78212  1  0  0  0
 81213  1  0  0  0
 81214  1  0  0  0
 82215  1  0  0  0
 82216  1  0  0  0
 85217  1  0  0  0
 86218  1  0  0  0
 87219  1  0  0  0
 90220  1  0  0  0
 90221  1  0  0  0
 93222  1  0  0  0
 94223  1  0  0  0
 95224  1  0  0  0
 98225  1  0  0  0
 98226  1  0  0  0
 99227  1  0  0  0
100228  1  0  0  0
100229  1  0  0  0
100230  1  0  0  0
101231  1  0  0  0
101232  1  0  0  0
101233  1  0  0  0
102234  1  0  0  0
103235  1  0  0  0
106236  1  0  0  0
106237  1  0  0  0
107238  1  0  0  0
107239  1  0  0  0
110240  1  0  0  0
111241  1  0  0  0
112242  1  0  0  0
115243  1  0  0  0
116244  1  0  0  0
116245  1  0  0  0
117246  1  0  0  0
117247  1  0  0  0
117248  1  0  0  0
118249  1  0  0  0
118250  1  0  0  0
118251  1  0  0  0
120252  1  0  0  0
123253  1  0  0  0
123254  1  0  0  0
124255  1  0  0  0
124256  1  0  0  0
125257  1  0  0  0
125258  1  0  0  0
126259  1  0  0  0
127260  1  0  0  0
130261  1  0  0  0
130262  1  0  0  0
131263  1  0  0  0
132264  1  0  0  0
132265  1  0  0  0
132266  1  0  0  0
133267  1  0  0  0
133268  1  0  0  0
133269  1  0  0  0
134270  1  0  0  0
M  END
$$$$
