1pwp_ligand
  -I-interpret- 

 48 51  0  0  0  0  0  0  0  0999 V2000
   86.5010   37.8380  135.8300 C   0  0  0  0  0
   87.1650   37.0570  134.8560 C   0  0  0  0  0
   88.4970   37.3280  134.4960 C   0  0  0  0  0
   89.1700   38.3190  135.0860 N   0  0  0  0  0
   89.1190   36.5490  133.5040 C   0  0  0  0  0
   88.4000   35.5100  132.8860 C   0  0  0  0  0
   89.0620   34.6590  131.7990 C   0  0  0  0  0
   87.1110   35.2610  133.2490 N   0  0  0  0  0
   86.4800   35.9970  134.2060 C   0  0  0  0  0
   85.1410   35.7210  134.5360 C   0  0  0  0  0
   84.4790   36.5020  135.5050 C   0  0  0  0  0
   85.1460   37.5650  136.1560 C   0  0  0  0  0
   84.4550   38.2960  137.0620 N   0  0  0  0  0
   84.9220   39.3400  137.7740 C   0  0  0  0  0
   86.0810   39.7560  137.6570 O   0  0  0  0  0
   84.0270   39.9120  138.6070 N   0  0  0  0  0
   84.2500   40.9560  139.4400 C   0  0  0  0  0
   85.5420   41.5190  139.6380 C   0  0  0  0  0
   85.7340   42.5280  140.6110 C   0  0  0  0  0
   87.0050   43.0810  140.8490 C   0  0  0  0  0
   88.0620   42.6830  140.1420 N   0  0  0  0  0
   87.1610   44.0620  141.8430 C   0  0  0  0  0
   86.0430   44.4780  142.5860 C   0  0  0  0  0
   86.2000   45.5460  143.6720 C   0  0  0  0  0
   84.8200   43.9330  142.3410 N   0  0  0  0  0
   84.6380   42.9810  141.3850 C   0  0  0  0  0
   83.3630   42.4280  141.1790 C   0  0  0  0  0
   83.1700   41.4220  140.2150 C   0  0  0  0  0
   87.0291   38.6495  136.3306 H   0  0  0  0  0
   88.7181   38.8859  135.8035 H   0  0  0  0  0
   90.1359   38.5091  134.8191 H   0  0  0  0  0
   90.1511   36.7490  133.2161 H   0  0  0  0  0
   89.3627   35.3001  130.9703 H   0  0  0  0  0
   89.9395   34.1620  132.2126 H   0  0  0  0  0
   88.3534   33.9112  131.4429 H   0  0  0  0  0
   84.6153   34.9035  134.0427 H   0  0  0  0  0
   83.4408   36.2838  135.7552 H   0  0  0  0  0
   83.4834   38.0296  137.2216 H   0  0  0  0  0
   83.0864   39.5174  138.6092 H   0  0  0  0  0
   86.3845   41.1725  139.0394 H   0  0  0  0  0
   87.9538   41.9707  139.4200 H   0  0  0  0  0
   88.9793   43.0907  140.3228 H   0  0  0  0  0
   88.1416   44.4969  142.0363 H   0  0  0  0  0
   86.9030   45.1940  144.4270 H   0  0  0  0  0
   86.5764   46.4655  143.2238 H   0  0  0  0  0
   85.2320   45.7361  144.1355 H   0  0  0  0  0
   82.5179   42.7808  141.7700 H   0  0  0  0  0
   82.1763   40.9994  140.0664 H   0  0  0  0  0
  1  2  4  0  0  0
  1 12  4  0  0  0
  2  3  4  0  0  0
  2  9  4  0  0  0
  3  4  1  0  0  0
  3  5  4  0  0  0
  5  6  4  0  0  0
  6  7  1  0  0  0
  6  8  4  0  0  0
  8  9  4  0  0  0
  9 10  4  0  0  0
 10 11  4  0  0  0
 11 12  4  0  0  0
 12 13  1  0  0  0
 13 14  1  0  0  0
 14 15  2  0  0  0
 14 16  1  0  0  0
 16 17  1  0  0  0
 17 18  4  0  0  0
 17 28  4  0  0  0
 18 19  4  0  0  0
 19 20  4  0  0  0
 19 26  4  0  0  0
 20 21  1  0  0  0
 20 22  4  0  0  0
 22 23  4  0  0  0
 23 24  1  0  0  0
 23 25  4  0  0  0
 25 26  4  0  0  0
 26 27  4  0  0  0
 27 28  4  0  0  0
  1 29  1  0  0  0
  4 30  1  0  0  0
  4 31  1  0  0  0
  5 32  1  0  0  0
  7 33  1  0  0  0
  7 34  1  0  0  0
  7 35  1  0  0  0
 10 36  1  0  0  0
 11 37  1  0  0  0
 13 38  1  0  0  0
 16 39  1  0  0  0
 18 40  1  0  0  0
 21 41  1  0  0  0
 21 42  1  0  0  0
 22 43  1  0  0  0
 24 44  1  0  0  0
 24 45  1  0  0  0
 24 46  1  0  0  0
 27 47  1  0  0  0
 28 48  1  0  0  0
M  END
$$$$
