### 
### Created by X-TOOL on Mon Sep 10 21:12:50 2018
### 

@<TRIPOS>MOLECULE
1pyw_ligand
  148   148     1     0     0
SMALL
GAST_HUCK


@<TRIPOS>ATOM
      1 C         -25.1730   61.6680   17.3530 C.2       1 ACE         0.1752
      2 O         -25.6460   60.6640   17.8910 O.2       1 ACE        -0.3972
      3 CH3       -24.1350   62.5130   18.1030 C.3       1 ACE         0.0258
      4 N         -25.5740   62.0880   16.1540 N.am      1 PHE        -0.2640
      5 CA        -26.5550   61.3010   15.4180 C.3       1 PHE         0.1404
      6 C         -26.0320   59.9010   15.1300 C.2       1 PHE         0.2060
      7 O         -24.8410   59.7060   14.9640 O.2       1 PHE        -0.3942
      8 CB        -26.8790   61.9740   14.0830 C.3       1 PHE         0.0214
      9 CG        -27.6030   63.2800   14.2110 C.ar      1 PHE        -0.0386
     10 CD1       -28.9280   63.3190   14.6340 C.ar      1 PHE        -0.0601
     11 CD2       -26.9680   64.4740   13.8760 C.ar      1 PHE        -0.0601
     12 CE1       -29.6170   64.5360   14.7220 C.ar      1 PHE        -0.0686
     13 CE2       -27.6450   65.6950   13.9580 C.ar      1 PHE        -0.0686
     14 CZ        -28.9730   65.7240   14.3820 C.ar      1 PHE        -0.0687
     15 N         -26.9400   58.9350   15.0650 N.am      1 VAL        -0.2633
     16 CA        -26.5800   57.5610   14.7630 C.3       1 VAL         0.1333
     17 C         -27.4520   57.0960   13.6050 C.2       1 VAL         0.2041
     18 O         -28.5970   57.5280   13.4630 O.2       1 VAL        -0.3944
     19 CB        -26.8130   56.6180   15.9810 C.3       1 VAL        -0.0063
     20 CG1       -25.9590   57.0630   17.1570 C.3       1 VAL        -0.0584
     21 CG2       -28.2830   56.6180   16.3670 C.3       1 VAL        -0.0584
     22 N         -26.9170   56.2110   12.7780 N.am      1 LYS        -0.2637
     23 CA        -27.6630   55.7090   11.6380 C.3       1 LYS         0.1310
     24 C         -28.2480   54.3290   11.8870 C.2       1 LYS         0.2039
     25 O         -27.8530   53.6250   12.8140 O.2       1 LYS        -0.3944
     26 CB        -26.7530   55.5990   10.4130 C.3       1 LYS        -0.0122
     27 CG        -25.6450   54.5370   10.5390 C.3       1 LYS        -0.0440
     28 CD        -25.1530   54.1020    9.1590 C.3       1 LYS        -0.0124
     29 CE        -23.7230   53.5660    9.1590 C.3       1 LYS        -0.0354
     30 NZ        -23.4220   52.4890   10.1330 N.4       1 LYS         0.2185
     31 N         -29.2060   53.9610   11.0440 N.am      1 GLN        -0.2636
     32 CA        -29.7790   52.6270   11.0780 C.3       1 GLN         0.1330
     33 C         -28.9110   51.9170   10.0360 C.2       1 GLN         0.2042
     34 O         -28.6380   52.4810    8.9700 O.2       1 GLN        -0.3944
     35 CB        -31.2380   52.6420   10.6160 C.3       1 GLN         0.0045
     36 CG        -32.2720   52.7650   11.7450 C.3       1 GLN         0.0412
     37 CD        -32.2560   51.5640   12.6880 C.2       1 GLN         0.1737
     38 OE1       -31.4180   51.4740   13.5770 O.2       1 GLN        -0.3973
     39 NE2       -33.1780   50.6320   12.4790 N.am      1 GLN        -0.3009
     40 N         -28.4490   50.7100   10.3470 N.am      1 ASN        -0.2616
     41 CA        -27.6220   49.9580    9.4120 C.3       1 ASN         0.1476
     42 C         -28.5120   49.4050    8.3000 C.2       1 ASN         0.2062
     43 O         -29.6590   49.0200    8.5400 O.2       1 ASN        -0.3942
     44 CB        -26.8970   48.8030   10.1290 C.3       1 ASN         0.0773
     45 CG        -25.8510   49.2950   11.1370 C.2       1 ASN         0.1780
     46 OD1       -25.3140   50.3930   11.0010 O.2       1 ASN        -0.3970
     47 ND2       -25.5540   48.4760   12.1410 N.am      1 ASN        -0.3007
     48 N         -27.9890   49.3770    7.0800 N.am      1 ALA        -0.2639
     49 CA        -28.7530   48.8680    5.9460 C.3       1 ALA         0.1284
     50 C         -28.8570   47.3370    6.0060 C.2       1 ALA         0.2059
     51 O         -27.8500   46.6620    6.2250 O.2       1 ALA        -0.3942
     52 CB        -28.0870   49.2960    4.6290 C.3       1 ALA        -0.0244
     53 N         -30.0520   46.7740    5.8160 N.am      1 MAA        -0.2532
     54 CM        -31.1330   47.5320    5.4900 C.3       1 MAA         0.0254
     55 CA        -30.1570   45.3120    5.8480 C.3       1 MAA         0.1306
     56 CB        -31.5480   44.8610    6.3140 C.3       1 MAA        -0.0242
     57 C         -29.8580   44.7360    4.4650 C.2       1 MAA         0.2038
     58 O         -30.3810   45.2140    3.4560 O.2       1 MAA        -0.3944
     59 N         -29.0080   43.7190    4.4270 N.am      1 ALA        -0.2640
     60 CA        -28.6380   43.0700    3.1770 C.3       1 ALA         0.1282
     61 C         -29.7520   42.1270    2.7230 C.2       1 ALA         0.2031
     62 O         -30.3540   41.4380    3.5490 O.2       1 ALA        -0.3944
     63 CB        -27.3330   42.2860    3.3600 C.3       1 ALA        -0.0244
     64 N         -30.0150   42.1180    1.4140 N.am      1 LEU        -0.2695
     65 CA        -31.0360   41.2670    0.7950 C.3       1 LEU         0.0946
     66 C         -30.4240   39.9150    0.4740 C.2       1 LEU         0.0601
     67 O         -29.1810   39.8000    0.5550 O.co2     1 LEU        -0.5666
     68 CB        -31.5190   41.8560   -0.5320 C.3       1 LEU        -0.0156
     69 CG        -32.2400   43.1910   -0.6460 C.3       1 LEU        -0.0431
     70 CD1       -32.1910   43.6230   -2.0940 C.3       1 LEU        -0.0625
     71 CD2       -33.6730   43.0710   -0.1710 C.3       1 LEU        -0.0625
     72 H1        -23.8286   63.3613   17.4733 H         1 ACE         0.0467
     73 H2        -23.2566   61.8931   18.3358 H         1 ACE         0.0467
     74 H3        -24.5756   62.8905   19.0375 H         1 ACE         0.0467
     75 H4        -25.2066   62.9324   15.7641 H         1 PHE         0.1884
     76 H5        -27.4724   61.2266   16.0204 H         1 PHE         0.0823
     77 H6        -27.5066   61.2884   13.4948 H         1 PHE         0.0474
     78 H7        -25.9340   62.1547   13.5499 H         1 PHE         0.0474
     79 H8        -29.4332   62.3971   14.8986 H         1 PHE         0.0557
     80 H9        -25.9352   64.4564   13.5473 H         1 PHE         0.0557
     81 H10       -30.6488   64.5532   15.0539 H         1 PHE         0.0599
     82 H11       -27.1388   66.6161   13.6927 H         1 PHE         0.0599
     83 H12       -29.5027   66.6676   14.4469 H         1 PHE         0.0559
     84 H13       -27.9005   59.1601   15.2289 H         1 VAL         0.1883
     85 H14       -25.5196   57.5185   14.4736 H         1 VAL         0.0802
     86 H15       -26.5213   55.5956   15.6988 H         1 VAL         0.0343
     87 H16       -26.1314   56.3908   18.0104 H         1 VAL         0.0234
     88 H17       -26.2306   58.0909   17.4392 H         1 VAL         0.0234
     89 H18       -24.8970   57.0293   16.8725 H         1 VAL         0.0234
     90 H19       -28.8878   56.2943   15.5071 H         1 VAL         0.0234
     91 H20       -28.5838   57.6331   16.6654 H         1 VAL         0.0234
     92 H21       -28.4414   55.9266   17.2077 H         1 VAL         0.0234
     93 H22       -25.9862   55.8838   12.9409 H         1 LYS         0.1883
     94 H23       -28.4819   56.4114   11.4234 H         1 LYS         0.0800
     95 H24       -26.2759   56.5766   10.2495 H         1 LYS         0.0312
     96 H25       -27.3761   55.3449    9.5428 H         1 LYS         0.0312
     97 H26       -26.0432   53.6614   11.0727 H         1 LYS         0.0269
     98 H27       -24.8024   54.9599   11.1057 H         1 LYS         0.0269
     99 H28       -25.1988   54.9696    8.4844 H         1 LYS         0.0317
    100 H29       -25.8204   53.3114    8.7855 H         1 LYS         0.0317
    101 H30       -23.0497   54.4090    9.3737 H         1 LYS         0.0813
    102 H31       -23.5121   53.1754    8.1526 H         1 LYS         0.0813
    103 H32       -22.4560   52.2155   10.0435 H         1 LYS         0.1994
    104 H33       -24.0145   51.6945    9.9492 H         1 LYS         0.1994
    105 H34       -23.5908   52.8249   11.0682 H         1 LYS         0.1994
    106 H35       -29.5410   54.6186   10.3693 H         1 GLN         0.1883
    107 H36       -29.6985   52.1669   12.0739 H         1 GLN         0.0801
    108 H37       -31.4343   51.7056   10.0733 H         1 GLN         0.0337
    109 H38       -31.3722   53.4955    9.9352 H         1 GLN         0.0337
    110 H39       -33.2736   52.8489   11.2981 H         1 GLN         0.0504
    111 H40       -32.0527   53.6726   12.3265 H         1 GLN         0.0504
    112 H41       -33.2140   49.8237   13.0666 H         1 GLN         0.1814
    113 H42       -33.8365   50.7383   11.7340 H         1 GLN         0.1814
    114 H43       -28.6725   50.3117   11.2366 H         1 ASN         0.1885
    115 H44       -26.8709   50.6318    8.9740 H         1 ASN         0.0826
    116 H45       -26.3930   48.1815    9.3742 H         1 ASN         0.0551
    117 H46       -27.6433   48.1973   10.6639 H         1 ASN         0.0551
    118 H47       -24.8783   48.7490   12.8258 H         1 ASN         0.1814
    119 H48       -26.0063   47.5869   12.2115 H         1 ASN         0.1814
    120 H49       -27.0571   49.7099    6.9361 H         1 ALA         0.1883
    121 H50       -29.7671   49.2923    5.9854 H         1 ALA         0.0797
    122 H51       -28.6696   48.9080    3.7805 H         1 ALA         0.0277
    123 H52       -27.0646   48.8923    4.5869 H         1 ALA         0.0277
    124 H53       -28.0500   50.3941    4.5767 H         1 ALA         0.0277
    125 H54       -30.8572   48.5964    5.5210 H         1 MAA         0.0488
    126 H55       -31.9440   47.3423    6.2085 H         1 MAA         0.0488
    127 H56       -31.4721   47.2705    4.4768 H         1 MAA         0.0488
    128 H57       -29.4111   44.9262    6.5585 H         1 MAA         0.0799
    129 H58       -31.5920   43.7620    6.3263 H         1 MAA         0.0277
    130 H59       -32.3103   45.2507    5.6234 H         1 MAA         0.0277
    131 H60       -31.7386   45.2469    7.3263 H         1 MAA         0.0277
    132 H61       -28.6092   43.3878    5.2822 H         1 ALA         0.1883
    133 H62       -28.4869   43.8404    2.4066 H         1 ALA         0.0797
    134 H63       -27.0615   41.7995    2.4115 H         1 ALA         0.0277
    135 H64       -27.4709   41.5209    4.1382 H         1 ALA         0.0277
    136 H65       -26.5304   42.9751    3.6615 H         1 ALA         0.0277
    137 H66       -29.4857   42.7261    0.8223 H         1 LEU         0.1875
    138 H67       -31.8846   41.1503    1.4851 H         1 LEU         0.0726
    139 O1        -31.1459   38.9390    0.1365 O.co2     1 LEU        -0.5666
    140 H68       -32.2016   41.1082   -0.9619 H         1 LEU         0.0308
    141 H69       -30.6241   41.9428   -1.1657 H         1 LEU         0.0308
    142 H70       -31.7232   43.9378   -0.0254 H         1 LEU         0.0297
    143 H71       -32.7064   44.5883   -2.2063 H         1 LEU         0.0232
    144 H72       -32.6884   42.8669   -2.7193 H         1 LEU         0.0232
    145 H73       -31.1426   43.7282   -2.4100 H         1 LEU         0.0232
    146 H74       -33.6848   42.7562    0.8829 H         1 LEU         0.0232
    147 H75       -34.2007   42.3244   -0.7826 H         1 LEU         0.0232
    148 H76       -34.1744   44.0452   -0.2682 H         1 LEU         0.0232
@<TRIPOS>BOND
     1    1    2 2  
     2    1    3 1  
     3    1    4 am 
     4    4    5 1  
     5    5    6 1  
     6    5    8 1  
     7    6    7 2  
     8    6   15 am 
     9    8    9 1  
    10    9   10 ar 
    11    9   11 ar 
    12   10   12 ar 
    13   11   13 ar 
    14   12   14 ar 
    15   13   14 ar 
    16   15   16 1  
    17   16   17 1  
    18   16   19 1  
    19   17   18 2  
    20   17   22 am 
    21   19   20 1  
    22   19   21 1  
    23   22   23 1  
    24   23   24 1  
    25   23   26 1  
    26   24   25 2  
    27   24   31 am 
    28   26   27 1  
    29   27   28 1  
    30   28   29 1  
    31   29   30 1  
    32   31   32 1  
    33   32   33 1  
    34   32   35 1  
    35   33   34 2  
    36   33   40 am 
    37   35   36 1  
    38   36   37 1  
    39   37   38 2  
    40   37   39 am 
    41   40   41 1  
    42   41   42 1  
    43   41   44 1  
    44   42   43 2  
    45   42   48 am 
    46   44   45 1  
    47   45   46 2  
    48   45   47 am 
    49   48   49 1  
    50   49   50 1  
    51   49   52 1  
    52   50   51 2  
    53   50   53 am 
    54   53   54 1  
    55   53   55 1  
    56   55   56 1  
    57   55   57 1  
    58   57   58 2  
    59   57   59 am 
    60   59   60 1  
    61   60   61 1  
    62   60   63 1  
    63   61   62 2  
    64   61   64 am 
    65   64   65 1  
    66   65   66 1  
    67   65   68 1  
    68   66   67 ar 
    69   68   69 1  
    70   69   70 1  
    71   69   71 1  
    72    3   72 1  
    73    3   73 1  
    74    3   74 1  
    75    4   75 1  
    76    5   76 1  
    77    8   77 1  
    78    8   78 1  
    79   10   79 1  
    80   11   80 1  
    81   12   81 1  
    82   13   82 1  
    83   14   83 1  
    84   15   84 1  
    85   16   85 1  
    86   19   86 1  
    87   20   87 1  
    88   20   88 1  
    89   20   89 1  
    90   21   90 1  
    91   21   91 1  
    92   21   92 1  
    93   22   93 1  
    94   23   94 1  
    95   26   95 1  
    96   26   96 1  
    97   27   97 1  
    98   27   98 1  
    99   28   99 1  
   100   28  100 1  
   101   29  101 1  
   102   29  102 1  
   103   30  103 1  
   104   30  104 1  
   105   30  105 1  
   106   31  106 1  
   107   32  107 1  
   108   35  108 1  
   109   35  109 1  
   110   36  110 1  
   111   36  111 1  
   112   39  112 1  
   113   39  113 1  
   114   40  114 1  
   115   41  115 1  
   116   44  116 1  
   117   44  117 1  
   118   47  118 1  
   119   47  119 1  
   120   48  120 1  
   121   49  121 1  
   122   52  122 1  
   123   52  123 1  
   124   52  124 1  
   125   54  125 1  
   126   54  126 1  
   127   54  127 1  
   128   55  128 1  
   129   56  129 1  
   130   56  130 1  
   131   56  131 1  
   132   59  132 1  
   133   60  133 1  
   134   63  134 1  
   135   63  135 1  
   136   63  136 1  
   137   64  137 1  
   138   65  138 1  
   139   66  139 ar 
   140   68  140 1  
   141   68  141 1  
   142   69  142 1  
   143   70  143 1  
   144   70  144 1  
   145   70  145 1  
   146   71  146 1  
   147   71  147 1  
   148   71  148 1  
@<TRIPOS>SUBSTRUCTURE
     1 ACE         1

