1pyw_ligand
  -I-interpret- 

149149  0  0  0  0  0  0  0  0999 V2000
  -25.1730   61.6680   17.3530 C   0  0  0  0  0
  -25.6460   60.6640   17.8910 O   0  0  0  0  0
  -24.1350   62.5130   18.1030 C   0  0  0  0  0
  -25.5740   62.0880   16.1540 N   0  0  0  0  0
  -26.5550   61.3010   15.4180 C   0  0  0  0  0
  -26.0320   59.9010   15.1300 C   0  0  0  0  0
  -24.8410   59.7060   14.9640 O   0  0  0  0  0
  -26.8790   61.9740   14.0830 C   0  0  0  0  0
  -27.6030   63.2800   14.2110 C   0  0  0  0  0
  -28.9280   63.3190   14.6340 C   0  0  0  0  0
  -26.9680   64.4740   13.8760 C   0  0  0  0  0
  -29.6170   64.5360   14.7220 C   0  0  0  0  0
  -27.6450   65.6950   13.9580 C   0  0  0  0  0
  -28.9730   65.7240   14.3820 C   0  0  0  0  0
  -26.9400   58.9350   15.0650 N   0  0  0  0  0
  -26.5800   57.5610   14.7630 C   0  0  0  0  0
  -27.4520   57.0960   13.6050 C   0  0  0  0  0
  -28.5970   57.5280   13.4630 O   0  0  0  0  0
  -26.8130   56.6180   15.9810 C   0  0  0  0  0
  -25.9590   57.0630   17.1570 C   0  0  0  0  0
  -28.2830   56.6180   16.3670 C   0  0  0  0  0
  -26.9170   56.2110   12.7780 N   0  0  0  0  0
  -27.6630   55.7090   11.6380 C   0  0  0  0  0
  -28.2480   54.3290   11.8870 C   0  0  0  0  0
  -27.8530   53.6250   12.8140 O   0  0  0  0  0
  -26.7530   55.5990   10.4130 C   0  0  0  0  0
  -25.6450   54.5370   10.5390 C   0  0  0  0  0
  -25.1530   54.1020    9.1590 C   0  0  0  0  0
  -23.7230   53.5660    9.1590 C   0  0  0  0  0
  -23.4220   52.4890   10.1330 N   0  3  0  0  0
  -29.2060   53.9610   11.0440 N   0  0  0  0  0
  -29.7790   52.6270   11.0780 C   0  0  0  0  0
  -28.9110   51.9170   10.0360 C   0  0  0  0  0
  -28.6380   52.4810    8.9700 O   0  0  0  0  0
  -31.2380   52.6420   10.6160 C   0  0  0  0  0
  -32.2720   52.7650   11.7450 C   0  0  0  0  0
  -32.2560   51.5640   12.6880 C   0  0  0  0  0
  -31.4180   51.4740   13.5770 O   0  0  0  0  0
  -33.1780   50.6320   12.4790 N   0  0  0  0  0
  -28.4490   50.7100   10.3470 N   0  0  0  0  0
  -27.6220   49.9580    9.4120 C   0  0  0  0  0
  -28.5120   49.4050    8.3000 C   0  0  0  0  0
  -29.6590   49.0200    8.5400 O   0  0  0  0  0
  -26.8970   48.8030   10.1290 C   0  0  0  0  0
  -25.8510   49.2950   11.1370 C   0  0  0  0  0
  -25.3140   50.3930   11.0010 O   0  0  0  0  0
  -25.5540   48.4760   12.1410 N   0  0  0  0  0
  -27.9890   49.3770    7.0800 N   0  0  0  0  0
  -28.7530   48.8680    5.9460 C   0  0  0  0  0
  -28.8570   47.3370    6.0060 C   0  0  0  0  0
  -27.8500   46.6620    6.2250 O   0  0  0  0  0
  -28.0870   49.2960    4.6290 C   0  0  0  0  0
  -30.0520   46.7740    5.8160 N   0  0  0  0  0
  -31.1330   47.5320    5.4900 C   0  0  0  0  0
  -30.1570   45.3120    5.8480 C   0  0  0  0  0
  -31.5480   44.8610    6.3140 C   0  0  0  0  0
  -29.8580   44.7360    4.4650 C   0  0  0  0  0
  -30.3810   45.2140    3.4560 O   0  0  0  0  0
  -29.0080   43.7190    4.4270 N   0  0  0  0  0
  -28.6380   43.0700    3.1770 C   0  0  0  0  0
  -29.7520   42.1270    2.7230 C   0  0  0  0  0
  -30.3540   41.4380    3.5490 O   0  0  0  0  0
  -27.3330   42.2860    3.3600 C   0  0  0  0  0
  -30.0150   42.1180    1.4140 N   0  0  0  0  0
  -31.0360   41.2670    0.7950 C   0  0  0  0  0
  -30.4240   39.9150    0.4740 C   0  0  0  0  0
  -29.1810   39.8000    0.5550 O   0  0  0  0  0
  -31.5190   41.8560   -0.5320 C   0  0  0  0  0
  -32.2400   43.1910   -0.6460 C   0  0  0  0  0
  -32.1910   43.6230   -2.0940 C   0  0  0  0  0
  -33.6730   43.0710   -0.1710 C   0  0  0  0  0
  -31.1459   38.9390    0.1365 O   0  0  0  0  0
  -24.5727   62.8864   19.0288 H   0  0  0  0  0
  -23.2652   61.8977   18.3332 H   0  0  0  0  0
  -23.8322   63.3531   17.4780 H   0  0  0  0  0
  -25.1992   62.9493   15.7563 H   0  0  0  0  0
  -27.4498   61.2341   16.0369 H   0  0  0  0  0
  -27.5327   61.2973   13.5328 H   0  0  0  0  0
  -25.9296   62.1805   13.5889 H   0  0  0  0  0
  -29.4360   62.3920   14.9000 H   0  0  0  0  0
  -25.9295   64.4563   13.5455 H   0  0  0  0  0
  -30.6545   64.5533   15.0557 H   0  0  0  0  0
  -27.1360   66.6212   13.6912 H   0  0  0  0  0
  -29.5056   66.6728   14.4473 H   0  0  0  0  0
  -27.9197   59.1646   15.2321 H   0  0  0  0  0
  -25.5198   57.5223   14.5126 H   0  0  0  0  0
  -26.5242   55.6042   15.7035 H   0  0  0  0  0
  -24.9070   57.0292   16.8738 H   0  0  0  0  0
  -26.2291   58.0816   17.4356 H   0  0  0  0  0
  -26.1307   56.3962   18.0020 H   0  0  0  0  0
  -28.5873   57.6301   16.6338 H   0  0  0  0  0
  -28.8787   56.2685   15.5238 H   0  0  0  0  0
  -28.4335   55.9554   17.2193 H   0  0  0  0  0
  -25.9676   55.8773   12.9441 H   0  0  0  0  0
  -28.4730   56.4192   11.4719 H   0  0  0  0  0
  -26.2600   56.5636   10.2923 H   0  0  0  0  0
  -27.3819   55.3077    9.5717 H   0  0  0  0  0
  -26.0478   53.6680   11.0592 H   0  0  0  0  0
  -24.8088   54.9646   11.0922 H   0  0  0  0  0
  -25.1722   54.9804    8.5139 H   0  0  0  0  0
  -25.8036   53.2959    8.8198 H   0  0  0  0  0
  -23.0848   54.4068    9.4309 H   0  0  0  0  0
  -23.5618   53.1343    8.1712 H   0  0  0  0  0
  -22.4443   52.2130   10.0416 H   0  0  0  0  0
  -23.5932   52.8301   11.0789 H   0  0  0  0  0
  -24.0222   51.6857    9.9461 H   0  0  0  0  0
  -29.5477   54.6318   10.3558 H   0  0  0  0  0
  -29.7872   52.1700   12.0676 H   0  0  0  0  0
  -31.4224   51.6883   10.1215 H   0  0  0  0  0
  -31.3589   53.5191    9.9802 H   0  0  0  0  0
  -33.2609   52.8215   11.2900 H   0  0  0  0  0
  -32.0284   53.6531   12.3282 H   0  0  0  0  0
  -33.2068   49.8014   13.0704 H   0  0  0  0  0
  -33.8576   50.7465   11.7271 H   0  0  0  0  0
  -28.6769   50.3038   11.2544 H   0  0  0  0  0
  -26.8662   50.6205    8.9902 H   0  0  0  0  0
  -26.3806   48.2116    9.3729 H   0  0  0  0  0
  -27.6439   48.2276   10.6760 H   0  0  0  0  0
  -24.8578   48.7504   12.8341 H   0  0  0  0  0
  -26.0223   47.5731   12.2183 H   0  0  0  0  0
  -27.0384   49.7166    6.9332 H   0  0  0  0  0
  -29.7587   49.2859    5.9921 H   0  0  0  0  0
  -28.0510   50.3842    4.5784 H   0  0  0  0  0
  -27.0741   48.8954    4.5886 H   0  0  0  0  0
  -28.6652   48.9109    3.7890 H   0  0  0  0  0
  -31.3151   48.2614    6.2793 H   0  0  0  0  0
  -30.9412   48.0512    4.5510 H   0  0  0  0  0
  -32.0061   46.8889    5.3794 H   0  0  0  0  0
  -29.4242   44.9378    6.5630 H   0  0  0  0  0
  -31.7356   45.2441    7.3171 H   0  0  0  0  0
  -32.3024   45.2478    5.6289 H   0  0  0  0  0
  -31.5904   43.7719    6.3258 H   0  0  0  0  0
  -28.6012   43.3812    5.2993 H   0  0  0  0  0
  -28.4903   43.8347    2.4144 H   0  0  0  0  0
  -26.5386   42.9699    3.6588 H   0  0  0  0  0
  -27.4710   41.5283    4.1313 H   0  0  0  0  0
  -27.0650   41.8044    2.4196 H   0  0  0  0  0
  -29.4751   42.7382    0.8105 H   0  0  0  0  0
  -31.8693   41.1873    1.4931 H   0  0  0  0  0
  -32.2761   41.1414   -0.8549 H   0  0  0  0  0
  -30.5894   42.0338   -1.0728 H   0  0  0  0  0
  -31.7525   43.9344   -0.0153 H   0  0  0  0  0
  -31.1517   43.7268   -2.4059 H   0  0  0  0  0
  -32.6841   42.8730   -2.7125 H   0  0  0  0  0
  -32.7019   44.5795   -2.2039 H   0  0  0  0  0
  -34.1964   42.3352   -0.7815 H   0  0  0  0  0
  -33.6834   42.7534    0.8717 H   0  0  0  0  0
  -34.1669   44.0383   -0.2624 H   0  0  0  0  0
  -32.0665   39.2110    0.1286 H   0  0  0  0  0
  1  2  2  0  0  0
  1  3  1  0  0  0
  1  4  1  0  0  0
  4  5  1  0  0  0
  5  6  1  0  0  0
  5  8  1  0  0  0
  6  7  2  0  0  0
  6 15  1  0  0  0
  8  9  1  0  0  0
  9 10  4  0  0  0
  9 11  4  0  0  0
 10 12  4  0  0  0
 11 13  4  0  0  0
 12 14  4  0  0  0
 13 14  4  0  0  0
 15 16  1  0  0  0
 16 17  1  0  0  0
 16 19  1  0  0  0
 17 18  2  0  0  0
 17 22  1  0  0  0
 19 20  1  0  0  0
 19 21  1  0  0  0
 22 23  1  0  0  0
 23 24  1  0  0  0
 23 26  1  0  0  0
 24 25  2  0  0  0
 24 31  1  0  0  0
 26 27  1  0  0  0
 27 28  1  0  0  0
 28 29  1  0  0  0
 29 30  1  0  0  0
 31 32  1  0  0  0
 32 33  1  0  0  0
 32 35  1  0  0  0
 33 34  2  0  0  0
 33 40  1  0  0  0
 35 36  1  0  0  0
 36 37  1  0  0  0
 37 38  2  0  0  0
 37 39  1  0  0  0
 40 41  1  0  0  0
 41 42  1  0  0  0
 41 44  1  0  0  0
 42 43  2  0  0  0
 42 48  1  0  0  0
 44 45  1  0  0  0
 45 46  2  0  0  0
 45 47  1  0  0  0
 48 49  1  0  0  0
 49 50  1  0  0  0
 49 52  1  0  0  0
 50 51  2  0  0  0
 50 53  1  0  0  0
 53 54  1  0  0  0
 53 55  1  0  0  0
 55 56  1  0  0  0
 55 57  1  0  0  0
 57 58  2  0  0  0
 57 59  1  0  0  0
 59 60  1  0  0  0
 60 61  1  0  0  0
 60 63  1  0  0  0
 61 62  2  0  0  0
 61 64  1  0  0  0
 64 65  1  0  0  0
 65 66  1  0  0  0
 65 68  1  0  0  0
 66 67  2  0  0  0
 68 69  1  0  0  0
 69 70  1  0  0  0
 69 71  1  0  0  0
 66 72  1  0  0  0
  3 73  1  0  0  0
  3 74  1  0  0  0
  3 75  1  0  0  0
  4 76  1  0  0  0
  5 77  1  0  0  0
  8 78  1  0  0  0
  8 79  1  0  0  0
 10 80  1  0  0  0
 11 81  1  0  0  0
 12 82  1  0  0  0
 13 83  1  0  0  0
 14 84  1  0  0  0
 15 85  1  0  0  0
 16 86  1  0  0  0
 19 87  1  0  0  0
 20 88  1  0  0  0
 20 89  1  0  0  0
 20 90  1  0  0  0
 21 91  1  0  0  0
 21 92  1  0  0  0
 21 93  1  0  0  0
 22 94  1  0  0  0
 23 95  1  0  0  0
 26 96  1  0  0  0
 26 97  1  0  0  0
 27 98  1  0  0  0
 27 99  1  0  0  0
 28100  1  0  0  0
 28101  1  0  0  0
 29102  1  0  0  0
 29103  1  0  0  0
 30104  1  0  0  0
 30105  1  0  0  0
 30106  1  0  0  0
 31107  1  0  0  0
 32108  1  0  0  0
 35109  1  0  0  0
 35110  1  0  0  0
 36111  1  0  0  0
 36112  1  0  0  0
 39113  1  0  0  0
 39114  1  0  0  0
 40115  1  0  0  0
 41116  1  0  0  0
 44117  1  0  0  0
 44118  1  0  0  0
 47119  1  0  0  0
 47120  1  0  0  0
 48121  1  0  0  0
 49122  1  0  0  0
 52123  1  0  0  0
 52124  1  0  0  0
 52125  1  0  0  0
 54126  1  0  0  0
 54127  1  0  0  0
 54128  1  0  0  0
 55129  1  0  0  0
 56130  1  0  0  0
 56131  1  0  0  0
 56132  1  0  0  0
 59133  1  0  0  0
 60134  1  0  0  0
 63135  1  0  0  0
 63136  1  0  0  0
 63137  1  0  0  0
 64138  1  0  0  0
 65139  1  0  0  0
 68140  1  0  0  0
 68141  1  0  0  0
 69142  1  0  0  0
 70143  1  0  0  0
 70144  1  0  0  0
 70145  1  0  0  0
 71146  1  0  0  0
 71147  1  0  0  0
 71148  1  0  0  0
 72149  1  0  0  0
M  END
$$$$
