3ijg_ligand
  -I-interpret- 

 35 36  0  0  0  0  0  0  0  0999 V2000
   14.0140   43.3950   15.5940 C   0  0  0  0  0
   11.9950   43.5600   14.2750 N   0  3  0  0  0
   14.7820   43.8590   14.7510 O   0  0  0  0  0
   14.6900   40.4830   17.7380 N   0  0  0  0  0
   13.9780   41.0640   16.7700 C   0  0  0  0  0
   14.4940   42.3390   16.5900 C   0  0  0  0  0
   15.5260   42.4670   17.5080 C   0  0  0  0  0
   15.5670   41.2340   18.1750 N   0  0  0  0  0
   16.5260   41.0370   19.1760 C   0  0  0  0  0
   17.4070   42.0630   19.4980 C   0  0  0  0  0
   17.3500   43.2830   18.8350 C   0  0  0  0  0
   16.4100   43.4910   17.8320 C   0  0  0  0  0
   12.5450   43.8140   15.6160 C   0  0  0  0  0
   12.5090   45.3070   15.9470 C   0  0  0  0  0
   12.7830   40.4720   16.0130 C   0  0  0  0  0
   11.5050   40.6430   16.8400 C   0  0  0  0  0
   13.0140   38.9930   15.6950 C   0  0  0  0  0
   12.0300   42.5598   14.0783 H   0  0  0  0  0
   11.0275   43.8811   14.2392 H   0  0  0  0  0
   12.5476   44.0637   13.5812 H   0  0  0  0  0
   16.5815   40.0832   19.7006 H   0  0  0  0  0
   18.1510   41.9088   20.2795 H   0  0  0  0  0
   18.0445   44.0794   19.1022 H   0  0  0  0  0
   16.3663   44.4447   17.3060 H   0  0  0  0  0
   11.9590   43.2644   16.3527 H   0  0  0  0  0
   13.1024   45.8546   15.2148 H   0  0  0  0  0
   11.4780   45.6595   15.9179 H   0  0  0  0  0
   12.9211   45.4670   16.9433 H   0  0  0  0  0
   12.6734   41.0074   15.0699 H   0  0  0  0  0
   10.6543   40.2622   16.2748 H   0  0  0  0  0
   11.6006   40.0879   17.7732 H   0  0  0  0  0
   11.3539   41.7001   17.0585 H   0  0  0  0  0
   13.1133   38.4338   16.6254 H   0  0  0  0  0
   12.1670   38.6082   15.1270 H   0  0  0  0  0
   13.9256   38.8872   15.1070 H   0  0  0  0  0
  1  3  2  0  0  0
  6  1  1  0  0  0
  1 13  1  0  0  0
 13  2  1  0  0  0
  5  4  4  0  0  0
  4  8  4  0  0  0
  5  6  4  0  0  0
  5 15  1  0  0  0
  6  7  4  0  0  0
  7  8  4  0  0  0
  7 12  4  0  0  0
  8  9  4  0  0  0
  9 10  4  0  0  0
 10 11  4  0  0  0
 11 12  4  0  0  0
 13 14  1  0  0  0
 15 16  1  0  0  0
 15 17  1  0  0  0
  2 18  1  0  0  0
  2 19  1  0  0  0
  2 20  1  0  0  0
  9 21  1  0  0  0
 10 22  1  0  0  0
 11 23  1  0  0  0
 12 24  1  0  0  0
 13 25  1  0  0  0
 14 26  1  0  0  0
 14 27  1  0  0  0
 14 28  1  0  0  0
 15 29  1  0  0  0
 16 30  1  0  0  0
 16 31  1  0  0  0
 16 32  1  0  0  0
 17 33  1  0  0  0
 17 34  1  0  0  0
 17 35  1  0  0  0
M  END
$$$$
