5orw_ligand
  -I-interpret- 

 34 35  0  0  0  0  0  0  0  0999 V2000
  -12.0350   15.5280  -20.1940 C   0  0  0  0  0
  -11.1170   14.5230  -19.9480 C   0  0  0  0  0
  -11.7940   12.9300  -16.7270 C   0  0  0  0  0
  -13.1290   12.7980  -16.0350 C   0  0  0  0  0
  -11.8400   11.4800  -14.1210 C   0  0  0  0  0
  -10.5890   11.6850  -14.9450 C   0  0  0  0  0
   -9.3410   12.3730  -19.3280 C   0  0  0  0  0
  -10.4850   11.5210  -18.7610 C   0  0  0  0  0
  -10.2540   11.1210  -17.3370 C   0  0  0  0  0
  -10.2550   14.6250  -18.8780 C   0  0  0  0  0
  -10.3000   15.7240  -18.0490 C   0  0  0  0  0
  -11.2170   16.7340  -18.2880 C   0  0  0  0  0
   -9.4760   10.2050  -17.0450 O   0  0  0  0  0
  -10.8740   11.8340  -16.3760 N   0  0  0  0  0
  -12.9700   12.8710  -14.2490 S   0  0  0  0  0
   -9.3090   13.5910  -18.5690 O   0  0  0  0  0
  -12.0560   16.6040  -19.3570 C   0  0  0  0  0
  -12.9470   17.5880  -19.5960 F   0  0  0  0  0
  -12.7242   15.4614  -21.0358 H   0  0  0  0  0
  -11.0756   13.6507  -20.6003 H   0  0  0  0  0
  -11.3394   13.8687  -16.4104 H   0  0  0  0  0
  -11.9652   12.8974  -17.8030 H   0  0  0  0  0
  -13.5563   11.8309  -16.3000 H   0  0  0  0  0
  -13.7623   13.6254  -16.3551 H   0  0  0  0  0
  -11.5457   11.3763  -13.0766 H   0  0  0  0  0
  -12.3506   10.5920  -14.4937 H   0  0  0  0  0
   -9.9566   10.8062  -14.8188 H   0  0  0  0  0
  -10.1077   12.6008  -14.6018 H   0  0  0  0  0
   -9.5030   12.5817  -20.3855 H   0  0  0  0  0
   -8.3909   11.8445  -19.2495 H   0  0  0  0  0
  -10.5535   10.6115  -19.3579 H   0  0  0  0  0
  -11.3971   12.1167  -18.7983 H   0  0  0  0  0
   -9.6141   15.7988  -17.2051 H   0  0  0  0  0
  -11.2674   17.6091  -17.6401 H   0  0  0  0  0
  2  1  4  0  0  0
  1 17  4  0  0  0
 10  2  4  0  0  0
  3  4  1  0  0  0
 14  3  1  0  0  0
  4 15  1  0  0  0
  6  5  1  0  0  0
  5 15  1  0  0  0
 14  6  1  0  0  0
  7  8  1  0  0  0
 16  7  1  0  0  0
  8  9  1  0  0  0
  9 13  2  0  0  0
  9 14  1  0  0  0
 10 11  4  0  0  0
 10 16  1  0  0  0
 11 12  4  0  0  0
 12 17  4  0  0  0
 17 18  1  0  0  0
  1 19  1  0  0  0
  2 20  1  0  0  0
  3 21  1  0  0  0
  3 22  1  0  0  0
  4 23  1  0  0  0
  4 24  1  0  0  0
  5 25  1  0  0  0
  5 26  1  0  0  0
  6 27  1  0  0  0
  6 28  1  0  0  0
  7 29  1  0  0  0
  7 30  1  0  0  0
  8 31  1  0  0  0
  8 32  1  0  0  0
 11 33  1  0  0  0
 12 34  1  0  0  0
M  END
$$$$
