6p8z_ligand
  -I-interpret- 

 75 80  0  0  0  0  0  0  0  0999 V2000
   -1.7140  -14.4670   25.0340 C   0  0  0  0  0
   -0.3670  -15.1090   25.4040 C   0  0  0  0  0
    0.5350  -14.1670   26.2340 C   0  0  0  0  0
    1.2240  -13.3580   25.7150 O   0  0  0  0  0
    0.5310  -14.2820   27.6880 N   0  0  0  0  0
   -0.2030  -15.1540   28.6540 C   0  0  0  0  0
    0.4280  -14.4080   29.7760 C   0  0  0  0  0
    1.2290  -13.5890   28.8210 C   0  0  0  0  0
    1.2260  -15.3740   30.5430 N   0  0  0  0  0
    1.7520  -15.0240   31.8620 C   0  0  0  0  0
    1.5450  -13.9370   32.3090 O   0  0  0  0  0
    2.5820  -16.0820   32.6490 C   0  0  0  0  0
    3.0470  -15.4150   33.8750 N   0  0  0  0  0
    2.4130  -15.4750   35.0630 C   0  0  0  0  0
    1.1060  -16.2430   35.3990 C   0  0  0  0  0
   -0.1800  -15.5850   34.8720 C   0  0  0  0  0
   -0.1220  -16.0950   36.3110 C   0  0  0  0  0
    3.1530  -14.7030   35.9670 C   0  0  0  0  0
    2.8570  -14.4490   37.4870 C   0  0  0  0  0
    3.0450  -15.3160   38.2780 O   0  0  0  0  0
    2.3950  -13.1070   37.9160 N   0  0  0  0  0
    2.0820  -12.8090   39.3140 C   0  0  0  0  0
    0.5340  -12.7120   39.4310 C   0  0  0  0  0
   -0.0710  -11.9110   38.2290 C   0  0  0  0  0
   -1.4420  -11.4860   38.3390 C   0  0  0  0  0
   -2.1760  -11.8290   39.5080 O   0  0  0  0  0
   -3.2160  -10.9430   39.9070 C   0  0  0  0  0
   -2.0260  -10.7630   37.2860 C   0  0  0  0  0
   -1.2770  -10.4380   36.1410 C   0  0  0  0  0
    0.0620  -10.8440   36.0370 C   0  0  0  0  0
    0.6670  -11.5900   37.1060 C   0  0  0  0  0
    2.1340  -12.0300   36.9900 C   0  0  0  0  0
    4.2780  -14.1570   35.2490 C   0  0  0  0  0
    5.3500  -13.3110   35.6690 C   0  0  0  0  0
    6.3150  -12.9500   34.7110 C   0  0  0  0  0
    7.6440  -11.8800   35.1910 Cl  0  0  0  0  0
    6.2370  -13.4040   33.3800 C   0  0  0  0  0
    5.1830  -14.2380   32.9790 C   0  0  0  0  0
    5.1400  -14.7150   31.5120 C   0  0  0  0  0
    4.1860  -14.6190   33.9580 C   0  0  0  0  0
   -2.2525  -14.2049   25.9447 H   0  0  0  0  0
   -1.5366  -13.5679   24.4438 H   0  0  0  0  0
   -2.3046  -15.1745   24.4520 H   0  0  0  0  0
    0.1573  -15.3441   24.4778 H   0  0  0  0  0
   -0.5723  -15.9933   26.0074 H   0  0  0  0  0
   -0.1167  -16.2389   28.5944 H   0  0  0  0  0
   -1.2871  -15.2518   28.5963 H   0  0  0  0  0
   -0.1440  -13.8764   30.5365 H   0  0  0  0  0
    1.2331  -12.5011   28.8892 H   0  0  0  0  0
    2.3174  -13.5748   28.8779 H   0  0  0  0  0
    1.4149  -16.2970   30.1521 H   0  0  0  0  0
    3.4228  -16.4407   32.0553 H   0  0  0  0  0
    1.9773  -16.9577   32.8849 H   0  0  0  0  0
    1.7756  -17.1026   35.3700 H   0  0  0  0  0
   -0.8383  -15.6578   34.0063 H   0  0  0  0  0
   -0.4747  -14.6819   34.3375 H   0  0  0  0  0
   -0.3548  -15.7360   37.3135 H   0  0  0  0  0
   -0.7188  -16.7128   36.9820 H   0  0  0  0  0
    2.5485  -11.8725   39.6196 H   0  0  0  0  0
    2.4671  -13.5915   39.9678 H   0  0  0  0  0
    0.2853  -12.1936   40.3570 H   0  0  0  0  0
    0.1191  -13.7199   39.4236 H   0  0  0  0  0
   -2.7955   -9.9572   40.1056 H   0  0  0  0  0
   -3.9554  -10.8701   39.1094 H   0  0  0  0  0
   -3.6908  -11.3256   40.8105 H   0  0  0  0  0
   -3.0681  -10.4513   37.3568 H   0  0  0  0  0
   -1.7375   -9.8697   35.3329 H   0  0  0  0  0
    0.6415  -10.5944   35.1482 H   0  0  0  0  0
    2.3287  -12.3727   35.9738 H   0  0  0  0  0
    2.7834  -11.1867   37.2250 H   0  0  0  0  0
    5.4179  -12.9570   36.6977 H   0  0  0  0  0
    6.9984  -13.1062   32.6591 H   0  0  0  0  0
    5.0786  -13.8500   30.8517 H   0  0  0  0  0
    6.0445  -15.2808   31.2886 H   0  0  0  0  0
    4.2667  -15.3500   31.3632 H   0  0  0  0  0
  1  2  1  0  0  0
  2  3  1  0  0  0
  3  4  2  0  0  0
  3  5  1  0  0  0
  5  6  1  0  0  0
  5  8  1  0  0  0
  6  7  1  0  0  0
  7  8  1  0  0  0
  7  9  1  0  0  0
  9 10  1  0  0  0
 10 11  2  0  0  0
 10 12  1  0  0  0
 12 13  1  0  0  0
 13 14  4  0  0  0
 13 40  4  0  0  0
 14 15  1  0  0  0
 14 18  4  0  0  0
 15 16  1  0  0  0
 15 17  1  0  0  0
 16 17  1  0  0  0
 18 19  1  0  0  0
 18 33  4  0  0  0
 19 20  2  0  0  0
 19 21  1  0  0  0
 21 22  1  0  0  0
 21 32  1  0  0  0
 22 23  1  0  0  0
 23 24  1  0  0  0
 24 25  4  0  0  0
 24 31  4  0  0  0
 25 26  1  0  0  0
 25 28  4  0  0  0
 26 27  1  0  0  0
 28 29  4  0  0  0
 29 30  4  0  0  0
 30 31  4  0  0  0
 31 32  1  0  0  0
 33 34  4  0  0  0
 33 40  4  0  0  0
 34 35  4  0  0  0
 35 36  1  0  0  0
 35 37  4  0  0  0
 37 38  4  0  0  0
 38 39  1  0  0  0
 38 40  4  0  0  0
  1 41  1  0  0  0
  1 42  1  0  0  0
  1 43  1  0  0  0
  2 44  1  0  0  0
  2 45  1  0  0  0
  6 46  1  0  0  0
  6 47  1  0  0  0
  7 48  1  0  0  0
  8 49  1  0  0  0
  8 50  1  0  0  0
  9 51  1  0  0  0
 12 52  1  0  0  0
 12 53  1  0  0  0
 15 54  1  0  0  0
 16 55  1  0  0  0
 16 56  1  0  0  0
 17 57  1  0  0  0
 17 58  1  0  0  0
 22 59  1  0  0  0
 22 60  1  0  0  0
 23 61  1  0  0  0
 23 62  1  0  0  0
 27 63  1  0  0  0
 27 64  1  0  0  0
 27 65  1  0  0  0
 28 66  1  0  0  0
 29 67  1  0  0  0
 30 68  1  0  0  0
 32 69  1  0  0  0
 32 70  1  0  0  0
 34 71  1  0  0  0
 37 72  1  0  0  0
 39 73  1  0  0  0
 39 74  1  0  0  0
 39 75  1  0  0  0
M  END
$$$$
