6abx_ligand
  -I-interpret- 

 21 20  0  0  0  0  0  0  0  0999 V2000
   -7.8850    5.5680   -7.1530 C   0  0  0  0  0
   -6.6230    6.2150   -6.6720 C   0  0  0  0  0
   -6.1640    6.3710   -5.2460 C   0  0  0  0  0
   -5.8660    7.7030   -4.5610 C   0  0  0  0  0
   -5.3870    5.4510   -4.5780 C   0  0  0  0  0
   -5.7590    4.0840   -4.9610 C   0  0  0  0  0
   -8.1030    5.9940   -8.3450 O   0  0  0  0  0
   -8.5400    4.6300   -6.5240 O   0  0  0  0  0
   -5.5570    8.7050   -5.2540 O   0  0  0  0  0
   -5.7970    7.8060   -3.3020 O   0  0  0  0  0
   -5.5940    3.5120   -6.0370 O   0  0  0  0  0
   -6.1370    3.5720   -3.9860 O   0  0  0  0  0
   -7.4110    6.0790   -4.5090 O   0  0  0  0  0
   -6.7910    7.2532   -6.9585 H   0  0  0  0  0
   -5.8686    5.5349   -7.0674 H   0  0  0  0  0
   -5.5412    5.5713   -3.5057 H   0  0  0  0  0
   -4.3415    5.6178   -4.8371 H   0  0  0  0  0
   -8.1669    4.5136   -5.6471 H   0  0  0  0  0
   -6.0582    6.9746   -2.8993 H   0  0  0  0  0
   -5.2776    4.1425   -6.6881 H   0  0  0  0  0
   -8.1152    6.6425   -4.8379 H   0  0  0  0  0
  1  2  1  0  0  0
  1  7  2  0  0  0
  1  8  1  0  0  0
  2  3  1  0  0  0
  3  4  1  0  0  0
  3  5  1  0  0  0
  3 13  1  0  0  0
  4  9  2  0  0  0
  4 10  1  0  0  0
  5  6  1  0  0  0
  6 11  1  0  0  0
  6 12  2  0  0  0
  2 14  1  0  0  0
  2 15  1  0  0  0
  5 16  1  0  0  0
  5 17  1  0  0  0
  8 18  1  0  0  0
 10 19  1  0  0  0
 11 20  1  0  0  0
 13 21  1  0  0  0
M  END
$$$$
