6fgg_ligand
  -I-interpret- 

 49 51  0  0  0  0  0  0  0  0999 V2000
  -30.2250   -2.9190  -14.7410 C   0  0  0  0  0
  -28.5420   -2.7340  -13.0950 C   0  0  0  0  0
  -28.9100   -4.8420  -14.1650 C   0  0  0  0  0
  -29.1310   -5.5930  -15.4760 C   0  0  0  0  0
  -29.7870   -8.0320  -15.0280 C   0  0  0  0  0
  -27.7010   -8.9840  -15.1100 C   0  0  0  0  0
  -27.5480   -7.6210  -15.3430 C   0  0  0  0  0
  -26.2680   -7.1070  -15.5740 C   0  0  0  0  0
  -25.1980   -7.9940  -15.5950 C   0  0  0  0  0
  -23.5480   -6.1890  -16.0830 C   0  0  0  0  0
  -22.1290   -5.8010  -15.9400 C   0  0  0  0  0
  -21.2390   -6.6400  -15.0620 C   0  0  0  0  0
  -18.9980   -6.9440  -14.0000 C   0  0  0  0  0
  -19.4210   -4.9240  -15.3880 C   0  0  0  0  0
  -20.3350   -4.0650  -16.2330 C   0  0  0  0  0
  -21.7060   -4.5170  -16.4900 C   0  0  0  0  0
  -25.3570   -9.3560  -15.3120 C   0  0  0  0  0
  -26.6180   -9.8680  -15.0870 C   0  0  0  0  0
  -28.9060   -3.3920  -14.3410 N   0  3  0  0  0
  -28.8450   -7.0010  -15.2970 N   0  0  0  0  0
  -23.8620   -7.5300  -15.7170 N   0  0  0  0  0
  -19.8910   -6.1880  -14.8320 N   0  0  0  0  0
  -30.9620   -7.9070  -14.9170 O   0  0  0  0  0
  -29.0920   -9.2500  -14.9130 O   0  0  0  0  0
  -24.3400   -5.3350  -16.3050 O   0  0  0  0  0
  -18.3320   -4.5640  -15.1210 O   0  0  0  0  0
  -30.5076   -3.3884  -15.6833 H   0  0  0  0  0
  -30.9517   -3.1794  -13.9715 H   0  0  0  0  0
  -30.1988   -1.8366  -14.8664 H   0  0  0  0  0
  -29.2639   -2.9976  -12.3220 H   0  0  0  0  0
  -27.5471   -3.0593  -12.7910 H   0  0  0  0  0
  -28.5434   -1.6540  -13.2421 H   0  0  0  0  0
  -27.9366   -5.1344  -13.7713 H   0  0  0  0  0
  -29.7287   -5.0955  -13.4915 H   0  0  0  0  0
  -28.4654   -5.1867  -16.2376 H   0  0  0  0  0
  -30.1696   -5.4754  -15.7850 H   0  0  0  0  0
  -26.1136   -6.0398  -15.7332 H   0  0  0  0  0
  -21.5457   -6.2434  -16.7476 H   0  0  0  0  0
  -21.1386   -7.5933  -15.5809 H   0  0  0  0  0
  -21.7153   -6.6362  -14.0816 H   0  0  0  0  0
  -19.4178   -7.0239  -12.9973 H   0  0  0  0  0
  -18.8674   -7.9408  -14.4212 H   0  0  0  0  0
  -18.0331   -6.4392  -13.9521 H   0  0  0  0  0
  -19.9788   -3.1212  -16.6460 H   0  0  0  0  0
  -22.3931   -3.9084  -17.0779 H   0  0  0  0  0
  -24.4863  -10.0103  -15.2696 H   0  0  0  0  0
  -26.7658  -10.9310  -14.8968 H   0  0  0  0  0
  -28.2256   -3.1686  -15.0673 H   0  0  0  0  0
  -23.0979   -8.1810  -15.5359 H   0  0  0  0  0
 19  1  1  0  0  0
 19  2  1  0  0  0
  4  3  1  0  0  0
  3 19  1  0  0  0
 20  4  1  0  0  0
 20  5  1  0  0  0
  5 23  2  0  0  0
  5 24  1  0  0  0
  7  6  4  0  0  0
  6 18  4  0  0  0
  6 24  1  0  0  0
  8  7  4  0  0  0
  7 20  1  0  0  0
  9  8  4  0  0  0
  9 17  4  0  0  0
 21  9  1  0  0  0
 11 10  1  0  0  0
 10 21  1  0  0  0
 10 25  2  0  0  0
 12 11  1  0  0  0
 11 16  1  0  0  0
 22 12  1  0  0  0
 22 13  1  0  0  0
 14 15  1  0  0  0
 14 22  1  0  0  0
 14 26  2  0  0  0
 15 16  2  0  0  0
 17 18  4  0  0  0
  1 27  1  0  0  0
  1 28  1  0  0  0
  1 29  1  0  0  0
  2 30  1  0  0  0
  2 31  1  0  0  0
  2 32  1  0  0  0
  3 33  1  0  0  0
  3 34  1  0  0  0
  4 35  1  0  0  0
  4 36  1  0  0  0
  8 37  1  0  0  0
 11 38  1  0  0  0
 12 39  1  0  0  0
 12 40  1  0  0  0
 13 41  1  0  0  0
 13 42  1  0  0  0
 13 43  1  0  0  0
 15 44  1  0  0  0
 16 45  1  0  0  0
 17 46  1  0  0  0
 18 47  1  0  0  0
 19 48  1  0  0  0
 21 49  1  0  0  0
M  END
$$$$
