3bmq_ligand
  -I-interpret- 

 28 29  0  0  0  0  0  0  0  0999 V2000
    9.3070  -11.3280   14.0270 C   0  0  0  0  0
    8.1110  -10.8210   14.4490 C   0  0  0  0  0
    8.1080   -9.4950   14.9060 C   0  0  0  0  0
    9.2770   -8.7820   14.9720 N   0  0  0  0  0
   10.4860  -10.6150   14.0970 N   0  0  0  0  0
    7.2280  -14.3560   15.3140 C   0  0  0  0  0
    6.5010  -15.0500   16.2840 C   0  0  0  0  0
    5.1740  -15.4270   16.0390 C   0  0  0  0  0
    4.5770  -15.0920   14.8280 C   0  0  0  0  0
    5.3100  -14.4130   13.8470 C   0  0  0  0  0
    6.6140  -14.0060   14.1000 C   0  0  0  0  0
    7.4210  -13.2560   13.0320 C   0  0  0  0  0
    9.1800  -13.0210   13.4020 S   0  0  0  0  0
   10.4580   -9.3000   14.5580 C   0  0  0  0  0
   11.5780   -8.5380   14.6450 N   0  0  0  0  0
    6.9480   -9.0070   15.3590 N   0  0  0  0  0
    7.2003  -11.4197   14.4314 H   0  0  0  0  0
    8.2681  -14.0870   15.4984 H   0  0  0  0  0
    6.9685  -15.2996   17.2365 H   0  0  0  0  0
    4.6128  -15.9794   16.7927 H   0  0  0  0  0
    3.5365  -15.3586   14.6424 H   0  0  0  0  0
    4.8548  -14.2025   12.8792 H   0  0  0  0  0
    6.9846  -12.2600   12.9566 H   0  0  0  0  0
    7.3730  -13.8605   12.1262 H   0  0  0  0  0
   11.5223   -7.5902   15.0179 H   0  0  0  0  0
   12.4753   -8.9132   14.3375 H   0  0  0  0  0
    6.1140   -9.5943   15.3619 H   0  0  0  0  0
    6.8974   -8.0476   15.7016 H   0  0  0  0  0
  1  2  4  0  0  0
  1  5  4  0  0  0
 13  1  1  0  0  0
  2  3  4  0  0  0
  3  4  4  0  0  0
  3 16  1  0  0  0
 14  4  4  0  0  0
  5 14  4  0  0  0
  6  7  4  0  0  0
 11  6  4  0  0  0
  7  8  4  0  0  0
  9  8  4  0  0  0
 10  9  4  0  0  0
 11 10  4  0  0  0
 12 11  1  0  0  0
 12 13  1  0  0  0
 14 15  1  0  0  0
  2 17  1  0  0  0
  6 18  1  0  0  0
  7 19  1  0  0  0
  8 20  1  0  0  0
  9 21  1  0  0  0
 10 22  1  0  0  0
 12 23  1  0  0  0
 12 24  1  0  0  0
 15 25  1  0  0  0
 15 26  1  0  0  0
 16 27  1  0  0  0
 16 28  1  0  0  0
M  END
$$$$
