3krx_ligand
  -I-interpret- 

 67 70  0  0  0  0  0  0  0  0999 V2000
   35.6030   -3.3660   51.0980 C   0  0  0  0  0
   35.1360   -1.9280   51.1000 C   0  0  0  0  0
   36.0070   -0.9240   51.5280 C   0  0  0  0  0
   35.5970    0.4060   51.5360 C   0  0  0  0  0
   34.3160    0.7430   51.1130 C   0  0  0  0  0
   33.9090    2.0370   51.1160 O   0  0  0  0  0
   33.4420   -0.2440   50.6860 C   0  0  0  0  0
   33.8490   -1.5730   50.6790 C   0  0  0  0  0
   36.7380   -3.6070   51.4710 O   0  0  0  0  0
   34.8030   -4.3570   50.6940 N   0  0  0  0  0
   36.1330   -7.4520   49.1850 N   0  3  0  0  0
   35.5390   -6.1320   49.2410 C   0  0  0  0  0
   35.2280   -5.7460   50.6840 C   0  0  0  0  0
   34.1710   -6.5950   51.4110 C   0  0  0  0  0
   33.5360   -7.7490   50.6240 C   0  0  0  0  0
   34.5000   -8.8970   50.3190 C   0  0  0  0  0
   35.3010   -8.6320   49.0510 C   0  0  0  0  0
   34.8250   -7.1460   52.5470 O   0  0  0  0  0
   34.1880   -7.0480   53.8510 C   0  0  0  0  0
   33.0630   -6.5970   54.0030 O   0  0  0  0  0
   35.0040   -7.5690   54.9890 C   0  0  0  0  0
   34.5450   -7.5370   56.3100 C   0  0  0  0  0
   35.3370   -8.0410   57.3420 C   0  0  0  0  0
   34.8990   -8.0150   58.6300 O   0  0  0  0  0
   36.6720   -8.6100   57.0190 C   0  0  0  0  0
   37.1010   -8.6160   55.5950 C   0  0  0  0  0
   38.2990   -9.1100   55.1780 O   0  0  0  0  0
   36.2480   -8.0960   54.6450 C   0  0  0  0  0
   37.5490   -9.1690   58.0960 C   0  0  0  0  0
   37.1300   -9.2850   59.2330 O   0  0  0  0  0
   38.9370   -9.6000   57.7370 C   0  0  0  0  0
   40.0300   -8.6020   57.7740 C   0  0  0  0  0
   39.7820   -7.3180   58.1540 O   0  0  0  0  0
   41.3140   -8.9970   57.4260 C   0  0  0  0  0
   41.5850  -10.3100   57.0360 C   0  0  0  0  0
   40.5860  -11.2860   56.9750 C   0  0  0  0  0
   39.2600  -10.9930   57.3050 C   0  0  0  0  0
   38.2060  -12.0700   57.2240 C   0  0  0  0  0
   38.5350  -13.2200   56.8610 O   0  0  0  0  0
   37.0190  -11.8140   57.5170 O   0  0  0  0  0
   37.0131   -1.1832   51.8575 H   0  0  0  0  0
   36.2809    1.1844   51.8743 H   0  0  0  0  0
   33.0053    2.0878   50.7960 H   0  0  0  0  0
   32.4375    0.0213   50.3563 H   0  0  0  0  0
   33.1590   -2.3467   50.3423 H   0  0  0  0  0
   33.8591   -4.1298   50.3811 H   0  0  0  0  0
   36.5804   -7.5636   50.0948 H   0  0  0  0  0
   36.6891   -7.4398   48.3300 H   0  0  0  0  0
   34.6116   -6.1367   48.6682 H   0  0  0  0  0
   36.2416   -5.4098   48.8251 H   0  0  0  0  0
   36.1495   -5.9258   51.2378 H   0  0  0  0  0
   33.3368   -5.9263   51.6233 H   0  0  0  0  0
   33.2020   -7.3442   49.6687 H   0  0  0  0  0
   32.7321   -8.1556   51.2376 H   0  0  0  0  0
   33.9180   -9.8074   50.1756 H   0  0  0  0  0
   35.1956   -8.9942   51.1526 H   0  0  0  0  0
   35.9465   -9.4903   48.8646 H   0  0  0  0  0
   34.6033   -8.4711   48.2292 H   0  0  0  0  0
   33.5646   -7.1166   56.5339 H   0  0  0  0  0
   35.5673   -8.3996   59.2019 H   0  0  0  0  0
   38.3691   -9.0145   54.2253 H   0  0  0  0  0
   36.5538   -8.0969   53.5988 H   0  0  0  0  0
   40.5973   -6.8123   58.1202 H   0  0  0  0  0
   42.1251   -8.2696   57.4577 H   0  0  0  0  0
   42.6066  -10.5823   56.7710 H   0  0  0  0  0
   40.8469  -12.2974   56.6633 H   0  0  0  0  0
   39.4769  -13.2389   56.6766 H   0  0  0  0  0
  1  2  1  0  0  0
  1  9  2  0  0  0
 10  1  1  0  0  0
  2  3  4  0  0  0
  2  8  4  0  0  0
  3  4  4  0  0  0
  4  5  4  0  0  0
  5  6  1  0  0  0
  7  5  4  0  0  0
  8  7  4  0  0  0
 13 10  1  0  0  0
 12 11  1  0  0  0
 11 17  1  0  0  0
 12 13  1  0  0  0
 13 14  1  0  0  0
 14 15  1  0  0  0
 14 18  1  0  0  0
 15 16  1  0  0  0
 16 17  1  0  0  0
 18 19  1  0  0  0
 19 20  2  0  0  0
 19 21  1  0  0  0
 21 22  4  0  0  0
 21 28  4  0  0  0
 22 23  4  0  0  0
 23 24  1  0  0  0
 23 25  4  0  0  0
 25 26  4  0  0  0
 25 29  1  0  0  0
 26 27  1  0  0  0
 26 28  4  0  0  0
 29 30  2  0  0  0
 29 31  1  0  0  0
 31 32  4  0  0  0
 31 37  4  0  0  0
 32 33  1  0  0  0
 32 34  4  0  0  0
 34 35  4  0  0  0
 35 36  4  0  0  0
 36 37  4  0  0  0
 37 38  1  0  0  0
 38 39  1  0  0  0
 38 40  2  0  0  0
  3 41  1  0  0  0
  4 42  1  0  0  0
  6 43  1  0  0  0
  7 44  1  0  0  0
  8 45  1  0  0  0
 10 46  1  0  0  0
 11 47  1  0  0  0
 11 48  1  0  0  0
 12 49  1  0  0  0
 12 50  1  0  0  0
 13 51  1  0  0  0
 14 52  1  0  0  0
 15 53  1  0  0  0
 15 54  1  0  0  0
 16 55  1  0  0  0
 16 56  1  0  0  0
 17 57  1  0  0  0
 17 58  1  0  0  0
 22 59  1  0  0  0
 24 60  1  0  0  0
 27 61  1  0  0  0
 28 62  1  0  0  0
 33 63  1  0  0  0
 34 64  1  0  0  0
 35 65  1  0  0  0
 36 66  1  0  0  0
 39 67  1  0  0  0
M  END
$$$$
