1fdq_ligand
  -I-interpret- 

 56 55  0  0  0  0  0  0  0  0999 V2000
    7.0540   13.4820   -0.1610 C   0  0  0  0  0
    8.2420   13.4820   -0.4650 O   0  0  0  0  0
    6.4390   14.5480    0.4130 O   0  0  0  0  0
    6.0960   12.3080   -0.3900 C   0  0  0  0  0
    6.7060   10.9930    0.1580 C   0  0  0  0  0
    7.0460    9.9960   -0.9350 C   0  0  0  0  0
    6.5630    8.7570   -1.0950 C   0  0  0  0  0
    5.5490    8.0660   -0.2000 C   0  0  0  0  0
    5.2110    6.6420   -0.6090 C   0  0  0  0  0
    4.2290    5.8940   -0.0870 C   0  0  0  0  0
    3.2340    6.2990    0.9860 C   0  0  0  0  0
    1.9680    6.8880    0.3890 C   0  0  0  0  0
    1.1480    7.7930    0.9360 C   0  0  0  0  0
    1.2540    8.4760    2.2870 C   0  0  0  0  0
    1.2220    9.9850    2.1460 C   0  0  0  0  0
    2.2310   10.8480    2.3310 C   0  0  0  0  0
    3.6570   10.5270    2.7260 C   0  0  0  0  0
    3.8380   10.3100    4.2170 C   0  0  0  0  0
    4.9550    9.8920    4.8260 C   0  0  0  0  0
    6.2810    9.5280    4.1870 C   0  0  0  0  0
    6.3280    8.0740    3.7530 C   0  0  0  0  0
    7.3790    7.2460    3.7920 C   0  0  0  0  0
    8.7660    7.5750    4.3090 C   0  0  0  0  0
    9.6350    6.3170    4.4370 C   0  0  0  0  0
    5.5150   14.3380    0.5674 H   0  0  0  0  0
    5.9213   12.1977   -1.4602 H   0  0  0  0  0
    5.1603   12.5082    0.1319 H   0  0  0  0  0
    5.9657   10.5304    0.8108 H   0  0  0  0  0
    7.6312   11.2466    0.6755 H   0  0  0  0  0
    7.7701   10.3283   -1.6789 H   0  0  0  0  0
    6.9331    8.1903   -1.9494 H   0  0  0  0  0
    4.6258    8.6422   -0.2612 H   0  0  0  0  0
    5.9869    8.0153    0.7969 H   0  0  0  0  0
    5.8187    6.1907   -1.3933 H   0  0  0  0  0
    4.1339    4.8805   -0.4768 H   0  0  0  0  0
    3.6998    7.0565    1.6163 H   0  0  0  0  0
    2.9626    5.4094    1.5545 H   0  0  0  0  0
    1.6945    6.5309   -0.6039 H   0  0  0  0  0
    0.2882    8.0779    0.3296 H   0  0  0  0  0
    2.2003    8.1907    2.7465 H   0  0  0  0  0
    0.4068    8.1669    2.8992 H   0  0  0  0  0
    0.2644   10.4202    1.8601 H   0  0  0  0  0
    1.9981   11.9020    2.1797 H   0  0  0  0  0
    4.2753   11.3784    2.4415 H   0  0  0  0  0
    3.9353    9.6004    2.2240 H   0  0  0  0  0
    2.9766   10.5138    4.8530 H   0  0  0  0  0
    4.9050    9.8027    5.9112 H   0  0  0  0  0
    7.0680    9.6877    4.9241 H   0  0  0  0  0
    6.4135   10.1506    3.3022 H   0  0  0  0  0
    5.3990    7.6562    3.3650 H   0  0  0  0  0
    7.2223    6.2354    3.4149 H   0  0  0  0  0
    8.6671    8.0268    5.2960 H   0  0  0  0  0
    9.2446    8.2534    3.6027 H   0  0  0  0  0
    9.1646    5.6212    5.1317 H   0  0  0  0  0
    9.7348    5.8449    3.4596 H   0  0  0  0  0
   10.6208    6.5944    4.8103 H   0  0  0  0  0
  1  4  1  0  0  0
  1  3  1  0  0  0
  1  2  2  0  0  0
  4  5  1  0  0  0
  5  6  1  0  0  0
  6  7  2  0  0  0
  7  8  1  0  0  0
  8  9  1  0  0  0
  9 10  2  0  0  0
 10 11  1  0  0  0
 11 12  1  0  0  0
 12 13  2  0  0  0
 13 14  1  0  0  0
 14 15  1  0  0  0
 15 16  2  0  0  0
 16 17  1  0  0  0
 17 18  1  0  0  0
 18 19  2  0  0  0
 19 20  1  0  0  0
 20 21  1  0  0  0
 21 22  2  0  0  0
 22 23  1  0  0  0
 23 24  1  0  0  0
  3 25  1  0  0  0
  4 26  1  0  0  0
  4 27  1  0  0  0
  5 28  1  0  0  0
  5 29  1  0  0  0
  6 30  1  0  0  0
  7 31  1  0  0  0
  8 32  1  0  0  0
  8 33  1  0  0  0
  9 34  1  0  0  0
 10 35  1  0  0  0
 11 36  1  0  0  0
 11 37  1  0  0  0
 12 38  1  0  0  0
 13 39  1  0  0  0
 14 40  1  0  0  0
 14 41  1  0  0  0
 15 42  1  0  0  0
 16 43  1  0  0  0
 17 44  1  0  0  0
 17 45  1  0  0  0
 18 46  1  0  0  0
 19 47  1  0  0  0
 20 48  1  0  0  0
 20 49  1  0  0  0
 21 50  1  0  0  0
 22 51  1  0  0  0
 23 52  1  0  0  0
 23 53  1  0  0  0
 24 54  1  0  0  0
 24 55  1  0  0  0
 24 56  1  0  0  0
M  END
$$$$
