5ar0_ligand
  -I-interpret- 

 52 56  0  0  0  0  0  0  0  0999 V2000
    6.3380    7.6980   -8.3630 C   0  0  0  0  0
    5.0520    8.3400   -8.1620 N   0  0  0  0  0
    6.4190    6.5840   -7.5030 O   0  0  0  0  0
    7.5460    8.5570   -8.0210 C   0  0  0  0  0
    3.4380    9.5670   -7.1790 N   0  0  0  0  0
    7.5460    7.4230   -5.0440 O   0  0  0  0  0
    8.6040    7.4720   -7.8370 C   0  0  0  0  0
    4.1880    8.3130  -10.4430 N   0  0  0  0  0
    9.1480    7.0770   -9.0880 O   0  0  0  0  0
    7.8080    6.3390   -7.1840 C   0  0  0  0  0
    2.1620    9.5910  -10.6590 N   0  0  0  0  0
    7.8580    9.4660   -9.0680 O   0  0  0  0  0
    7.9650    6.2340   -5.6860 C   0  0  0  0  0
    1.1820   10.7380   -8.9180 N   0  0  0  0  0
    4.5610    8.9250   -6.9540 C   0  0  0  0  0
    5.1610    8.8220   -5.7620 N   0  0  0  0  0
    3.1680    9.4150   -8.5320 C   0  0  0  0  0
    7.3020   14.4030   -3.6410 N   0  0  0  0  0
    4.1390    8.6490   -9.1490 C   0  0  0  0  0
    3.1560    8.8270  -11.1120 C   0  0  0  0  0
    2.1380    9.9190   -9.3500 C   0  0  0  0  0
    4.6120    9.4910   -4.5950 C   0  0  0  0  0
    5.3100   10.8000   -4.3260 C   0  0  0  0  0
    4.5980   11.8940   -3.9070 C   0  0  0  0  0
    5.2290   13.1350   -3.6610 C   0  0  0  0  0
    6.6200   13.2340   -3.8640 C   0  0  0  0  0
    7.3270   12.0930   -4.2960 C   0  0  0  0  0
    6.6790   10.9190   -4.5150 C   0  0  0  0  0
    6.6020   15.4440   -3.2180 C   0  0  0  0  0
    5.2380   15.4300   -2.9900 C   0  0  0  0  0
    4.5500   14.2810   -3.2110 C   0  0  0  0  0
    6.3757    7.4612   -9.4263 H   0  0  0  0  0
    7.4243    9.2102   -7.1570 H   0  0  0  0  0
    7.6563    7.3289   -4.0950 H   0  0  0  0  0
    9.4612    7.7896   -7.2433 H   0  0  0  0  0
    9.6390    7.8093   -9.4677 H   0  0  0  0  0
    8.1869    5.3936   -7.5723 H   0  0  0  0  0
    7.1616   10.1231   -9.1379 H   0  0  0  0  0
    7.3487    5.4092   -5.3282 H   0  0  0  0  0
    9.0175    6.0669   -5.4570 H   0  0  0  0  0
    0.4891   11.1027   -9.5716 H   0  0  0  0  0
    1.1423   11.0010   -7.9333 H   0  0  0  0  0
    6.0127    8.2680   -5.6720 H   0  0  0  0  0
    3.1199    8.5901  -12.1753 H   0  0  0  0  0
    4.7503    8.8428   -3.7297 H   0  0  0  0  0
    3.5572    9.6947   -4.7793 H   0  0  0  0  0
    3.5216   11.8051   -3.7603 H   0  0  0  0  0
    8.4035   12.1534   -4.4558 H   0  0  0  0  0
    7.2481   10.0506   -4.8469 H   0  0  0  0  0
    7.1374   16.3760   -3.0370 H   0  0  0  0  0
    4.7248   16.3254   -2.6392 H   0  0  0  0  0
    3.4740   14.2468   -3.0401 H   0  0  0  0  0
  2  1  1  0  0  0
  1  3  1  0  0  0
  1  4  1  0  0  0
 15  2  4  0  0  0
  2 19  4  0  0  0
  3 10  1  0  0  0
  4  7  1  0  0  0
  4 12  1  0  0  0
 15  5  4  0  0  0
  5 17  4  0  0  0
 13  6  1  0  0  0
  7  9  1  0  0  0
  7 10  1  0  0  0
 19  8  4  0  0  0
  8 20  4  0  0  0
 10 13  1  0  0  0
 11 20  4  0  0  0
 21 11  4  0  0  0
 21 14  1  0  0  0
 16 15  1  0  0  0
 22 16  1  0  0  0
 17 19  4  0  0  0
 17 21  4  0  0  0
 26 18  4  0  0  0
 18 29  4  0  0  0
 23 22  1  0  0  0
 24 23  4  0  0  0
 23 28  4  0  0  0
 25 24  4  0  0  0
 25 26  4  0  0  0
 25 31  4  0  0  0
 26 27  4  0  0  0
 27 28  4  0  0  0
 29 30  4  0  0  0
 30 31  4  0  0  0
  1 32  1  0  0  0
  4 33  1  0  0  0
  6 34  1  0  0  0
  7 35  1  0  0  0
  9 36  1  0  0  0
 10 37  1  0  0  0
 12 38  1  0  0  0
 13 39  1  0  0  0
 13 40  1  0  0  0
 14 41  1  0  0  0
 14 42  1  0  0  0
 16 43  1  0  0  0
 20 44  1  0  0  0
 22 45  1  0  0  0
 22 46  1  0  0  0
 24 47  1  0  0  0
 27 48  1  0  0  0
 28 49  1  0  0  0
 29 50  1  0  0  0
 30 51  1  0  0  0
 31 52  1  0  0  0
M  END
$$$$
