6hkz_ligand
  -I-interpret- 

 71 72  0  0  0  0  0  0  0  0999 V2000
   13.8670   49.3600   41.2940 O   0  0  0  0  0
   13.9530   48.1270   41.0510 C   0  0  0  0  0
   13.1630   47.4800   40.3130 O   0  0  0  0  0
   15.1480   47.4080   41.6950 C   0  0  0  0  0
   14.8840   45.9070   41.8180 C   0  0  0  0  0
   16.2110   45.1380   42.1970 C   0  0  0  0  0
   17.2140   45.2460   40.9970 C   0  0  0  0  0
   17.1430   44.4240   40.0620 O   0  0  0  0  0
   18.0190   46.2010   41.0370 O   0  0  0  0  0
   16.9340   45.7190   43.3300 N   0  0  0  0  0
   18.1420   45.2570   43.7040 C   0  0  0  0  0
   18.5190   44.1720   43.2690 O   0  0  0  0  0
   18.8650   46.0490   44.5460 N   0  0  0  0  0
   20.1400   45.6910   45.2340 C   0  0  0  0  0
   20.2940   46.4170   46.5940 C   0  0  0  0  0
   19.8130   47.5820   46.7050 O   0  0  0  0  0
   20.9710   45.8050   47.4600 O   0  0  0  0  0
   21.3920   46.0190   44.4360 C   0  0  0  0  0
   21.5150   47.5130   44.1490 C   0  0  0  0  0
   22.7020   47.6890   43.1460 C   0  0  0  0  0
   24.0670   47.6870   43.9300 C   0  0  0  0  0
   24.0350   47.4620   45.1260 O   0  0  0  0  0
   25.2750   47.8780   43.2910 N   0  0  0  0  0
   25.3230   47.9930   41.9360 C   0  0  0  0  0
   25.1590   46.8370   41.1650 C   0  0  0  0  0
   25.1840   46.8880   39.7680 C   0  0  0  0  0
   25.3720   48.1110   39.1240 C   0  0  0  0  0
   25.5350   49.2680   39.8780 C   0  0  0  0  0
   25.5100   49.2070   41.2780 C   0  0  0  0  0
   26.4920   47.7860   44.1060 C   0  0  0  0  0
   27.2550   49.0820   44.1060 C   0  0  0  0  0
   26.7070   50.0870   45.0610 N   0  0  0  0  0
   26.3670   51.3050   44.5830 C   0  0  0  0  0
   26.4270   51.5930   43.3890 O   0  0  0  0  0
   25.9720   52.3210   45.4410 C   0  0  0  0  0
   24.9380   53.1570   44.9940 C   0  0  0  0  0
   24.5180   54.2300   45.7750 C   0  0  0  0  0
   25.1520   54.4850   46.9910 C   0  0  0  0  0
   24.7040   55.5310   47.7030 F   0  0  0  0  0
   26.1780   53.7010   47.4300 N   0  0  0  0  0
   26.6280   52.5980   46.6520 C   0  0  0  0  0
   13.4353   46.5599   40.2838 H   0  0  0  0  0
   15.3061   47.8178   42.6926 H   0  0  0  0  0
   16.0260   47.5580   41.0667 H   0  0  0  0  0
   14.5201   45.5329   40.8611 H   0  0  0  0  0
   14.1441   45.7416   42.6011 H   0  0  0  0  0
   15.8982   44.1234   42.4437 H   0  0  0  0  0
   17.8880   46.6946   41.8499 H   0  0  0  0  0
   16.5132   46.4908   43.8473 H   0  0  0  0  0
   18.4962   46.9831   44.7242 H   0  0  0  0  0
   20.0600   44.6113   45.3602 H   0  0  0  0  0
   19.3401   47.8096   45.9012 H   0  0  0  0  0
   21.3351   45.4933   43.4829 H   0  0  0  0  0
   22.2586   45.7129   45.0220 H   0  0  0  0  0
   21.7009   48.0685   45.0682 H   0  0  0  0  0
   20.5897   47.9018   43.7239 H   0  0  0  0  0
   22.5907   48.6363   42.6184 H   0  0  0  0  0
   22.6954   46.8657   42.4316 H   0  0  0  0  0
   25.0090   45.8789   41.6627 H   0  0  0  0  0
   25.0571   45.9760   39.1846 H   0  0  0  0  0
   25.3910   48.1595   38.0352 H   0  0  0  0  0
   25.6827   50.2255   39.3786 H   0  0  0  0  0
   25.6384   50.1202   41.8591 H   0  0  0  0  0
   27.1309   47.0093   43.6857 H   0  0  0  0  0
   26.2040   47.5551   45.1316 H   0  0  0  0  0
   27.1851   49.5061   43.1043 H   0  0  0  0  0
   28.2786   48.8623   44.4094 H   0  0  0  0  0
   26.5916   49.8616   46.0491 H   0  0  0  0  0
   24.4620   52.9658   44.0322 H   0  0  0  0  0
   23.6995   54.8664   45.4387 H   0  0  0  0  0
   27.4624   51.9822   46.9878 H   0  0  0  0  0
  1  2  2  0  0  0
  2  3  1  0  0  0
  2  4  1  0  0  0
  4  5  1  0  0  0
  5  6  1  0  0  0
  6  7  1  0  0  0
  6 10  1  0  0  0
  7  8  2  0  0  0
  7  9  1  0  0  0
 10 11  1  0  0  0
 11 12  2  0  0  0
 11 13  1  0  0  0
 13 14  1  0  0  0
 14 15  1  0  0  0
 14 18  1  0  0  0
 15 16  1  0  0  0
 15 17  2  0  0  0
 18 19  1  0  0  0
 19 20  1  0  0  0
 20 21  1  0  0  0
 21 22  2  0  0  0
 21 23  1  0  0  0
 23 24  1  0  0  0
 23 30  1  0  0  0
 24 25  4  0  0  0
 24 29  4  0  0  0
 25 26  4  0  0  0
 26 27  4  0  0  0
 27 28  4  0  0  0
 28 29  4  0  0  0
 30 31  1  0  0  0
 31 32  1  0  0  0
 32 33  1  0  0  0
 33 34  2  0  0  0
 33 35  1  0  0  0
 35 36  4  0  0  0
 35 41  4  0  0  0
 36 37  4  0  0  0
 37 38  4  0  0  0
 38 39  1  0  0  0
 38 40  4  0  0  0
 40 41  4  0  0  0
  3 42  1  0  0  0
  4 43  1  0  0  0
  4 44  1  0  0  0
  5 45  1  0  0  0
  5 46  1  0  0  0
  6 47  1  0  0  0
  9 48  1  0  0  0
 10 49  1  0  0  0
 13 50  1  0  0  0
 14 51  1  0  0  0
 16 52  1  0  0  0
 18 53  1  0  0  0
 18 54  1  0  0  0
 19 55  1  0  0  0
 19 56  1  0  0  0
 20 57  1  0  0  0
 20 58  1  0  0  0
 25 59  1  0  0  0
 26 60  1  0  0  0
 27 61  1  0  0  0
 28 62  1  0  0  0
 29 63  1  0  0  0
 30 64  1  0  0  0
 30 65  1  0  0  0
 31 66  1  0  0  0
 31 67  1  0  0  0
 32 68  1  0  0  0
 36 69  1  0  0  0
 37 70  1  0  0  0
 41 71  1  0  0  0
M  END
$$$$
