4cik_ligand
  -I-interpret- 

 38 40  0  0  0  0  0  0  0  0999 V2000
   -5.3960   -0.2270   14.8560 C   0  0  0  0  0
   -5.1110   -1.7360   14.8780 C   0  0  0  0  0
   -4.8730   -2.0500   16.3110 N   0  3  0  0  0
   -6.1280   -1.9030   17.0750 C   0  0  0  0  0
   -6.4870   -0.3940   17.1200 C   0  0  0  0  0
   -6.6790    0.0330   15.6650 C   0  0  0  0  0
   -7.0400    1.4830   15.6830 C   0  0  0  0  0
   -8.2250    1.9820   16.0570 O   0  0  0  0  0
   -8.2450    3.1970   15.9620 N   0  0  0  0  0
   -7.0390    3.6490   15.5650 C   0  0  0  0  0
   -6.2170    2.5040   15.3760 C   0  0  0  0  0
   -6.7020    4.7930   15.3760 O   0  0  0  0  0
   -5.8650   -2.3160   18.5200 C   0  0  0  0  0
   -7.1620   -2.4830   19.2880 C   0  0  0  0  0
   -7.3620   -1.7480   20.4490 C   0  0  0  0  0
   -8.5200   -1.9150   21.1930 C   0  0  0  0  0
   -9.5010   -2.7950   20.7600 C   0  0  0  0  0
   -9.2860   -3.5420   19.6130 C   0  0  0  0  0
   -8.1260   -3.3820   18.8710 C   0  0  0  0  0
   -5.5254    0.1146   13.8290 H   0  0  0  0  0
   -4.5601    0.3182   15.2944 H   0  0  0  0  0
   -4.2561   -1.9990   14.2551 H   0  0  0  0  0
   -5.9382   -2.3136   14.4655 H   0  0  0  0  0
   -4.1753   -1.4063   16.6843 H   0  0  0  0  0
   -4.5404   -3.0107   16.3934 H   0  0  0  0  0
   -6.9155   -2.5025   16.6183 H   0  0  0  0  0
   -5.7004    0.1861   17.6026 H   0  0  0  0  0
   -7.3888   -0.2187   17.7066 H   0  0  0  0  0
   -7.4694   -0.5418   15.1824 H   0  0  0  0  0
   -9.0556    3.7854   16.1547 H   0  0  0  0  0
   -5.1747    2.4627   15.0597 H   0  0  0  0  0
   -5.2733   -1.5377   19.0019 H   0  0  0  0  0
   -5.3366   -3.2694   18.5185 H   0  0  0  0  0
   -6.6047   -1.0360   20.7772 H   0  0  0  0  0
   -8.6595   -1.3551   22.1177 H   0  0  0  0  0
  -10.4323   -2.8979   21.3169 H   0  0  0  0  0
  -10.0370   -4.2632   19.2906 H   0  0  0  0  0
   -7.9744   -3.9633   17.9615 H   0  0  0  0  0
  1  2  1  0  0  0
  1  6  1  0  0  0
  2  3  1  0  0  0
  3  4  1  0  0  0
  4  5  1  0  0  0
  4 13  1  0  0  0
  5  6  1  0  0  0
  6  7  1  0  0  0
  7  8  1  0  0  0
  7 11  2  0  0  0
  8  9  1  0  0  0
  9 10  1  0  0  0
 10 11  1  0  0  0
 10 12  2  0  0  0
 13 14  1  0  0  0
 14 15  4  0  0  0
 14 19  4  0  0  0
 15 16  4  0  0  0
 16 17  4  0  0  0
 17 18  4  0  0  0
 18 19  4  0  0  0
  1 20  1  0  0  0
  1 21  1  0  0  0
  2 22  1  0  0  0
  2 23  1  0  0  0
  3 24  1  0  0  0
  3 25  1  0  0  0
  4 26  1  0  0  0
  5 27  1  0  0  0
  5 28  1  0  0  0
  6 29  1  0  0  0
  9 30  1  0  0  0
 11 31  1  0  0  0
 13 32  1  0  0  0
 13 33  1  0  0  0
 15 34  1  0  0  0
 16 35  1  0  0  0
 17 36  1  0  0  0
 18 37  1  0  0  0
 19 38  1  0  0  0
M  END
$$$$
