4hzt_ligand
  -I-interpret- 

 49 52  0  0  0  0  0  0  0  0999 V2000
    9.6870  -11.8270    4.4120 Cl  0  0  0  0  0
   10.0550  -13.2370    5.4620 C   0  0  0  0  0
    9.3310  -14.4500    5.2550 C   0  0  0  0  0
    9.6060  -15.5400    6.0610 C   0  0  0  0  0
   10.6030  -15.3930    7.0600 C   0  0  0  0  0
   11.3220  -14.1450    7.2610 C   0  0  0  0  0
   11.0570  -13.0750    6.4130 C   0  0  0  0  0
   10.9560  -16.5400    7.9730 C   0  0  0  0  0
   11.5590  -16.2870    9.0680 N   0  0  0  0  0
   11.8030  -14.9130    9.5580 C   0  0  0  0  0
   12.8610  -14.9790   10.6480 C   0  0  0  0  0
   10.5200  -14.2560   10.1820 C   0  0  0  0  0
   12.3430  -14.0940    8.3810 C   0  0  0  0  0
   10.6670  -17.7590    7.5330 N   0  0  0  0  0
   10.8430  -18.9120    8.4150 C   0  0  0  0  0
   11.4280  -19.9500    7.5580 C   0  0  0  0  0
   11.6890  -21.2090    8.0090 N   0  0  0  0  0
   12.1450  -21.8500    6.9430 C   0  0  0  0  0
   12.4930  -23.2490    6.9730 O   0  0  0  0  0
   12.1110  -21.1010    5.8410 O   0  0  0  0  0
   11.6480  -19.8830    6.1910 N   0  0  0  0  0
    9.4770  -19.4370    8.9390 C   0  0  0  0  0
    8.9520  -18.4470    9.9640 C   0  0  0  0  0
    9.5320  -18.4410   11.2390 C   0  0  0  0  0
    9.1220  -17.5360   12.2320 C   0  0  0  0  0
    8.1010  -16.6320   11.9530 C   0  0  0  0  0
    7.5460  -16.6170   10.6630 C   0  0  0  0  0
    7.9380  -17.5330    9.6450 C   0  0  0  0  0
    8.5734  -14.5161    4.4741 H   0  0  0  0  0
    9.0735  -16.4824    5.9328 H   0  0  0  0  0
   11.6151  -12.1420    6.4909 H   0  0  0  0  0
   12.5035  -15.6099   11.4618 H   0  0  0  0  0
   13.7787  -15.3995   10.2368 H   0  0  0  0  0
   13.0565  -13.9748   11.0240 H   0  0  0  0  0
    9.7346  -14.2079    9.4278 H   0  0  0  0  0
   10.1794  -14.8566   11.0254 H   0  0  0  0  0
   10.7589  -13.2491   10.5244 H   0  0  0  0  0
   12.5111  -13.0618    8.6883 H   0  0  0  0  0
   13.2929  -14.5069    8.0415 H   0  0  0  0  0
   10.3230  -17.8909    6.5819 H   0  0  0  0  0
   11.4537  -18.6512    9.2793 H   0  0  0  0  0
   11.4926  -19.0820    5.5789 H   0  0  0  0  0
    9.6022  -20.4189    9.3953 H   0  0  0  0  0
    8.7707  -19.5338    8.1145 H   0  0  0  0  0
   10.3218  -19.1570   11.4665 H   0  0  0  0  0
    9.5990  -17.5416   13.2121 H   0  0  0  0  0
    7.7391  -15.9487   12.7212 H   0  0  0  0  0
    6.7835  -15.8734   10.4311 H   0  0  0  0  0
    7.4699  -17.5237    8.6607 H   0  0  0  0  0
  1  2  1  0  0  0
  2  3  4  0  0  0
  2  7  4  0  0  0
  3  4  4  0  0  0
  4  5  4  0  0  0
  5  6  4  0  0  0
  5  8  1  0  0  0
  6  7  4  0  0  0
  6 13  1  0  0  0
  8  9  2  0  0  0
  8 14  1  0  0  0
  9 10  1  0  0  0
 10 11  1  0  0  0
 10 12  1  0  0  0
 10 13  1  0  0  0
 14 15  1  0  0  0
 15 16  1  0  0  0
 15 22  1  0  0  0
 16 17  2  0  0  0
 16 21  1  0  0  0
 17 18  1  0  0  0
 18 19  2  0  0  0
 18 20  1  0  0  0
 20 21  1  0  0  0
 22 23  1  0  0  0
 23 24  4  0  0  0
 23 28  4  0  0  0
 24 25  4  0  0  0
 25 26  4  0  0  0
 26 27  4  0  0  0
 27 28  4  0  0  0
  3 29  1  0  0  0
  4 30  1  0  0  0
  7 31  1  0  0  0
 11 32  1  0  0  0
 11 33  1  0  0  0
 11 34  1  0  0  0
 12 35  1  0  0  0
 12 36  1  0  0  0
 12 37  1  0  0  0
 13 38  1  0  0  0
 13 39  1  0  0  0
 14 40  1  0  0  0
 15 41  1  0  0  0
 21 42  1  0  0  0
 22 43  1  0  0  0
 22 44  1  0  0  0
 24 45  1  0  0  0
 25 46  1  0  0  0
 26 47  1  0  0  0
 27 48  1  0  0  0
 28 49  1  0  0  0
M  END
$$$$
