5cr7_ligand
  -I-interpret- 

 44 48  0  0  0  0  0  0  0  0999 V2000
   83.2040   69.1070   50.0620 C   0  0  0  0  0
   82.1900   68.6670   50.8320 C   0  0  0  0  0
   82.4490   68.1210   52.0380 C   0  0  0  0  0
   81.4000   69.9180   49.2550 C   0  0  0  0  0
   83.6820   67.6270   52.1320 N   0  0  0  0  0
   84.4790   68.7680   50.2820 N   0  0  0  0  0
   84.7720   68.0000   51.3790 C   0  0  0  0  0
   81.4460   67.5360   52.7560 N   0  0  0  0  0
   81.0940   69.2400   50.3570 N   0  0  0  0  0
   82.7070   69.8380   49.0750 N   0  0  0  0  0
   82.7420   66.7510   54.7250 C   0  0  0  0  0
   83.7820   67.6860   54.6920 C   0  0  0  0  0
   85.3390   66.3600   55.8010 C   0  0  0  0  0
   84.3710   65.3530   55.8170 C   0  0  0  0  0
   83.1100   65.5130   55.2290 C   0  0  0  0  0
   81.5330   66.8920   54.0000 C   0  0  0  0  0
   85.8360   68.7090   55.2190 C   0  0  0  0  0
   87.2260   68.6580   55.1590 C   0  0  0  0  0
   87.3690   71.0650   55.3590 C   0  0  0  0  0
   86.0030   71.1160   55.5680 C   0  0  0  0  0
   85.2600   69.9410   55.5400 C   0  0  0  0  0
   84.9830   67.6190   55.3620 C   0  0  0  0  0
   89.2940   69.8090   54.9520 N   0  0  0  0  0
   89.9290   68.6870   54.6210 C   0  0  0  0  0
   91.2250   68.9620   54.5720 C   0  0  0  0  0
   91.3930   70.2480   54.8760 C   0  0  0  0  0
   90.1930   70.7790   55.1140 C   0  0  0  0  0
   87.9740   69.8320   55.1100 C   0  0  0  0  0
   80.5220   66.4050   54.5160 O   0  0  0  0  0
   80.6963   70.4472   48.6125 H   0  0  0  0  0
   85.7902   67.7072   51.6353 H   0  0  0  0  0
   80.5172   67.5714   52.3358 H   0  0  0  0  0
   83.6241   68.5648   54.0667 H   0  0  0  0  0
   86.3579   66.1549   56.1296 H   0  0  0  0  0
   84.6059   64.4073   56.3054 H   0  0  0  0  0
   82.4223   64.6695   55.1680 H   0  0  0  0  0
   87.7324   67.6928   55.1503 H   0  0  0  0  0
   87.9660   71.9765   55.3883 H   0  0  0  0  0
   85.5118   72.0712   55.7535 H   0  0  0  0  0
   84.1965   69.9822   55.7755 H   0  0  0  0  0
   89.4677   67.7189   54.4259 H   0  0  0  0  0
   92.0180   68.2561   54.3250 H   0  0  0  0  0
   92.3460   70.7750   54.9222 H   0  0  0  0  0
   89.9863   71.8131   55.3895 H   0  0  0  0  0
  2  1  4  0  0  0
  1  6  4  0  0  0
  1 10  4  0  0  0
  3  2  4  0  0  0
  2  9  4  0  0  0
  3  5  4  0  0  0
  8  3  1  0  0  0
  9  4  4  0  0  0
  4 10  4  0  0  0
  5  7  4  0  0  0
  7  6  4  0  0  0
 16  8  1  0  0  0
 12 11  4  0  0  0
 11 15  4  0  0  0
 11 16  1  0  0  0
 22 12  4  0  0  0
 13 14  4  0  0  0
 22 13  4  0  0  0
 14 15  4  0  0  0
 16 29  2  0  0  0
 18 17  4  0  0  0
 17 21  4  0  0  0
 17 22  1  0  0  0
 28 18  4  0  0  0
 19 20  4  0  0  0
 28 19  4  0  0  0
 20 21  4  0  0  0
 23 24  4  0  0  0
 23 27  4  0  0  0
 23 28  1  0  0  0
 24 25  4  0  0  0
 25 26  4  0  0  0
 26 27  4  0  0  0
  4 30  1  0  0  0
  7 31  1  0  0  0
  8 32  1  0  0  0
 12 33  1  0  0  0
 13 34  1  0  0  0
 14 35  1  0  0  0
 15 36  1  0  0  0
 18 37  1  0  0  0
 19 38  1  0  0  0
 20 39  1  0  0  0
 21 40  1  0  0  0
 24 41  1  0  0  0
 25 42  1  0  0  0
 26 43  1  0  0  0
 27 44  1  0  0  0
M  END
$$$$
