### 
### Created by X-TOOL on Mon Sep 10 21:13:08 2018
### 

@<TRIPOS>MOLECULE
3t0l_ligand
   36    37     1     0     0
SMALL
GAST_HUCK


@<TRIPOS>ATOM
      1 OAA        25.4620    8.9450  -10.5270 O.2       1 1CT        -0.3712
      2 OAB        21.7880   13.2270  -11.6880 O.co2     1 1CT        -0.5643
      3 OAC        22.0240   12.5990   -9.1860 O.co2     1 1CT        -0.5643
      4 OAD        21.0390   14.8130   -9.7350 O.co2     1 1CT        -0.5643
      5 FAE        22.5720    8.3890   -6.2280 F         1 1CT        -0.2425
      6 FAF        24.1680    9.1360   -7.3720 F         1 1CT        -0.2425
      7 FAG        22.4020   10.3630   -7.0860 F         1 1CT        -0.2425
      8 CAH        21.4400    7.2330  -10.9060 C.ar      1 1CT        -0.0464
      9 CAI        26.2500   15.6210  -10.3610 C.ar      1 1CT        -0.0672
     10 CAJ        21.0870    6.7600   -9.6440 C.ar      1 1CT        -0.0474
     11 CAK        25.1450   16.4400  -10.0890 C.ar      1 1CT        -0.0681
     12 CAL        22.2910    8.3490  -11.0030 C.ar      1 1CT        -0.0062
     13 CAM        26.1060   14.2300  -10.5870 C.ar      1 1CT        -0.0277
     14 CAN        21.5380    7.3690   -8.4940 C.ar      1 1CT        -0.0455
     15 CAO        23.8250   15.9030  -10.0520 C.ar      1 1CT        -0.0499
     16 CAP        25.6210   11.3570  -10.5000 C.3       1 1CT         0.1703
     17 NAQ        23.5660   10.0590  -10.0080 N.am      1 1CT        -0.2041
     18 OAR        24.5500   12.3820  -10.7730 O.3       1 1CT        -0.2921
     19 CAS        24.8610   10.0140  -10.3360 C.2       1 1CT         0.2533
     20 CAT        22.7740    8.9560   -9.8510 C.ar      1 1CT         0.1109
     21 CAU        24.7920   13.7190  -10.5570 C.ar      1 1CT         0.1159
     22 CAV        22.3800    8.4840   -8.5840 C.ar      1 1CT         0.0626
     23 CAW        23.7010   14.5280  -10.2530 C.ar      1 1CT         0.0641
     24 CAX        22.8690    9.1240   -7.2870 C.3       1 1CT         0.3554
     25 PAY        22.0210   13.7650  -10.2810 P.3       1 1CT         0.0783
     26 H1         21.0645    6.7483  -11.7999 H         1 1CT         0.0798
     27 H2         27.2390   16.0632  -10.3993 H         1 1CT         0.0616
     28 H3         20.4422    5.8922   -9.5654 H         1 1CT         0.0600
     29 H4         25.2967   17.4973   -9.9041 H         1 1CT         0.0533
     30 H5         22.5697    8.7351  -11.9768 H         1 1CT         0.0599
     31 H6         26.9618   13.5913  -10.7734 H         1 1CT         0.0552
     32 H7         21.2424    6.9868   -7.5236 H         1 1CT         0.0773
     33 H8         22.9600   16.5322   -9.8763 H         1 1CT         0.0634
     34 H9         26.1685   11.6061   -9.5790 H         1 1CT         0.0872
     35 H10        26.3264   11.3014  -11.3422 H         1 1CT         0.0872
     36 H11        23.1497   10.9575   -9.8685 H         1 1CT         0.2505
@<TRIPOS>BOND
     1   19    1 2  
     2   25    2 ar 
     3   25    3 ar 
     4   25    4 ar 
     5   24    5 1  
     6   24    6 1  
     7   24    7 1  
     8    8   10 ar 
     9   12    8 ar 
    10   11    9 ar 
    11   13    9 ar 
    12   14   10 ar 
    13   15   11 ar 
    14   20   12 ar 
    15   21   13 ar 
    16   22   14 ar 
    17   23   15 ar 
    18   18   16 1  
    19   16   19 1  
    20   19   17 am 
    21   17   20 1  
    22   21   18 1  
    23   20   22 ar 
    24   23   21 ar 
    25   22   24 1  
    26   23   25 1  
    27    8   26 1  
    28    9   27 1  
    29   10   28 1  
    30   11   29 1  
    31   12   30 1  
    32   13   31 1  
    33   14   32 1  
    34   15   33 1  
    35   16   34 1  
    36   16   35 1  
    37   17   36 1  
@<TRIPOS>SUBSTRUCTURE
     1 1CT         1

