3t0l_ligand
  -I-interpret- 

 38 39  0  0  0  0  0  0  0  0999 V2000
   25.4620    8.9450  -10.5270 O   0  0  0  0  0
   21.7880   13.2270  -11.6880 O   0  0  0  0  0
   22.0240   12.5990   -9.1860 O   0  0  0  0  0
   21.0390   14.8130   -9.7350 O   0  0  0  0  0
   22.5720    8.3890   -6.2280 F   0  0  0  0  0
   24.1680    9.1360   -7.3720 F   0  0  0  0  0
   22.4020   10.3630   -7.0860 F   0  0  0  0  0
   21.4400    7.2330  -10.9060 C   0  0  0  0  0
   26.2500   15.6210  -10.3610 C   0  0  0  0  0
   21.0870    6.7600   -9.6440 C   0  0  0  0  0
   25.1450   16.4400  -10.0890 C   0  0  0  0  0
   22.2910    8.3490  -11.0030 C   0  0  0  0  0
   26.1060   14.2300  -10.5870 C   0  0  0  0  0
   21.5380    7.3690   -8.4940 C   0  0  0  0  0
   23.8250   15.9030  -10.0520 C   0  0  0  0  0
   25.6210   11.3570  -10.5000 C   0  0  0  0  0
   23.5660   10.0590  -10.0080 N   0  0  0  0  0
   24.5500   12.3820  -10.7730 O   0  0  0  0  0
   24.8610   10.0140  -10.3360 C   0  0  0  0  0
   22.7740    8.9560   -9.8510 C   0  0  0  0  0
   24.7920   13.7190  -10.5570 C   0  0  0  0  0
   22.3800    8.4840   -8.5840 C   0  0  0  0  0
   23.7010   14.5280  -10.2530 C   0  0  0  0  0
   22.8690    9.1240   -7.2870 C   0  0  0  0  0
   22.0210   13.7650  -10.2810 P   0  0  0  0  0
   22.1732   12.9782   -8.3168 H   0  0  0  0  0
   21.3012   15.0630   -8.8460 H   0  0  0  0  0
   21.0624    6.7456  -11.8049 H   0  0  0  0  0
   27.2445   16.0656  -10.3995 H   0  0  0  0  0
   20.4386    5.8874   -9.5649 H   0  0  0  0  0
   25.2975   17.5031   -9.9031 H   0  0  0  0  0
   22.5713    8.7373  -11.9822 H   0  0  0  0  0
   26.9665   13.5878  -10.7744 H   0  0  0  0  0
   21.2408    6.9847   -7.5183 H   0  0  0  0  0
   22.9552   16.5357   -9.8753 H   0  0  0  0  0
   26.1991   11.6048   -9.6098 H   0  0  0  0  0
   26.3512   11.3114  -11.3080 H   0  0  0  0  0
   23.1414   10.9754   -9.8657 H   0  0  0  0  0
 19  1  2  0  0  0
 25  2  2  0  0  0
 25  3  1  0  0  0
 25  4  1  0  0  0
 24  5  1  0  0  0
 24  6  1  0  0  0
 24  7  1  0  0  0
  8 10  4  0  0  0
 12  8  4  0  0  0
 11  9  4  0  0  0
 13  9  4  0  0  0
 14 10  4  0  0  0
 15 11  4  0  0  0
 20 12  4  0  0  0
 21 13  4  0  0  0
 22 14  4  0  0  0
 23 15  4  0  0  0
 18 16  1  0  0  0
 16 19  1  0  0  0
 19 17  1  0  0  0
 17 20  1  0  0  0
 21 18  1  0  0  0
 20 22  4  0  0  0
 23 21  4  0  0  0
 22 24  1  0  0  0
 23 25  1  0  0  0
  3 26  1  0  0  0
  4 27  1  0  0  0
  8 28  1  0  0  0
  9 29  1  0  0  0
 10 30  1  0  0  0
 11 31  1  0  0  0
 12 32  1  0  0  0
 13 33  1  0  0  0
 14 34  1  0  0  0
 15 35  1  0  0  0
 16 36  1  0  0  0
 16 37  1  0  0  0
 17 38  1  0  0  0
M  END
$$$$
