2won_ligand
  -I-interpret- 

 41 42  0  0  0  0  0  0  0  0999 V2000
    8.9060   12.3050   16.8610 C   0  0  0  0  0
    7.6130   12.3400   16.3050 C   0  0  0  0  0
    9.8860   12.8350   15.9560 C   0  0  0  0  0
    9.1330   11.7450   18.1580 O   0  0  0  0  0
    7.8440   12.9030   15.0950 N   0  0  0  0  0
    6.2870   11.8620   16.9350 C   0  0  0  0  0
    9.1680   13.2000   14.9110 N   0  0  0  0  0
   11.3890   12.9580   16.1130 C   0  0  0  0  0
    9.4200   12.2800   19.3710 C   0  0  0  0  0
    6.8640   13.1720   14.1140 C   0  0  0  0  0
    6.3670   10.5610   17.4870 C   0  0  0  0  0
   12.0720   13.1480   14.7200 C   0  0  0  0  0
    9.3580   11.4180   20.5890 C   0  0  0  0  0
    9.7800   13.6340   19.3940 C   0  0  0  0  0
    6.4340   11.7640   13.5310 C   0  0  0  0  0
    9.6860   12.0650   21.8480 C   0  0  0  0  0
   10.0580   14.2060   20.6450 C   0  0  0  0  0
    5.7710   11.8370   12.2360 O   0  0  0  0  0
   10.0220   13.4650   21.9210 C   0  0  0  0  0
    9.6320   11.3230   23.0320 C   0  0  0  0  0
   10.3710   15.5490   20.3560 C   0  0  0  0  0
    9.5840   10.6950   24.0360 N   0  0  0  0  0
   10.6350   16.6900   20.1090 N   0  0  0  0  0
    5.5361   11.8394   16.1452 H   0  0  0  0  0
    6.0401   12.5489   17.7445 H   0  0  0  0  0
   11.7723   12.0476   16.5738 H   0  0  0  0  0
   11.6099   13.8243   16.7365 H   0  0  0  0  0
    7.2563   13.8209   13.3310 H   0  0  0  0  0
    6.0115   13.6999   14.5413 H   0  0  0  0  0
    6.6341    9.8513   16.7040 H   0  0  0  0  0
    7.1271   10.5452   18.2681 H   0  0  0  0  0
    5.4012   10.2882   17.9124 H   0  0  0  0  0
   11.8509   12.2879   14.0880 H   0  0  0  0  0
   11.6895   14.0539   14.2498 H   0  0  0  0  0
   13.1503   13.2343   14.8542 H   0  0  0  0  0
    9.0827   10.3647   20.5366 H   0  0  0  0  0
    9.8417   14.2197   18.4768 H   0  0  0  0  0
    5.7248   11.3259   14.2333 H   0  0  0  0  0
    7.3433   11.1782   13.3964 H   0  0  0  0  0
    5.5400   10.9516   11.9456 H   0  0  0  0  0
   10.2388   13.9523   22.8716 H   0  0  0  0  0
  1  2  4  0  0  0
  1  3  4  0  0  0
  1  4  1  0  0  0
  2  5  4  0  0  0
  2  6  1  0  0  0
  3  7  4  0  0  0
  3  8  1  0  0  0
  4  9  1  0  0  0
  5  7  4  0  0  0
  5 10  1  0  0  0
  6 11  1  0  0  0
  8 12  1  0  0  0
  9 13  4  0  0  0
  9 14  4  0  0  0
 10 15  1  0  0  0
 13 16  4  0  0  0
 14 17  4  0  0  0
 15 18  1  0  0  0
 16 19  4  0  0  0
 16 20  1  0  0  0
 17 19  4  0  0  0
 17 21  1  0  0  0
 20 22  3  0  0  0
 21 23  3  0  0  0
  6 24  1  0  0  0
  6 25  1  0  0  0
  8 26  1  0  0  0
  8 27  1  0  0  0
 10 28  1  0  0  0
 10 29  1  0  0  0
 11 30  1  0  0  0
 11 31  1  0  0  0
 11 32  1  0  0  0
 12 33  1  0  0  0
 12 34  1  0  0  0
 12 35  1  0  0  0
 13 36  1  0  0  0
 14 37  1  0  0  0
 15 38  1  0  0  0
 15 39  1  0  0  0
 18 40  1  0  0  0
 19 41  1  0  0  0
M  END
$$$$
