### 
### Created by X-TOOL on Fri Nov  2 10:54:42 2018
### 

@<TRIPOS>MOLECULE
5iz6_ligand
  117   118     1     0     0
SMALL
GAST_HUCK


@<TRIPOS>ATOM
      1 C1          7.0760   10.4400   96.4930 C.2       1 PHQ         0.3239
      2 O1          6.8200   11.2780   95.6520 O.2       1 PHQ        -0.3773
      3 O2          7.9810    9.4250   96.0780 O.3       1 PHQ        -0.2506
      4 C2          9.2280    9.3290   96.7150 C.3       1 PHQ         0.1113
      5 C3          9.5280    7.8720   96.8060 C.ar      1 PHQ        -0.0130
      6 C4          9.1380    7.2150   97.9680 C.ar      1 PHQ        -0.0578
      7 C5          9.3890    5.8580   98.0680 C.ar      1 PHQ        -0.0685
      8 C6         10.0130    5.1500   97.0320 C.ar      1 PHQ        -0.0687
      9 C7         10.4010    5.8150   95.8730 C.ar      1 PHQ        -0.0685
     10 C8         10.1500    7.1890   95.7500 C.ar      1 PHQ        -0.0578
     11 N           6.5580   10.3560   97.7230 N.am      1 PHQ        -0.2413
     12 CA          5.4640   11.2390   98.1270 C.3       1 PHQ         0.1300
     13 C           5.9170   12.6760   98.3280 C.2       1 PHQ         0.2034
     14 O           5.1810   13.6120   98.0370 O.2       1 PHQ        -0.3944
     15 CB          4.7960   10.7310   99.3930 C.3       1 PHQ        -0.0244
     16 N           7.1320   12.8370   98.8570 N.am      1 PHQ        -0.2664
     17 CA          7.6490   14.1470   99.1500 C.3       1 PHQ         0.1201
     18 C           7.0060   14.6730  100.4100 C.2       1 PHQ         0.2007
     19 O           6.5010   13.9120  101.2280 O.2       1 PHQ        -0.3947
     20 N           7.0060   15.9900  100.5260 N.am      1 PHQ        -0.2639
     21 CA          6.6330   16.6820  101.7550 C.3       1 PHQ         0.1324
     22 C           5.7670   17.8590  101.3780 C.2       1 PHQ         0.2040
     23 O           5.7990   18.3080  100.2250 O.2       1 PHQ        -0.3944
     24 CB          7.8900   17.1400  102.4980 C.3       1 PHQ        -0.0008
     25 CG          8.7880   18.0620  101.6750 C.3       1 PHQ         0.0044
     26 CD         10.0860   18.4200  102.3870 C.2       1 PHQ         0.0350
     27 OE1        11.0060   18.9540  101.7280 O.co2     1 PHQ        -0.5690
     28 OE2        10.1930   18.1600  103.6110 O.co2     1 PHQ        -0.5690
     29 N           4.9870   18.3610  102.3310 N.am      1 PHQ        -0.2640
     30 CA          4.1550   19.5300  102.0630 C.3       1 PHQ         0.1282
     31 C           3.8190   20.3090  103.3120 C.2       1 PHQ         0.2036
     32 O           3.8020   19.7600  104.4100 O.2       1 PHQ        -0.3944
     33 CB          2.8770   19.1100  101.3400 C.3       1 PHQ        -0.0244
     34 N           3.5300   21.6010  103.1190 N.am      1 PHQ        -0.2637
     35 CA          2.8420   22.4050  104.1340 C.3       1 PHQ         0.1312
     36 C           1.4570   21.8020  104.3620 C.2       1 PHQ         0.2040
     37 O           0.9280   21.1000  103.4970 O.2       1 PHQ        -0.3944
     38 CB          2.6790   23.8640  103.6930 C.3       1 PHQ        -0.0101
     39 CG          3.9460   24.6900  103.4800 C.3       1 PHQ        -0.0425
     40 CD1         3.5890   26.1070  103.0180 C.3       1 PHQ        -0.0625
     41 CD2         4.7840   24.7140  104.7450 C.3       1 PHQ        -0.0625
     42 N           0.8740   22.0950  105.5130 N.am      1 PHQ        -0.2621
     43 CA         -0.3810   21.4710  105.9010 C.3       1 PHQ         0.1390
     44 C          -1.4690   21.9000  104.9300 C.2       1 PHQ         0.2057
     45 O          -1.5150   23.0440  104.5560 O.2       1 PHQ        -0.3942
     46 CB         -0.7830   21.8260  107.3410 C.3       1 PHQ         0.0163
     47 CG         -2.1270   21.2220  107.6670 C.ar      1 PHQ        -0.0493
     48 CD1        -2.2440   19.8430  107.9230 C.ar      1 PHQ        -0.0685
     49 CD2        -3.3000   22.0000  107.6350 C.ar      1 PHQ        -0.0685
     50 CE1        -3.4810   19.2680  108.1820 C.ar      1 PHQ        -0.0398
     51 CE2        -4.5370   21.4300  107.8910 C.ar      1 PHQ        -0.0398
     52 CZ         -4.6250   20.0680  108.1710 C.ar      1 PHQ         0.0805
     53 OH         -5.8490   19.5050  108.4350 O.3       1 PHQ        -0.3376
     54 N          -2.3400   20.9820  104.5320 N.am      1 PHQ        -0.2635
     55 CA         -3.3910   21.2980  103.5550 C.3       1 PHQ         0.1321
     56 C          -4.7390   20.6910  103.9310 C.2       1 PHQ         0.1993
     57 O          -4.8240   19.8150  104.7710 O.2       1 PHQ        -0.3947
     58 CB         -2.9700   20.8960  102.1240 C.3       1 PHQ        -0.0008
     59 CG         -2.0700   19.6610  101.9960 C.3       1 PHQ         0.0044
     60 CD         -1.1030   19.7460  100.8160 C.2       1 PHQ         0.0350
     61 OE1        -1.0900   18.8170   99.9760 O.co2     1 PHQ        -0.5690
     62 OE2        -0.3440   20.7410  100.7300 O.co2     1 PHQ        -0.5690
     63 N          -5.8880   21.1960  103.2850 N.am      1 PHQ        -0.2990
     64 H1          9.1796    9.7733   97.7201 H         1 PHQ         0.0776
     65 H2         10.0004    9.8426   96.1238 H         1 PHQ         0.0776
     66 H3          8.6504    7.7516   98.7738 H         1 PHQ         0.0557
     67 H4          9.0962    5.3303   98.9685 H         1 PHQ         0.0599
     68 H5         10.1931    4.0859   97.1334 H         1 PHQ         0.0559
     69 H6         10.8932    5.2754   95.0719 H         1 PHQ         0.0599
     70 H7         10.4338    7.7185   94.8477 H         1 PHQ         0.0557
     71 H8          6.9206    9.6856   98.3704 H         1 PHQ         0.1899
     72 H9          4.7169   11.2320   97.3197 H         1 PHQ         0.0796
     73 H10         3.9788   11.4113   99.6746 H         1 PHQ         0.0277
     74 H11         5.5353   10.6896  100.2064 H         1 PHQ         0.0277
     75 H12         4.3900    9.7243   99.2148 H         1 PHQ         0.0277
     76 H13         7.6928   12.0326   99.0531 H         1 PHQ         0.1881
     77 H14         7.4244   14.8251   98.3135 H         1 PHQ         0.0763
     78 H15         8.7382   14.0878   99.2918 H         1 PHQ         0.0763
     79 H16         7.2744   16.5379   99.7337 H         1 PHQ         0.1883
     80 H17         6.0621   16.0013  102.4036 H         1 PHQ         0.0801
     81 H18         8.4712   16.2494  102.7790 H         1 PHQ         0.0330
     82 H19         7.5801   17.6773  103.4064 H         1 PHQ         0.0330
     83 H20         8.2371   18.9902  101.4631 H         1 PHQ         0.0433
     84 H21         9.0348   17.5579  100.7290 H         1 PHQ         0.0433
     85 H22         4.9704   17.9354  103.2358 H         1 PHQ         0.1883
     86 H23         4.7219   20.1973  101.3971 H         1 PHQ         0.0797
     87 H24         2.2583   19.9980  101.1433 H         1 PHQ         0.0277
     88 H25         2.3152   18.4037  101.9688 H         1 PHQ         0.0277
     89 H26         3.1370   18.6259  100.3871 H         1 PHQ         0.0277
     90 H27         3.7914   22.0319  102.2553 H         1 PHQ         0.1883
     91 H28         3.4193   22.3756  105.0699 H         1 PHQ         0.0800
     92 H29         2.0804   24.3742  104.4620 H         1 PHQ         0.0315
     93 H30         2.1268   23.8594  102.7417 H         1 PHQ         0.0315
     94 H31         4.5397   24.2120  102.6869 H         1 PHQ         0.0298
     95 H32         4.5115   26.6875  102.8695 H         1 PHQ         0.0232
     96 H33         2.9670   26.5961  103.7822 H         1 PHQ         0.0232
     97 H34         3.0324   26.0545  102.0707 H         1 PHQ         0.0232
     98 H35         5.0212   23.6833  105.0472 H         1 PHQ         0.0232
     99 H36         4.2209   25.2113  105.5485 H         1 PHQ         0.0232
    100 H37         5.7173   25.2647  104.5562 H         1 PHQ         0.0232
    101 H38         1.3038   22.7571  106.1269 H         1 PHQ         0.1885
    102 H39        -0.2603   20.3795  105.8379 H         1 PHQ         0.0821
    103 H40        -0.8409   22.9197  107.4437 H         1 PHQ         0.0453
    104 H41        -0.0282   21.4318  108.0374 H         1 PHQ         0.0453
    105 H42        -1.3561   19.2212  107.9179 H         1 PHQ         0.0530
    106 H43        -3.2348   23.0578  107.4073 H         1 PHQ         0.0530
    107 H44        -3.5578   18.2071  108.3909 H         1 PHQ         0.0525
    108 H45        -5.4321   22.0411  107.8735 H         1 PHQ         0.0525
    109 H46        -5.7394   18.5767  108.6047 H         1 PHQ         0.2458
    110 H47        -2.2801   20.0559  104.9045 H         1 PHQ         0.1883
    111 H48        -3.5178   22.3906  103.5616 H         1 PHQ         0.0801
    112 H49        -2.4327   21.7480  101.6821 H         1 PHQ         0.0330
    113 H50        -3.8869   20.7022  101.5481 H         1 PHQ         0.0330
    114 H51        -2.7079   18.7748  101.8631 H         1 PHQ         0.0433
    115 H52        -1.4850   19.5563  102.9216 H         1 PHQ         0.0433
    116 H53        -6.7896   20.8235  103.5049 H         1 PHQ         0.1815
    117 H54        -5.8004   21.9263  102.6075 H         1 PHQ         0.1815
@<TRIPOS>BOND
     1    1    2 2  
     2    1    3 1  
     3    1   11 am 
     4    3    4 1  
     5    4    5 1  
     6    5    6 ar 
     7    5   10 ar 
     8    6    7 ar 
     9    7    8 ar 
    10    8    9 ar 
    11    9   10 ar 
    12   11   12 1  
    13   12   13 1  
    14   12   15 1  
    15   13   14 2  
    16   13   16 am 
    17   16   17 1  
    18   17   18 1  
    19   18   19 2  
    20   18   20 am 
    21   20   21 1  
    22   21   22 1  
    23   21   24 1  
    24   22   23 2  
    25   22   29 am 
    26   24   25 1  
    27   25   26 1  
    28   26   27 ar 
    29   26   28 ar 
    30   29   30 1  
    31   30   31 1  
    32   30   33 1  
    33   31   32 2  
    34   31   34 am 
    35   34   35 1  
    36   35   36 1  
    37   35   38 1  
    38   36   37 2  
    39   36   42 am 
    40   38   39 1  
    41   39   40 1  
    42   39   41 1  
    43   42   43 1  
    44   43   44 1  
    45   43   46 1  
    46   44   45 2  
    47   44   54 am 
    48   46   47 1  
    49   47   48 ar 
    50   47   49 ar 
    51   48   50 ar 
    52   49   51 ar 
    53   50   52 ar 
    54   51   52 ar 
    55   52   53 1  
    56   54   55 1  
    57   55   56 1  
    58   55   58 1  
    59   56   57 2  
    60   56   63 am 
    61   58   59 1  
    62   59   60 1  
    63   60   61 ar 
    64   60   62 ar 
    65    4   64 1  
    66    4   65 1  
    67    6   66 1  
    68    7   67 1  
    69    8   68 1  
    70    9   69 1  
    71   10   70 1  
    72   11   71 1  
    73   12   72 1  
    74   15   73 1  
    75   15   74 1  
    76   15   75 1  
    77   16   76 1  
    78   17   77 1  
    79   17   78 1  
    80   20   79 1  
    81   21   80 1  
    82   24   81 1  
    83   24   82 1  
    84   25   83 1  
    85   25   84 1  
    86   29   85 1  
    87   30   86 1  
    88   33   87 1  
    89   33   88 1  
    90   33   89 1  
    91   34   90 1  
    92   35   91 1  
    93   38   92 1  
    94   38   93 1  
    95   39   94 1  
    96   40   95 1  
    97   40   96 1  
    98   40   97 1  
    99   41   98 1  
   100   41   99 1  
   101   41  100 1  
   102   42  101 1  
   103   43  102 1  
   104   46  103 1  
   105   46  104 1  
   106   48  105 1  
   107   49  106 1  
   108   50  107 1  
   109   51  108 1  
   110   53  109 1  
   111   54  110 1  
   112   55  111 1  
   113   58  112 1  
   114   58  113 1  
   115   59  114 1  
   116   59  115 1  
   117   63  116 1  
   118   63  117 1  
@<TRIPOS>SUBSTRUCTURE
     1 PHQ         1

