5iz6_ligand
  -I-interpret- 

119120  0  0  0  0  0  0  0  0999 V2000
    7.0760   10.4400   96.4930 C   0  0  0  0  0
    6.8200   11.2780   95.6520 O   0  0  0  0  0
    7.9810    9.4250   96.0780 O   0  0  0  0  0
    9.2280    9.3290   96.7150 C   0  0  0  0  0
    9.5280    7.8720   96.8060 C   0  0  0  0  0
    9.1380    7.2150   97.9680 C   0  0  0  0  0
    9.3890    5.8580   98.0680 C   0  0  0  0  0
   10.0130    5.1500   97.0320 C   0  0  0  0  0
   10.4010    5.8150   95.8730 C   0  0  0  0  0
   10.1500    7.1890   95.7500 C   0  0  0  0  0
    6.5580   10.3560   97.7230 N   0  0  0  0  0
    5.4640   11.2390   98.1270 C   0  0  0  0  0
    5.9170   12.6760   98.3280 C   0  0  0  0  0
    5.1810   13.6120   98.0370 O   0  0  0  0  0
    4.7960   10.7310   99.3930 C   0  0  0  0  0
    7.1320   12.8370   98.8570 N   0  0  0  0  0
    7.6490   14.1470   99.1500 C   0  0  0  0  0
    7.0060   14.6730  100.4100 C   0  0  0  0  0
    6.5010   13.9120  101.2280 O   0  0  0  0  0
    7.0060   15.9900  100.5260 N   0  0  0  0  0
    6.6330   16.6820  101.7550 C   0  0  0  0  0
    5.7670   17.8590  101.3780 C   0  0  0  0  0
    5.7990   18.3080  100.2250 O   0  0  0  0  0
    7.8900   17.1400  102.4980 C   0  0  0  0  0
    8.7880   18.0620  101.6750 C   0  0  0  0  0
   10.0860   18.4200  102.3870 C   0  0  0  0  0
   11.0060   18.9540  101.7280 O   0  0  0  0  0
   10.1930   18.1600  103.6110 O   0  0  0  0  0
    4.9870   18.3610  102.3310 N   0  0  0  0  0
    4.1550   19.5300  102.0630 C   0  0  0  0  0
    3.8190   20.3090  103.3120 C   0  0  0  0  0
    3.8020   19.7600  104.4100 O   0  0  0  0  0
    2.8770   19.1100  101.3400 C   0  0  0  0  0
    3.5300   21.6010  103.1190 N   0  0  0  0  0
    2.8420   22.4050  104.1340 C   0  0  0  0  0
    1.4570   21.8020  104.3620 C   0  0  0  0  0
    0.9280   21.1000  103.4970 O   0  0  0  0  0
    2.6790   23.8640  103.6930 C   0  0  0  0  0
    3.9460   24.6900  103.4800 C   0  0  0  0  0
    3.5890   26.1070  103.0180 C   0  0  0  0  0
    4.7840   24.7140  104.7450 C   0  0  0  0  0
    0.8740   22.0950  105.5130 N   0  0  0  0  0
   -0.3810   21.4710  105.9010 C   0  0  0  0  0
   -1.4690   21.9000  104.9300 C   0  0  0  0  0
   -1.5150   23.0440  104.5560 O   0  0  0  0  0
   -0.7830   21.8260  107.3410 C   0  0  0  0  0
   -2.1270   21.2220  107.6670 C   0  0  0  0  0
   -2.2440   19.8430  107.9230 C   0  0  0  0  0
   -3.3000   22.0000  107.6350 C   0  0  0  0  0
   -3.4810   19.2680  108.1820 C   0  0  0  0  0
   -4.5370   21.4300  107.8910 C   0  0  0  0  0
   -4.6250   20.0680  108.1710 C   0  0  0  0  0
   -5.8490   19.5050  108.4350 O   0  0  0  0  0
   -2.3400   20.9820  104.5320 N   0  0  0  0  0
   -3.3910   21.2980  103.5550 C   0  0  0  0  0
   -4.7390   20.6910  103.9310 C   0  0  0  0  0
   -4.8240   19.8150  104.7710 O   0  0  0  0  0
   -2.9700   20.8960  102.1240 C   0  0  0  0  0
   -2.0700   19.6610  101.9960 C   0  0  0  0  0
   -1.1030   19.7460  100.8160 C   0  0  0  0  0
   -1.0900   18.8170   99.9760 O   0  0  0  0  0
   -0.3440   20.7410  100.7300 O   0  0  0  0  0
   -5.8880   21.1960  103.2850 N   0  0  0  0  0
    9.2051    9.7910   97.7020 H   0  0  0  0  0
    9.9999    9.8581   96.1561 H   0  0  0  0  0
    8.6477    7.7546   98.7783 H   0  0  0  0  0
    9.0946    5.3274   98.9735 H   0  0  0  0  0
   10.1941    4.0800   97.1340 H   0  0  0  0  0
   10.8959    5.2724   95.0675 H   0  0  0  0  0
   10.4354    7.7214   94.8427 H   0  0  0  0  0
    6.9279    9.6722   98.3833 H   0  0  0  0  0
    4.7444   11.2304   97.3083 H   0  0  0  0  0
    4.3942    9.7335   99.2151 H   0  0  0  0  0
    5.5296   10.6904  100.1982 H   0  0  0  0  0
    3.9865   11.4059   99.6710 H   0  0  0  0  0
    7.7040   12.0165   99.0570 H   0  0  0  0  0
    7.4259   14.8188   98.3211 H   0  0  0  0  0
    8.7282   14.0879   99.2909 H   0  0  0  0  0
    7.2798   16.5488   99.7178 H   0  0  0  0  0
    6.0809   16.0184  102.4206 H   0  0  0  0  0
    8.4700   16.2488  102.7375 H   0  0  0  0  0
    7.5646   17.6996  103.3749 H   0  0  0  0  0
    8.2402   18.9876  101.4981 H   0  0  0  0  0
    9.0476   17.5380  100.7551 H   0  0  0  0  0
    9.3804   17.7552  103.9232 H   0  0  0  0  0
    4.9701   17.9269  103.2539 H   0  0  0  0  0
    4.7364   20.1952  101.4245 H   0  0  0  0  0
    3.1360   18.6305  100.3960 H   0  0  0  0  0
    2.3213   18.4101  101.9641 H   0  0  0  0  0
    2.2648   19.9907  101.1457 H   0  0  0  0  0
    3.7967   22.0405  102.2380 H   0  0  0  0  0
    3.4389   22.3954  105.0460 H   0  0  0  0  0
    2.1448   24.3555  104.5061 H   0  0  0  0  0
    2.1931   23.8205  102.7183 H   0  0  0  0  0
    4.5419   24.2233  102.6957 H   0  0  0  0  0
    3.0375   26.0536  102.0793 H   0  0  0  0  0
    2.9727   26.5905  103.7760 H   0  0  0  0  0
    4.5038   26.6812  102.8712 H   0  0  0  0  0
    4.2042   25.1565  105.5550 H   0  0  0  0  0
    5.0655   23.6954  105.0122 H   0  0  0  0  0
    5.6821   25.3073  104.5731 H   0  0  0  0  0
    1.3124   22.7704  106.1392 H   0  0  0  0  0
   -0.2497   20.3895  105.8648 H   0  0  0  0  0
   -0.8443   22.9099  107.4388 H   0  0  0  0  0
   -0.0361   21.4302  108.0292 H   0  0  0  0  0
   -1.3512   19.2178  107.9179 H   0  0  0  0  0
   -3.2344   23.0637  107.4061 H   0  0  0  0  0
   -3.5582   18.2012  108.3921 H   0  0  0  0  0
   -5.4371   22.0445  107.8734 H   0  0  0  0  0
   -6.5280   20.1821  108.3892 H   0  0  0  0  0
   -2.2789   20.0374  104.9120 H   0  0  0  0  0
   -3.5200   22.3802  103.5734 H   0  0  0  0  0
   -2.3908   21.7329  101.7338 H   0  0  0  0  0
   -3.8919   20.6533  101.5955 H   0  0  0  0  0
   -2.7139   18.7963  101.8357 H   0  0  0  0  0
   -1.4762   19.5873  102.9071 H   0  0  0  0  0
   -0.5101   21.3334  101.4669 H   0  0  0  0  0
   -6.8091   20.8263  103.5200 H   0  0  0  0  0
   -5.7971   21.9306  102.5832 H   0  0  0  0  0
  1  2  2  0  0  0
  1  3  1  0  0  0
  1 11  1  0  0  0
  3  4  1  0  0  0
  4  5  1  0  0  0
  5  6  4  0  0  0
  5 10  4  0  0  0
  6  7  4  0  0  0
  7  8  4  0  0  0
  8  9  4  0  0  0
  9 10  4  0  0  0
 11 12  1  0  0  0
 12 13  1  0  0  0
 12 15  1  0  0  0
 13 14  2  0  0  0
 13 16  1  0  0  0
 16 17  1  0  0  0
 17 18  1  0  0  0
 18 19  2  0  0  0
 18 20  1  0  0  0
 20 21  1  0  0  0
 21 22  1  0  0  0
 21 24  1  0  0  0
 22 23  2  0  0  0
 22 29  1  0  0  0
 24 25  1  0  0  0
 25 26  1  0  0  0
 26 27  2  0  0  0
 26 28  1  0  0  0
 29 30  1  0  0  0
 30 31  1  0  0  0
 30 33  1  0  0  0
 31 32  2  0  0  0
 31 34  1  0  0  0
 34 35  1  0  0  0
 35 36  1  0  0  0
 35 38  1  0  0  0
 36 37  2  0  0  0
 36 42  1  0  0  0
 38 39  1  0  0  0
 39 40  1  0  0  0
 39 41  1  0  0  0
 42 43  1  0  0  0
 43 44  1  0  0  0
 43 46  1  0  0  0
 44 45  2  0  0  0
 44 54  1  0  0  0
 46 47  1  0  0  0
 47 48  4  0  0  0
 47 49  4  0  0  0
 48 50  4  0  0  0
 49 51  4  0  0  0
 50 52  4  0  0  0
 51 52  4  0  0  0
 52 53  1  0  0  0
 54 55  1  0  0  0
 55 56  1  0  0  0
 55 58  1  0  0  0
 56 57  2  0  0  0
 56 63  1  0  0  0
 58 59  1  0  0  0
 59 60  1  0  0  0
 60 61  2  0  0  0
 60 62  1  0  0  0
  4 64  1  0  0  0
  4 65  1  0  0  0
  6 66  1  0  0  0
  7 67  1  0  0  0
  8 68  1  0  0  0
  9 69  1  0  0  0
 10 70  1  0  0  0
 11 71  1  0  0  0
 12 72  1  0  0  0
 15 73  1  0  0  0
 15 74  1  0  0  0
 15 75  1  0  0  0
 16 76  1  0  0  0
 17 77  1  0  0  0
 17 78  1  0  0  0
 20 79  1  0  0  0
 21 80  1  0  0  0
 24 81  1  0  0  0
 24 82  1  0  0  0
 25 83  1  0  0  0
 25 84  1  0  0  0
 28 85  1  0  0  0
 29 86  1  0  0  0
 30 87  1  0  0  0
 33 88  1  0  0  0
 33 89  1  0  0  0
 33 90  1  0  0  0
 34 91  1  0  0  0
 35 92  1  0  0  0
 38 93  1  0  0  0
 38 94  1  0  0  0
 39 95  1  0  0  0
 40 96  1  0  0  0
 40 97  1  0  0  0
 40 98  1  0  0  0
 41 99  1  0  0  0
 41100  1  0  0  0
 41101  1  0  0  0
 42102  1  0  0  0
 43103  1  0  0  0
 46104  1  0  0  0
 46105  1  0  0  0
 48106  1  0  0  0
 49107  1  0  0  0
 50108  1  0  0  0
 51109  1  0  0  0
 53110  1  0  0  0
 54111  1  0  0  0
 55112  1  0  0  0
 58113  1  0  0  0
 58114  1  0  0  0
 59115  1  0  0  0
 59116  1  0  0  0
 62117  1  0  0  0
 63118  1  0  0  0
 63119  1  0  0  0
M  END
$$$$
