4ohm_ligand
  -I-interpret- 

 56 58  0  0  0  0  0  0  0  0999 V2000
   -4.2500  -49.1110   15.6090 C   0  0  0  0  0
   -5.6120  -49.0890   15.8500 C   0  0  0  0  0
   -6.4130  -48.4060   14.9550 C   0  0  0  0  0
   -7.7240  -48.3960   15.1390 N   0  0  0  0  0
   -5.8800  -47.7530   13.8730 N   0  0  0  0  0
   -4.5900  -47.7450   13.6440 C   0  0  0  0  0
   -3.7340  -48.4290   14.5090 C   0  0  0  0  0
   -2.0130  -48.3280   14.2340 S   0  0  0  0  0
   -1.8650  -47.9330   12.8220 O   0  0  0  0  0
   -1.3590  -49.5870   14.6030 O   0  0  0  0  0
   -1.4170  -47.1210   15.0760 N   0  0  0  0  0
   -2.2640  -45.9410   14.8560 C   0  0  0  0  0
   -1.6710  -44.6770   15.5620 C   0  0  0  0  0
   -0.4100  -44.3720   14.8250 C   0  0  0  0  0
    0.6150  -44.0820   14.2660 C   0  0  0  0  0
    1.8700  -43.8290   13.5370 C   0  0  0  0  0
   -1.4620  -47.3920   16.5050 C   0  0  0  0  0
   -0.6910  -46.2650   17.2290 C   0  0  0  0  0
   -1.2450  -44.9380   16.9230 N   0  0  0  0  0
   -0.9960  -43.8990   17.8100 C   0  0  0  0  0
   -1.0570  -42.6070   17.3940 C   0  0  0  0  0
   -0.7840  -41.5660   18.2690 C   0  0  0  0  0
   -0.6670  -44.1190   19.1490 C   0  0  0  0  0
   -0.4140  -43.0770   20.0420 C   0  0  0  0  0
   -0.4690  -41.7830   19.5910 C   0  0  0  0  0
   -0.1330  -40.6140   20.4770 C   0  0  0  0  0
   -1.2150  -40.3280   21.5050 C   0  0  0  0  0
   -2.3130  -40.0570   20.8210 F   0  0  0  0  0
   -1.2320  -41.3780   22.3550 F   0  0  0  0  0
   -0.9940  -39.2160   22.2000 F   0  0  0  0  0
    0.0710  -39.4520   19.6840 O   0  0  0  0  0
    1.2250  -40.8510   21.1000 C   0  0  0  0  0
    1.5710  -39.5800   21.6950 O   0  0  0  0  0
   -3.5842  -49.6588   16.2759 H   0  0  0  0  0
   -6.0389  -49.5935   16.7168 H   0  0  0  0  0
   -8.1312  -48.8886   15.9339 H   0  0  0  0  0
   -8.3269  -47.8957   14.4858 H   0  0  0  0  0
   -4.1882  -47.2083   12.7846 H   0  0  0  0  0
   -3.2516  -46.1400   15.2722 H   0  0  0  0  0
   -2.3180  -45.7471   13.7847 H   0  0  0  0  0
   -2.4299  -43.8946   15.5684 H   0  0  0  0  0
    2.6260  -44.5457   13.8580 H   0  0  0  0  0
    1.6953  -43.9382   12.4666 H   0  0  0  0  0
    2.2140  -42.8166   13.7489 H   0  0  0  0  0
   -1.0060  -48.3585   16.7197 H   0  0  0  0  0
   -2.4954  -47.4233   16.8501 H   0  0  0  0  0
    0.3454  -46.2888   16.8922 H   0  0  0  0  0
   -0.7729  -46.4302   18.3033 H   0  0  0  0  0
   -1.3236  -42.3860   16.3605 H   0  0  0  0  0
   -0.8202  -40.5420   17.8972 H   0  0  0  0  0
   -0.6054  -45.1453   19.5111 H   0  0  0  0  0
   -0.1758  -43.2888   21.0844 H   0  0  0  0  0
    0.2849  -38.7101   20.2545 H   0  0  0  0  0
    1.9626  -41.1750   20.3658 H   0  0  0  0  0
    1.2049  -41.6562   21.8344 H   0  0  0  0  0
    2.4309  -39.6486   22.1162 H   0  0  0  0  0
  1  2  4  0  0  0
  1  7  4  0  0  0
  2  3  4  0  0  0
  3  4  1  0  0  0
  3  5  4  0  0  0
  5  6  4  0  0  0
  6  7  4  0  0  0
  7  8  1  0  0  0
  8  9  2  0  0  0
  8 10  2  0  0  0
  8 11  1  0  0  0
 11 12  1  0  0  0
 11 17  1  0  0  0
 12 13  1  0  0  0
 13 14  1  0  0  0
 13 19  1  0  0  0
 14 15  3  0  0  0
 15 16  1  0  0  0
 17 18  1  0  0  0
 18 19  1  0  0  0
 19 20  1  0  0  0
 20 21  4  0  0  0
 20 23  4  0  0  0
 21 22  4  0  0  0
 22 25  4  0  0  0
 23 24  4  0  0  0
 24 25  4  0  0  0
 25 26  1  0  0  0
 26 27  1  0  0  0
 26 31  1  0  0  0
 26 32  1  0  0  0
 27 28  1  0  0  0
 27 29  1  0  0  0
 27 30  1  0  0  0
 32 33  1  0  0  0
  1 34  1  0  0  0
  2 35  1  0  0  0
  4 36  1  0  0  0
  4 37  1  0  0  0
  6 38  1  0  0  0
 12 39  1  0  0  0
 12 40  1  0  0  0
 13 41  1  0  0  0
 16 42  1  0  0  0
 16 43  1  0  0  0
 16 44  1  0  0  0
 17 45  1  0  0  0
 17 46  1  0  0  0
 18 47  1  0  0  0
 18 48  1  0  0  0
 21 49  1  0  0  0
 22 50  1  0  0  0
 23 51  1  0  0  0
 24 52  1  0  0  0
 31 53  1  0  0  0
 32 54  1  0  0  0
 32 55  1  0  0  0
 33 56  1  0  0  0
M  END
$$$$
