6szj_ligand
  -I-interpret- 

 41 42  0  0  0  0  0  0  0  0999 V2000
  -37.1220   32.9890   -0.2450 C   0  0  0  0  0
  -37.7600   33.3940    0.9590 O   0  0  0  0  0
  -38.5060   34.5640    0.9970 C   0  0  0  0  0
  -38.9700   34.9310    2.2370 C   0  0  0  0  0
  -39.7270   36.0720    2.3860 C   0  0  0  0  0
  -40.0210   36.8590    1.2910 C   0  0  0  0  0
  -39.5660   36.4960    0.0420 C   0  0  0  0  0
  -38.8070   35.3510   -0.0990 C   0  0  0  0  0
  -39.8720   37.3420   -1.1400 C   0  0  0  0  0
  -39.6580   38.6590   -1.0810 N   0  0  0  0  0
  -40.0250   39.1630   -2.3340 N   0  0  0  0  0
  -40.4460   38.1650   -3.1470 C   0  0  0  0  0
  -40.8650   38.3540   -4.4260 N   0  0  0  0  0
  -40.3700   36.9740   -2.4210 C   0  0  0  0  0
  -40.7720   35.6800   -3.0090 C   0  0  0  0  0
  -40.9840   34.6320   -2.2160 N   0  0  0  0  0
  -40.9340   35.5870   -4.2180 O   0  0  0  0  0
  -39.8850   40.6610   -2.5300 C   0  0  0  0  0
  -41.1670   41.2830   -3.0320 C   0  0  0  0  0
  -38.8220   40.9430   -3.5660 C   0  0  0  0  0
  -39.5620   41.3620   -1.2190 C   0  0  0  0  0
  -37.8728   32.8454   -1.0220 H   0  0  0  0  0
  -36.4165   33.7588   -0.5576 H   0  0  0  0  0
  -36.5892   32.0533   -0.0754 H   0  0  0  0  0
  -38.7380   34.3164    3.1068 H   0  0  0  0  0
  -40.0952   36.3544    3.3723 H   0  0  0  0  0
  -40.6123   37.7664    1.4140 H   0  0  0  0  0
  -38.4413   35.0647   -1.0851 H   0  0  0  0  0
  -40.8745   39.2922   -4.8262 H   0  0  0  0  0
  -41.1699   37.5577   -4.9857 H   0  0  0  0  0
  -41.2839   33.7427   -2.6154 H   0  0  0  0  0
  -40.8465   34.7183   -1.2090 H   0  0  0  0  0
  -41.4361   40.8356   -3.9888 H   0  0  0  0  0
  -41.9632   41.1046   -2.3093 H   0  0  0  0  0
  -41.0234   42.3560   -3.1588 H   0  0  0  0  0
  -37.8703   40.5319   -3.2294 H   0  0  0  0  0
  -39.1055   40.4797   -4.5110 H   0  0  0  0  0
  -38.7261   42.0202   -3.7024 H   0  0  0  0  0
  -40.3634   41.1786   -0.5033 H   0  0  0  0  0
  -38.6235   40.9742   -0.8227 H   0  0  0  0  0
  -39.4684   42.4336   -1.3949 H   0  0  0  0  0
  1  2  1  0  0  0
  2  3  1  0  0  0
  3  4  4  0  0  0
  3  8  4  0  0  0
  4  5  4  0  0  0
  5  6  4  0  0  0
  6  7  4  0  0  0
  7  8  4  0  0  0
  7  9  1  0  0  0
  9 10  4  0  0  0
  9 14  4  0  0  0
 10 11  4  0  0  0
 11 12  4  0  0  0
 11 18  1  0  0  0
 12 13  1  0  0  0
 12 14  4  0  0  0
 14 15  1  0  0  0
 15 16  1  0  0  0
 15 17  2  0  0  0
 18 19  1  0  0  0
 18 20  1  0  0  0
 18 21  1  0  0  0
  1 22  1  0  0  0
  1 23  1  0  0  0
  1 24  1  0  0  0
  4 25  1  0  0  0
  5 26  1  0  0  0
  6 27  1  0  0  0
  8 28  1  0  0  0
 13 29  1  0  0  0
 13 30  1  0  0  0
 16 31  1  0  0  0
 16 32  1  0  0  0
 19 33  1  0  0  0
 19 34  1  0  0  0
 19 35  1  0  0  0
 20 36  1  0  0  0
 20 37  1  0  0  0
 20 38  1  0  0  0
 21 39  1  0  0  0
 21 40  1  0  0  0
 21 41  1  0  0  0
M  END
$$$$
