4qj0_ligand
  -I-interpret- 

 56 58  0  0  0  0  0  0  0  0999 V2000
   29.0720    7.1810   12.2030 O   0  0  0  0  0
   28.7210    6.6990   10.7700 S   0  0  0  0  0
   29.9920    5.8780   10.3770 O   0  0  0  0  0
   30.1100    8.7190    9.5440 C   0  0  0  0  0
   29.9850    9.7900   10.4560 O   0  0  0  0  0
   28.7350    8.0410    9.5560 C   0  0  0  0  0
   27.2500    5.6520   10.6850 C   0  0  0  0  0
   27.1560    4.9300    9.5020 C   0  0  0  0  0
   28.0850    5.0780    8.5000 F   0  0  0  0  0
   26.0880    4.0330    9.3360 C   0  0  0  0  0
   26.0040    3.3460    8.1790 F   0  0  0  0  0
   26.2550    5.5480   11.6850 C   0  0  0  0  0
   25.1820    4.6710   11.4670 C   0  0  0  0  0
   24.1970    4.4430   12.3000 F   0  0  0  0  0
   25.1210    3.9260   10.2950 C   0  0  0  0  0
   23.8510    2.6960   10.1090 S   0  0  0  0  0
   23.1210    2.9310    8.7890 O   0  0  0  0  0
   22.7130    2.3780   11.2170 N   0  0  0  0  0
   24.7060    1.4380    9.9240 O   0  0  0  0  0
   26.3660    6.3250   12.8590 N   0  0  0  0  0
   25.3330    7.3770   13.0780 C   0  0  0  0  0
   25.7450    8.5820   12.2560 C   0  0  0  0  0
   25.2740    8.6720   10.9350 C   0  0  0  0  0
   25.7000    9.7750   10.1130 C   0  0  0  0  0
   26.5550   10.7770   10.6150 C   0  0  0  0  0
   26.9730   10.6740   11.9540 C   0  0  0  0  0
   26.5820    9.5860   12.7630 C   0  0  0  0  0
   25.1340    7.7310   14.5770 C   0  0  0  0  0
   24.1300    8.6640   14.6520 O   0  0  0  0  0
   24.7410    6.4340   15.1850 C   0  0  0  0  0
   23.3850    6.0190   15.1030 C   0  0  0  0  0
   22.9960    4.7440   15.5410 C   0  0  0  0  0
   23.9980    3.9480   16.0640 C   0  0  0  0  0
   25.3540    4.4310   16.1880 C   0  0  0  0  0
   25.7840    5.6740   15.6950 C   0  0  0  0  0
   30.9066    8.0315    9.8283 H   0  0  0  0  0
   30.3874    9.0619    8.5472 H   0  0  0  0  0
   30.8165   10.2675   10.5030 H   0  0  0  0  0
   27.9744    8.7749    9.8225 H   0  0  0  0  0
   28.5264    7.6333    8.5669 H   0  0  0  0  0
   21.7289    2.3681   10.9490 H   0  0  0  0  0
   22.9805    2.1877   12.1827 H   0  0  0  0  0
   27.1206    6.1729   13.5283 H   0  0  0  0  0
   24.3590    7.0078   12.7568 H   0  0  0  0  0
   24.5954    7.9171   10.5379 H   0  0  0  0  0
   25.3541    9.8363    9.0812 H   0  0  0  0  0
   26.8817   11.6049    9.9858 H   0  0  0  0  0
   27.6118   11.4502   12.3752 H   0  0  0  0  0
   26.9343    9.5255   13.7927 H   0  0  0  0  0
   26.0041    8.1535   15.0795 H   0  0  0  0  0
   23.9844    8.9027   15.5704 H   0  0  0  0  0
   22.6375    6.6993   14.6948 H   0  0  0  0  0
   21.9636    4.4010   15.4728 H   0  0  0  0  0
   23.7602    2.9353   16.3895 H   0  0  0  0  0
   26.0831    3.7962   16.6916 H   0  0  0  0  0
   26.8224    6.0051   15.7112 H   0  0  0  0  0
  2  1  2  0  0  0
  2  3  2  0  0  0
  6  2  1  0  0  0
  2  7  1  0  0  0
  4  5  1  0  0  0
  4  6  1  0  0  0
  7  8  4  0  0  0
  7 12  4  0  0  0
  8  9  1  0  0  0
  8 10  4  0  0  0
 10 11  1  0  0  0
 10 15  4  0  0  0
 12 13  4  0  0  0
 12 20  1  0  0  0
 13 14  1  0  0  0
 13 15  4  0  0  0
 15 16  1  0  0  0
 16 17  2  0  0  0
 16 18  1  0  0  0
 16 19  2  0  0  0
 20 21  1  0  0  0
 21 22  1  0  0  0
 21 28  1  0  0  0
 22 23  4  0  0  0
 22 27  4  0  0  0
 23 24  4  0  0  0
 24 25  4  0  0  0
 25 26  4  0  0  0
 26 27  4  0  0  0
 28 29  1  0  0  0
 28 30  1  0  0  0
 30 31  4  0  0  0
 30 35  4  0  0  0
 31 32  4  0  0  0
 32 33  4  0  0  0
 33 34  4  0  0  0
 34 35  4  0  0  0
  4 36  1  0  0  0
  4 37  1  0  0  0
  5 38  1  0  0  0
  6 39  1  0  0  0
  6 40  1  0  0  0
 18 41  1  0  0  0
 18 42  1  0  0  0
 20 43  1  0  0  0
 21 44  1  0  0  0
 23 45  1  0  0  0
 24 46  1  0  0  0
 25 47  1  0  0  0
 26 48  1  0  0  0
 27 49  1  0  0  0
 28 50  1  0  0  0
 29 51  1  0  0  0
 31 52  1  0  0  0
 32 53  1  0  0  0
 33 54  1  0  0  0
 34 55  1  0  0  0
 35 56  1  0  0  0
M  END
$$$$
