3iss_ligand
  -I-interpret- 

 75 77  0  0  0  0  0  0  0  0999 V2000
   -6.6410  -13.4470   -3.0100 N   0  0  0  0  0
   -7.1240  -14.7250   -2.9110 C   0  0  0  0  0
   -6.6650  -15.5980   -2.0290 N   0  0  0  0  0
   -5.6980  -15.2340   -1.2170 C   0  0  0  0  0
   -5.1900  -13.9610   -1.2970 C   0  0  0  0  0
   -5.6850  -13.0600   -2.2130 C   0  0  0  0  0
   -8.0100  -15.0620   -3.6700 O   0  0  0  0  0
   -5.2740  -16.0480   -0.4080 O   0  0  0  0  0
   -7.2320  -12.5820   -4.0010 C   0  0  0  0  0
   -7.6600  -11.2930   -3.3680 C   0  0  0  0  0
   -9.0650  -11.1990   -3.4050 O   0  0  0  0  0
   -7.1370  -10.2390   -4.2750 C   0  0  0  0  0
   -6.0930  -10.9070   -5.1270 C   0  0  0  0  0
   -6.3210  -12.2840   -5.0350 O   0  0  0  0  0
   -8.2400   -9.8360   -5.0600 O   0  0  0  0  0
   -4.6810  -10.7320   -4.6180 C   0  0  0  0  0
   -4.5030   -9.6740   -3.7060 O   0  0  0  0  0
   -3.1430   -9.5890   -2.9850 P   0  0  0  0  0
   -3.0910  -10.6890   -2.0790 O   0  0  0  0  0
   -2.1740   -9.4550   -4.0380 O   0  0  0  0  0
   -3.2630   -8.2410   -2.2060 O   0  0  0  0  0
   -3.0210   -7.9580   -0.6700 P   0  0  0  0  0
   -1.8490   -8.6330   -0.1880 O   0  0  0  0  0
   -4.2350   -8.1290    0.0830 O   0  0  0  0  0
   -1.5870   -5.9570   -1.0160 C   0  0  0  0  0
   -1.5590   -4.5210   -0.5750 C   0  0  0  0  0
   -2.7840   -3.8320   -1.0950 C   0  0  0  0  0
   -2.6850   -3.8910   -2.5690 C   0  0  0  0  0
   -2.6940   -5.3370   -2.9390 C   0  0  0  0  0
   -2.5970   -5.3690   -4.4240 C   0  0  0  0  0
   -0.7350   -4.3130    1.6070 C   0  0  0  0  0
   -0.9520   -4.2270    3.0680 C   0  0  0  0  0
   -1.7740   -4.4730    0.8340 N   0  0  0  0  0
   -2.8150   -6.4500   -0.6700 O   0  0  0  0  0
   -2.7760   -2.4830   -0.7410 O   0  0  0  0  0
   -3.8520   -3.2760   -3.0240 O   0  0  0  0  0
   -1.5720   -5.9780   -2.4100 O   0  0  0  0  0
   -1.7830   -4.2610   -4.7070 O   0  0  0  0  0
    0.3520   -4.2500    1.1460 O   0  0  0  0  0
   -3.0590   -1.0700    1.2070 C   0  0  0  0  0
   -2.5150   -0.1290    0.6530 O   0  0  0  0  0
   -3.1390   -1.0800    2.4340 O   0  0  0  0  0
   -3.5950   -2.2050    0.3800 C   0  0  0  0  0
   -5.0050   -1.9230   -0.0830 C   0  0  0  0  0
   -7.0557  -16.5389   -1.9801 H   0  0  0  0  0
   -4.3847  -13.6598   -0.6270 H   0  0  0  0  0
   -5.2868  -12.0470   -2.2703 H   0  0  0  0  0
   -8.0901  -13.1075   -4.4201 H   0  0  0  0  0
   -7.3104  -11.2114   -2.3388 H   0  0  0  0  0
   -9.3401  -10.3734   -2.9996 H   0  0  0  0  0
   -6.7019   -9.3780   -3.7676 H   0  0  0  0  0
   -6.1724  -10.4708   -6.1228 H   0  0  0  0  0
   -7.9625   -9.1500   -5.6715 H   0  0  0  0  0
   -4.0599  -10.5074   -5.4851 H   0  0  0  0  0
   -4.4214  -11.6494   -4.0897 H   0  0  0  0  0
   -2.3621   -8.6621   -4.5455 H   0  0  0  0  0
   -4.9424   -7.6329   -0.3355 H   0  0  0  0  0
   -0.7556   -6.5125   -0.5820 H   0  0  0  0  0
   -0.6186   -4.0804   -0.9061 H   0  0  0  0  0
   -3.6818   -4.3036   -0.6954 H   0  0  0  0  0
   -1.7964   -3.4140   -2.9824 H   0  0  0  0  0
   -3.5866   -5.8351   -2.5605 H   0  0  0  0  0
   -3.5694   -5.3169   -4.9137 H   0  0  0  0  0
   -2.1856   -6.3049   -4.8020 H   0  0  0  0  0
   -0.4203   -5.0406    3.5615 H   0  0  0  0  0
   -0.5769   -3.2713    3.4341 H   0  0  0  0  0
   -2.0181   -4.3060    3.2810 H   0  0  0  0  0
   -2.7117   -4.5611    1.2257 H   0  0  0  0  0
   -3.8593   -3.2765   -3.9840 H   0  0  0  0  0
   -1.6571   -4.1920   -5.6562 H   0  0  0  0  0
   -3.5895   -1.8789    2.7177 H   0  0  0  0  0
   -3.5969   -3.0832    1.0257 H   0  0  0  0  0
   -5.0010   -1.0630   -0.7527 H   0  0  0  0  0
   -5.3939   -2.7940   -0.6104 H   0  0  0  0  0
   -5.6339   -1.7092    0.7812 H   0  0  0  0  0
  1  2  1  0  0  0
  1  6  1  0  0  0
  9  1  1  0  0  0
  2  3  1  0  0  0
  2  7  2  0  0  0
  3  4  1  0  0  0
  5  4  1  0  0  0
  4  8  2  0  0  0
  6  5  2  0  0  0
  9 10  1  0  0  0
 14  9  1  0  0  0
 10 11  1  0  0  0
 12 10  1  0  0  0
 13 12  1  0  0  0
 12 15  1  0  0  0
 13 14  1  0  0  0
 16 13  1  0  0  0
 17 16  1  0  0  0
 18 17  1  0  0  0
 18 19  2  0  0  0
 18 20  1  0  0  0
 21 18  1  0  0  0
 22 21  1  0  0  0
 22 23  2  0  0  0
 22 24  1  0  0  0
 34 22  1  0  0  0
 26 25  1  0  0  0
 25 34  1  0  0  0
 25 37  1  0  0  0
 27 26  1  0  0  0
 26 33  1  0  0  0
 27 28  1  0  0  0
 35 27  1  0  0  0
 28 29  1  0  0  0
 28 36  1  0  0  0
 29 30  1  0  0  0
 29 37  1  0  0  0
 30 38  1  0  0  0
 31 32  1  0  0  0
 33 31  1  0  0  0
 31 39  2  0  0  0
 43 35  1  0  0  0
 40 41  2  0  0  0
 40 42  1  0  0  0
 40 43  1  0  0  0
 43 44  1  0  0  0
  3 45  1  0  0  0
  5 46  1  0  0  0
  6 47  1  0  0  0
  9 48  1  0  0  0
 10 49  1  0  0  0
 11 50  1  0  0  0
 12 51  1  0  0  0
 13 52  1  0  0  0
 15 53  1  0  0  0
 16 54  1  0  0  0
 16 55  1  0  0  0
 20 56  1  0  0  0
 24 57  1  0  0  0
 25 58  1  0  0  0
 26 59  1  0  0  0
 27 60  1  0  0  0
 28 61  1  0  0  0
 29 62  1  0  0  0
 30 63  1  0  0  0
 30 64  1  0  0  0
 32 65  1  0  0  0
 32 66  1  0  0  0
 32 67  1  0  0  0
 33 68  1  0  0  0
 36 69  1  0  0  0
 38 70  1  0  0  0
 42 71  1  0  0  0
 43 72  1  0  0  0
 44 73  1  0  0  0
 44 74  1  0  0  0
 44 75  1  0  0  0
M  END
$$$$
