3lau_ligand
  -I-interpret- 

 38 40  0  0  0  0  0  0  0  0999 V2000
   -5.5510   -8.0930   18.7460 C   0  0  0  0  0
   -5.2880   -8.4740   17.3670 C   0  0  0  0  0
   -5.2240   -9.2830   19.5620 C   0  0  0  0  0
   -6.0070   -6.7830   18.9720 C   0  0  0  0  0
   -5.4820   -7.5790   16.3160 C   0  0  0  0  0
   -4.8640   -9.7810   17.4600 N   0  0  0  0  0
   -4.8320  -10.2290   18.7220 N   0  0  0  0  0
   -5.3270   -9.3550   21.0430 N   0  0  0  0  0
   -6.2010   -5.8750   17.8880 C   0  0  0  0  0
   -5.9380   -6.2550   16.5520 C   0  0  0  0  0
   -6.2740   -8.8930   21.8910 C   0  0  0  0  0
   -6.1250   -5.2810   15.4280 C   0  0  0  0  0
   -5.9200   -9.2000   23.3530 C   0  0  0  0  0
   -7.3020   -8.2840   21.5910 O   0  0  0  0  0
   -7.3470   -5.1670   14.7320 C   0  0  0  0  0
   -5.0560   -4.4360   15.0370 C   0  0  0  0  0
   -7.0780   -9.8540   24.1110 C   0  0  0  0  0
   -7.5000   -4.2320   13.6750 C   0  0  0  0  0
   -5.1990   -3.5000   13.9830 C   0  0  0  0  0
   -6.7090  -10.1510   25.5710 C   0  0  0  0  0
   -6.4270   -3.3950   13.2980 C   0  0  0  0  0
   -6.6030   -2.4940   12.2730 O   0  0  0  0  0
   -6.2157   -6.4555   19.9905 H   0  0  0  0  0
   -5.2800   -7.9013   15.2945 H   0  0  0  0  0
   -4.5504   -9.8351   21.4978 H   0  0  0  0  0
   -6.5597   -4.8667   18.0948 H   0  0  0  0  0
   -5.6840   -8.2575   23.8471 H   0  0  0  0  0
   -5.0801   -9.8947   23.3571 H   0  0  0  0  0
   -8.1853   -5.8059   15.0099 H   0  0  0  0  0
   -4.1020   -4.5080   15.5593 H   0  0  0  0  0
   -7.3193  -10.7969   23.6202 H   0  0  0  0  0
   -7.9233   -9.1659   24.1047 H   0  0  0  0  0
   -8.4528   -4.1596   13.1505 H   0  0  0  0  0
   -4.3610   -2.8621   13.7021 H   0  0  0  0  0
   -5.8557  -10.8286   25.5981 H   0  0  0  0  0
   -6.4514   -9.2200   26.0759 H   0  0  0  0  0
   -7.5588  -10.6145   26.0721 H   0  0  0  0  0
   -5.7895   -2.0027   12.1371 H   0  0  0  0  0
  1  2  4  0  0  0
  1  3  4  0  0  0
  1  4  4  0  0  0
  2  5  4  0  0  0
  2  6  4  0  0  0
  3  7  4  0  0  0
  3  8  1  0  0  0
  4  9  4  0  0  0
  5 10  4  0  0  0
  6  7  4  0  0  0
  8 11  1  0  0  0
  9 10  4  0  0  0
 10 12  1  0  0  0
 11 13  1  0  0  0
 11 14  2  0  0  0
 12 15  4  0  0  0
 12 16  4  0  0  0
 13 17  1  0  0  0
 15 18  4  0  0  0
 16 19  4  0  0  0
 17 20  1  0  0  0
 18 21  4  0  0  0
 19 21  4  0  0  0
 21 22  1  0  0  0
  4 23  1  0  0  0
  5 24  1  0  0  0
  8 25  1  0  0  0
  9 26  1  0  0  0
 13 27  1  0  0  0
 13 28  1  0  0  0
 15 29  1  0  0  0
 16 30  1  0  0  0
 17 31  1  0  0  0
 17 32  1  0  0  0
 18 33  1  0  0  0
 19 34  1  0  0  0
 20 35  1  0  0  0
 20 36  1  0  0  0
 20 37  1  0  0  0
 22 38  1  0  0  0
M  END
$$$$
