6qyo_ligand
  -I-interpret- 

 78 82  0  0  0  0  0  0  0  0999 V2000
    9.1540   56.3450   -2.6260 C   0  0  0  0  0
   15.0390   56.5540   -7.4980 C   0  0  0  0  0
   15.0290   57.8940   -6.9020 C   0  0  0  0  0
   16.2340   59.7180   -6.0420 C   0  0  0  0  0
   13.7540   59.7180   -6.0480 C   0  0  0  0  0
    8.5470   56.1280   -1.2570 C   0  0  0  0  0
   11.0490   57.0180   -4.7570 C   0  0  0  0  0
   10.3770   58.8620   -6.7660 C   0  0  0  0  0
   10.6540   59.2630   -5.4650 C   0  0  0  0  0
   10.5770   60.8820   -5.0910 Cl  0  0  0  0  0
   14.5630   54.1770   -4.1730 N   0  0  0  0  0
   14.4250   53.3710   -3.1700 C   0  0  0  0  0
   13.3450   53.4380   -2.4030 N   0  0  0  0  0
   13.6290   55.1020   -4.4710 C   0  0  0  0  0
   11.1430   54.3710   -1.8500 S   0  0  0  0  0
   10.5090   55.6670   -2.7770 C   0  0  0  0  0
   11.3680   55.9890   -3.7690 C   0  0  0  0  0
   12.4930   55.1820   -3.7030 C   0  0  0  0  0
   12.3860   54.2900   -2.6630 C   0  0  0  0  0
   13.8000   55.9180   -5.5250 O   0  0  0  0  0
   14.8940   55.5620   -6.3960 C   0  0  0  0  0
   14.6400   54.2650   -7.1500 C   0  0  0  0  0
   13.4950   53.7280   -7.1260 O   0  0  0  0  0
   15.6400   53.7790   -7.6910 O   0  0  0  0  0
   13.7870   58.4670   -6.6270 C   0  0  0  0  0
   14.9900   60.3300   -5.7850 C   0  0  0  0  0
   16.2750   58.4730   -6.6230 C   0  0  0  0  0
   10.9990   58.3510   -4.4560 C   0  0  0  0  0
   10.4380   57.5030   -7.0370 C   0  0  0  0  0
   10.7500   56.5980   -6.0590 C   0  0  0  0  0
   11.2900   58.8480   -3.0500 C   0  0  0  0  0
   10.0870   59.7820   -7.7250 O   0  0  0  0  0
    9.1820   59.2500   -8.6890 C   0  0  0  0  0
    9.0300   60.1550   -9.8770 C   0  0  0  0  0
    8.3270   61.3970   -9.5750 N   0  3  0  0  0
    6.9840   61.4760  -10.1780 C   0  0  0  0  0
    6.4720   62.9180  -10.0480 C   0  0  0  0  0
    6.6280   63.4800   -8.6760 N   0  3  0  0  0
    7.9130   63.1330   -8.0170 C   0  0  0  0  0
    8.1990   61.7240   -8.1380 C   0  0  0  0  0
    6.5050   64.9490   -8.6910 C   0  0  0  0  0
    9.2968   57.4167   -2.7646 H   0  0  0  0  0
    8.4785   55.9150   -3.3655 H   0  0  0  0  0
   15.9721   56.3870   -8.0361 H   0  0  0  0  0
   14.2194   56.4509   -8.2092 H   0  0  0  0  0
   17.1599   60.2304   -5.7808 H   0  0  0  0  0
   12.8117   60.2092   -5.8056 H   0  0  0  0  0
    8.4095   55.0601   -1.0870 H   0  0  0  0  0
    9.2135   56.5354   -0.4967 H   0  0  0  0  0
    7.5823   56.6327   -1.2045 H   0  0  0  0  0
   15.1991   52.6344   -2.9547 H   0  0  0  0  0
   15.7591   55.4991   -5.7359 H   0  0  0  0  0
   12.8863   54.2962   -6.6483 H   0  0  0  0  0
   12.8640   57.9380   -6.8644 H   0  0  0  0  0
   14.9877   61.3332   -5.3588 H   0  0  0  0  0
   17.2141   57.9692   -6.8517 H   0  0  0  0  0
   10.2337   57.1494   -8.0476 H   0  0  0  0  0
   10.7660   55.5344   -6.2970 H   0  0  0  0  0
   10.5780   58.4038   -2.3544 H   0  0  0  0  0
   12.3030   58.5618   -2.7672 H   0  0  0  0  0
   11.1970   59.9337   -3.0233 H   0  0  0  0  0
    8.2058   59.1410   -8.2164 H   0  0  0  0  0
    9.5764   58.2950   -9.0362 H   0  0  0  0  0
    8.4440   59.6198  -10.6241 H   0  0  0  0  0
   10.0309   60.4193  -10.2181 H   0  0  0  0  0
    8.9447   62.0880  -10.0008 H   0  0  0  0  0
    6.3062   60.7940   -9.6646 H   0  0  0  0  0
    7.0323   61.1929  -11.2295 H   0  0  0  0  0
    5.4073   62.9110  -10.2812 H   0  0  0  0  0
    7.0593   63.5376  -10.7257 H   0  0  0  0  0
    5.8764   63.0517   -8.1357 H   0  0  0  0  0
    7.8393   63.3830   -6.9586 H   0  0  0  0  0
    8.7137   63.6928   -8.5003 H   0  0  0  0  0
    9.1257   61.4847   -7.6164 H   0  0  0  0  0
    7.3940   61.1398   -7.6922 H   0  0  0  0  0
    7.2787   65.3706   -9.3327 H   0  0  0  0  0
    5.5228   65.2262   -9.0739 H   0  0  0  0  0
    6.6228   65.3326   -7.6775 H   0  0  0  0  0
  1  6  1  0  0  0
 16  1  1  0  0  0
  2  3  1  0  0  0
 21  2  1  0  0  0
  3 25  4  0  0  0
  3 27  4  0  0  0
  4 26  4  0  0  0
 27  4  4  0  0  0
 25  5  4  0  0  0
  5 26  4  0  0  0
 17  7  1  0  0  0
  7 28  4  0  0  0
  7 30  4  0  0  0
  9  8  4  0  0  0
  8 29  4  0  0  0
  8 32  1  0  0  0
  9 10  1  0  0  0
 28  9  4  0  0  0
 11 12  4  0  0  0
 14 11  4  0  0  0
 12 13  4  0  0  0
 19 13  4  0  0  0
 14 18  4  0  0  0
 20 14  1  0  0  0
 15 16  4  0  0  0
 19 15  4  0  0  0
 17 16  4  0  0  0
 18 17  4  0  0  0
 18 19  4  0  0  0
 20 21  1  0  0  0
 21 22  1  0  0  0
 22 23  1  0  0  0
 22 24  2  0  0  0
 28 31  1  0  0  0
 29 30  4  0  0  0
 32 33  1  0  0  0
 33 34  1  0  0  0
 34 35  1  0  0  0
 35 36  1  0  0  0
 35 40  1  0  0  0
 36 37  1  0  0  0
 37 38  1  0  0  0
 38 39  1  0  0  0
 38 41  1  0  0  0
 39 40  1  0  0  0
  1 42  1  0  0  0
  1 43  1  0  0  0
  2 44  1  0  0  0
  2 45  1  0  0  0
  4 46  1  0  0  0
  5 47  1  0  0  0
  6 48  1  0  0  0
  6 49  1  0  0  0
  6 50  1  0  0  0
 12 51  1  0  0  0
 21 52  1  0  0  0
 23 53  1  0  0  0
 25 54  1  0  0  0
 26 55  1  0  0  0
 27 56  1  0  0  0
 29 57  1  0  0  0
 30 58  1  0  0  0
 31 59  1  0  0  0
 31 60  1  0  0  0
 31 61  1  0  0  0
 33 62  1  0  0  0
 33 63  1  0  0  0
 34 64  1  0  0  0
 34 65  1  0  0  0
 35 66  1  0  0  0
 36 67  1  0  0  0
 36 68  1  0  0  0
 37 69  1  0  0  0
 37 70  1  0  0  0
 38 71  1  0  0  0
 39 72  1  0  0  0
 39 73  1  0  0  0
 40 74  1  0  0  0
 40 75  1  0  0  0
 41 76  1  0  0  0
 41 77  1  0  0  0
 41 78  1  0  0  0
M  END
$$$$
