6o6f_ligand
  -I-interpret- 

 52 56  0  0  0  0  0  0  0  0999 V2000
  -11.8980   10.4690  -16.0080 C   0  0  0  0  0
  -10.6070   10.6280  -16.5430 C   0  0  0  0  0
  -10.2880   10.3380  -17.8770 C   0  0  0  0  0
  -17.2740    6.6600  -20.2030 C   0  0  0  0  0
  -18.6330    6.8900  -19.9530 C   0  0  0  0  0
  -19.0330    8.0110  -19.1940 C   0  0  0  0  0
  -18.0480    8.8860  -18.7050 C   0  0  0  0  0
  -14.8410   10.0440  -19.4700 C   0  0  0  0  0
  -13.8720    7.7820  -19.0120 C   0  0  0  0  0
  -16.2620    7.5190  -19.7110 C   0  0  0  0  0
  -16.6780    8.6630  -18.9610 C   0  0  0  0  0
  -13.5410    9.2150  -19.2930 C   0  0  0  0  0
  -19.6830    6.0020  -20.4560 C   0  0  0  0  0
  -14.6420    4.7450  -20.0320 C   0  0  0  0  0
  -14.2980    3.4380  -20.7870 C   0  0  0  0  0
  -13.7810    2.8360  -19.4570 C   0  0  0  0  0
  -11.1950    9.4860  -20.1280 C   0  0  0  0  0
  -14.9150    7.1780  -19.8480 N   0  0  0  0  0
  -15.7880    9.6320  -18.4860 O   0  0  0  0  0
  -20.7980    6.0910  -20.0630 O   0  0  0  0  0
  -19.3300    5.1080  -21.3690 O   0  0  0  0  0
  -14.4410    6.1150  -20.7510 C   0  0  0  0  0
  -13.7300    4.2860  -18.8750 C   0  0  0  0  0
  -11.3190    9.8780  -18.6920 C   0  0  0  0  0
  -12.6130    9.7120  -18.2160 C   0  0  0  0  0
  -12.9200   10.0030  -16.8690 C   0  0  0  0  0
   -9.3710   11.2480  -15.5230 Cl  0  0  0  0  0
  -12.6720    9.2660  -20.5630 C   0  0  0  0  0
  -12.1050   10.6976  -14.9625 H   0  0  0  0  0
   -9.2757   10.4672  -18.2600 H   0  0  0  0  0
  -16.9864    5.7915  -20.7955 H   0  0  0  0  0
  -20.0880    8.1948  -18.9907 H   0  0  0  0  0
  -18.3477    9.7534  -18.1168 H   0  0  0  0  0
  -15.2500    9.8803  -20.4670 H   0  0  0  0  0
  -14.6214   11.1048  -19.3492 H   0  0  0  0  0
  -14.2488    7.7531  -17.9896 H   0  0  0  0  0
  -12.9611    7.2166  -19.2086 H   0  0  0  0  0
  -15.6707    5.0329  -19.8150 H   0  0  0  0  0
  -13.6596    3.4601  -21.6702 H   0  0  0  0  0
  -15.0580    2.9194  -21.3714 H   0  0  0  0  0
  -12.9020    2.1918  -19.4367 H   0  0  0  0  0
  -14.3317    2.0455  -18.9471 H   0  0  0  0  0
  -10.5773    8.5993  -20.2707 H   0  0  0  0  0
  -10.6871   10.2408  -20.7283 H   0  0  0  0  0
  -18.3918    5.1938  -21.5533 H   0  0  0  0  0
  -15.0032    6.1360  -21.6846 H   0  0  0  0  0
  -13.3876    6.2646  -20.9879 H   0  0  0  0  0
  -14.0046    4.4803  -17.8382 H   0  0  0  0  0
  -12.7756    4.7785  -18.6887 H   0  0  0  0  0
  -13.9353    9.8699  -16.4954 H   0  0  0  0  0
  -12.9988   10.0802  -21.2098 H   0  0  0  0  0
  -12.7651    8.3337  -21.1201 H   0  0  0  0  0
  2  1  4  0  0  0
  1 26  4  0  0  0
  3  2  4  0  0  0
  2 27  1  0  0  0
 24  3  4  0  0  0
  4  5  4  0  0  0
 10  4  4  0  0  0
  5  6  4  0  0  0
  5 13  1  0  0  0
  7  6  4  0  0  0
 11  7  4  0  0  0
 12  8  1  0  0  0
 19  8  1  0  0  0
  9 12  1  0  0  0
 18  9  1  0  0  0
 10 11  4  0  0  0
 18 10  1  0  0  0
 11 19  1  0  0  0
 12 25  1  0  0  0
 12 28  1  0  0  0
 13 20  2  0  0  0
 13 21  1  0  0  0
 14 15  1  0  0  0
 22 14  1  0  0  0
 14 23  1  0  0  0
 15 16  1  0  0  0
 23 16  1  0  0  0
 17 24  1  0  0  0
 28 17  1  0  0  0
 18 22  1  0  0  0
 24 25  4  0  0  0
 25 26  4  0  0  0
  1 29  1  0  0  0
  3 30  1  0  0  0
  4 31  1  0  0  0
  6 32  1  0  0  0
  7 33  1  0  0  0
  8 34  1  0  0  0
  8 35  1  0  0  0
  9 36  1  0  0  0
  9 37  1  0  0  0
 14 38  1  0  0  0
 15 39  1  0  0  0
 15 40  1  0  0  0
 16 41  1  0  0  0
 16 42  1  0  0  0
 17 43  1  0  0  0
 17 44  1  0  0  0
 21 45  1  0  0  0
 22 46  1  0  0  0
 22 47  1  0  0  0
 23 48  1  0  0  0
 23 49  1  0  0  0
 26 50  1  0  0  0
 28 51  1  0  0  0
 28 52  1  0  0  0
M  END
$$$$
