4b80_ligand
  -I-interpret- 

 41 41  0  0  0  0  0  0  0  0999 V2000
   29.4310   20.0060   11.3530 S   0  0  0  0  0
   29.4260   21.0740   12.6600 N   0  0  0  0  0
   30.5720   19.1820   11.4800 O   0  0  0  0  0
   31.9770   21.4030    9.0150 C   0  0  0  0  0
   26.8710   19.5040   14.0560 N   0  3  0  0  0
   28.1370   19.4240   11.3500 O   0  0  0  0  0
   30.8930   21.7880    9.8430 C   0  0  0  0  0
   29.5960   20.9910    9.8790 C   0  0  0  0  0
   26.9850   18.1820   16.2020 C   0  0  0  0  0
   31.0540   22.9390   10.6550 C   0  0  0  0  0
   32.2300   23.6810   10.6490 C   0  0  0  0  0
   33.2660   23.2640    9.8190 C   0  0  0  0  0
   33.1700   22.1330    8.9910 C   0  0  0  0  0
   29.1540   20.5150   13.9980 C   0  0  0  0  0
   27.7230   20.6830   14.5570 C   0  0  0  0  0
   25.4100   19.7460   14.2540 C   0  0  0  0  0
   27.2590   18.1840   14.6810 C   0  0  0  0  0
   24.9990   20.9560   13.4660 C   0  0  0  0  0
   34.4270   23.9950    9.8130 F   0  0  0  0  0
   29.6045   22.0697   12.5295 H   0  0  0  0  0
   31.8790   20.5198    8.3838 H   0  0  0  0  0
   27.0629   19.4411   13.0562 H   0  0  0  0  0
   28.7683   21.6999    9.8572 H   0  0  0  0  0
   29.5963   20.3147    9.0242 H   0  0  0  0  0
   27.5645   18.9746   16.6753 H   0  0  0  0  0
   25.9229   18.3516   16.3788 H   0  0  0  0  0
   27.2750   17.2184   16.6209 H   0  0  0  0  0
   30.2337   23.2507   11.3015 H   0  0  0  0  0
   32.3373   24.5652   11.2773 H   0  0  0  0  0
   33.9992   21.8337    8.3500 H   0  0  0  0  0
   29.8047   21.0582   14.6832 H   0  0  0  0  0
   29.3116   19.4403   13.9070 H   0  0  0  0  0
   27.7448   20.6937   15.6467 H   0  0  0  0  0
   27.2956   21.6261   14.2165 H   0  0  0  0  0
   25.2067   19.9120   15.3119 H   0  0  0  0  0
   24.8458   18.8781   13.9126 H   0  0  0  0  0
   28.3250   18.0234   14.5199 H   0  0  0  0  0
   26.6661   17.3939   14.2202 H   0  0  0  0  0
   25.5640   21.8219   13.8111 H   0  0  0  0  0
   25.2023   20.7858   12.4087 H   0  0  0  0  0
   23.9333   21.1358   13.6080 H   0  0  0  0  0
  2  1  1  0  0  0
  1  3  2  0  0  0
  1  6  2  0  0  0
  1  8  1  0  0  0
 14  2  1  0  0  0
  7  4  4  0  0  0
  4 13  4  0  0  0
 15  5  1  0  0  0
  5 16  1  0  0  0
  5 17  1  0  0  0
  8  7  1  0  0  0
  7 10  4  0  0  0
 17  9  1  0  0  0
 10 11  4  0  0  0
 11 12  4  0  0  0
 13 12  4  0  0  0
 12 19  1  0  0  0
 14 15  1  0  0  0
 16 18  1  0  0  0
  2 20  1  0  0  0
  4 21  1  0  0  0
  5 22  1  0  0  0
  8 23  1  0  0  0
  8 24  1  0  0  0
  9 25  1  0  0  0
  9 26  1  0  0  0
  9 27  1  0  0  0
 10 28  1  0  0  0
 11 29  1  0  0  0
 13 30  1  0  0  0
 14 31  1  0  0  0
 14 32  1  0  0  0
 15 33  1  0  0  0
 15 34  1  0  0  0
 16 35  1  0  0  0
 16 36  1  0  0  0
 17 37  1  0  0  0
 17 38  1  0  0  0
 18 39  1  0  0  0
 18 40  1  0  0  0
 18 41  1  0  0  0
M  END
$$$$
