3n4l_ligand
  -I-interpret- 

 68 71  0  0  0  0  0  0  0  0999 V2000
   28.2980    6.8020   16.3230 C   0  0  0  0  0
   29.2890    6.7570   15.1970 C   0  0  0  0  0
   30.5420    6.3800   15.5190 N   0  0  0  0  0
   31.6670    6.3250   14.5860 C   0  0  0  0  0
   32.1000    4.8810   14.2560 C   0  0  0  0  0
   30.9870    4.1100   13.5630 C   0  0  0  0  0
   31.3770    2.7450   13.1820 N   0  3  0  0  0
   30.5730    1.9570   12.2010 C   0  0  0  0  0
   31.2820    0.6480   11.9230 C   0  0  0  0  0
   30.4490   -0.2380   11.0160 C   0  0  0  0  0
   29.1320   -0.5700   11.7060 C   0  0  0  0  0
   28.3510    0.6850   11.9900 C   0  0  0  0  0
   29.1800    1.6570   12.8070 C   0  0  0  0  0
   30.5810    2.8200   10.9300 C   0  0  0  0  0
   31.7800    2.9850   10.1960 C   0  0  0  0  0
   31.9210    3.7930    9.0490 C   0  0  0  0  0
   30.7870    4.5120    8.6790 C   0  0  0  0  0
   29.5870    4.4010    9.3970 C   0  0  0  0  0
   29.4660    3.5650   10.5180 C   0  0  0  0  0
   33.0950    3.8990    8.4390 N   0  0  0  0  0
   33.8650    2.8100    8.0370 N   0  0  0  0  0
   34.9950    3.3720    7.5570 C   0  0  0  0  0
   34.9150    4.7520    7.7070 C   0  0  0  0  0
   33.7030    5.0770    8.2820 C   0  0  0  0  0
   28.9320    7.0360   14.0540 O   0  0  0  0  0
   32.7710    7.2230   15.1610 C   0  0  0  0  0
   32.1160    8.5440   15.5500 C   0  0  0  0  0
   31.9620    8.8920   16.8940 C   0  0  0  0  0
   31.3380   10.0960   17.2270 C   0  0  0  0  0
   30.8410   10.9630   16.2600 C   0  0  0  0  0
   30.9930   10.6040   14.9450 C   0  0  0  0  0
   31.6130    9.4170   14.5690 C   0  0  0  0  0
   31.1880   10.4500   18.4980 F   0  0  0  0  0
   30.5180   11.4300   14.0530 F   0  0  0  0  0
   33.2340    4.8280   13.3820 O   0  0  0  0  0
   27.8948    7.8109   16.4103 H   0  0  0  0  0
   27.4876    6.1018   16.1203 H   0  0  0  0  0
   28.7943    6.5259   17.2534 H   0  0  0  0  0
   30.7194    6.1126   16.4872 H   0  0  0  0  0
   31.3840    6.7091   13.6060 H   0  0  0  0  0
   32.3499    4.4376   15.2199 H   0  0  0  0  0
   30.7326    4.6475   12.6495 H   0  0  0  0  0
   30.1546    4.0322   14.2624 H   0  0  0  0  0
   31.2955    2.2146   14.0494 H   0  0  0  0  0
   32.2784    2.8664   12.7203 H   0  0  0  0  0
   31.4426    0.1292   12.8680 H   0  0  0  0  0
   32.2302    0.8613   11.4295 H   0  0  0  0  0
   30.9930   -1.1590   10.8064 H   0  0  0  0  0
   30.2488    0.2840   10.0803 H   0  0  0  0  0
   29.3447   -1.0743   12.6486 H   0  0  0  0  0
   28.5426   -1.2120   11.0514 H   0  0  0  0  0
   27.4559    0.4235   12.5543 H   0  0  0  0  0
   28.0847    1.1566   11.0441 H   0  0  0  0  0
   28.6327    2.5989   12.8435 H   0  0  0  0  0
   29.3427    1.2026   13.7843 H   0  0  0  0  0
   32.6615    2.4464   10.5439 H   0  0  0  0  0
   30.8329    5.1741    7.8144 H   0  0  0  0  0
   28.7225    4.9814    9.0747 H   0  0  0  0  0
   28.5222    3.4959   11.0589 H   0  0  0  0  0
   35.8351    2.8307    7.1218 H   0  0  0  0  0
   35.6871    5.4644    7.4165 H   0  0  0  0  0
   33.3291    6.0661    8.5465 H   0  0  0  0  0
   33.5578    7.3855   14.4244 H   0  0  0  0  0
   33.2364    6.7540   16.0279 H   0  0  0  0  0
   32.3266    8.2280   17.6778 H   0  0  0  0  0
   30.3481   11.8948   16.5372 H   0  0  0  0  0
   31.7090    9.1633   13.5133 H   0  0  0  0  0
   33.9661    5.3046   13.7802 H   0  0  0  0  0
  1  2  1  0  0  0
  2  3  1  0  0  0
  2 25  2  0  0  0
  3  4  1  0  0  0
  4  5  1  0  0  0
  4 26  1  0  0  0
  5  6  1  0  0  0
  5 35  1  0  0  0
  6  7  1  0  0  0
  7  8  1  0  0  0
  8  9  1  0  0  0
  8 13  1  0  0  0
  8 14  1  0  0  0
  9 10  1  0  0  0
 10 11  1  0  0  0
 11 12  1  0  0  0
 12 13  1  0  0  0
 14 15  4  0  0  0
 14 19  4  0  0  0
 15 16  4  0  0  0
 16 17  4  0  0  0
 16 20  1  0  0  0
 17 18  4  0  0  0
 18 19  4  0  0  0
 20 21  4  0  0  0
 20 24  4  0  0  0
 21 22  4  0  0  0
 22 23  4  0  0  0
 23 24  4  0  0  0
 26 27  1  0  0  0
 27 28  4  0  0  0
 27 32  4  0  0  0
 28 29  4  0  0  0
 29 30  4  0  0  0
 29 33  1  0  0  0
 30 31  4  0  0  0
 31 32  4  0  0  0
 31 34  1  0  0  0
  1 36  1  0  0  0
  1 37  1  0  0  0
  1 38  1  0  0  0
  3 39  1  0  0  0
  4 40  1  0  0  0
  5 41  1  0  0  0
  6 42  1  0  0  0
  6 43  1  0  0  0
  7 44  1  0  0  0
  7 45  1  0  0  0
  9 46  1  0  0  0
  9 47  1  0  0  0
 10 48  1  0  0  0
 10 49  1  0  0  0
 11 50  1  0  0  0
 11 51  1  0  0  0
 12 52  1  0  0  0
 12 53  1  0  0  0
 13 54  1  0  0  0
 13 55  1  0  0  0
 15 56  1  0  0  0
 17 57  1  0  0  0
 18 58  1  0  0  0
 19 59  1  0  0  0
 22 60  1  0  0  0
 23 61  1  0  0  0
 24 62  1  0  0  0
 26 63  1  0  0  0
 26 64  1  0  0  0
 28 65  1  0  0  0
 30 66  1  0  0  0
 32 67  1  0  0  0
 35 68  1  0  0  0
M  END
$$$$
