3tu1_ligand
  -I-interpret- 

 54 56  0  0  0  0  0  0  0  0999 V2000
    7.2600    2.2350   20.9840 C   0  0  0  0  0
    6.7170    3.4980   20.7750 C   0  0  0  0  0
    7.4630    4.6110   20.9280 F   0  0  0  0  0
    5.3860    3.6090   20.4110 C   0  0  0  0  0
    4.8660    4.8280   20.2120 F   0  0  0  0  0
    4.6050    2.4680   20.2480 C   0  0  0  0  0
    5.1530    1.2030   20.4620 C   0  0  0  0  0
    6.4880    1.0800   20.8290 C   0  0  0  0  0
    7.1230   -0.2900   21.1030 C   0  0  0  0  0
    6.6320   -1.3660   20.2320 N   0  0  0  0  0
    5.6610   -2.1920   20.5980 C   0  0  0  0  0
    5.0690   -2.0370   21.6680 O   0  0  0  0  0
    7.4400   -1.4280   19.0360 C   0  0  0  0  0
    8.4890   -2.4580   18.8870 C   0  0  0  0  0
    9.1050   -2.7100   19.9160 O   0  0  0  0  0
    8.8010   -2.9060   17.6550 N   0  0  0  0  0
    9.9610   -3.7900   17.3680 C   0  0  0  0  0
    9.9380   -5.0580   18.2180 C   0  0  0  0  0
    9.9680   -4.1620   15.8870 C   0  0  0  0  0
   11.2300   -2.9800   17.6630 C   0  0  0  0  0
    7.1730   -0.4030   17.9290 C   0  0  0  0  0
    8.1940    0.4940   17.7010 C   0  0  0  0  0
    9.4800    0.6030   18.2310 C   0  0  0  0  0
   10.3200    1.6060   17.7850 C   0  0  0  0  0
    9.8850    2.4920   16.8080 C   0  0  0  0  0
   10.9280    3.7540   16.2560 Cl  0  0  0  0  0
    8.6020    2.3730   16.2800 C   0  0  0  0  0
    7.7500    1.3690   16.7250 C   0  0  0  0  0
    6.4950    1.0340   16.3990 N   0  0  0  0  0
    6.1120   -0.0270   17.1220 C   0  0  0  0  0
    4.7310   -0.6430   16.9740 C   0  0  0  0  0
    4.3320   -1.4890   17.7940 O   0  0  0  0  0
    4.0650   -0.2090   16.0230 O   0  0  0  0  0
    8.3068    2.1440   21.2740 H   0  0  0  0  0
    3.5604    2.5635   19.9518 H   0  0  0  0  0
    4.5355    0.3129   20.3416 H   0  0  0  0  0
    6.8684   -0.5636   22.1269 H   0  0  0  0  0
    8.1930   -0.1910   20.9200 H   0  0  0  0  0
    5.3829   -3.0186   19.9442 H   0  0  0  0  0
    8.3509   -2.0011   18.8630 H   0  0  0  0  0
    8.2076   -2.6225   16.8753 H   0  0  0  0  0
    9.9687   -4.7870   19.2733 H   0  0  0  0  0
    9.0247   -5.6160   18.0112 H   0  0  0  0  0
   10.8042   -5.6731   17.9741 H   0  0  0  0  0
    9.0439   -4.6849   15.6407 H   0  0  0  0  0
   10.0454   -3.2557   15.2864 H   0  0  0  0  0
   10.8198   -4.8100   15.6805 H   0  0  0  0  0
   11.2523   -2.0967   17.0247 H   0  0  0  0  0
   11.2291   -2.6739   18.7091 H   0  0  0  0  0
   12.1071   -3.5959   17.4640 H   0  0  0  0  0
    9.8203   -0.0988   18.9924 H   0  0  0  0  0
   11.3234    1.7015   18.1999 H   0  0  0  0  0
    8.2641    3.0708   15.5138 H   0  0  0  0  0
    5.0250   -1.6633   18.4351 H   0  0  0  0  0
  1  2  4  0  0  0
  1  8  4  0  0  0
  2  3  1  0  0  0
  2  4  4  0  0  0
  4  5  1  0  0  0
  4  6  4  0  0  0
  6  7  4  0  0  0
  7  8  4  0  0  0
  8  9  1  0  0  0
  9 10  1  0  0  0
 10 11  1  0  0  0
 10 13  1  0  0  0
 11 12  2  0  0  0
 13 14  1  0  0  0
 13 21  1  0  0  0
 14 15  2  0  0  0
 14 16  1  0  0  0
 16 17  1  0  0  0
 17 18  1  0  0  0
 17 19  1  0  0  0
 17 20  1  0  0  0
 21 22  4  0  0  0
 21 30  4  0  0  0
 22 23  4  0  0  0
 22 28  4  0  0  0
 23 24  4  0  0  0
 24 25  4  0  0  0
 25 26  1  0  0  0
 25 27  4  0  0  0
 27 28  4  0  0  0
 28 29  4  0  0  0
 29 30  4  0  0  0
 30 31  1  0  0  0
 31 32  1  0  0  0
 31 33  2  0  0  0
  1 34  1  0  0  0
  6 35  1  0  0  0
  7 36  1  0  0  0
  9 37  1  0  0  0
  9 38  1  0  0  0
 11 39  1  0  0  0
 13 40  1  0  0  0
 16 41  1  0  0  0
 18 42  1  0  0  0
 18 43  1  0  0  0
 18 44  1  0  0  0
 19 45  1  0  0  0
 19 46  1  0  0  0
 19 47  1  0  0  0
 20 48  1  0  0  0
 20 49  1  0  0  0
 20 50  1  0  0  0
 23 51  1  0  0  0
 24 52  1  0  0  0
 27 53  1  0  0  0
 32 54  1  0  0  0
M  END
$$$$
