1v1m_ligand
  -I-interpret- 

 45 46  0  0  0  0  0  0  0  0999 V2000
   77.0360    0.6090   11.1920 N   0  0  0  0  0
   77.2770    1.7880   11.7620 C   0  0  0  0  0
   77.4390    1.9590   13.2600 C   0  0  0  0  0
   77.3610    2.8970   10.9710 N   0  0  0  0  0
   77.2890    2.8230    9.6240 C   0  0  0  0  0
   77.4370    3.9870    8.9510 N   0  0  0  0  0
   77.0120    1.5830    9.0030 C   0  0  0  0  0
   76.9010    0.4930    9.8570 C   0  0  0  0  0
   76.8960    1.3740    7.4660 C   0  0  0  0  0
   75.6220    1.9350    7.0040 N   0  3  0  0  0
   75.7320    3.2610    6.3570 C   0  0  0  0  0
   73.9910    3.5920    5.9110 S   0  0  0  0  0
   73.3250    2.1140    6.5260 C   0  0  0  0  0
   74.3850    1.3610    7.0790 C   0  0  0  0  0
   74.1640   -0.0290    7.6780 C   0  0  0  0  0
   71.8700    1.8700    6.4450 C   0  0  0  0  0
   71.0800    2.9800    7.2100 C   0  0  0  0  0
   69.6840    2.6740    7.1470 O   0  0  0  0  0
   68.6020    3.7010    7.6550 P   0  0  0  0  0
   68.7530    5.0260    6.7070 O   0  0  0  0  0
   69.0390    4.1450    9.0110 O   0  0  0  0  0
   67.2820    3.0810    7.5180 O   0  0  0  0  0
   68.4430    5.1190    5.0550 P   0  0  0  0  0
   69.8320    4.8360    4.3350 O   0  0  0  0  0
   67.3170    4.0740    4.7440 O   0  0  0  0  0
   67.9690    6.5360    4.8620 O   0  0  0  0  0
   76.5268    1.6366   13.7620 H   0  0  0  0  0
   78.2780    1.3546   13.6048 H   0  0  0  0  0
   77.6283    3.0083   13.4863 H   0  0  0  0  0
   77.5931    4.8556    9.4625 H   0  0  0  0  0
   77.3925    3.9962    7.9320 H   0  0  0  0  0
   76.6977   -0.4899    9.4320 H   0  0  0  0  0
   76.9346    0.3094    7.2354 H   0  0  0  0  0
   77.7229    1.8752    6.9629 H   0  0  0  0  0
   76.6160    3.8765    6.1907 H   0  0  0  0  0
   74.7363   -0.7629    7.1106 H   0  0  0  0  0
   74.4948   -0.0324    8.7166 H   0  0  0  0  0
   73.1040   -0.2787    7.6321 H   0  0  0  0  0
   71.6490    0.9040    6.8990 H   0  0  0  0  0
   71.5687    1.8816    5.3975 H   0  0  0  0  0
   71.2677    3.9511    6.7519 H   0  0  0  0  0
   71.4049    3.0164    8.2498 H   0  0  0  0  0
   69.9165    4.5300    8.9531 H   0  0  0  0  0
   70.0899    3.9239    4.4869 H   0  0  0  0  0
   67.6590    3.1872    4.8787 H   0  0  0  0  0
  1  2  4  0  0  0
  1  8  4  0  0  0
  2  3  1  0  0  0
  2  4  4  0  0  0
  4  5  4  0  0  0
  5  6  1  0  0  0
  5  7  4  0  0  0
  7  8  4  0  0  0
  7  9  1  0  0  0
  9 10  1  0  0  0
 10 11  4  0  0  0
 10 14  4  0  0  0
 11 12  4  0  0  0
 12 13  4  0  0  0
 13 14  4  0  0  0
 13 16  1  0  0  0
 14 15  1  0  0  0
 16 17  1  0  0  0
 17 18  1  0  0  0
 18 19  1  0  0  0
 19 20  1  0  0  0
 19 21  1  0  0  0
 19 22  2  0  0  0
 20 23  1  0  0  0
 23 24  1  0  0  0
 23 25  1  0  0  0
 23 26  2  0  0  0
  3 27  1  0  0  0
  3 28  1  0  0  0
  3 29  1  0  0  0
  6 30  1  0  0  0
  6 31  1  0  0  0
  8 32  1  0  0  0
  9 33  1  0  0  0
  9 34  1  0  0  0
 11 35  1  0  0  0
 15 36  1  0  0  0
 15 37  1  0  0  0
 15 38  1  0  0  0
 16 39  1  0  0  0
 16 40  1  0  0  0
 17 41  1  0  0  0
 17 42  1  0  0  0
 21 43  1  0  0  0
 24 44  1  0  0  0
 25 45  1  0  0  0
M  END
$$$$
