### 
### Created by X-TOOL on Mon Sep 10 21:13:18 2018
### 

@<TRIPOS>MOLECULE
4o4r_ligand
   50    52     1     0     0
SMALL
GAST_HUCK


@<TRIPOS>ATOM
      1 OAK         7.0810   12.1540   41.7140 O.co2     1 20V        -0.5535
      2 PBK         8.0250   13.2000   40.9240 P.3       1 20V         0.2066
      3 OAL         7.1080   14.5310   40.8270 O.co2     1 20V        -0.5535
      4 OAC         8.4760   12.7440   39.5800 O.co2     1 20V        -0.5535
      5 OAX         9.2210   13.5380   41.9490 O.3       1 20V        -0.2515
      6 CAT        10.4940   12.8730   41.8890 C.3       1 20V         0.1479
      7 CBE        11.4330   13.6830   42.5370 C.ar      1 20V         0.1202
      8 CBC        11.6940   14.9500   42.0180 C.ar      1 20V         0.1455
      9 CAO        11.0340   15.3970   40.8830 C.2       1 20V         0.1387
     10 OAB        10.1630   16.2640   40.9660 O.2       1 20V        -0.3663
     11 CBA        12.6160   15.7610   42.6640 C.ar      1 20V         0.2151
     12 OAH        12.8710   16.9960   42.1480 O.3       1 20V        -0.2721
     13 CAY        13.2810   15.3340   43.8100 C.ar      1 20V         0.1329
     14 CAA        14.2070   16.1420   44.4650 C.3       1 20V         0.0113
     15 NAW        13.0120   14.1060   44.2930 N.ar      1 20V        -0.2079
     16 CBD        12.1340   13.2830   43.6830 C.ar      1 20V         0.2392
     17 NAV        11.8420   12.0890   44.1930 N.2       1 20V        -0.0611
     18 NAU        12.6720   11.3780   44.7200 N.2       1 20V        -0.0648
     19 CAZ        12.1550   10.2890   45.2860 C.ar      1 20V         0.1980
     20 CAR        12.8220    9.6430   46.3210 C.ar      1 20V         0.0861
     21 CBH        12.2570    8.5000   46.9190 C.ar      1 20V         0.1190
     22 CBG        12.9080    7.8250   47.9620 C.ar      1 20V         0.1356
     23 SBM        14.5220    8.3480   48.5720 S.o2      1 20V        -0.1314
     24 OAN        15.4980    8.3510   47.4160 O.co2     1 20V        -0.4722
     25 OAG        15.0470    7.3620   49.6010 O.co2     1 20V        -0.4722
     26 OAF        14.4640    9.7660   49.1510 O.co2     1 20V        -0.4722
     27 CAQ        12.3070    6.7030   48.5410 C.ar      1 20V         0.0585
     28 CBB        11.0600    6.2290   48.1050 C.ar      1 20V         0.1504
     29 NBJ        10.4690    5.1450   48.6530 N.2       1 20V        -0.1810
     30 OAJ         8.9870    4.7100   48.2640 O.2       1 20V        -0.4734
     31 OAI        11.1460    4.3570   49.6480 O.2       1 20V        -0.4734
     32 CAS        10.4280    6.9030   47.0730 C.ar      1 20V         0.0452
     33 CBI        11.0080    8.0270   46.4800 C.ar      1 20V         0.0917
     34 CBF        10.3310    8.6890   45.4470 C.ar      1 20V         0.1169
     35 SBL         8.7190    8.1300   44.8320 S.o2      1 20V        -0.1391
     36 OAM         8.2620    8.9830   43.6510 O.co2     1 20V        -0.4738
     37 OAE         7.7220    8.2130   45.9760 O.co2     1 20V        -0.4738
     38 OAD         8.7900    6.6800   44.3540 O.co2     1 20V        -0.4738
     39 CAP        10.9070    9.8120   44.8670 C.ar      1 20V         0.0550
     40 H1         10.7891   12.7246   40.8398 H         1 20V         0.0939
     41 H2         10.4304   11.8976   42.3935 H         1 20V         0.0939
     42 H3         11.2879   14.9780   39.9104 H         1 20V         0.1332
     43 H4         12.0684   17.5041   42.1342 H         1 20V         0.2852
     44 H5         14.6062   15.6074   45.3396 H         1 20V         0.0517
     45 H6         13.7159   17.0694   44.7949 H         1 20V         0.0517
     46 H7         15.0303   16.3873   43.7780 H         1 20V         0.0517
     47 H8         13.7775   10.0194   46.6678 H         1 20V         0.1588
     48 H9         12.8167    6.1866   49.3464 H         1 20V         0.0924
     49 H10         9.4655    6.5517   46.7190 H         1 20V         0.1116
     50 H11        10.3797   10.3296   44.0739 H         1 20V         0.0823
@<TRIPOS>BOND
     1    1    2 ar 
     2    2    3 ar 
     3    2    4 ar 
     4    2    5 1  
     5    5    6 1  
     6    6    7 1  
     7    7    8 ar 
     8    7   16 ar 
     9    8    9 1  
    10    8   11 ar 
    11    9   10 2  
    12   11   12 1  
    13   11   13 ar 
    14   13   14 1  
    15   13   15 ar 
    16   15   16 ar 
    17   16   17 1  
    18   17   18 2  
    19   18   19 1  
    20   19   20 ar 
    21   19   39 ar 
    22   20   21 ar 
    23   21   22 ar 
    24   21   33 ar 
    25   22   23 1  
    26   22   27 ar 
    27   23   24 ar 
    28   23   25 ar 
    29   23   26 ar 
    30   27   28 ar 
    31   28   29 1  
    32   28   32 ar 
    33   29   30 2  
    34   29   31 2  
    35   32   33 ar 
    36   33   34 ar 
    37   34   35 1  
    38   34   39 ar 
    39   35   36 ar 
    40   35   37 ar 
    41   35   38 ar 
    42    6   40 1  
    43    6   41 1  
    44    9   42 1  
    45   12   43 1  
    46   14   44 1  
    47   14   45 1  
    48   14   46 1  
    49   20   47 1  
    50   27   48 1  
    51   32   49 1  
    52   39   50 1  
@<TRIPOS>SUBSTRUCTURE
     1 20V         1

