3ati_ligand
  -I-interpret- 

 22 22  0  0  0  0  0  0  0  0999 V2000
   -2.9810  -13.4170   18.8090 N   0  3  0  0  0
   -2.7890  -17.2940   15.5400 O   0  0  0  0  0
   -1.7810  -13.1740   18.0390 C   0  0  0  0  0
   -1.7690  -13.9950   16.7700 C   0  0  0  0  0
   -1.2180  -13.4530   15.6120 C   0  0  0  0  0
   -1.1900  -14.1930   14.4360 C   0  0  0  0  0
   -1.7220  -15.4810   14.4160 C   0  0  0  0  0
   -2.2700  -16.0270   15.5760 C   0  0  0  0  0
   -2.6500  -18.1770   16.6530 C   0  0  0  0  0
   -2.2970  -15.2860   16.7530 C   0  0  0  0  0
   -2.9600  -12.8504   19.6569 H   0  0  0  0  0
   -3.7977  -13.1668   18.2516 H   0  0  0  0  0
   -3.0285  -14.4046   19.0597 H   0  0  0  0  0
   -0.9179  -13.4546   18.6427 H   0  0  0  0  0
   -1.7484  -12.1182   17.7702 H   0  0  0  0  0
   -0.8067  -12.4437   15.6278 H   0  0  0  0  0
   -0.7535  -13.7675   13.5324 H   0  0  0  0  0
   -1.7097  -16.0615   13.4935 H   0  0  0  0  0
   -1.5915  -18.3414   16.8547 H   0  0  0  0  0
   -3.1234  -17.7330   17.5287 H   0  0  0  0  0
   -3.1293  -19.1284   16.4224 H   0  0  0  0  0
   -2.7290  -15.7125   17.6583 H   0  0  0  0  0
  3  1  1  0  0  0
  8  2  1  0  0  0
  2  9  1  0  0  0
  4  3  1  0  0  0
  5  4  4  0  0  0
  4 10  4  0  0  0
  6  5  4  0  0  0
  7  6  4  0  0  0
  7  8  4  0  0  0
  8 10  4  0  0  0
  1 11  1  0  0  0
  1 12  1  0  0  0
  1 13  1  0  0  0
  3 14  1  0  0  0
  3 15  1  0  0  0
  5 16  1  0  0  0
  6 17  1  0  0  0
  7 18  1  0  0  0
  9 19  1  0  0  0
  9 20  1  0  0  0
  9 21  1  0  0  0
 10 22  1  0  0  0
M  END
$$$$
