3ril_ligand
  -I-interpret- 

 25 25  0  0  0  0  0  0  0  0999 V2000
  -14.8550   -4.8250   38.8600 O   0  0  0  0  0
  -12.6150   -8.2940   42.8100 O   0  0  0  0  0
  -15.8630   -7.7900   39.3770 O   0  0  0  0  0
  -14.7420   -9.0830   41.4580 O   0  0  0  0  0
  -12.6680   -5.8880   39.3610 C   0  0  0  0  0
  -12.0620   -6.3760   41.6890 C   0  0  0  0  0
  -12.4010   -5.3830   40.6960 N   0  3  0  0  0
  -14.1760   -6.0740   39.1200 C   0  0  0  0  0
  -13.2480   -7.2450   42.1050 C   0  0  0  0  0
  -14.9240   -6.9840   40.1310 C   0  0  0  0  0
  -14.0130   -7.9330   40.9550 C   0  0  0  0  0
  -14.3451   -4.3099   38.2305 H   0  0  0  0  0
  -12.1174   -7.9292   43.5454 H   0  0  0  0  0
  -16.3428   -8.3656   39.9770 H   0  0  0  0  0
  -15.2136   -9.5028   40.7349 H   0  0  0  0  0
  -12.1791   -6.8563   39.2539 H   0  0  0  0  0
  -12.2889   -5.1670   38.6368 H   0  0  0  0  0
  -11.7132   -5.8483   42.5766 H   0  0  0  0  0
  -11.3090   -7.0331   41.2538 H   0  0  0  0  0
  -13.2634   -4.9409   41.0141 H   0  0  0  0  0
  -11.5904   -4.7693   40.6146 H   0  0  0  0  0
  -14.2178   -6.6580   38.2006 H   0  0  0  0  0
  -13.9778   -6.6244   42.6249 H   0  0  0  0  0
  -15.4007   -6.3253   40.8570 H   0  0  0  0  0
  -13.2596   -8.2694   40.2427 H   0  0  0  0  0
  8  1  1  0  0  0
  9  2  1  0  0  0
 10  3  1  0  0  0
 11  4  1  0  0  0
  7  5  1  0  0  0
  5  8  1  0  0  0
  6  7  1  0  0  0
  9  6  1  0  0  0
  8 10  1  0  0  0
  9 11  1  0  0  0
 10 11  1  0  0  0
  1 12  1  0  0  0
  2 13  1  0  0  0
  3 14  1  0  0  0
  4 15  1  0  0  0
  5 16  1  0  0  0
  5 17  1  0  0  0
  6 18  1  0  0  0
  6 19  1  0  0  0
  7 20  1  0  0  0
  7 21  1  0  0  0
  8 22  1  0  0  0
  9 23  1  0  0  0
 10 24  1  0  0  0
 11 25  1  0  0  0
M  END
$$$$
