3k00_ligand
  -I-interpret- 

 87 90  0  0  0  0  0  0  0  0999 V2000
   -4.7180  -13.2830   18.8360 O   0  0  0  0  0
   -5.0250  -12.2290   19.7610 C   0  0  0  0  0
   -6.4210  -11.6180   19.5530 C   0  0  0  0  0
   -7.2330  -12.4900   18.7620 O   0  0  0  0  0
   -7.1620  -11.2190   20.8530 C   0  0  0  0  0
   -8.3170  -12.0380   21.1110 O   0  0  0  0  0
   -6.2830  -11.2750   22.1020 C   0  0  0  0  0
   -4.7330  -12.7990   21.1510 C   0  0  0  0  0
   -5.7370  -12.5790   22.1550 O   0  0  0  0  0
   -3.3780  -12.3070   21.6330 C   0  0  0  0  0
   -3.2580  -12.5890   23.0260 O   0  0  0  0  0
   -5.2100  -10.3100   22.0650 O   0  0  0  0  0
   -5.1330   -9.4900   23.2420 C   0  0  0  0  0
   -3.6940   -8.9900   23.4380 C   0  0  0  0  0
   -2.8000  -10.0270   23.8830 O   0  0  0  0  0
   -3.6790   -7.8580   24.4530 C   0  0  0  0  0
   -2.3650   -7.3860   24.7410 O   0  0  0  0  0
   -4.5210   -6.7140   23.9200 C   0  0  0  0  0
   -6.1320   -8.3330   23.0780 C   0  0  0  0  0
   -5.8810   -7.1990   23.9250 O   0  0  0  0  0
   -7.5580   -8.7900   23.4140 C   0  0  0  0  0
   -8.3610   -8.1740   22.4440 O   0  0  0  0  0
   -4.0160   -6.3090   22.6290 O   0  0  0  0  0
   -4.1140   -4.8880   22.3690 C   0  0  0  0  0
   -2.7790   -4.4010   21.7630 C   0  0  0  0  0
   -1.6980   -4.5270   22.6780 O   0  0  0  0  0
   -2.9310   -2.9170   21.4060 C   0  0  0  0  0
   -1.7700   -2.4100   20.7370 O   0  0  0  0  0
   -4.1580   -2.6610   20.5390 C   0  0  0  0  0
   -5.3000   -4.5660   21.4660 C   0  0  0  0  0
   -5.3320   -3.1590   21.1690 O   0  0  0  0  0
   -6.6810   -4.8890   22.0440 C   0  0  0  0  0
   -7.7200   -4.6520   21.0880 O   0  0  0  0  0
   -3.9810   -3.2900   19.2620 O   0  0  0  0  0
   -4.3130   -2.5380   18.0970 C   0  0  0  0  0
   -3.0180   -2.0930   17.4210 C   0  0  0  0  0
   -2.2980   -1.1290   18.2100 O   0  0  0  0  0
   -3.3410   -1.5120   16.0350 C   0  0  0  0  0
   -2.1160   -1.1450   15.3910 O   0  0  0  0  0
   -4.0980   -2.5480   15.2090 C   0  0  0  0  0
   -3.2930   -3.7200   15.0990 O   0  0  0  0  0
   -5.1470   -3.4310   17.1750 C   0  0  0  0  0
   -5.3430   -2.8730   15.8540 O   0  0  0  0  0
   -6.5540   -3.6730   17.7150 C   0  0  0  0  0
   -7.2620   -2.4220   17.8070 O   0  0  0  0  0
   -4.8838  -12.9796   17.9404 H   0  0  0  0  0
   -4.4013  -11.3494   19.6015 H   0  0  0  0  0
   -6.2476  -10.6801   19.0253 H   0  0  0  0  0
   -6.7597  -12.7274   17.9612 H   0  0  0  0  0
   -7.4619  -10.1880   20.6654 H   0  0  0  0  0
   -8.8941  -12.0261   20.3439 H   0  0  0  0  0
   -6.8862  -11.0392   22.9787 H   0  0  0  0  0
   -4.7354  -13.8803   21.0139 H   0  0  0  0  0
   -3.2923  -11.2336   21.4638 H   0  0  0  0  0
   -2.5838  -12.8121   21.0833 H   0  0  0  0  0
   -2.4048  -12.2820   23.3411 H   0  0  0  0  0
   -5.3942  -10.0575   24.1352 H   0  0  0  0  0
   -3.3434   -8.6448   22.4654 H   0  0  0  0  0
   -1.9179   -9.6635   23.9895 H   0  0  0  0  0
   -4.0866   -8.2471   25.3860 H   0  0  0  0  0
   -2.4154   -6.6753   25.3844 H   0  0  0  0  0
   -4.4793   -5.8075   24.5238 H   0  0  0  0  0
   -6.0127   -8.0352   22.0363 H   0  0  0  0  0
   -7.8500   -8.5080   24.4256 H   0  0  0  0  0
   -7.6545   -9.8756   23.3953 H   0  0  0  0  0
   -9.2787   -8.4151   22.5898 H   0  0  0  0  0
   -4.2932   -4.3588   23.3049 H   0  0  0  0  0
   -2.5582   -5.0142   20.8893 H   0  0  0  0  0
   -0.8908   -4.2145   22.2629 H   0  0  0  0  0
   -3.0541   -2.3915   22.3530 H   0  0  0  0  0
   -1.9011   -1.4818   20.5300 H   0  0  0  0  0
   -4.2739   -1.5858   20.4024 H   0  0  0  0  0
   -5.1331   -5.2005   20.5955 H   0  0  0  0  0
   -6.8528   -4.2452   22.9066 H   0  0  0  0  0
   -6.7010   -5.9431   22.3206 H   0  0  0  0  0
   -8.5697   -4.8638   21.4814 H   0  0  0  0  0
   -4.8942   -1.6496   18.3441 H   0  0  0  0  0
   -2.3741   -2.9664   17.3178 H   0  0  0  0  0
   -1.4938   -0.8773   17.7501 H   0  0  0  0  0
   -3.9703   -0.6275   16.1338 H   0  0  0  0  0
   -2.3083   -0.7808   14.5238 H   0  0  0  0  0
   -4.3105   -2.1474   14.2178 H   0  0  0  0  0
   -3.7595   -4.3798   14.5807 H   0  0  0  0  0
   -4.5651   -4.3514   17.1257 H   0  0  0  0  0
   -6.4878   -4.1238   18.7052 H   0  0  0  0  0
   -7.0891   -4.3417   17.0408 H   0  0  0  0  0
   -8.1458   -2.5800   18.1470 H   0  0  0  0  0
  1  2  1  0  0  0
  2  3  1  0  0  0
  2  8  1  0  0  0
  3  4  1  0  0  0
  3  5  1  0  0  0
  5  6  1  0  0  0
  5  7  1  0  0  0
  7  9  1  0  0  0
  7 12  1  0  0  0
  8  9  1  0  0  0
  8 10  1  0  0  0
 10 11  1  0  0  0
 12 13  1  0  0  0
 13 14  1  0  0  0
 13 19  1  0  0  0
 14 15  1  0  0  0
 14 16  1  0  0  0
 16 17  1  0  0  0
 16 18  1  0  0  0
 18 20  1  0  0  0
 18 23  1  0  0  0
 19 20  1  0  0  0
 19 21  1  0  0  0
 21 22  1  0  0  0
 23 24  1  0  0  0
 24 25  1  0  0  0
 24 30  1  0  0  0
 25 26  1  0  0  0
 25 27  1  0  0  0
 27 28  1  0  0  0
 27 29  1  0  0  0
 29 31  1  0  0  0
 29 34  1  0  0  0
 30 31  1  0  0  0
 30 32  1  0  0  0
 32 33  1  0  0  0
 34 35  1  0  0  0
 35 36  1  0  0  0
 35 42  1  0  0  0
 36 37  1  0  0  0
 36 38  1  0  0  0
 38 39  1  0  0  0
 38 40  1  0  0  0
 40 41  1  0  0  0
 40 43  1  0  0  0
 42 43  1  0  0  0
 42 44  1  0  0  0
 44 45  1  0  0  0
  1 46  1  0  0  0
  2 47  1  0  0  0
  3 48  1  0  0  0
  4 49  1  0  0  0
  5 50  1  0  0  0
  6 51  1  0  0  0
  7 52  1  0  0  0
  8 53  1  0  0  0
 10 54  1  0  0  0
 10 55  1  0  0  0
 11 56  1  0  0  0
 13 57  1  0  0  0
 14 58  1  0  0  0
 15 59  1  0  0  0
 16 60  1  0  0  0
 17 61  1  0  0  0
 18 62  1  0  0  0
 19 63  1  0  0  0
 21 64  1  0  0  0
 21 65  1  0  0  0
 22 66  1  0  0  0
 24 67  1  0  0  0
 25 68  1  0  0  0
 26 69  1  0  0  0
 27 70  1  0  0  0
 28 71  1  0  0  0
 29 72  1  0  0  0
 30 73  1  0  0  0
 32 74  1  0  0  0
 32 75  1  0  0  0
 33 76  1  0  0  0
 35 77  1  0  0  0
 36 78  1  0  0  0
 37 79  1  0  0  0
 38 80  1  0  0  0
 39 81  1  0  0  0
 40 82  1  0  0  0
 41 83  1  0  0  0
 42 84  1  0  0  0
 44 85  1  0  0  0
 44 86  1  0  0  0
 45 87  1  0  0  0
M  END
$$$$
