5ect_ligand
  -I-interpret- 

 44 45  0  0  0  0  0  0  0  0999 V2000
  -16.6890   14.9450   -0.0470 O   0  0  0  0  0
  -15.8510   14.1530    0.4390 C   0  0  0  0  0
  -16.2350   12.8950    0.9380 C   0  0  0  0  0
  -15.2660   12.0900    1.4580 C   0  0  0  0  0
  -14.5480   14.5610    0.4920 N   0  0  0  0  0
  -13.6190   13.8050    1.0670 C   0  0  0  0  0
  -12.4380   14.2440    1.0780 O   0  0  0  0  0
  -13.9590   12.5470    1.5500 N   0  0  0  0  0
  -12.9400   11.6780    2.1910 C   0  0  0  0  0
  -13.1030   11.6980    3.7240 C   0  0  0  0  0
  -13.8630   10.4430    4.0170 C   0  0  0  0  0
  -13.5940    9.9700    5.3410 O   0  0  0  0  0
  -13.1200   10.3360    1.7870 O   0  0  0  0  0
  -13.3100    9.5070    2.9430 C   0  0  0  0  0
  -14.1760    8.3580    2.5670 C   0  0  0  0  0
  -15.4690    8.8620    2.1230 O   0  0  0  0  0
  -16.5420    7.7830    1.5350 P   0  0  0  0  0
  -17.7800    8.5870    1.1060 O   0  0  0  0  0
  -16.7800    6.7120    2.5690 O   0  0  0  0  0
  -15.7600    7.1370    0.2020 N   0  0  0  0  0
  -15.5710    5.5270   -0.1820 P   0  0  0  0  0
  -15.5680    5.4310   -1.7020 O   0  0  0  0  0
  -16.5750    4.6760    0.5540 O   0  0  0  0  0
  -14.0950    5.1340    0.2920 O   0  0  0  0  0
  -13.6120    4.3720    1.6260 P   0  0  0  0  0
  -13.3280    2.9740    1.2210 O   0  0  0  0  0
  -14.6760    4.5720    2.6920 O   0  0  0  0  0
  -12.3000    5.0910    1.9600 O   0  0  0  0  0
  -17.2762   12.5738    0.9096 H   0  0  0  0  0
  -15.5178   11.0867    1.8018 H   0  0  0  0  0
  -14.2849   15.4583    0.0845 H   0  0  0  0  0
  -11.9598   12.0527    1.8961 H   0  0  0  0  0
  -13.6222   12.5898    4.0751 H   0  0  0  0  0
  -12.1453   11.7347    4.2433 H   0  0  0  0  0
  -14.9474   10.5497    3.9900 H   0  0  0  0  0
  -14.0939    9.1660    5.5001 H   0  0  0  0  0
  -12.4068    9.0425    3.3386 H   0  0  0  0  0
  -14.3130    7.7043    3.4284 H   0  0  0  0  0
  -13.7065    7.7925    1.7621 H   0  0  0  0  0
  -17.5249    9.2392    0.4494 H   0  0  0  0  0
  -15.3523    7.8070   -0.4501 H   0  0  0  0  0
  -14.8921    6.0130   -2.0569 H   0  0  0  0  0
  -14.7741    5.5097    2.8726 H   0  0  0  0  0
  -12.4894    5.9951    2.2214 H   0  0  0  0  0
  1  2  2  0  0  0
  2  3  1  0  0  0
  2  5  1  0  0  0
  3  4  2  0  0  0
  4  8  1  0  0  0
  5  6  1  0  0  0
  6  7  2  0  0  0
  6  8  1  0  0  0
  8  9  1  0  0  0
  9 10  1  0  0  0
  9 13  1  0  0  0
 10 11  1  0  0  0
 11 12  1  0  0  0
 11 14  1  0  0  0
 13 14  1  0  0  0
 14 15  1  0  0  0
 15 16  1  0  0  0
 16 17  1  0  0  0
 17 18  1  0  0  0
 17 19  2  0  0  0
 17 20  1  0  0  0
 20 21  1  0  0  0
 21 22  1  0  0  0
 21 23  2  0  0  0
 21 24  1  0  0  0
 24 25  1  0  0  0
 25 26  2  0  0  0
 25 27  1  0  0  0
 25 28  1  0  0  0
  3 29  1  0  0  0
  4 30  1  0  0  0
  5 31  1  0  0  0
  9 32  1  0  0  0
 10 33  1  0  0  0
 10 34  1  0  0  0
 11 35  1  0  0  0
 12 36  1  0  0  0
 14 37  1  0  0  0
 15 38  1  0  0  0
 15 39  1  0  0  0
 18 40  1  0  0  0
 20 41  1  0  0  0
 22 42  1  0  0  0
 27 43  1  0  0  0
 28 44  1  0  0  0
M  END
$$$$
