3t6j_ligand
  -I-interpret- 

 94 97  0  0  0  0  0  0  0  0999 V2000
  -36.2570  -15.7390   25.0410 N   0  3  0  0  0
  -35.8150  -16.5270   23.9000 C   0  0  0  0  0
  -37.0020  -17.2640   23.2850 C   0  0  0  0  0
  -37.8840  -17.7510   23.9930 O   0  0  0  0  0
  -34.6890  -17.5110   24.2810 C   0  0  0  0  0
  -35.2340  -18.6390   25.1400 C   0  0  0  0  0
  -34.0150  -18.0570   23.0320 C   0  0  0  0  0
  -37.0030  -17.3510   21.9610 N   0  0  0  0  0
  -38.2020  -17.6940   21.2030 C   0  0  0  0  0
  -38.5040  -19.1840   21.0460 C   0  0  0  0  0
  -37.6150  -19.9880   20.7790 O   0  0  0  0  0
  -38.1470  -17.0600   19.7970 C   0  0  0  0  0
  -39.1600  -17.7140   18.8690 C   0  0  0  0  0
  -38.3670  -15.5570   19.8870 C   0  0  0  0  0
  -39.7720  -19.5310   21.2440 N   0  0  0  0  0
  -40.3360  -20.7850   20.7610 C   0  0  0  0  0
  -41.4250  -20.4320   19.7580 C   0  0  0  0  0
  -42.4270  -19.8190   20.1260 O   0  0  0  0  0
  -40.9260  -21.6070   21.9070 C   0  0  0  0  0
  -41.5130  -22.9330   21.4630 C   0  0  0  0  0
  -40.6990  -24.0410   21.2550 C   0  0  0  0  0
  -42.8780  -23.0760   21.2510 C   0  0  0  0  0
  -41.2280  -25.2540   20.8490 C   0  0  0  0  0
  -43.4180  -24.2870   20.8430 C   0  0  0  0  0
  -42.5870  -25.3710   20.6450 C   0  0  0  0  0
  -43.1140  -26.5760   20.2390 O   0  0  0  0  0
  -41.2410  -20.8190   18.4860 N   0  0  0  0  0
  -42.1290  -20.3530   17.4170 C   0  0  0  0  0
  -43.3960  -21.1920   17.2730 C   0  0  0  0  0
  -43.5650  -22.1930   17.9700 O   0  0  0  0  0
  -41.2600  -20.4950   16.1660 C   0  0  0  0  0
  -40.2240  -21.5530   16.5170 C   0  0  0  0  0
  -40.2980  -21.8360   17.9990 C   0  0  0  0  0
  -44.2690  -20.7820   16.3580 N   0  0  0  0  0
  -45.5280  -21.4800   16.1300 C   0  0  0  0  0
  -45.4300  -22.4530   14.9600 C   0  0  0  0  0
  -44.3420  -22.7350   14.4570 O   0  0  0  0  0
  -46.6710  -20.4850   15.9070 C   0  0  0  0  0
  -46.3280  -19.3420   14.9940 C   0  0  0  0  0
  -45.7600  -18.1550   15.3510 C   0  0  0  0  0
  -46.5440  -19.2740   13.5780 C   0  0  0  0  0
  -45.6020  -17.3540   14.2460 N   0  0  0  0  0
  -46.0750  -18.0170   13.1450 C   0  0  0  0  0
  -47.0850  -20.1530   12.6340 C   0  0  0  0  0
  -46.1300  -17.6190   11.8090 C   0  0  0  0  0
  -47.1380  -19.7550   11.3080 C   0  0  0  0  0
  -46.6630  -18.4990   10.9090 C   0  0  0  0  0
  -46.4410  -22.9880   14.5020 O   0  0  0  0  0
  -36.9990  -15.1039   24.7471 H   0  0  0  0  0
  -36.6094  -16.3625   25.7673 H   0  0  0  0  0
  -35.4713  -15.2003   25.4055 H   0  0  0  0  0
  -35.4001  -15.8438   23.1589 H   0  0  0  0  0
  -33.9411  -16.9732   24.8637 H   0  0  0  0  0
  -35.9654  -19.2093   24.5673 H   0  0  0  0  0
  -34.4156  -19.2933   25.4403 H   0  0  0  0  0
  -35.7108  -18.2210   26.0266 H   0  0  0  0  0
  -33.1900  -18.7081   23.3210 H   0  0  0  0  0
  -34.7398  -18.6242   22.4480 H   0  0  0  0  0
  -33.6337  -17.2287   22.4348 H   0  0  0  0  0
  -36.1355  -17.1719   21.4553 H   0  0  0  0  0
  -39.0121  -17.2899   21.8101 H   0  0  0  0  0
  -37.1567  -17.2322   19.3753 H   0  0  0  0  0
  -38.9391  -18.7780   18.7841 H   0  0  0  0  0
  -40.1624  -17.5811   19.2759 H   0  0  0  0  0
  -39.1016  -17.2498   17.8845 H   0  0  0  0  0
  -39.3436  -15.3599   20.3292 H   0  0  0  0  0
  -37.5891  -15.1138   20.5087 H   0  0  0  0  0
  -38.3253  -15.1245   18.8874 H   0  0  0  0  0
  -40.3776  -18.8905   21.7572 H   0  0  0  0  0
  -39.5558  -21.3908   20.3001 H   0  0  0  0  0
  -41.7342  -21.0224   22.3464 H   0  0  0  0  0
  -40.1166  -21.8247   22.6038 H   0  0  0  0  0
  -39.6244  -23.9527   21.4146 H   0  0  0  0  0
  -43.5366  -22.2218   21.4079 H   0  0  0  0  0
  -40.5742  -26.1118   20.6914 H   0  0  0  0  0
  -44.4916  -24.3818   20.6799 H   0  0  0  0  0
  -44.0655  -26.4918   20.1430 H   0  0  0  0  0
  -42.4906  -19.3429   17.6092 H   0  0  0  0  0
  -40.7919  -19.5494   15.8924 H   0  0  0  0  0
  -41.8509  -20.7840   15.2969 H   0  0  0  0  0
  -39.2278  -21.1935   16.2594 H   0  0  0  0  0
  -40.4248  -22.4661   15.9566 H   0  0  0  0  0
  -40.6245  -22.8526   18.2181 H   0  0  0  0  0
  -39.3257  -21.7777   18.4882 H   0  0  0  0  0
  -44.0517  -19.9562   15.8002 H   0  0  0  0  0
  -45.7436  -22.0612   17.0265 H   0  0  0  0  0
  -46.9166  -20.0563   16.8786 H   0  0  0  0  0
  -47.4876  -21.0348   15.4390 H   0  0  0  0  0
  -45.4728  -17.8812   16.3662 H   0  0  0  0  0
  -47.4576  -21.1319   12.9357 H   0  0  0  0  0
  -45.7616  -16.6425   11.4945 H   0  0  0  0  0
  -47.5566  -20.4309   10.5623 H   0  0  0  0  0
  -46.7197  -18.2172    9.8576 H   0  0  0  0  0
  -47.2115  -22.6795   14.9845 H   0  0  0  0  0
  1  2  1  0  0  0
  2  3  1  0  0  0
  2  5  1  0  0  0
  3  4  2  0  0  0
  3  8  1  0  0  0
  5  6  1  0  0  0
  5  7  1  0  0  0
  8  9  1  0  0  0
  9 10  1  0  0  0
  9 12  1  0  0  0
 10 11  2  0  0  0
 10 15  1  0  0  0
 12 13  1  0  0  0
 12 14  1  0  0  0
 15 16  1  0  0  0
 16 17  1  0  0  0
 16 19  1  0  0  0
 17 18  2  0  0  0
 17 27  1  0  0  0
 19 20  1  0  0  0
 20 21  4  0  0  0
 20 22  4  0  0  0
 21 23  4  0  0  0
 22 24  4  0  0  0
 23 25  4  0  0  0
 24 25  4  0  0  0
 25 26  1  0  0  0
 27 28  1  0  0  0
 27 33  1  0  0  0
 28 29  1  0  0  0
 28 31  1  0  0  0
 29 30  2  0  0  0
 29 34  1  0  0  0
 31 32  1  0  0  0
 32 33  1  0  0  0
 34 35  1  0  0  0
 35 36  1  0  0  0
 35 38  1  0  0  0
 36 37  2  0  0  0
 36 48  1  0  0  0
 38 39  1  0  0  0
 39 40  4  0  0  0
 39 41  4  0  0  0
 40 42  4  0  0  0
 41 43  4  0  0  0
 41 44  4  0  0  0
 42 43  4  0  0  0
 43 45  4  0  0  0
 44 46  4  0  0  0
 45 47  4  0  0  0
 46 47  4  0  0  0
  1 49  1  0  0  0
  1 50  1  0  0  0
  1 51  1  0  0  0
  2 52  1  0  0  0
  5 53  1  0  0  0
  6 54  1  0  0  0
  6 55  1  0  0  0
  6 56  1  0  0  0
  7 57  1  0  0  0
  7 58  1  0  0  0
  7 59  1  0  0  0
  8 60  1  0  0  0
  9 61  1  0  0  0
 12 62  1  0  0  0
 13 63  1  0  0  0
 13 64  1  0  0  0
 13 65  1  0  0  0
 14 66  1  0  0  0
 14 67  1  0  0  0
 14 68  1  0  0  0
 15 69  1  0  0  0
 16 70  1  0  0  0
 19 71  1  0  0  0
 19 72  1  0  0  0
 21 73  1  0  0  0
 22 74  1  0  0  0
 23 75  1  0  0  0
 24 76  1  0  0  0
 26 77  1  0  0  0
 28 78  1  0  0  0
 31 79  1  0  0  0
 31 80  1  0  0  0
 32 81  1  0  0  0
 32 82  1  0  0  0
 33 83  1  0  0  0
 33 84  1  0  0  0
 34 85  1  0  0  0
 35 86  1  0  0  0
 38 87  1  0  0  0
 38 88  1  0  0  0
 40 89  1  0  0  0
 44 90  1  0  0  0
 45 91  1  0  0  0
 46 92  1  0  0  0
 47 93  1  0  0  0
 48 94  1  0  0  0
M  END
$$$$
