6u8b_ligand
  -I-interpret- 

 35 36  0  0  0  0  0  0  0  0999 V2000
   -0.1180    0.0300  -10.3190 C   0  0  0  0  0
   -0.5250   -1.2580   -9.9760 C   0  0  0  0  0
   -0.9310   -1.5830   -8.6750 C   0  0  0  0  0
   -1.9920    4.4540   -8.4860 C   0  0  0  0  0
   -0.6280    5.3900   -6.7850 C   0  0  0  0  0
   -3.1750    4.7550   -7.8020 C   0  0  0  0  0
   -4.4190    4.3710   -8.3040 C   0  0  0  0  0
   -0.9470   -0.5750   -7.7060 C   0  0  0  0  0
   -4.4700    3.6850   -9.5150 C   0  0  0  0  0
   -3.3080    3.3730  -10.2140 C   0  0  0  0  0
   -2.0680    3.7600   -9.6900 C   0  0  0  0  0
   -1.3700   -0.8370   -6.3170 C   0  0  0  0  0
   -6.1240    3.1430  -10.2200 Br  0  0  0  0  0
   -0.6190    3.3350  -10.6360 S   0  0  0  0  0
   -1.0120    2.5810  -11.8040 O   0  0  0  0  0
    0.2870    2.3570   -9.6040 N   0  0  0  0  0
   -0.1340    1.0160   -9.3460 C   0  0  0  0  0
   -0.5440    0.7090   -8.0500 C   0  0  0  0  0
   -0.5500    1.7140   -7.1200 O   0  0  0  0  0
   -1.5320   -2.1500   -6.0390 O   0  0  0  0  0
   -1.5280    0.0360   -5.4940 O   0  0  0  0  0
   -0.5290   -2.4500  -11.2130 Cl  0  0  0  0  0
    0.1320    4.5550  -10.8560 O   0  0  0  0  0
   -0.7530    4.7970   -8.0690 O   0  0  0  0  0
    0.2070    0.2574  -11.3343 H   0  0  0  0  0
   -1.2284   -2.6010   -8.4233 H   0  0  0  0  0
   -1.2061    6.3136   -6.7549 H   0  0  0  0  0
   -1.0036    4.7000   -6.0294 H   0  0  0  0  0
    0.4213    5.6101   -6.5884 H   0  0  0  0  0
   -3.1238    5.2997   -6.8593 H   0  0  0  0  0
   -5.3337    4.6035   -7.7586 H   0  0  0  0  0
   -3.3621    2.8331  -11.1594 H   0  0  0  0  0
    1.1327    2.7212   -9.1653 H   0  0  0  0  0
   -0.2438    2.5275   -7.5276 H   0  0  0  0  0
   -1.3586   -2.6670   -6.8291 H   0  0  0  0  0
  1  2  4  0  0  0
 17  1  4  0  0  0
  2  3  4  0  0  0
  2 22  1  0  0  0
  3  8  4  0  0  0
  4  6  4  0  0  0
 11  4  4  0  0  0
  4 24  1  0  0  0
 24  5  1  0  0  0
  6  7  4  0  0  0
  9  7  4  0  0  0
  8 12  1  0  0  0
  8 18  4  0  0  0
 10  9  4  0  0  0
  9 13  1  0  0  0
 11 10  4  0  0  0
 14 11  1  0  0  0
 12 20  1  0  0  0
 12 21  2  0  0  0
 14 15  2  0  0  0
 16 14  1  0  0  0
 14 23  2  0  0  0
 16 17  1  0  0  0
 17 18  4  0  0  0
 18 19  1  0  0  0
  1 25  1  0  0  0
  3 26  1  0  0  0
  5 27  1  0  0  0
  5 28  1  0  0  0
  5 29  1  0  0  0
  6 30  1  0  0  0
  7 31  1  0  0  0
 10 32  1  0  0  0
 16 33  1  0  0  0
 19 34  1  0  0  0
 20 35  1  0  0  0
M  END
$$$$
