4f9y_ligand
  -I-interpret- 

 43 46  0  0  0  0  0  0  0  0999 V2000
    0.2430    5.3280   21.5170 C   0  0  0  0  0
   -0.2050    4.0720   22.1340 N   0  0  0  0  0
    0.5200    3.7940   23.3790 C   0  0  0  0  0
   -1.2160    3.2600   21.5550 C   0  0  0  0  0
   -1.9120    3.8000   20.5110 N   0  0  0  0  0
   -2.8610    3.1610   19.9150 N   0  0  0  0  0
   -3.2060    1.8740   20.2530 C   0  0  0  0  0
   -2.5790    1.2630   21.3350 C   0  0  0  0  0
   -2.8760   -0.1360   21.7570 C   0  0  0  0  0
   -3.1130   -0.4700   23.0750 C   0  0  0  0  0
   -3.3350   -1.8000   23.4020 C   0  0  0  0  0
   -3.3100   -2.7890   22.4330 N   0  0  0  0  0
   -3.0640   -2.4590   21.1040 C   0  0  0  0  0
   -2.8380   -1.1330   20.7870 C   0  0  0  0  0
   -1.5530    1.9650   21.9730 C   0  0  0  0  0
   -4.3310    1.3010   19.4890 C   0  0  0  0  0
   -4.3270    1.1010   18.1350 C   0  0  0  0  0
   -3.2290    1.3990   17.3530 C   0  0  0  0  0
   -3.2770    1.1420   15.9890 C   0  0  0  0  0
   -4.4140    0.6240   15.4120 C   0  0  0  0  0
   -5.5320    0.3300   16.1770 C   0  0  0  0  0
   -5.4780    0.5770   17.5360 C   0  0  0  0  0
   -6.5810    0.2790   18.2800 C   0  0  0  0  0
   -6.5930    0.5070   19.6260 C   0  0  0  0  0
   -5.4720    1.0100   20.2180 C   0  0  0  0  0
    0.6397    5.1217   20.5229 H   0  0  0  0  0
   -0.6007    6.0136   21.4379 H   0  0  0  0  0
    1.0212    5.7771   22.1341 H   0  0  0  0  0
   -0.1887    3.7342   24.2050 H   0  0  0  0  0
    1.0511    2.8468   23.2849 H   0  0  0  0  0
    1.2343    4.5952   23.5686 H   0  0  0  0  0
   -3.1256    0.2992   23.8471 H   0  0  0  0  0
   -3.5324   -2.0710   24.4392 H   0  0  0  0  0
   -3.0499   -3.2278   20.3314 H   0  0  0  0  0
   -2.6250   -0.8618   19.7530 H   0  0  0  0  0
   -1.0123    1.5037   22.7994 H   0  0  0  0  0
   -2.3343    1.8312   17.8011 H   0  0  0  0  0
   -2.4054    1.3527   15.3693 H   0  0  0  0  0
   -4.4357    0.4422   14.3375 H   0  0  0  0  0
   -6.4299   -0.0849   15.7191 H   0  0  0  0  0
   -7.4608   -0.1449   17.7960 H   0  0  0  0  0
   -7.4829    0.2908   20.2172 H   0  0  0  0  0
   -5.4742    1.1877   21.2934 H   0  0  0  0  0
  1  2  1  0  0  0
  2  3  1  0  0  0
  2  4  1  0  0  0
  4  5  4  0  0  0
  4 15  4  0  0  0
  5  6  4  0  0  0
  6  7  4  0  0  0
  7  8  4  0  0  0
  7 16  1  0  0  0
  8  9  1  0  0  0
  8 15  4  0  0  0
  9 10  4  0  0  0
  9 14  4  0  0  0
 10 11  4  0  0  0
 11 12  4  0  0  0
 12 13  4  0  0  0
 13 14  4  0  0  0
 16 17  4  0  0  0
 16 25  4  0  0  0
 17 18  4  0  0  0
 17 22  4  0  0  0
 18 19  4  0  0  0
 19 20  4  0  0  0
 20 21  4  0  0  0
 21 22  4  0  0  0
 22 23  4  0  0  0
 23 24  4  0  0  0
 24 25  4  0  0  0
  1 26  1  0  0  0
  1 27  1  0  0  0
  1 28  1  0  0  0
  3 29  1  0  0  0
  3 30  1  0  0  0
  3 31  1  0  0  0
 10 32  1  0  0  0
 11 33  1  0  0  0
 13 34  1  0  0  0
 14 35  1  0  0  0
 15 36  1  0  0  0
 18 37  1  0  0  0
 19 38  1  0  0  0
 20 39  1  0  0  0
 21 40  1  0  0  0
 23 41  1  0  0  0
 24 42  1  0  0  0
 25 43  1  0  0  0
M  END
$$$$
