5cy3_ligand
  -I-interpret- 

 38 41  0  0  0  0  0  0  0  0999 V2000
   -9.0280  -16.5720  -17.2420 N   0  0  0  0  0
   -1.5780  -10.4810  -17.3720 N   0  0  0  0  0
   -7.0410  -13.7070  -16.4250 C   0  0  0  0  0
   -7.7530  -12.6120  -16.3240 C   0  0  0  0  0
   -7.1310  -11.3670  -15.9900 C   0  0  0  0  0
   -5.3960  -10.0090  -15.4450 C   0  0  0  0  0
   -5.7400  -11.3110  -15.7710 C   0  0  0  0  0
   -8.9440  -15.2600  -17.0190 C   0  0  0  0  0
   -1.4540  -12.5980  -16.5350 C   0  0  0  0  0
   -1.2090  -10.4620  -16.0580 C   0  0  0  0  0
   -1.0540   -9.5200  -15.4080 O   0  0  0  0  0
   -1.7280  -11.7570  -17.8180 C   0  0  0  0  0
   -1.1170  -11.6810  -15.5790 O   0  0  0  0  0
   -2.7840  -13.3230  -16.1170 C   0  0  0  0  0
   -2.4740  -14.1880  -14.9580 C   0  0  0  0  0
   -3.6540  -12.3250  -15.8000 O   0  0  0  0  0
   -4.9900  -12.4820  -15.9370 C   0  0  0  0  0
   -6.7450   -8.9980  -15.4720 S   0  0  0  0  0
   -7.7030  -10.2040  -15.8560 N   0  0  0  0  0
   -5.6110  -13.6230  -16.2370 C   0  0  0  0  0
   -7.6460  -14.9860  -16.6990 C   0  0  0  0  0
   -7.0820  -16.2210  -16.7730 C   0  0  0  0  0
   -7.9420  -17.1580  -17.1160 N   0  0  0  0  0
  -10.2570  -17.2830  -17.6360 C   0  0  0  0  0
   -8.8287  -12.6494  -16.4959 H   0  0  0  0  0
   -4.3851   -9.6811  -15.2027 H   0  0  0  0  0
   -9.7603  -14.5403  -17.0808 H   0  0  0  0  0
   -0.6767  -13.3487  -16.6774 H   0  0  0  0  0
   -1.9772  -12.1041  -18.8207 H   0  0  0  0  0
   -3.2156  -13.9541  -16.8939 H   0  0  0  0  0
   -1.7156  -14.9172  -15.2430 H   0  0  0  0  0
   -2.1002  -13.5746  -14.1382 H   0  0  0  0  0
   -3.3786  -14.7074  -14.6417 H   0  0  0  0  0
   -5.0155  -14.5295  -16.3448 H   0  0  0  0  0
   -6.0289  -16.4153  -16.5698 H   0  0  0  0  0
  -11.0165  -17.1472  -16.8660 H   0  0  0  0  0
  -10.6205  -16.8809  -18.5817 H   0  0  0  0  0
  -10.0399  -18.3450  -17.7507 H   0  0  0  0  0
  8  1  4  0  0  0
  1 23  4  0  0  0
  1 24  1  0  0  0
 10  2  1  0  0  0
 12  2  2  0  0  0
  4  3  4  0  0  0
  3 20  4  0  0  0
  3 21  1  0  0  0
  5  4  4  0  0  0
  7  5  4  0  0  0
  5 19  4  0  0  0
  7  6  4  0  0  0
  6 18  4  0  0  0
 17  7  4  0  0  0
 21  8  4  0  0  0
  9 12  1  0  0  0
  9 13  1  0  0  0
 14  9  1  0  0  0
 10 11  2  0  0  0
 13 10  1  0  0  0
 14 15  1  0  0  0
 16 14  1  0  0  0
 16 17  1  0  0  0
 17 20  4  0  0  0
 18 19  4  0  0  0
 21 22  4  0  0  0
 22 23  4  0  0  0
  4 25  1  0  0  0
  6 26  1  0  0  0
  8 27  1  0  0  0
  9 28  1  0  0  0
 12 29  1  0  0  0
 14 30  1  0  0  0
 15 31  1  0  0  0
 15 32  1  0  0  0
 15 33  1  0  0  0
 20 34  1  0  0  0
 22 35  1  0  0  0
 24 36  1  0  0  0
 24 37  1  0  0  0
 24 38  1  0  0  0
M  END
$$$$
