6nrh_ligand
  -I-interpret- 

 57 61  0  0  0  0  0  0  0  0999 V2000
   23.0730  -10.6290    4.7230 O   0  0  0  0  0
   23.5160  -10.6370    5.8380 C   0  0  0  0  0
   23.1150  -11.5570    6.7450 N   0  0  0  0  0
   22.1620  -12.6070    6.3490 C   0  0  0  0  0
   21.0080  -12.6670    7.3200 C   0  0  0  0  0
   21.5210  -12.8770    8.6760 N   0  0  0  0  0
   21.1270  -13.8910    9.4860 C   0  0  0  0  0
   20.2890  -14.8040    8.9510 N   0  0  0  0  0
   19.9580  -15.8210    9.7590 C   0  0  0  0  0
   20.4240  -15.9500   11.0470 C   0  0  0  0  0
   21.2580  -14.9450   11.4960 C   0  0  0  0  0
   21.6290  -13.8980   10.7420 N   0  0  0  0  0
   22.4350  -11.8070    9.0850 C   0  0  0  0  0
   23.5920  -11.7150    8.1280 C   0  0  0  0  0
   24.5610   -9.6240    6.2020 C   0  0  0  0  0
   24.3800   -8.7190    7.2440 C   0  0  0  0  0
   25.3740   -7.8140    7.5770 C   0  0  0  0  0
   25.7630   -9.5930    5.5020 C   0  0  0  0  0
   26.7600   -8.6960    5.8470 C   0  0  0  0  0
   26.5940   -7.7990    6.8940 C   0  0  0  0  0
   27.7460   -6.9950    7.2740 C   0  0  0  0  0
   27.8500   -5.9320    8.0770 C   0  0  0  0  0
   28.8810   -4.9060    7.9980 C   0  0  0  0  0
   29.7210   -4.7400    7.0530 O   0  0  0  0  0
   27.0820   -5.7340    9.2160 O   0  0  0  0  0
   27.5760   -4.6280    9.8700 C   0  0  0  0  0
   27.1560   -4.0910   11.0840 C   0  0  0  0  0
   25.9170   -4.5180   11.8220 C   0  0  0  0  0
   25.4710   -3.8200   12.7750 O   0  0  0  0  0
   25.2710   -5.6200   11.3880 N   0  0  0  0  0
   28.6840   -4.1080    9.1990 C   0  0  0  0  0
   29.4330   -3.0750    9.7580 C   0  0  0  0  0
   29.0410   -2.5620   10.9780 C   0  0  0  0  0
   27.9160   -3.0520   11.6300 C   0  0  0  0  0
   22.6748  -13.5688    6.3486 H   0  0  0  0  0
   21.7770  -12.3792    5.3550 H   0  0  0  0  0
   20.3481  -13.4913    7.0495 H   0  0  0  0  0
   20.4528  -11.7297    7.2827 H   0  0  0  0  0
   19.2837  -16.5866    9.3751 H   0  0  0  0  0
   20.1507  -16.7966   11.6768 H   0  0  0  0  0
   21.6351  -15.0050   12.5169 H   0  0  0  0  0
   22.8150  -12.0255   10.0830 H   0  0  0  0  0
   21.8965  -10.8593    9.0847 H   0  0  0  0  0
   24.1982  -10.8484    8.3918 H   0  0  0  0  0
   24.1774  -12.6320    8.1952 H   0  0  0  0  0
   23.4451   -8.7227    7.8044 H   0  0  0  0  0
   25.2026   -7.1021    8.3844 H   0  0  0  0  0
   25.9217  -10.2824    4.6728 H   0  0  0  0  0
   27.6941   -8.6940    5.2853 H   0  0  0  0  0
   27.9712   -6.5273    6.3155 H   0  0  0  0  0
   28.2988   -7.7276    7.8621 H   0  0  0  0  0
   27.4093   -6.2283    7.1251 H   0  0  0  0  0
   24.3991   -5.9081   11.8320 H   0  0  0  0  0
   25.6545   -6.1651   10.6159 H   0  0  0  0  0
   30.3092   -2.6806    9.2434 H   0  0  0  0  0
   29.6219   -1.7616   11.4362 H   0  0  0  0  0
   27.6203   -2.6182   12.5852 H   0  0  0  0  0
  1  2  2  0  0  0
  2  3  1  0  0  0
  2 15  1  0  0  0
  3  4  1  0  0  0
  3 14  1  0  0  0
  4  5  1  0  0  0
  5  6  1  0  0  0
  6  7  1  0  0  0
  6 13  1  0  0  0
  7  8  4  0  0  0
  7 12  4  0  0  0
  8  9  4  0  0  0
  9 10  4  0  0  0
 10 11  4  0  0  0
 11 12  4  0  0  0
 13 14  1  0  0  0
 15 16  4  0  0  0
 15 18  4  0  0  0
 16 17  4  0  0  0
 17 20  4  0  0  0
 18 19  4  0  0  0
 19 20  4  0  0  0
 20 21  1  0  0  0
 21 22  1  0  0  0
 22 23  1  0  0  0
 22 25  1  0  0  0
 23 24  2  0  0  0
 23 31  1  0  0  0
 25 26  1  0  0  0
 26 27  4  0  0  0
 26 31  4  0  0  0
 27 28  1  0  0  0
 27 34  4  0  0  0
 28 29  2  0  0  0
 28 30  1  0  0  0
 31 32  4  0  0  0
 32 33  4  0  0  0
 33 34  4  0  0  0
  4 35  1  0  0  0
  4 36  1  0  0  0
  5 37  1  0  0  0
  5 38  1  0  0  0
  9 39  1  0  0  0
 10 40  1  0  0  0
 11 41  1  0  0  0
 13 42  1  0  0  0
 13 43  1  0  0  0
 14 44  1  0  0  0
 14 45  1  0  0  0
 16 46  1  0  0  0
 17 47  1  0  0  0
 18 48  1  0  0  0
 19 49  1  0  0  0
 21 50  1  0  0  0
 21 51  1  0  0  0
 22 52  1  0  0  0
 30 53  1  0  0  0
 30 54  1  0  0  0
 32 55  1  0  0  0
 33 56  1  0  0  0
 34 57  1  0  0  0
M  END
$$$$
