4j6i_ligand
  -I-interpret- 

 55 59  0  0  0  0  0  0  0  0999 V2000
   10.7940   62.2860   21.5360 C   0  0  0  0  0
   11.6320   61.9160   22.7690 C   0  0  0  0  0
   12.4070   60.6420   22.4410 C   0  0  0  0  0
   10.7410   61.5500   23.8230 O   0  0  0  0  0
   12.4990   63.1070   23.2660 C   0  0  0  0  0
   13.8730   63.2870   22.7440 N   0  0  0  0  0
   14.9430   62.5260   23.0630 C   0  0  0  0  0
   16.0320   62.9840   22.3920 C   0  0  0  0  0
   15.6090   64.1250   21.6650 C   0  0  0  0  0
   14.3250   64.3010   21.8800 N   0  0  0  0  0
   17.3950   62.3750   22.5060 C   0  0  0  0  0
   18.5210   62.9350   21.8980 C   0  0  0  0  0
   19.7640   62.3430   22.0460 C   0  0  0  0  0
   19.9430   61.1820   22.7930 C   0  0  0  0  0
   18.8140   60.6300   23.4110 C   0  0  0  0  0
   18.9560   59.5250   24.1560 O   0  0  0  0  0
   19.7380   59.6980   25.3100 C   0  0  0  0  0
   21.0670   59.0320   25.0090 C   0  0  0  0  0
   21.8080   59.7540   23.9350 C   0  0  0  0  0
   21.3490   60.6300   22.9590 C   0  0  0  0  0
   22.3610   61.0520   22.2140 N   0  0  0  0  0
   23.5530   60.5950   22.4160 C   0  0  0  0  0
   23.5230   59.4780   23.7250 S   0  0  0  0  0
   24.7730   60.9140   21.6820 C   0  0  0  0  0
   25.9350   60.3000   21.8230 N   0  0  0  0  0
   26.8150   60.8450   20.9850 C   0  0  0  0  0
   26.2460   61.8170   20.3310 N   0  0  0  0  0
   24.9140   61.8900   20.7580 N   0  0  0  0  0
   23.8950   62.8370   20.3120 C   0  0  0  0  0
   23.5740   62.5790   18.8540 C   0  0  0  0  0
   22.8940   61.3490   18.7360 F   0  0  0  0  0
   22.7900   63.6600   18.4360 F   0  0  0  0  0
   24.7740   62.5680   18.1290 F   0  0  0  0  0
   17.5660   61.2200   23.2700 C   0  0  0  0  0
   10.1270   63.1111   21.7859 H   0  0  0  0  0
   11.4569   62.5860   20.7244 H   0  0  0  0  0
   10.2055   61.4226   21.2258 H   0  0  0  0  0
   13.1304   60.8510   21.6529 H   0  0  0  0  0
   12.9294   60.2962   23.3330 H   0  0  0  0  0
   11.7126   59.8725   22.1038 H   0  0  0  0  0
   10.1944   60.8143   23.5374 H   0  0  0  0  0
   12.6332   62.9218   24.3317 H   0  0  0  0  0
   11.9612   63.9947   22.9329 H   0  0  0  0  0
   14.9339   61.6794   23.7495 H   0  0  0  0  0
   16.2415   64.7501   21.0347 H   0  0  0  0  0
   18.4206   63.8432   21.3037 H   0  0  0  0  0
   20.6280   62.7996   21.5632 H   0  0  0  0  0
   19.2603   59.2550   26.1839 H   0  0  0  0  0
   19.8674   60.7538   25.5479 H   0  0  0  0  0
   20.8747   58.0135   24.6716 H   0  0  0  0  0
   21.6728   59.0441   25.9151 H   0  0  0  0  0
   27.8506   60.5270   20.8651 H   0  0  0  0  0
   24.2673   63.8548   20.4287 H   0  0  0  0  0
   22.9934   62.7114   20.9115 H   0  0  0  0  0
   16.7038   60.7732   23.7650 H   0  0  0  0  0
  1  2  1  0  0  0
  2  3  1  0  0  0
  2  4  1  0  0  0
  2  5  1  0  0  0
  5  6  1  0  0  0
  6  7  4  0  0  0
  6 10  4  0  0  0
  7  8  4  0  0  0
  8  9  4  0  0  0
  8 11  1  0  0  0
  9 10  4  0  0  0
 11 12  4  0  0  0
 11 34  4  0  0  0
 12 13  4  0  0  0
 13 14  4  0  0  0
 14 15  4  0  0  0
 14 20  1  0  0  0
 15 16  1  0  0  0
 15 34  4  0  0  0
 16 17  1  0  0  0
 17 18  1  0  0  0
 18 19  1  0  0  0
 19 20  4  0  0  0
 19 23  4  0  0  0
 20 21  4  0  0  0
 21 22  4  0  0  0
 22 23  4  0  0  0
 22 24  1  0  0  0
 24 25  4  0  0  0
 24 28  4  0  0  0
 25 26  4  0  0  0
 26 27  4  0  0  0
 27 28  4  0  0  0
 28 29  1  0  0  0
 29 30  1  0  0  0
 30 31  1  0  0  0
 30 32  1  0  0  0
 30 33  1  0  0  0
  1 35  1  0  0  0
  1 36  1  0  0  0
  1 37  1  0  0  0
  3 38  1  0  0  0
  3 39  1  0  0  0
  3 40  1  0  0  0
  4 41  1  0  0  0
  5 42  1  0  0  0
  5 43  1  0  0  0
  7 44  1  0  0  0
  9 45  1  0  0  0
 12 46  1  0  0  0
 13 47  1  0  0  0
 17 48  1  0  0  0
 17 49  1  0  0  0
 18 50  1  0  0  0
 18 51  1  0  0  0
 26 52  1  0  0  0
 29 53  1  0  0  0
 29 54  1  0  0  0
 34 55  1  0  0  0
M  END
$$$$
