5yid_ligand
  -I-interpret- 

 93 97  0  0  0  0  0  0  0  0999 V2000
  -23.2790   20.9210   -8.2060 C   0  0  0  0  0
  -21.8110   21.0820   -7.7310 C   0  0  0  0  0
  -21.1940   19.7860   -7.1450 C   0  0  0  0  0
  -20.2160   19.0840   -7.8630 C   0  0  0  0  0
  -19.6570   17.9120   -7.3340 C   0  0  0  0  0
  -20.0700   17.4470   -6.0880 C   0  0  0  0  0
  -21.0390   18.1540   -5.3710 C   0  0  0  0  0
  -21.6020   19.3210   -5.8970 C   0  0  0  0  0
  -24.0330   20.2550   -7.5850 O   0  0  0  0  0
  -23.7370   21.5990   -9.4260 N   0  0  0  0  0
  -25.1150   21.4920   -9.8990 C   0  0  0  0  0
  -25.5360   22.8750  -10.4060 C   0  0  0  0  0
  -27.3390   22.8440  -10.6480 S   0  0  0  0  0
  -28.1060   23.2000   -9.0390 C   0  0  0  0  0
  -25.2520   20.4380  -11.0010 C   0  0  0  0  0
  -24.7510   20.5780  -12.0600 O   0  0  0  0  0
  -27.3790   17.5760  -13.7970 C   0  0  0  0  0
  -26.0370   19.2460  -10.7310 N   0  0  0  0  0
  -27.8050   16.4650  -13.8190 O   0  0  0  0  0
  -27.4830   18.4100  -12.5330 C   0  0  0  0  0
  -24.7140   16.5910  -10.3460 C   0  0  0  0  0
  -26.1040   16.8460  -10.9860 C   0  0  0  0  0
  -22.2020   16.1320   -9.2090 C   0  0  0  0  0
  -26.1800   18.1990  -11.7280 C   0  0  0  0  0
  -28.6090   17.9370  -11.8400 O   0  0  0  0  0
  -23.7850   15.7790  -11.0040 C   0  0  0  0  0
  -24.3790   17.1710   -9.1180 C   0  0  0  0  0
  -22.5290   15.5480  -10.4310 C   0  0  0  0  0
  -23.1200   16.9390   -8.5490 C   0  0  0  0  0
  -25.2750   16.5180  -16.4960 C   0  0  0  0  0
  -26.7530   18.0540  -14.9990 N   0  0  0  0  0
  -24.3100   17.1570  -16.2670 O   0  0  0  0  0
  -26.6560   17.0890  -16.3840 C   0  0  0  0  0
  -27.0660   17.9880  -17.3270 C   0  0  0  0  0
  -26.1330   19.4150  -15.4240 C   0  0  0  0  0
  -28.6030   18.1140  -17.3020 C   0  0  0  0  0
  -26.6270   17.6090  -18.7510 C   0  0  0  0  0
  -26.4240   19.5510  -16.8690 S   0  0  0  0  0
  -25.1410   15.1400  -16.9290 N   0  0  0  0  0
  -25.4350   12.8190  -17.8800 O   0  0  0  0  0
  -23.8680   14.4860  -17.1810 C   0  0  0  0  0
  -23.1960   13.7930  -15.9700 C   0  0  0  0  0
  -22.9620   14.2230  -14.6710 C   0  0  0  0  0
  -22.3120   13.3580  -13.7680 C   0  0  0  0  0
  -24.1660   13.3770  -18.1420 C   0  0  0  0  0
  -22.7610   12.4900  -16.3890 C   0  0  0  0  0
  -22.1050   11.6390  -15.4940 C   0  0  0  0  0
  -21.8760   12.0620  -14.1850 C   0  0  0  0  0
  -23.1310   12.3130  -17.8790 C   0  0  0  0  0
  -21.8072   21.8299   -6.9381 H   0  0  0  0  0
  -21.2171   21.3584   -8.6022 H   0  0  0  0  0
  -19.8889   19.4505   -8.8360 H   0  0  0  0  0
  -18.9003   17.3657   -7.8971 H   0  0  0  0  0
  -19.6393   16.5354   -5.6737 H   0  0  0  0  0
  -21.3587   17.7928   -4.3935 H   0  0  0  0  0
  -22.3584   19.8655   -5.3317 H   0  0  0  0  0
  -23.0732   22.1612   -9.9587 H   0  0  0  0  0
  -25.7637   21.1698   -9.0845 H   0  0  0  0  0
  -25.0298   23.1077  -11.3429 H   0  0  0  0  0
  -25.2616   23.6449   -9.6849 H   0  0  0  0  0
  -27.8030   22.4411   -8.3176 H   0  0  0  0  0
  -27.7825   24.1817   -8.6930 H   0  0  0  0  0
  -29.1908   23.1899   -9.1449 H   0  0  0  0  0
  -26.4957   19.1423   -9.8259 H   0  0  0  0  0
  -27.5972   19.4773  -12.7224 H   0  0  0  0  0
  -26.8432   16.8617  -10.1851 H   0  0  0  0  0
  -26.2878   16.0550  -11.7130 H   0  0  0  0  0
  -21.2208   15.9547   -8.7686 H   0  0  0  0  0
  -25.3816   18.2204  -12.4698 H   0  0  0  0  0
  -28.7169   18.4372  -11.0277 H   0  0  0  0  0
  -24.0388   15.3262  -11.9625 H   0  0  0  0  0
  -25.0998   17.8055   -8.6022 H   0  0  0  0  0
  -21.8064   14.9109  -10.9410 H   0  0  0  0  0
  -22.8615   17.3904   -7.5911 H   0  0  0  0  0
  -27.2588   16.1827  -16.4417 H   0  0  0  0  0
  -25.0609   19.4427  -15.2291 H   0  0  0  0  0
  -26.5561   20.2413  -14.8528 H   0  0  0  0  0
  -29.0494   17.1424  -17.5136 H   0  0  0  0  0
  -28.9223   18.4553  -16.3173 H   0  0  0  0  0
  -28.9197   18.8331  -18.0575 H   0  0  0  0  0
  -25.5390   17.5579  -18.7929 H   0  0  0  0  0
  -27.0480   16.6384  -19.0134 H   0  0  0  0  0
  -26.9839   18.3630  -19.4526 H   0  0  0  0  0
  -25.9933   14.5963  -17.0650 H   0  0  0  0  0
  -25.6074   12.1112  -18.5052 H   0  0  0  0  0
  -23.1874   15.2696  -17.5139 H   0  0  0  0  0
  -23.2770   15.2170  -14.3535 H   0  0  0  0  0
  -22.1399   13.6805  -12.7411 H   0  0  0  0  0
  -24.1518   13.7462  -19.1675 H   0  0  0  0  0
  -21.7749   10.6518  -15.8173 H   0  0  0  0  0
  -21.3652   11.4053  -13.4808 H   0  0  0  0  0
  -22.2632   12.4185  -18.5300 H   0  0  0  0  0
  -23.5114   11.3133  -18.0887 H   0  0  0  0  0
  1  2  1  0  0  0
  1  9  2  0  0  0
 10  1  1  0  0  0
  2  3  1  0  0  0
  3  4  4  0  0  0
  3  8  4  0  0  0
  4  5  4  0  0  0
  5  6  4  0  0  0
  7  6  4  0  0  0
  8  7  4  0  0  0
 11 10  1  0  0  0
 11 12  1  0  0  0
 15 11  1  0  0  0
 12 13  1  0  0  0
 13 14  1  0  0  0
 15 16  2  0  0  0
 18 15  1  0  0  0
 17 19  2  0  0  0
 17 20  1  0  0  0
 31 17  1  0  0  0
 24 18  1  0  0  0
 20 24  1  0  0  0
 20 25  1  0  0  0
 22 21  1  0  0  0
 21 26  4  0  0  0
 21 27  4  0  0  0
 24 22  1  0  0  0
 28 23  4  0  0  0
 29 23  4  0  0  0
 26 28  4  0  0  0
 27 29  4  0  0  0
 30 32  2  0  0  0
 30 33  1  0  0  0
 39 30  1  0  0  0
 33 31  1  0  0  0
 31 35  1  0  0  0
 33 34  1  0  0  0
 34 36  1  0  0  0
 34 37  1  0  0  0
 34 38  1  0  0  0
 38 35  1  0  0  0
 41 39  1  0  0  0
 45 40  1  0  0  0
 41 42  1  0  0  0
 41 45  1  0  0  0
 42 43  4  0  0  0
 42 46  4  0  0  0
 43 44  4  0  0  0
 44 48  4  0  0  0
 45 49  1  0  0  0
 46 47  4  0  0  0
 46 49  1  0  0  0
 47 48  4  0  0  0
  2 50  1  0  0  0
  2 51  1  0  0  0
  4 52  1  0  0  0
  5 53  1  0  0  0
  6 54  1  0  0  0
  7 55  1  0  0  0
  8 56  1  0  0  0
 10 57  1  0  0  0
 11 58  1  0  0  0
 12 59  1  0  0  0
 12 60  1  0  0  0
 14 61  1  0  0  0
 14 62  1  0  0  0
 14 63  1  0  0  0
 18 64  1  0  0  0
 20 65  1  0  0  0
 22 66  1  0  0  0
 22 67  1  0  0  0
 23 68  1  0  0  0
 24 69  1  0  0  0
 25 70  1  0  0  0
 26 71  1  0  0  0
 27 72  1  0  0  0
 28 73  1  0  0  0
 29 74  1  0  0  0
 33 75  1  0  0  0
 35 76  1  0  0  0
 35 77  1  0  0  0
 36 78  1  0  0  0
 36 79  1  0  0  0
 36 80  1  0  0  0
 37 81  1  0  0  0
 37 82  1  0  0  0
 37 83  1  0  0  0
 39 84  1  0  0  0
 40 85  1  0  0  0
 41 86  1  0  0  0
 43 87  1  0  0  0
 44 88  1  0  0  0
 45 89  1  0  0  0
 47 90  1  0  0  0
 48 91  1  0  0  0
 49 92  1  0  0  0
 49 93  1  0  0  0
M  END
$$$$
