### 
### Created by X-TOOL on Wed Jan  1 15:39:36 2020
### 

@<TRIPOS>MOLECULE
5yid_ligand
   92    96     1     0     0
SMALL
GAST_HUCK


@<TRIPOS>ATOM
      1 CBH       -23.2790   20.9210   -8.2060 C.2       1 K95         0.1898
      2 CAX       -21.8110   21.0820   -7.7310 C.3       1 K95         0.0705
      3 CBL       -21.1940   19.7860   -7.1450 C.ar      1 K95        -0.0243
      4 CAR       -20.2160   19.0840   -7.8630 C.ar      1 K95        -0.0580
      5 CAL       -19.6570   17.9120   -7.3340 C.ar      1 K95        -0.0681
      6 CAJ       -20.0700   17.4470   -6.0880 C.ar      1 K95        -0.0684
      7 CAM       -21.0390   18.1540   -5.3710 C.ar      1 K95        -0.0681
      8 CAS       -21.6020   19.3210   -5.8970 C.ar      1 K95        -0.0580
      9 OAD       -24.0330   20.2550   -7.5850 O.2       1 K95        -0.3939
     10 N         -23.7370   21.5990   -9.4260 N.am      1 K95        -0.2632
     11 CA        -25.1150   21.4920   -9.8990 C.3       1 K95         0.1398
     12 CB        -25.5360   22.8750  -10.4060 C.3       1 K95         0.0338
     13 SBF       -27.3390   22.8440  -10.6480 S.3       1 K95        -0.1594
     14 CAA       -28.1060   23.2000   -9.0390 C.3       1 K95        -0.0179
     15 C         -25.2520   20.4380  -11.0010 C.2       1 K95         0.2031
     16 O         -24.7510   20.5780  -12.0600 O.2       1 K95        -0.3945
     17 CBK       -27.3790   17.5760  -13.7970 C.2       1 K95         0.2377
     18 NBD       -26.0370   19.2460  -10.7310 N.am      1 K95        -0.2753
     19 OAG       -27.8050   16.4650  -13.8190 O.2       1 K95        -0.3837
     20 CBR       -27.4830   18.4100  -12.5330 C.3       1 K95         0.1744
     21 CBM       -24.7140   16.5910  -10.3460 C.ar      1 K95        -0.0406
     22 CBB       -26.1040   16.8460  -10.9860 C.3       1 K95         0.0086
     23 CAK       -22.2020   16.1320   -9.2090 C.ar      1 K95        -0.0687
     24 CBS       -26.1800   18.1990  -11.7280 C.3       1 K95         0.0947
     25 OAI       -28.6090   17.9370  -11.8400 O.3       1 K95        -0.3688
     26 CAU       -23.7850   15.7790  -11.0040 C.ar      1 K95        -0.0603
     27 CAT       -24.3790   17.1710   -9.1180 C.ar      1 K95        -0.0603
     28 CAO       -22.5290   15.5480  -10.4310 C.ar      1 K95        -0.0686
     29 CAN       -23.1200   16.9390   -8.5490 C.ar      1 K95        -0.0686
     30 CBJ       -25.2750   16.5180  -16.4960 C.2       1 K95         0.2133
     31 NBV       -26.7530   18.0540  -14.9990 N.am      1 K95        -0.2248
     32 OAF       -24.3100   17.1570  -16.2670 O.2       1 K95        -0.3935
     33 CBU       -26.6560   17.0890  -16.3840 C.3       1 K95         0.1692
     34 CBW       -27.0660   17.9880  -17.3270 C.3       1 K95         0.0651
     35 CAZ       -26.1330   19.4150  -15.4240 C.2       1 K95         0.0433
     36 CAC       -28.6030   18.1140  -17.3020 C.3       1 K95        -0.0439
     37 CAB       -26.6270   17.6090  -18.7510 C.3       1 K95        -0.0439
     38 SBG       -26.4240   19.5510  -16.8690 S.3       1 K95        -0.1154
     39 NBE       -25.1410   15.1400  -16.9290 N.am      1 K95        -0.2685
     40 OAH       -25.4350   12.8190  -17.8800 O.3       1 K95        -0.3857
     41 CBT       -23.8680   14.4860  -17.1810 C.3       1 K95         0.1007
     42 CBO       -23.1960   13.7930  -15.9700 C.ar      1 K95        -0.0133
     43 CAW       -22.9620   14.2230  -14.6710 C.ar      1 K95        -0.0646
     44 CAQ       -22.3120   13.3580  -13.7680 C.ar      1 K95        -0.0754
     45 CBP       -24.1660   13.3770  -18.1420 C.3       1 K95         0.0951
     46 CBN       -22.7610   12.4900  -16.3890 C.ar      1 K95        -0.0361
     47 CAV       -22.1050   11.6390  -15.4940 C.ar      1 K95        -0.0667
     48 CAP       -21.8760   12.0620  -14.1850 C.ar      1 K95        -0.0755
     49 CBA       -23.1310   12.3130  -17.8790 C.3       1 K95         0.0085
     50 H1        -21.7816   21.8610   -6.9549 H         1 K95         0.0659
     51 H2        -21.2016   21.3976   -8.5906 H         1 K95         0.0659
     52 H3        -19.8907   19.4485   -8.8307 H         1 K95         0.0561
     53 H4        -18.9045   17.3687   -7.8940 H         1 K95         0.0600
     54 H5        -19.6416   16.5404   -5.6760 H         1 K95         0.0561
     55 H6        -21.3569   17.7948   -4.3989 H         1 K95         0.0600
     56 H7        -22.3542   19.8625   -5.3348 H         1 K95         0.0561
     57 H8        -23.0862   22.1501   -9.9482 H         1 K95         0.1884
     58 H9        -25.7626   21.2019   -9.0585 H         1 K95         0.0808
     59 H10       -25.0330   23.0946  -11.3593 H         1 K95         0.0424
     60 H11       -25.2698   23.6435   -9.6654 H         1 K95         0.0424
     61 H12       -29.2009   23.1901   -9.1446 H         1 K95         0.0341
     62 H13       -27.7804   24.1906   -8.6887 H         1 K95         0.0341
     63 H14       -27.8010   22.4348   -8.3101 H         1 K95         0.0341
     64 H15       -26.4867   19.1443   -9.8436 H         1 K95         0.1859
     65 H16       -27.6064   19.4764  -12.7727 H         1 K95         0.0864
     66 H17       -26.8643   16.8375  -10.1911 H         1 K95         0.0451
     67 H18       -26.3145   16.0391  -11.7033 H         1 K95         0.0451
     68 H19       -21.2262   15.9557   -8.7711 H         1 K95         0.0559
     69 H20       -25.3373   18.2540  -12.4329 H         1 K95         0.0630
     70 H21       -29.3872   18.0838  -12.3648 H         1 K95         0.2134
     71 H22       -24.0374   15.3287  -11.9572 H         1 K95         0.0557
     72 H23       -25.0958   17.8020   -8.6050 H         1 K95         0.0557
     73 H24       -21.8104   14.9145  -10.9382 H         1 K95         0.0599
     74 H25       -22.8629   17.3880   -7.5964 H         1 K95         0.0599
     75 H26       -27.3654   16.2494  -16.3417 H         1 K95         0.0911
     76 H27       -25.5968   20.1206  -14.7911 H         1 K95         0.0458
     77 H28       -28.9238   18.8395  -18.0641 H         1 K95         0.0247
     78 H29       -28.9266   18.4584  -16.3087 H         1 K95         0.0247
     79 H30       -29.0548   17.1341  -17.5155 H         1 K95         0.0247
     80 H31       -25.5315   17.5155  -18.7842 H         1 K95         0.0247
     81 H32       -26.9497   18.3906  -19.4545 H         1 K95         0.0247
     82 H33       -27.0856   16.6498  -19.0330 H         1 K95         0.0247
     83 H34       -25.9765   14.6070  -17.0624 H         1 K95         0.1881
     84 H35       -25.6056   12.1186  -18.4987 H         1 K95         0.2103
     85 H36       -23.1686   15.2162  -17.6141 H         1 K95         0.0732
     86 H37       -23.2753   15.2115  -14.3552 H         1 K95         0.0538
     87 H38       -22.1409   13.6787  -12.7468 H         1 K95         0.0541
     88 H39       -24.1137   13.7372  -19.1800 H         1 K95         0.0659
     89 H40       -21.7767   10.6572  -15.8155 H         1 K95         0.0537
     90 H41       -21.3680   11.4089  -13.4846 H         1 K95         0.0541
     91 H42       -22.2488   12.4627  -18.5187 H         1 K95         0.0439
     92 H43       -23.5489   11.3116  -18.0591 H         1 K95         0.0439
@<TRIPOS>BOND
     1    1    2 1  
     2    1    9 2  
     3   10    1 am 
     4    2    3 1  
     5    3    4 ar 
     6    3    8 ar 
     7    4    5 ar 
     8    5    6 ar 
     9    7    6 ar 
    10    8    7 ar 
    11   11   10 1  
    12   11   12 1  
    13   15   11 1  
    14   12   13 1  
    15   13   14 1  
    16   15   16 2  
    17   18   15 am 
    18   17   19 2  
    19   17   20 1  
    20   31   17 am 
    21   24   18 1  
    22   20   24 1  
    23   20   25 1  
    24   22   21 1  
    25   21   26 ar 
    26   21   27 ar 
    27   24   22 1  
    28   28   23 ar 
    29   29   23 ar 
    30   26   28 ar 
    31   27   29 ar 
    32   30   32 2  
    33   30   33 1  
    34   39   30 am 
    35   33   31 1  
    36   31   35 1  
    37   33   34 1  
    38   34   36 1  
    39   34   37 1  
    40   34   38 1  
    41   38   35 1  
    42   41   39 1  
    43   45   40 1  
    44   41   42 1  
    45   41   45 1  
    46   42   43 ar 
    47   42   46 ar 
    48   43   44 ar 
    49   44   48 ar 
    50   45   49 1  
    51   46   47 ar 
    52   46   49 1  
    53   47   48 ar 
    54    2   50 1  
    55    2   51 1  
    56    4   52 1  
    57    5   53 1  
    58    6   54 1  
    59    7   55 1  
    60    8   56 1  
    61   10   57 1  
    62   11   58 1  
    63   12   59 1  
    64   12   60 1  
    65   14   61 1  
    66   14   62 1  
    67   14   63 1  
    68   18   64 1  
    69   20   65 1  
    70   22   66 1  
    71   22   67 1  
    72   23   68 1  
    73   24   69 1  
    74   25   70 1  
    75   26   71 1  
    76   27   72 1  
    77   28   73 1  
    78   29   74 1  
    79   33   75 1  
    80   35   76 1  
    81   36   77 1  
    82   36   78 1  
    83   36   79 1  
    84   37   80 1  
    85   37   81 1  
    86   37   82 1  
    87   39   83 1  
    88   40   84 1  
    89   41   85 1  
    90   43   86 1  
    91   44   87 1  
    92   45   88 1  
    93   47   89 1  
    94   48   90 1  
    95   49   91 1  
    96   49   92 1  
@<TRIPOS>SUBSTRUCTURE
     1 K95         1

