5a2s_ligand
  -I-interpret- 

 42 45  0  0  0  0  0  0  0  0999 V2000
   -2.2990  -15.8090  -40.6070 C   0  0  0  0  0
   -3.5740  -15.2990  -39.9550 C   0  0  0  0  0
   -4.8320  -15.0310  -40.8050 C   0  0  0  0  0
   -4.8210  -16.1400  -39.7540 C   0  0  0  0  0
   -3.3990  -14.5190  -38.9140 F   0  0  0  0  0
   -2.1780  -16.2800  -41.7340 O   0  0  0  0  0
   -1.2590  -15.5860  -39.8080 N   0  0  0  0  0
    0.0560  -15.7850  -40.2160 O   0  0  0  0  0
   -4.9590  -17.5090  -40.2760 C   0  0  0  0  0
   -6.0410  -17.8020  -41.0950 C   0  0  0  0  0
   -6.2180  -19.0910  -41.5730 C   0  0  0  0  0
   -5.3280  -20.0890  -41.1960 C   0  0  0  0  0
   -4.2560  -19.8010  -40.3560 C   0  0  0  0  0
   -4.0800  -18.5070  -39.8860 C   0  0  0  0  0
   -5.4390  -13.6990  -40.4910 C   0  0  0  0  0
   -6.2520  -13.4630  -39.3810 C   0  0  0  0  0
   -6.7790  -12.1970  -39.1300 C   0  0  0  0  0
   -6.5110  -11.1400  -39.9890 C   0  0  0  0  0
   -5.6940  -11.3660  -41.0920 C   0  0  0  0  0
   -5.1700  -12.6310  -41.3360 C   0  0  0  0  0
   -7.0590   -9.7800  -39.7220 C   0  0  0  0  0
   -7.0920   -8.8440  -40.7110 N   0  0  0  0  0
   -7.5640   -7.6120  -40.4670 C   0  0  0  0  0
   -8.0130   -7.2940  -39.1850 C   0  0  0  0  0
   -7.9550   -8.2550  -38.1780 C   0  0  0  0  0
   -7.4800   -9.4720  -38.4670 N   0  0  0  0  0
   -8.4900   -6.0690  -38.9120 F   0  0  0  0  0
   -5.1339  -15.0238  -41.8523 H   0  0  0  0  0
   -5.3734  -16.4081  -38.8534 H   0  0  0  0  0
   -1.4326  -15.2560  -38.8586 H   0  0  0  0  0
    0.6502  -15.5676  -39.4941 H   0  0  0  0  0
   -6.7508  -17.0190  -41.3619 H   0  0  0  0  0
   -7.0493  -19.3200  -42.2398 H   0  0  0  0  0
   -5.4704  -21.1061  -41.5611 H   0  0  0  0  0
   -3.5584  -20.5877  -40.0688 H   0  0  0  0  0
   -3.2540  -18.2767  -39.2131 H   0  0  0  0  0
   -6.4786  -14.2825  -38.6990 H   0  0  0  0  0
   -7.4059  -12.0360  -38.2530 H   0  0  0  0  0
   -5.4626  -10.5450  -41.7706 H   0  0  0  0  0
   -4.5353  -12.7869  -42.2083 H   0  0  0  0  0
   -7.5963   -6.8672  -41.2622 H   0  0  0  0  0
   -8.2919   -8.0187  -37.1687 H   0  0  0  0  0
  1  2  1  0  0  0
  1  6  2  0  0  0
  1  7  1  0  0  0
  2  3  1  0  0  0
  2  4  1  0  0  0
  2  5  1  0  0  0
  3  4  1  0  0  0
  3 15  1  0  0  0
  4  9  1  0  0  0
  7  8  1  0  0  0
  9 10  4  0  0  0
  9 14  4  0  0  0
 10 11  4  0  0  0
 11 12  4  0  0  0
 12 13  4  0  0  0
 13 14  4  0  0  0
 15 16  4  0  0  0
 15 20  4  0  0  0
 16 17  4  0  0  0
 17 18  4  0  0  0
 18 19  4  0  0  0
 18 21  1  0  0  0
 19 20  4  0  0  0
 21 22  4  0  0  0
 21 26  4  0  0  0
 22 23  4  0  0  0
 23 24  4  0  0  0
 24 25  4  0  0  0
 24 27  1  0  0  0
 25 26  4  0  0  0
  3 28  1  0  0  0
  4 29  1  0  0  0
  7 30  1  0  0  0
  8 31  1  0  0  0
 10 32  1  0  0  0
 11 33  1  0  0  0
 12 34  1  0  0  0
 13 35  1  0  0  0
 14 36  1  0  0  0
 16 37  1  0  0  0
 17 38  1  0  0  0
 19 39  1  0  0  0
 20 40  1  0  0  0
 23 41  1  0  0  0
 25 42  1  0  0  0
M  END
$$$$
