1sqt_ligand
  -I-interpret- 

 45 47  0  0  0  0  0  0  0  0999 V2000
   22.8630   15.2860   32.9690 C   0  0  0  0  0
   21.6050   15.5170   32.3500 C   0  0  0  0  0
   20.8180   16.6100   32.7350 C   0  0  0  0  0
   21.2960   17.5270   33.7420 C   0  0  0  0  0
   22.5690   17.3060   34.3480 C   0  0  0  0  0
   23.3240   16.1860   33.9870 C   0  0  0  0  0
   19.5460   16.7560   32.1380 C   0  0  0  0  0
   18.7320   17.7980   32.5450 C   0  0  0  0  0
   19.1780   18.6980   33.5390 C   0  0  0  0  0
   20.4510   18.5740   34.1440 C   0  0  0  0  0
   18.3140   19.7900   33.9540 C   0  0  0  0  0
   16.9780   19.7470   33.6840 N   0  0  0  0  0
   18.7730   20.8310   34.5960 N   0  0  0  0  0
   24.5530   16.0550   34.7060 O   0  0  0  0  0
   25.5590   15.1380   34.2870 C   0  0  0  0  0
   23.2310   18.2790   35.2620 C   0  0  0  0  0
   23.8430   17.9820   36.4130 C   0  0  0  0  0
   23.9820   19.2160   37.2050 N   0  0  0  0  0
   24.1440   20.1530   36.0980 N   0  3  0  0  0
   23.3510   19.7130   35.0840 C   0  0  0  0  0
   24.9760   19.1860   38.6680 S   0  0  0  0  0
   24.8390   20.5130   39.2400 O   0  0  0  0  0
   26.2700   18.8100   38.1540 O   0  0  0  0  0
   24.4350   17.8920   39.7690 C   0  0  0  0  0
   23.4727   14.4323   32.6730 H   0  0  0  0  0
   21.2508   14.8406   31.5721 H   0  0  0  0  0
   19.2114   16.0592   31.3694 H   0  0  0  0  0
   17.7458   17.9249   32.0985 H   0  0  0  0  0
   20.7708   19.2802   34.9102 H   0  0  0  0  0
   16.3727   20.5121   33.9816 H   0  0  0  0  0
   16.5840   18.9497   33.1845 H   0  0  0  0  0
   19.7659   20.8947   34.8206 H   0  0  0  0  0
   25.1530   14.1265   34.2954 H   0  0  0  0  0
   25.8832   15.3924   33.2779 H   0  0  0  0  0
   26.4080   15.1958   34.9682 H   0  0  0  0  0
   22.6914   17.6405   34.5625 H   0  0  0  0  0
   24.8268   17.5584   36.2111 H   0  0  0  0  0
   23.2552   17.2502   36.9672 H   0  0  0  0  0
   25.1189   20.1951   35.8010 H   0  0  0  0  0
   23.8769   21.0957   36.3815 H   0  0  0  0  0
   22.3744   20.1965   35.1090 H   0  0  0  0  0
   23.7824   19.9550   34.1127 H   0  0  0  0  0
   25.0290   17.9220   40.6824 H   0  0  0  0  0
   23.3831   18.0406   40.0131 H   0  0  0  0  0
   24.5633   16.9252   39.2822 H   0  0  0  0  0
  1  2  4  0  0  0
  1  6  4  0  0  0
  2  3  4  0  0  0
  3  4  4  0  0  0
  3  7  4  0  0  0
  4  5  4  0  0  0
  4 10  4  0  0  0
  5  6  4  0  0  0
  5 16  1  0  0  0
  6 14  1  0  0  0
  7  8  4  0  0  0
  8  9  4  0  0  0
  9 10  4  0  0  0
  9 11  1  0  0  0
 11 12  1  0  0  0
 11 13  2  0  0  0
 14 15  1  0  0  0
 16 17  1  0  0  0
 16 20  1  0  0  0
 17 18  1  0  0  0
 18 19  1  0  0  0
 18 21  1  0  0  0
 19 20  1  0  0  0
 21 22  2  0  0  0
 21 23  2  0  0  0
 21 24  1  0  0  0
  1 25  1  0  0  0
  2 26  1  0  0  0
  7 27  1  0  0  0
  8 28  1  0  0  0
 10 29  1  0  0  0
 12 30  1  0  0  0
 12 31  1  0  0  0
 13 32  1  0  0  0
 15 33  1  0  0  0
 15 34  1  0  0  0
 15 35  1  0  0  0
 16 36  1  0  0  0
 17 37  1  0  0  0
 17 38  1  0  0  0
 19 39  1  0  0  0
 19 40  1  0  0  0
 20 41  1  0  0  0
 20 42  1  0  0  0
 24 43  1  0  0  0
 24 44  1  0  0  0
 24 45  1  0  0  0
M  END
$$$$
