3qin_ligand
  -I-interpret- 

 32 33  0  0  0  0  0  0  0  0999 V2000
    3.8530    4.3630   34.5790 C   0  0  0  0  0
    4.8930    4.6250   35.4530 C   0  0  0  0  0
    6.2310    4.5410   35.0710 C   0  0  0  0  0
    6.5470    4.1880   33.7560 C   0  0  0  0  0
    5.5170    3.8940   32.8690 C   0  0  0  0  0
    4.1750    3.9840   33.2740 C   0  0  0  0  0
    3.0750    3.6690   32.3000 C   0  0  0  0  0
    3.0480    4.6030   31.1240 C   0  0  0  0  0
    3.3190    4.0600   29.9290 N   0  0  0  0  0
    3.2920    4.9190   28.8760 C   0  0  0  0  0
    2.9930    6.2550   28.9990 C   0  0  0  0  0
    2.7420    6.6720   30.2850 C   0  0  0  0  0
    2.7560    5.8810   31.3800 N   0  0  0  0  0
    2.9850    7.1300   27.9580 O   0  0  0  0  0
    2.4370    7.9610   30.5340 O   0  0  0  0  0
    3.5790    4.3020   27.5650 C   0  0  0  0  0
    3.8710    2.9980   27.7150 O   0  0  0  0  0
    3.5330    4.8460   26.4770 O   0  0  0  0  0
    4.4990    5.0980   37.2490 Br  0  0  0  0  0
    7.1640    4.8560   36.0250 O   0  0  0  0  0
    8.5400    4.7060   35.6810 C   0  0  0  0  0
    2.8146    4.4497   34.8990 H   0  0  0  0  0
    7.5862    4.1438   33.4303 H   0  0  0  0  0
    5.7535    3.5906   31.8491 H   0  0  0  0  0
    2.1260    3.7701   32.8265 H   0  0  0  0  0
    3.2457    2.6616   31.9204 H   0  0  0  0  0
    2.7493    8.0039   28.2778 H   0  0  0  0  0
    2.2931    8.0784   31.4759 H   0  0  0  0  0
    3.8544    2.7728   28.6481 H   0  0  0  0  0
    8.7366    3.6662   35.4195 H   0  0  0  0  0
    8.7723    5.3462   34.8299 H   0  0  0  0  0
    9.1590    4.9914   36.5316 H   0  0  0  0  0
  1  2  4  0  0  0
  1  6  4  0  0  0
  2  3  4  0  0  0
  2 19  1  0  0  0
  3  4  4  0  0  0
  3 20  1  0  0  0
  4  5  4  0  0  0
  5  6  4  0  0  0
  6  7  1  0  0  0
  7  8  1  0  0  0
  8  9  4  0  0  0
  8 13  4  0  0  0
  9 10  4  0  0  0
 10 11  4  0  0  0
 10 16  1  0  0  0
 11 12  4  0  0  0
 11 14  1  0  0  0
 12 13  4  0  0  0
 12 15  1  0  0  0
 16 17  1  0  0  0
 16 18  2  0  0  0
 20 21  1  0  0  0
  1 22  1  0  0  0
  4 23  1  0  0  0
  5 24  1  0  0  0
  7 25  1  0  0  0
  7 26  1  0  0  0
 14 27  1  0  0  0
 15 28  1  0  0  0
 17 29  1  0  0  0
 21 30  1  0  0  0
 21 31  1  0  0  0
 21 32  1  0  0  0
M  END
$$$$
