5umy_ligand
  -I-interpret- 

 59 64  0  0  0  0  0  0  0  0999 V2000
    0.1390    7.7020  -12.9060 C   0  0  0  0  0
    0.6560    6.5250  -13.7700 C   0  0  0  0  0
    0.6240    5.3020  -12.9550 O   0  0  0  0  0
   -0.0630    6.3040  -15.0710 C   0  0  0  0  0
    0.5280    6.8740  -16.1390 O   0  0  0  0  0
    0.2560    5.5120  -16.3350 C   0  0  0  0  0
   -0.8060    5.1210  -17.2650 C   0  0  0  0  0
   -0.5750    4.1730  -18.2790 C   0  0  0  0  0
   -1.5910    3.7940  -19.1460 C   0  0  0  0  0
   -1.3540    2.8810  -20.1230 O   0  0  0  0  0
   -2.8740    4.3230  -19.0630 C   0  0  0  0  0
   -3.8800    3.9030  -19.9650 C   0  0  0  0  0
   -3.6280    3.0700  -20.8270 O   0  0  0  0  0
   -5.1760    4.4290  -19.8590 C   0  0  0  0  0
   -6.2040    4.0200  -20.7500 C   0  0  0  0  0
   -7.5100    4.5570  -20.6460 C   0  0  0  0  0
   -7.7830    5.4960  -19.6250 C   0  0  0  0  0
   -8.9710    6.1380  -19.3890 O   0  0  0  0  0
  -10.2340    5.6280  -19.8860 C   0  0  0  0  0
   -6.7620    5.8870  -18.7450 C   0  0  0  0  0
   -7.0700    6.8480  -17.7960 O   0  0  0  0  0
   -5.4540    5.3740  -18.8340 C   0  0  0  0  0
   -4.4500    5.8100  -17.9530 C   0  0  0  0  0
   -4.7200    6.6640  -17.0930 O   0  0  0  0  0
   -3.1470    5.2750  -18.0480 C   0  0  0  0  0
   -2.1120    5.6590  -17.1600 C   0  0  0  0  0
   -2.3470    6.5920  -16.1420 N   0  0  0  0  0
   -1.6400    6.4670  -14.8380 C   0  0  0  0  0
   -2.1790    5.3400  -14.1500 C   0  0  0  0  0
   -2.3380    4.3880  -13.7500 C   0  0  0  0  0
   -2.4220    3.0020  -13.2740 C   0  0  0  0  0
   -1.4680    2.1080  -13.6670 C   0  0  0  0  0
   -0.4180    2.7090  -14.5000 C   0  0  0  0  0
    0.3240    3.2920  -15.1260 C   0  0  0  0  0
    1.1910    4.3090  -15.9030 C   0  0  0  0  0
    1.9190    3.7850  -16.9430 O   0  0  0  0  0
    0.2315    8.6315  -13.4678 H   0  0  0  0  0
   -0.9072    7.5322  -12.6517 H   0  0  0  0  0
    0.7302    7.7676  -11.9926 H   0  0  0  0  0
    1.6696    6.7913  -14.0696 H   0  0  0  0  0
    1.0863    5.4576  -12.1282 H   0  0  0  0  0
    0.4153    3.7301  -18.3852 H   0  0  0  0  0
   -2.1586    2.7365  -20.6264 H   0  0  0  0  0
   -5.9847    3.2837  -21.5232 H   0  0  0  0  0
   -8.2918    4.2516  -21.3414 H   0  0  0  0  0
  -10.1992    5.5729  -20.9741 H   0  0  0  0  0
  -10.4094    4.6334  -19.4760 H   0  0  0  0  0
  -11.0395    6.2956  -19.5803 H   0  0  0  0  0
   -6.2939    7.0271  -17.2600 H   0  0  0  0  0
   -3.0032    7.3578  -16.2944 H   0  0  0  0  0
   -1.7860    7.3656  -14.2386 H   0  0  0  0  0
   -3.0745    5.8198  -13.7551 H   0  0  0  0  0
   -3.2275    4.6975  -13.2013 H   0  0  0  0  0
   -3.2340    2.6912  -12.6166 H   0  0  0  0  0
   -1.4839    1.0538  -13.3903 H   0  0  0  0  0
    0.1137    1.7661  -14.6275 H   0  0  0  0  0
    0.9002    2.4189  -15.4323 H   0  0  0  0  0
    1.9769    4.6630  -15.2358 H   0  0  0  0  0
    2.4230    4.4852  -17.3641 H   0  0  0  0  0
  1  2  1  0  0  0
  2  3  1  0  0  0
  2  4  1  0  0  0
  4  5  1  0  0  0
  4  6  1  0  0  0
  4 28  1  0  0  0
  5  6  1  0  0  0
  6  7  1  0  0  0
  6 35  1  0  0  0
  7  8  4  0  0  0
  7 26  4  0  0  0
  8  9  4  0  0  0
  9 10  1  0  0  0
  9 11  4  0  0  0
 11 12  1  0  0  0
 11 25  4  0  0  0
 12 13  2  0  0  0
 12 14  1  0  0  0
 14 15  4  0  0  0
 14 22  4  0  0  0
 15 16  4  0  0  0
 16 17  4  0  0  0
 17 18  1  0  0  0
 17 20  4  0  0  0
 18 19  1  0  0  0
 20 21  1  0  0  0
 20 22  4  0  0  0
 22 23  1  0  0  0
 23 24  2  0  0  0
 23 25  1  0  0  0
 25 26  4  0  0  0
 26 27  1  0  0  0
 27 28  1  0  0  0
 28 29  1  0  0  0
 29 30  2  0  0  0
 30 31  1  0  0  0
 31 32  2  0  0  0
 32 33  1  0  0  0
 33 34  2  0  0  0
 34 35  1  0  0  0
 35 36  1  0  0  0
  1 37  1  0  0  0
  1 38  1  0  0  0
  1 39  1  0  0  0
  2 40  1  0  0  0
  3 41  1  0  0  0
  8 42  1  0  0  0
 10 43  1  0  0  0
 15 44  1  0  0  0
 16 45  1  0  0  0
 19 46  1  0  0  0
 19 47  1  0  0  0
 19 48  1  0  0  0
 21 49  1  0  0  0
 27 50  1  0  0  0
 28 51  1  0  0  0
 29 52  1  0  0  0
 30 53  1  0  0  0
 31 54  1  0  0  0
 32 55  1  0  0  0
 33 56  1  0  0  0
 34 57  1  0  0  0
 35 58  1  0  0  0
 36 59  1  0  0  0
M  END
$$$$
