### 
### Created by X-TOOL on Mon Aug  2 16:12:59 2021
### 

@<TRIPOS>MOLECULE
6dkp_ligand
  148   147     1     0     0
SMALL
GAST_HUCK


@<TRIPOS>ATOM
      1 N         -31.0320  -17.6140  -11.1120 N.4       1 GLU         0.2380
      2 CA        -30.9290  -18.4590   -9.9270 C.3       1 GLU         0.0665
      3 C         -31.4020  -17.7140   -8.6820 C.2       1 GLU         0.2268
      4 O         -31.1990  -16.5060   -8.5540 O.2       1 GLU        -0.3907
      5 CB        -29.4910  -18.9410   -9.7360 C.3       1 GLU         0.0194
      6 CG        -29.3440  -20.0450   -8.7050 C.3       1 GLU         0.0075
      7 CD        -27.9180  -20.5360   -8.5670 C.2       1 GLU         0.0351
      8 OE1       -27.0200  -19.6970   -8.3430 O.co2     1 GLU        -0.5690
      9 OE2       -27.6950  -21.7600   -8.6920 O.co2     1 GLU        -0.5690
     10 N         -32.0370  -18.4470   -7.7710 N.am      1 GLU        -0.2610
     11 CA        -32.5440  -17.8440   -6.5520 C.3       1 GLU         0.1313
     12 C         -31.4000  -17.3330   -5.6830 C.2       1 GLU         0.2039
     13 O         -30.2570  -17.7940   -5.7580 O.2       1 GLU        -0.3944
     14 CB        -33.3760  -18.8480   -5.7520 C.3       1 GLU        -0.0101
     15 CG        -34.7200  -19.2960   -6.3190 C.3       1 GLU        -0.0425
     16 CD1       -35.2780  -20.4200   -5.4720 C.3       1 GLU        -0.0625
     17 CD2       -35.7090  -18.1400   -6.3880 C.3       1 GLU        -0.0625
     18 N         -31.7290  -16.3630   -4.8410 N.am      1 GLU        -0.2640
     19 CA        -30.7910  -15.8360   -3.8590 C.3       1 GLU         0.1282
     20 C         -30.6870  -16.7930   -2.6760 C.2       1 GLU         0.2034
     21 O         -31.6930  -17.1020   -2.0260 O.2       1 GLU        -0.3944
     22 CB        -31.2350  -14.4520   -3.3890 C.3       1 GLU        -0.0244
     23 N         -29.4770  -17.2650   -2.4040 N.am      1 GLU        -0.2664
     24 CA        -29.2330  -18.0890   -1.2440 C.3       1 GLU         0.1201
     25 C         -28.9040  -17.3220    0.0100 C.2       1 GLU         0.2008
     26 O         -28.6960  -17.9300    1.0650 O.2       1 GLU        -0.3947
     27 N         -28.8400  -15.9920   -0.0770 N.am      1 GLU        -0.2637
     28 CA        -28.5360  -15.1310    1.0580 C.3       1 GLU         0.1335
     29 C         -29.4600  -13.9210    1.0110 C.2       1 GLU         0.2040
     30 O         -30.0670  -13.6120   -0.0170 O.2       1 GLU        -0.3944
     31 CB        -27.0610  -14.6640    1.0700 C.3       1 GLU        -0.0037
     32 CG1       -26.7730  -13.7910   -0.1530 C.3       1 GLU        -0.0491
     33 CG2       -26.1120  -15.8540    1.1190 C.3       1 GLU        -0.0582
     34 CD1       -25.3530  -13.2790   -0.2190 C.3       1 GLU        -0.0648
     35 N         -29.5640  -13.2380    2.1480 N.am      1 GLU        -0.2664
     36 CA        -30.2790  -11.9780    2.2050 C.3       1 GLU         0.1201
     37 C         -31.7790  -12.0720    2.3470 C.2       1 GLU         0.2008
     38 O         -32.4760  -11.0950    2.0570 O.2       1 GLU        -0.3947
     39 N         -32.3050  -13.2120    2.7850 N.am      1 GLU        -0.2637
     40 CA        -33.7370  -13.3960    2.9900 C.3       1 GLU         0.1335
     41 C         -33.9560  -13.5290    4.4910 C.2       1 GLU         0.2042
     42 O         -33.7570  -14.6050    5.0670 O.2       1 GLU        -0.3944
     43 CB        -34.2780  -14.6140    2.2330 C.3       1 GLU        -0.0037
     44 CG1       -33.8440  -14.5730    0.7660 C.3       1 GLU        -0.0491
     45 CG2       -35.7960  -14.6780    2.3460 C.3       1 GLU        -0.0582
     46 CD1       -34.3570  -13.3700    0.0080 C.3       1 GLU        -0.0648
     47 N         -34.3730  -12.4400    5.1320 N.am      1 GLU        -0.2637
     48 CA        -34.5550  -12.3970    6.5750 C.3       1 GLU         0.1312
     49 C         -36.0090  -12.1020    6.9100 C.2       1 GLU         0.2040
     50 O         -36.6720  -11.3220    6.2170 O.2       1 GLU        -0.3944
     51 CB        -33.6480  -11.3390    7.2120 C.3       1 GLU        -0.0101
     52 CG        -33.5790  -11.3350    8.7400 C.3       1 GLU        -0.0425
     53 CD1       -32.9760  -12.6350    9.2470 C.3       1 GLU        -0.0625
     54 CD2       -32.7850  -10.1410    9.2370 C.3       1 GLU        -0.0625
     55 N         -36.4990  -12.7290    7.9770 N.am      1 GLU        -0.2613
     56 CA        -37.8610  -12.4840    8.4320 C.3       1 GLU         0.1564
     57 C         -38.0230  -11.0340    8.8720 C.2       1 GLU         0.2059
     58 O         -37.0890  -10.4050    9.3770 O.2       1 GLU        -0.3943
     59 CB        -38.2150  -13.4250    9.5850 C.3       1 GLU         0.0924
     60 OG1       -37.2710  -13.2540   10.6490 O.3       1 GLU        -0.3874
     61 CG2       -38.1850  -14.8720    9.1200 C.3       1 GLU        -0.0346
     62 N         -39.2250  -10.5020    8.6720 N.am      1 GLU        -0.2692
     63 CA        -39.5160   -9.1140    9.0100 C.3       1 GLU         0.0967
     64 C         -39.6390   -8.9410   10.5200 C.2       1 GLU         0.0603
     65 O         -39.7140   -9.9170   11.2670 O.co2     1 GLU        -0.5666
     66 CB        -40.7940   -8.6250    8.3060 C.3       1 GLU        -0.0118
     67 CG1       -40.6610   -8.7720    6.7980 C.3       1 GLU        -0.0590
     68 CG2       -42.0060   -9.3850    8.8180 C.3       1 GLU        -0.0590
     69 OXT       -39.6680   -7.8190   11.0280 O.co2     1 GLU        -0.5666
     70 H1        -30.7145  -18.1273  -11.9193 H         1 GLU         0.2015
     71 H2        -30.4603  -16.7928  -10.9899 H         1 GLU         0.2015
     72 H3        -31.9923  -17.3381  -11.2456 H         1 GLU         0.2015
     73 H4        -31.5748  -19.3376  -10.0720 H         1 GLU         0.1099
     74 H5        -28.8784  -18.0851   -9.4165 H         1 GLU         0.0363
     75 H6        -29.1207  -19.3170  -10.7011 H         1 GLU         0.0363
     76 H7        -29.9793  -20.8916   -9.0042 H         1 GLU         0.0434
     77 H8        -29.6791  -19.6617   -7.7300 H         1 GLU         0.0434
     78 H9        -32.1666  -19.4260   -7.9282 H         1 GLU         0.1884
     79 H10       -33.1856  -16.9937   -6.8264 H         1 GLU         0.0800
     80 H11       -33.5730  -18.3960   -4.7687 H         1 GLU         0.0315
     81 H12       -32.7606  -19.7507   -5.6240 H         1 GLU         0.0315
     82 H13       -34.5585  -19.6723   -7.3399 H         1 GLU         0.0298
     83 H14       -36.2467  -20.7418   -5.8819 H         1 GLU         0.0232
     84 H15       -35.4159  -20.0673   -4.4393 H         1 GLU         0.0232
     85 H16       -34.5769  -21.2676   -5.4795 H         1 GLU         0.0232
     86 H17       -35.2879  -17.3336   -7.0064 H         1 GLU         0.0232
     87 H18       -35.9019  -17.7614   -5.3734 H         1 GLU         0.0232
     88 H19       -36.6516  -18.4900   -6.8342 H         1 GLU         0.0232
     89 H20       -32.6520  -15.9804   -4.8815 H         1 GLU         0.1883
     90 H21       -29.8005  -15.7464   -4.3289 H         1 GLU         0.0797
     91 H22       -30.5173  -14.0684   -2.6489 H         1 GLU         0.0277
     92 H23       -32.2322  -14.5230   -2.9301 H         1 GLU         0.0277
     93 H24       -31.2752  -13.7679   -4.2495 H         1 GLU         0.0277
     94 H25       -28.7174  -17.0451   -3.0161 H         1 GLU         0.1881
     95 H26       -28.3889  -18.7575   -1.4690 H         1 GLU         0.0763
     96 H27       -30.1350  -18.6888   -1.0529 H         1 GLU         0.0763
     97 H28       -29.0091  -15.5652   -0.9654 H         1 GLU         0.1883
     98 H29       -28.7272  -15.6932    1.9839 H         1 GLU         0.0803
     99 H30       -26.8983  -14.0581    1.9736 H         1 GLU         0.0345
    100 H31       -27.4522  -12.9261   -0.1289 H         1 GLU         0.0267
    101 H32       -26.9690  -14.3860   -1.0572 H         1 GLU         0.0267
    102 H33       -26.3372  -16.4663    2.0047 H         1 GLU         0.0235
    103 H34       -25.0744  -15.4934    1.1767 H         1 GLU         0.0235
    104 H35       -26.2390  -16.4619    0.2111 H         1 GLU         0.0235
    105 H36       -25.2269  -12.6632   -1.1217 H         1 GLU         0.0230
    106 H37       -24.6575  -14.1304   -0.2559 H         1 GLU         0.0230
    107 H38       -25.1408  -12.6705    0.6725 H         1 GLU         0.0230
    108 H39       -29.1412  -13.6004    2.9786 H         1 GLU         0.1881
    109 H40       -30.0630  -11.4266    1.2780 H         1 GLU         0.0763
    110 H41       -29.8946  -11.4120    3.0663 H         1 GLU         0.0763
    111 H42       -31.6917  -13.9767    2.9825 H         1 GLU         0.1883
    112 H43       -34.2682  -12.5042    2.6260 H         1 GLU         0.0803
    113 H44       -33.8585  -15.5215    2.6917 H         1 GLU         0.0345
    114 H45       -34.2176  -15.4804    0.2690 H         1 GLU         0.0267
    115 H46       -32.7446  -14.5616    0.7304 H         1 GLU         0.0267
    116 H47       -36.0838  -14.7066    3.4073 H         1 GLU         0.0235
    117 H48       -36.1634  -15.5841    1.8420 H         1 GLU         0.0235
    118 H49       -36.2369  -13.7895    1.8704 H         1 GLU         0.0235
    119 H50       -34.0034  -13.4142   -1.0327 H         1 GLU         0.0230
    120 H51       -33.9840  -12.4508    0.4832 H         1 GLU         0.0230
    121 H52       -35.4569  -13.3696    0.0218 H         1 GLU         0.0230
    122 H53       -34.5695  -11.6166    4.5997 H         1 GLU         0.1883
    123 H54       -34.2897  -13.3806    6.9898 H         1 GLU         0.0800
    124 H55       -34.0090  -10.3509    6.8905 H         1 GLU         0.0315
    125 H56       -32.6285  -11.4987    6.8312 H         1 GLU         0.0315
    126 H57       -34.6036  -11.2540    9.1321 H         1 GLU         0.0298
    127 H58       -32.9338  -12.6155   10.3460 H         1 GLU         0.0232
    128 H59       -31.9593  -12.7497    8.8430 H         1 GLU         0.0232
    129 H60       -33.5985  -13.4805    8.9190 H         1 GLU         0.0232
    130 H61       -33.2402   -9.2143    8.8575 H         1 GLU         0.0232
    131 H62       -31.7482  -10.2144    8.8768 H         1 GLU         0.0232
    132 H63       -32.7911  -10.1287   10.3369 H         1 GLU         0.0232
    133 H64       -35.9233  -13.3783    8.4740 H         1 GLU         0.1884
    134 H65       -38.5497  -12.6769    7.5963 H         1 GLU         0.0826
    135 H66       -39.2242  -13.1836    9.9500 H         1 GLU         0.0639
    136 H67       -37.2987  -12.3547   10.9539 H         1 GLU         0.2101
    137 H68       -38.4417  -15.5328    9.9611 H         1 GLU         0.0257
    138 H69       -37.1774  -15.1188    8.7541 H         1 GLU         0.0257
    139 H70       -38.9142  -15.0115    8.3084 H         1 GLU         0.0257
    140 H71       -39.9489  -11.0692    8.2792 H         1 GLU         0.1875
    141 H72       -38.6761   -8.4953    8.6610 H         1 GLU         0.0729
    142 H73       -40.9314   -7.5586    8.5383 H         1 GLU         0.0336
    143 H74       -41.5824   -8.4181    6.3124 H         1 GLU         0.0234
    144 H75       -40.4968   -9.8300    6.5458 H         1 GLU         0.0234
    145 H76       -39.8077   -8.1742    6.4451 H         1 GLU         0.0234
    146 H77       -42.0808   -9.2638    9.9087 H         1 GLU         0.0234
    147 H78       -41.8995  -10.4523    8.5741 H         1 GLU         0.0234
    148 H79       -42.9151   -8.9890    8.3419 H         1 GLU         0.0234
@<TRIPOS>BOND
     1    1    2 1  
     2    2    3 1  
     3    2    5 1  
     4    3    4 2  
     5    3   10 am 
     6    5    6 1  
     7    6    7 1  
     8    7    8 ar 
     9    7    9 ar 
    10   10   11 1  
    11   11   12 1  
    12   11   14 1  
    13   12   13 2  
    14   12   18 am 
    15   14   15 1  
    16   15   16 1  
    17   15   17 1  
    18   18   19 1  
    19   19   20 1  
    20   19   22 1  
    21   20   21 2  
    22   20   23 am 
    23   23   24 1  
    24   24   25 1  
    25   25   26 2  
    26   25   27 am 
    27   27   28 1  
    28   28   29 1  
    29   28   31 1  
    30   29   30 2  
    31   29   35 am 
    32   31   32 1  
    33   31   33 1  
    34   32   34 1  
    35   35   36 1  
    36   36   37 1  
    37   37   38 2  
    38   37   39 am 
    39   39   40 1  
    40   40   41 1  
    41   40   43 1  
    42   41   42 2  
    43   41   47 am 
    44   43   44 1  
    45   43   45 1  
    46   44   46 1  
    47   47   48 1  
    48   48   49 1  
    49   48   51 1  
    50   49   50 2  
    51   49   55 am 
    52   51   52 1  
    53   52   53 1  
    54   52   54 1  
    55   55   56 1  
    56   56   57 1  
    57   56   59 1  
    58   57   58 2  
    59   57   62 am 
    60   59   60 1  
    61   59   61 1  
    62   62   63 1  
    63   63   64 1  
    64   63   66 1  
    65   64   65 ar 
    66   64   69 ar 
    67   66   67 1  
    68   66   68 1  
    69    1   70 1  
    70    1   71 1  
    71    1   72 1  
    72    2   73 1  
    73    5   74 1  
    74    5   75 1  
    75    6   76 1  
    76    6   77 1  
    77   10   78 1  
    78   11   79 1  
    79   14   80 1  
    80   14   81 1  
    81   15   82 1  
    82   16   83 1  
    83   16   84 1  
    84   16   85 1  
    85   17   86 1  
    86   17   87 1  
    87   17   88 1  
    88   18   89 1  
    89   19   90 1  
    90   22   91 1  
    91   22   92 1  
    92   22   93 1  
    93   23   94 1  
    94   24   95 1  
    95   24   96 1  
    96   27   97 1  
    97   28   98 1  
    98   31   99 1  
    99   32  100 1  
   100   32  101 1  
   101   33  102 1  
   102   33  103 1  
   103   33  104 1  
   104   34  105 1  
   105   34  106 1  
   106   34  107 1  
   107   35  108 1  
   108   36  109 1  
   109   36  110 1  
   110   39  111 1  
   111   40  112 1  
   112   43  113 1  
   113   44  114 1  
   114   44  115 1  
   115   45  116 1  
   116   45  117 1  
   117   45  118 1  
   118   46  119 1  
   119   46  120 1  
   120   46  121 1  
   121   47  122 1  
   122   48  123 1  
   123   51  124 1  
   124   51  125 1  
   125   52  126 1  
   126   53  127 1  
   127   53  128 1  
   128   53  129 1  
   129   54  130 1  
   130   54  131 1  
   131   54  132 1  
   132   55  133 1  
   133   56  134 1  
   134   59  135 1  
   135   60  136 1  
   136   61  137 1  
   137   61  138 1  
   138   61  139 1  
   139   62  140 1  
   140   63  141 1  
   141   66  142 1  
   142   67  143 1  
   143   67  144 1  
   144   67  145 1  
   145   68  146 1  
   146   68  147 1  
   147   68  148 1  
@<TRIPOS>SUBSTRUCTURE
     1 GLU         1

