6dkp_ligand
  -I-interpret- 

150149  0  0  0  0  0  0  0  0999 V2000
  -31.0320  -17.6140  -11.1120 N   0  3  0  0  0
  -30.9290  -18.4590   -9.9270 C   0  0  0  0  0
  -31.4020  -17.7140   -8.6820 C   0  0  0  0  0
  -31.1990  -16.5060   -8.5540 O   0  0  0  0  0
  -29.4910  -18.9410   -9.7360 C   0  0  0  0  0
  -29.3440  -20.0450   -8.7050 C   0  0  0  0  0
  -27.9180  -20.5360   -8.5670 C   0  0  0  0  0
  -27.0200  -19.6970   -8.3430 O   0  0  0  0  0
  -27.6950  -21.7600   -8.6920 O   0  0  0  0  0
  -32.0370  -18.4470   -7.7710 N   0  0  0  0  0
  -32.5440  -17.8440   -6.5520 C   0  0  0  0  0
  -31.4000  -17.3330   -5.6830 C   0  0  0  0  0
  -30.2570  -17.7940   -5.7580 O   0  0  0  0  0
  -33.3760  -18.8480   -5.7520 C   0  0  0  0  0
  -34.7200  -19.2960   -6.3190 C   0  0  0  0  0
  -35.2780  -20.4200   -5.4720 C   0  0  0  0  0
  -35.7090  -18.1400   -6.3880 C   0  0  0  0  0
  -31.7290  -16.3630   -4.8410 N   0  0  0  0  0
  -30.7910  -15.8360   -3.8590 C   0  0  0  0  0
  -30.6870  -16.7930   -2.6760 C   0  0  0  0  0
  -31.6930  -17.1020   -2.0260 O   0  0  0  0  0
  -31.2350  -14.4520   -3.3890 C   0  0  0  0  0
  -29.4770  -17.2650   -2.4040 N   0  0  0  0  0
  -29.2330  -18.0890   -1.2440 C   0  0  0  0  0
  -28.9040  -17.3220    0.0100 C   0  0  0  0  0
  -28.6960  -17.9300    1.0650 O   0  0  0  0  0
  -28.8400  -15.9920   -0.0770 N   0  0  0  0  0
  -28.5360  -15.1310    1.0580 C   0  0  0  0  0
  -29.4600  -13.9210    1.0110 C   0  0  0  0  0
  -30.0670  -13.6120   -0.0170 O   0  0  0  0  0
  -27.0610  -14.6640    1.0700 C   0  0  0  0  0
  -26.7730  -13.7910   -0.1530 C   0  0  0  0  0
  -26.1120  -15.8540    1.1190 C   0  0  0  0  0
  -25.3530  -13.2790   -0.2190 C   0  0  0  0  0
  -29.5640  -13.2380    2.1480 N   0  0  0  0  0
  -30.2790  -11.9780    2.2050 C   0  0  0  0  0
  -31.7790  -12.0720    2.3470 C   0  0  0  0  0
  -32.4760  -11.0950    2.0570 O   0  0  0  0  0
  -32.3050  -13.2120    2.7850 N   0  0  0  0  0
  -33.7370  -13.3960    2.9900 C   0  0  0  0  0
  -33.9560  -13.5290    4.4910 C   0  0  0  0  0
  -33.7570  -14.6050    5.0670 O   0  0  0  0  0
  -34.2780  -14.6140    2.2330 C   0  0  0  0  0
  -33.8440  -14.5730    0.7660 C   0  0  0  0  0
  -35.7960  -14.6780    2.3460 C   0  0  0  0  0
  -34.3570  -13.3700    0.0080 C   0  0  0  0  0
  -34.3730  -12.4400    5.1320 N   0  0  0  0  0
  -34.5550  -12.3970    6.5750 C   0  0  0  0  0
  -36.0090  -12.1020    6.9100 C   0  0  0  0  0
  -36.6720  -11.3220    6.2170 O   0  0  0  0  0
  -33.6480  -11.3390    7.2120 C   0  0  0  0  0
  -33.5790  -11.3350    8.7400 C   0  0  0  0  0
  -32.9760  -12.6350    9.2470 C   0  0  0  0  0
  -32.7850  -10.1410    9.2370 C   0  0  0  0  0
  -36.4990  -12.7290    7.9770 N   0  0  0  0  0
  -37.8610  -12.4840    8.4320 C   0  0  0  0  0
  -38.0230  -11.0340    8.8720 C   0  0  0  0  0
  -37.0890  -10.4050    9.3770 O   0  0  0  0  0
  -38.2150  -13.4250    9.5850 C   0  0  0  0  0
  -37.2710  -13.2540   10.6490 O   0  0  0  0  0
  -38.1850  -14.8720    9.1200 C   0  0  0  0  0
  -39.2250  -10.5020    8.6720 N   0  0  0  0  0
  -39.5160   -9.1140    9.0100 C   0  0  0  0  0
  -39.6390   -8.9410   10.5200 C   0  0  0  0  0
  -39.7140   -9.9170   11.2670 O   0  0  0  0  0
  -40.7940   -8.6250    8.3060 C   0  0  0  0  0
  -40.6610   -8.7720    6.7980 C   0  0  0  0  0
  -42.0060   -9.3850    8.8180 C   0  0  0  0  0
  -39.6680   -7.8190   11.0280 O   0  0  0  0  0
  -31.9969  -17.3024  -11.2231 H   0  0  0  0  0
  -30.4220  -16.8036  -11.0043 H   0  0  0  0  0
  -30.7489  -18.1473  -11.9341 H   0  0  0  0  0
  -31.5741  -19.3250  -10.0751 H   0  0  0  0  0
  -28.9078  -18.0898   -9.3847 H   0  0  0  0  0
  -29.1543  -19.3430  -10.6916 H   0  0  0  0  0
  -29.9562  -20.8867   -9.0288 H   0  0  0  0  0
  -29.6526  -19.6428   -7.7401 H   0  0  0  0  0
  -28.5214  -22.2193   -8.8587 H   0  0  0  0  0
  -32.1692  -19.4456   -7.9314 H   0  0  0  0  0
  -33.1771  -17.0048   -6.8402 H   0  0  0  0  0
  -33.6161  -18.3392   -4.8184 H   0  0  0  0  0
  -32.7687  -19.7522   -5.7105 H   0  0  0  0  0
  -34.5623  -19.6526   -7.3369 H   0  0  0  0  0
  -34.5824  -21.2592   -5.4802 H   0  0  0  0  0
  -35.4141  -20.0692   -4.4490 H   0  0  0  0  0
  -36.2378  -20.7380   -5.8791 H   0  0  0  0  0
  -35.8715  -17.7422   -5.3863 H   0  0  0  0  0
  -35.3063  -17.3569   -7.0304 H   0  0  0  0  0
  -36.6546  -18.4964   -6.7966 H   0  0  0  0  0
  -32.6705  -15.9727   -4.8823 H   0  0  0  0  0
  -29.8091  -15.7417   -4.3227 H   0  0  0  0  0
  -31.2744  -13.7752   -4.2425 H   0  0  0  0  0
  -32.2232  -14.5237   -2.9346 H   0  0  0  0  0
  -30.5231  -14.0730   -2.6557 H   0  0  0  0  0
  -28.7022  -17.0407   -3.0283 H   0  0  0  0  0
  -28.3686  -18.7126   -1.4722 H   0  0  0  0  0
  -30.1512  -18.6425   -1.0474 H   0  0  0  0  0
  -29.0125  -15.5567   -0.9832 H   0  0  0  0  0
  -28.6930  -15.7057    1.9708 H   0  0  0  0  0
  -26.8964  -14.0695    1.9687 H   0  0  0  0  0
  -27.4284  -12.9221   -0.0927 H   0  0  0  0  0
  -26.9368  -14.4073   -1.0370 H   0  0  0  0  0
  -26.3034  -16.4327    2.0226 H   0  0  0  0  0
  -26.2733  -16.4820    0.2428 H   0  0  0  0  0
  -25.0825  -15.4960    1.1265 H   0  0  0  0  0
  -25.1440  -12.6763    0.6648 H   0  0  0  0  0
  -24.6649  -14.1236   -0.2554 H   0  0  0  0  0
  -25.2293  -12.6690   -1.1138 H   0  0  0  0  0
  -29.1328  -13.6076    2.9952 H   0  0  0  0  0
  -30.0929  -11.4780    1.2545 H   0  0  0  0  0
  -29.9196  -11.4629    3.0958 H   0  0  0  0  0
  -31.6794  -13.9920    2.9864 H   0  0  0  0  0
  -34.2854  -12.5417    2.5930 H   0  0  0  0  0
  -33.8622  -15.5148    2.6843 H   0  0  0  0  0
  -34.2538  -15.4596    0.2821 H   0  0  0  0  0
  -32.7552  -14.5247    0.7516 H   0  0  0  0  0
  -36.0779  -14.7577    3.3959 H   0  0  0  0  0
  -36.2292  -13.7731    1.9199 H   0  0  0  0  0
  -36.1631  -15.5488    1.8028 H   0  0  0  0  0
  -35.4469  -13.3707    0.0224 H   0  0  0  0  0
  -33.9867  -12.4599    0.4799 H   0  0  0  0  0
  -34.0060  -13.4150   -1.0230 H   0  0  0  0  0
  -34.5735  -11.6001    4.5890 H   0  0  0  0  0
  -34.2826  -13.3714    6.9805 H   0  0  0  0  0
  -34.0617  -10.3724    6.9247 H   0  0  0  0  0
  -32.6382  -11.5559    6.8635 H   0  0  0  0  0
  -34.5929  -11.2526    9.1317 H   0  0  0  0  0
  -33.5937  -13.4719    8.9213 H   0  0  0  0  0
  -31.9687  -12.7475    8.8460 H   0  0  0  0  0
  -32.9347  -12.6145   10.3360 H   0  0  0  0  0
  -31.7719  -10.1884    8.8378 H   0  0  0  0  0
  -33.2660   -9.2218    8.9027 H   0  0  0  0  0
  -32.7488  -10.1583   10.3263 H   0  0  0  0  0
  -35.9117  -13.3913    8.4839 H   0  0  0  0  0
  -38.5404  -12.6753    7.6014 H   0  0  0  0  0
  -39.2191  -13.1851    9.9347 H   0  0  0  0  0
  -37.4945  -13.8451   11.3717 H   0  0  0  0  0
  -38.9079  -15.0089    8.3158 H   0  0  0  0  0
  -37.1862  -15.1152    8.7577 H   0  0  0  0  0
  -38.4395  -15.5257    9.9543 H   0  0  0  0  0
  -39.9634  -11.0805    8.2713 H   0  0  0  0  0
  -38.6836   -8.5047    8.6580 H   0  0  0  0  0
  -40.9330   -7.5681    8.5337 H   0  0  0  0  0
  -39.8152   -8.1792    6.4496 H   0  0  0  0  0
  -40.4983   -9.8207    6.5494 H   0  0  0  0  0
  -41.5745   -8.4210    6.3180 H   0  0  0  0  0
  -41.8764  -10.4490    8.6200 H   0  0  0  0  0
  -42.1077   -9.2236    9.8912 H   0  0  0  0  0
  -42.9003   -9.0257    8.3089 H   0  0  0  0  0
  -39.6017   -7.1548   10.3381 H   0  0  0  0  0
  1  2  1  0  0  0
  2  3  1  0  0  0
  2  5  1  0  0  0
  3  4  2  0  0  0
  3 10  1  0  0  0
  5  6  1  0  0  0
  6  7  1  0  0  0
  7  8  2  0  0  0
  7  9  1  0  0  0
 10 11  1  0  0  0
 11 12  1  0  0  0
 11 14  1  0  0  0
 12 13  2  0  0  0
 12 18  1  0  0  0
 14 15  1  0  0  0
 15 16  1  0  0  0
 15 17  1  0  0  0
 18 19  1  0  0  0
 19 20  1  0  0  0
 19 22  1  0  0  0
 20 21  2  0  0  0
 20 23  1  0  0  0
 23 24  1  0  0  0
 24 25  1  0  0  0
 25 26  2  0  0  0
 25 27  1  0  0  0
 27 28  1  0  0  0
 28 29  1  0  0  0
 28 31  1  0  0  0
 29 30  2  0  0  0
 29 35  1  0  0  0
 31 32  1  0  0  0
 31 33  1  0  0  0
 32 34  1  0  0  0
 35 36  1  0  0  0
 36 37  1  0  0  0
 37 38  2  0  0  0
 37 39  1  0  0  0
 39 40  1  0  0  0
 40 41  1  0  0  0
 40 43  1  0  0  0
 41 42  2  0  0  0
 41 47  1  0  0  0
 43 44  1  0  0  0
 43 45  1  0  0  0
 44 46  1  0  0  0
 47 48  1  0  0  0
 48 49  1  0  0  0
 48 51  1  0  0  0
 49 50  2  0  0  0
 49 55  1  0  0  0
 51 52  1  0  0  0
 52 53  1  0  0  0
 52 54  1  0  0  0
 55 56  1  0  0  0
 56 57  1  0  0  0
 56 59  1  0  0  0
 57 58  2  0  0  0
 57 62  1  0  0  0
 59 60  1  0  0  0
 59 61  1  0  0  0
 62 63  1  0  0  0
 63 64  1  0  0  0
 63 66  1  0  0  0
 64 65  2  0  0  0
 64 69  1  0  0  0
 66 67  1  0  0  0
 66 68  1  0  0  0
  1 70  1  0  0  0
  1 71  1  0  0  0
  1 72  1  0  0  0
  2 73  1  0  0  0
  5 74  1  0  0  0
  5 75  1  0  0  0
  6 76  1  0  0  0
  6 77  1  0  0  0
  9 78  1  0  0  0
 10 79  1  0  0  0
 11 80  1  0  0  0
 14 81  1  0  0  0
 14 82  1  0  0  0
 15 83  1  0  0  0
 16 84  1  0  0  0
 16 85  1  0  0  0
 16 86  1  0  0  0
 17 87  1  0  0  0
 17 88  1  0  0  0
 17 89  1  0  0  0
 18 90  1  0  0  0
 19 91  1  0  0  0
 22 92  1  0  0  0
 22 93  1  0  0  0
 22 94  1  0  0  0
 23 95  1  0  0  0
 24 96  1  0  0  0
 24 97  1  0  0  0
 27 98  1  0  0  0
 28 99  1  0  0  0
 31100  1  0  0  0
 32101  1  0  0  0
 32102  1  0  0  0
 33103  1  0  0  0
 33104  1  0  0  0
 33105  1  0  0  0
 34106  1  0  0  0
 34107  1  0  0  0
 34108  1  0  0  0
 35109  1  0  0  0
 36110  1  0  0  0
 36111  1  0  0  0
 39112  1  0  0  0
 40113  1  0  0  0
 43114  1  0  0  0
 44115  1  0  0  0
 44116  1  0  0  0
 45117  1  0  0  0
 45118  1  0  0  0
 45119  1  0  0  0
 46120  1  0  0  0
 46121  1  0  0  0
 46122  1  0  0  0
 47123  1  0  0  0
 48124  1  0  0  0
 51125  1  0  0  0
 51126  1  0  0  0
 52127  1  0  0  0
 53128  1  0  0  0
 53129  1  0  0  0
 53130  1  0  0  0
 54131  1  0  0  0
 54132  1  0  0  0
 54133  1  0  0  0
 55134  1  0  0  0
 56135  1  0  0  0
 59136  1  0  0  0
 60137  1  0  0  0
 61138  1  0  0  0
 61139  1  0  0  0
 61140  1  0  0  0
 62141  1  0  0  0
 63142  1  0  0  0
 66143  1  0  0  0
 67144  1  0  0  0
 67145  1  0  0  0
 67146  1  0  0  0
 68147  1  0  0  0
 68148  1  0  0  0
 68149  1  0  0  0
 69150  1  0  0  0
M  END
$$$$
