4uix_ligand
  -I-interpret- 

 56 59  0  0  0  0  0  0  0  0999 V2000
   29.9820   -6.2380   11.1120 O   0  0  0  0  0
   29.5350   -5.2410   12.0390 S   0  0  0  0  0
   29.8920   -3.8730   11.7810 O   0  0  0  0  0
   27.7820   -5.3430   12.2270 C   0  0  0  0  0
   27.3320   -6.6600   12.8380 C   0  0  0  0  0
   30.0710   -5.6750   13.6640 C   0  0  0  0  0
   29.3740   -6.8790   14.2600 C   0  0  0  0  0
   27.8530   -6.8990   14.2380 C   0  0  0  0  0
   27.2730   -5.9430   15.1860 N   0  0  0  0  0
   26.0320   -6.1100   15.6700 C   0  0  0  0  0
   25.2830   -7.0080   15.2820 O   0  0  0  0  0
   25.6150   -5.2240   16.7760 C   0  0  0  0  0
   26.2750   -4.2660   17.4710 C   0  0  0  0  0
   23.9820   -5.3930   17.3280 S   0  0  0  0  0
   24.1870   -4.1320   18.4880 C   0  0  0  0  0
   25.4670   -3.6270   18.4490 C   0  0  0  0  0
   25.9010   -2.5370   19.2660 C   0  0  0  0  0
   27.0200   -2.0360   19.2330 O   0  0  0  0  0
   24.9090   -2.0230   20.1040 N   0  0  0  0  0
   25.2710   -0.9030   20.9680 C   0  0  0  0  0
   23.6490   -2.5260   20.1390 C   0  0  0  0  0
   23.2170   -3.5580   19.3720 C   0  0  0  0  0
   21.8090   -4.0280   19.4880 C   0  0  0  0  0
   21.1720   -4.0340   20.7270 C   0  0  0  0  0
   19.8850   -4.5210   20.8670 C   0  0  0  0  0
   21.1260   -4.4870   18.3640 C   0  0  0  0  0
   19.8360   -4.9840   18.4870 C   0  0  0  0  0
   19.1090   -5.5050   17.4490 O   0  0  0  0  0
   19.6980   -5.5060   16.1560 C   0  0  0  0  0
   19.2070   -4.9990   19.7540 C   0  0  0  0  0
   17.9340   -5.5030   19.7910 O   0  0  0  0  0
   17.1900   -5.3350   21.0000 C   0  0  0  0  0
   27.3344   -5.2640   11.2363 H   0  0  0  0  0
   27.4703   -4.5406   12.8956 H   0  0  0  0  0
   27.7219   -7.4589   12.2073 H   0  0  0  0  0
   26.2440   -6.6334   12.8982 H   0  0  0  0  0
   29.8453   -4.8262   14.3096 H   0  0  0  0  0
   31.1296   -5.9246   13.5926 H   0  0  0  0  0
   29.6503   -6.8834   15.3144 H   0  0  0  0  0
   29.6855   -7.7274   13.6506 H   0  0  0  0  0
   27.5394   -7.8929   14.5571 H   0  0  0  0  0
   27.8222   -5.1365   15.4832 H   0  0  0  0  0
   27.3205   -4.0114   17.2971 H   0  0  0  0  0
   26.0819   -1.2046   21.6311 H   0  0  0  0  0
   25.5952   -0.0625   20.3544 H   0  0  0  0  0
   24.4052   -0.6088   21.5612 H   0  0  0  0  0
   22.9378   -2.0710   20.8284 H   0  0  0  0  0
   21.6968   -3.6483   21.6010 H   0  0  0  0  0
   19.4058   -4.5294   21.8460 H   0  0  0  0  0
   21.6058   -4.4558   17.3858 H   0  0  0  0  0
   19.9220   -4.4813   15.8594 H   0  0  0  0  0
   20.6189   -6.0887   16.1781 H   0  0  0  0  0
   19.0034   -5.9487   15.4421 H   0  0  0  0  0
   17.7167   -5.8231   21.8200 H   0  0  0  0  0
   17.0849   -4.2717   21.2157 H   0  0  0  0  0
   16.2030   -5.7825   20.8829 H   0  0  0  0  0
  1  2  2  0  0  0
  2  3  2  0  0  0
  2  4  1  0  0  0
  2  6  1  0  0  0
  4  5  1  0  0  0
  5  8  1  0  0  0
  6  7  1  0  0  0
  7  8  1  0  0  0
  8  9  1  0  0  0
  9 10  1  0  0  0
 10 11  2  0  0  0
 10 12  1  0  0  0
 12 13  4  0  0  0
 12 14  4  0  0  0
 13 16  4  0  0  0
 14 15  4  0  0  0
 15 16  4  0  0  0
 15 22  1  0  0  0
 16 17  1  0  0  0
 17 18  2  0  0  0
 17 19  1  0  0  0
 19 20  1  0  0  0
 19 21  1  0  0  0
 21 22  2  0  0  0
 22 23  1  0  0  0
 23 24  4  0  0  0
 23 26  4  0  0  0
 24 25  4  0  0  0
 25 30  4  0  0  0
 26 27  4  0  0  0
 27 28  1  0  0  0
 27 30  4  0  0  0
 28 29  1  0  0  0
 30 31  1  0  0  0
 31 32  1  0  0  0
  4 33  1  0  0  0
  4 34  1  0  0  0
  5 35  1  0  0  0
  5 36  1  0  0  0
  6 37  1  0  0  0
  6 38  1  0  0  0
  7 39  1  0  0  0
  7 40  1  0  0  0
  8 41  1  0  0  0
  9 42  1  0  0  0
 13 43  1  0  0  0
 20 44  1  0  0  0
 20 45  1  0  0  0
 20 46  1  0  0  0
 21 47  1  0  0  0
 24 48  1  0  0  0
 25 49  1  0  0  0
 26 50  1  0  0  0
 29 51  1  0  0  0
 29 52  1  0  0  0
 29 53  1  0  0  0
 32 54  1  0  0  0
 32 55  1  0  0  0
 32 56  1  0  0  0
M  END
$$$$
