5otc_ligand
  -I-interpret- 

 29 28  0  0  0  0  0  0  0  0999 V2000
  -42.3200  -16.8570   -0.9360 O   0  0  0  0  0
  -41.6920  -17.9300   -0.7650 C   0  0  0  0  0
  -40.4670  -17.9400   -0.4500 O   0  0  0  0  0
  -42.3530  -19.2160   -0.9390 C   0  0  0  0  0
  -41.6040  -20.1910   -1.7230 N   0  3  0  0  0
  -42.3550  -20.4640   -2.9540 C   0  0  0  0  0
  -42.6860  -21.8900   -2.9740 C   0  0  0  0  0
  -43.6830  -22.3150   -3.6380 O   0  0  0  0  0
  -41.4360  -20.1440   -4.0650 C   0  0  0  0  0
  -41.9380  -19.4080   -5.2720 C   0  0  0  0  0
  -40.9170  -19.1940   -6.3210 C   0  0  0  0  0
  -41.4430  -19.0140   -7.6550 N   0  3  0  0  0
  -41.9660  -22.7190   -2.3590 O   0  0  0  0  0
  -40.1671  -18.8480   -0.3648 H   0  0  0  0  0
  -43.2805  -19.0234   -1.4783 H   0  0  0  0  0
  -42.4801  -19.6423    0.0561 H   0  0  0  0  0
  -41.4819  -21.0512   -1.1887 H   0  0  0  0  0
  -40.6802  -19.8230   -1.9502 H   0  0  0  0  0
  -43.2754  -19.8848   -3.0279 H   0  0  0  0  0
  -44.1324  -21.5727   -4.0487 H   0  0  0  0  0
  -41.1275  -21.1161   -4.4496 H   0  0  0  0  0
  -40.7015  -19.4705   -3.6233 H   0  0  0  0  0
  -42.2641  -18.4238   -4.9356 H   0  0  0  0  0
  -42.7289  -20.0151   -5.7125 H   0  0  0  0  0
  -40.2967  -20.0900   -6.3448 H   0  0  0  0  0
  -40.3883  -18.2761   -6.0639 H   0  0  0  0  0
  -40.6715  -18.8740   -8.3074 H   0  0  0  0  0
  -41.9722  -19.8430   -7.9253 H   0  0  0  0  0
  -42.0553  -18.1983   -7.6706 H   0  0  0  0  0
  1  2  2  0  0  0
  2  3  1  0  0  0
  2  4  1  0  0  0
  4  5  1  0  0  0
  5  6  1  0  0  0
  6  7  1  0  0  0
  6  9  1  0  0  0
  7  8  1  0  0  0
  7 13  2  0  0  0
  9 10  1  0  0  0
 10 11  1  0  0  0
 11 12  1  0  0  0
  3 14  1  0  0  0
  4 15  1  0  0  0
  4 16  1  0  0  0
  5 17  1  0  0  0
  5 18  1  0  0  0
  6 19  1  0  0  0
  8 20  1  0  0  0
  9 21  1  0  0  0
  9 22  1  0  0  0
 10 23  1  0  0  0
 10 24  1  0  0  0
 11 25  1  0  0  0
 11 26  1  0  0  0
 12 27  1  0  0  0
 12 28  1  0  0  0
 12 29  1  0  0  0
M  END
$$$$
