1w6r_ligand
  -I-interpret- 

 41 44  0  0  0  0  0  0  0  0999 V2000
    2.6500   67.6610   63.4320 C   0  0  0  0  0
    2.7990   68.1720   62.1980 C   0  0  0  0  0
    4.1930   68.4080   61.5850 C   0  0  0  0  0
    5.3690   68.4590   62.7340 C   0  0  0  0  0
    5.1530   67.2270   63.6640 C   0  0  0  0  0
    3.8460   67.3510   64.4300 C   0  0  0  0  0
    5.1900   65.9910   62.9580 O   0  0  0  0  0
    4.5890   63.7660   63.9110 C   0  0  0  0  0
    3.8270   63.1050   64.9120 C   0  0  0  0  0
    3.0760   63.8470   65.8210 C   0  0  0  0  0
    2.2290   65.9650   66.8100 C   0  0  0  0  0
    1.9940   67.2200   67.0670 N   0  3  0  0  0
    2.4530   68.4310   66.3370 C   0  0  0  0  0
    3.8090   68.4240   65.5990 C   0  0  0  0  0
    4.5190   65.1850   63.8760 C   0  0  0  0  0
    3.7520   65.9240   64.7850 C   0  0  0  0  0
    3.0290   65.2880   65.7800 C   0  0  0  0  0
    5.8240   61.7850   63.3060 C   0  0  0  0  0
    5.4870   63.1330   63.0060 O   0  0  0  0  0
    4.3180   67.2490   60.6900 O   0  0  0  0  0
    1.2120   67.4310   68.2710 C   0  0  0  0  0
    1.6373   67.4441   63.7718 H   0  0  0  0  0
    1.9125   68.4256   61.6167 H   0  0  0  0  0
    4.3028   69.3642   61.0734 H   0  0  0  0  0
    5.3110   69.3865   63.3036 H   0  0  0  0  0
    6.3573   68.4269   62.2754 H   0  0  0  0  0
    5.9850   67.2222   64.3682 H   0  0  0  0  0
    3.8301   62.0165   64.9686 H   0  0  0  0  0
    2.5059   63.3220   66.5874 H   0  0  0  0  0
    1.7327   65.2793   67.4967 H   0  0  0  0  0
    2.5704   69.1873   67.1131 H   0  0  0  0  0
    1.7148   68.5675   65.5468 H   0  0  0  0  0
    3.9630   69.4101   65.1608 H   0  0  0  0  0
    4.5869   68.1698   66.3189 H   0  0  0  0  0
    6.2982   61.7400   64.2864 H   0  0  0  0  0
    4.9187   61.1779   63.3106 H   0  0  0  0  0
    6.5125   61.4071   62.5502 H   0  0  0  0  0
    3.6099   67.2686   60.0421 H   0  0  0  0  0
    0.2476   66.9335   68.1682 H   0  0  0  0  0
    1.7461   67.0178   69.1266 H   0  0  0  0  0
    1.0570   68.4997   68.4194 H   0  0  0  0  0
  1  2  2  0  0  0
  6  1  1  0  0  0
  3  2  1  0  0  0
  4  3  1  0  0  0
  3 20  1  0  0  0
  5  4  1  0  0  0
  5  6  1  0  0  0
  7  5  1  0  0  0
  6 14  1  0  0  0
  6 16  1  0  0  0
 15  7  1  0  0  0
  9  8  4  0  0  0
  8 15  4  0  0  0
  8 19  1  0  0  0
 10  9  4  0  0  0
 17 10  4  0  0  0
 11 12  2  0  0  0
 11 17  1  0  0  0
 12 13  1  0  0  0
 12 21  1  0  0  0
 13 14  1  0  0  0
 15 16  4  0  0  0
 16 17  4  0  0  0
 19 18  1  0  0  0
  1 22  1  0  0  0
  2 23  1  0  0  0
  3 24  1  0  0  0
  4 25  1  0  0  0
  4 26  1  0  0  0
  5 27  1  0  0  0
  9 28  1  0  0  0
 10 29  1  0  0  0
 11 30  1  0  0  0
 13 31  1  0  0  0
 13 32  1  0  0  0
 14 33  1  0  0  0
 14 34  1  0  0  0
 18 35  1  0  0  0
 18 36  1  0  0  0
 18 37  1  0  0  0
 20 38  1  0  0  0
 21 39  1  0  0  0
 21 40  1  0  0  0
 21 41  1  0  0  0
M  END
$$$$
