1i33_ligand
  -I-interpret- 

 73 78  0  0  0  0  0  0  0  0999 V2000
   23.0810   79.3270   -1.2230 C   0  0  0  0  0
   23.8860   79.5970   -2.5110 C   0  0  0  0  0
   23.1530   80.3810   -3.4770 O   0  0  0  0  0
   25.1990   80.3370   -2.2690 C   0  0  0  0  0
   26.2470   79.8800   -3.1240 O   0  0  0  0  0
   24.7770   81.7890   -2.4730 C   0  0  0  0  0
   25.8550   82.7590   -2.6710 N   0  0  0  0  0
   23.7800   81.6800   -3.6380 C   0  0  0  0  0
   22.7600   82.7420   -3.7060 N   0  0  0  0  0
   22.2810   83.5390   -2.6910 C   0  0  0  0  0
   21.3630   84.4030   -3.0660 N   0  0  0  0  0
   21.2100   84.1710   -4.4260 C   0  0  0  0  0
   20.3650   84.7650   -5.4510 C   0  0  0  0  0
   19.4650   85.7740   -5.2460 N   0  0  0  0  0
   20.4800   84.2700   -6.7330 N   0  0  0  0  0
   21.3630   83.2670   -6.9850 C   0  0  0  0  0
   22.1930   82.6470   -6.1140 N   0  0  0  0  0
   22.0700   83.1430   -4.8460 C   0  0  0  0  0
   19.2930   86.5550   -4.0010 C   0  0  0  0  0
   19.3880   88.0770   -4.2170 C   0  0  0  0  0
   19.9150   88.6680   -5.5020 C   0  0  0  0  0
   19.9820   90.1610   -5.6520 C   0  0  0  0  0
   19.5290   91.0590   -4.5330 C   0  0  0  0  0
   17.9800   86.1370   -3.2640 C   0  0  0  0  0
   18.9330   88.9750   -3.0990 C   0  0  0  0  0
   19.0020   90.4740   -3.2500 C   0  0  0  0  0
   17.4980   87.0940   -2.1020 C   0  0  0  0  0
   18.3980   88.3360   -1.8060 C   0  0  0  0  0
   26.2490   83.6630   -1.7220 C   0  0  0  0  0
   25.7060   83.7060   -0.6060 O   0  0  0  0  0
   27.3150   84.6520   -2.0640 C   0  0  0  0  0
   28.2510   84.3590   -3.1130 C   0  0  0  0  0
   29.2920   85.3010   -3.4640 C   0  0  0  0  0
   30.1950   84.9930   -4.4830 O   0  0  0  0  0
   30.1030   83.7500   -5.2050 C   0  0  0  0  0
   29.3620   86.5390   -2.7370 C   0  0  0  0  0
   27.4060   85.8980   -1.3460 C   0  0  0  0  0
   28.4230   86.8530   -1.6720 C   0  0  0  0  0
   28.4350   88.0290   -0.9310 O   0  0  0  0  0
   29.3370   89.1010   -1.2810 C   0  0  0  0  0
   23.9470   78.8510   -0.1820 O   0  0  0  0  0
   22.3246   78.5698   -1.4294 H   0  0  0  0  0
   22.6110   80.2549   -0.8971 H   0  0  0  0  0
   24.0849   78.5954   -2.8921 H   0  0  0  0  0
   25.6429   80.1752   -1.2867 H   0  0  0  0  0
   26.4437   78.9618   -2.9245 H   0  0  0  0  0
   24.3432   82.2172   -1.5693 H   0  0  0  0  0
   26.3406   82.7614   -3.5680 H   0  0  0  0  0
   24.3222   81.7982   -4.5762 H   0  0  0  0  0
   22.6331   83.4606   -1.6624 H   0  0  0  0  0
   18.8531   86.0112   -6.0268 H   0  0  0  0  0
   21.4080   82.9190   -8.0170 H   0  0  0  0  0
   20.1345   86.3099   -3.3530 H   0  0  0  0  0
   20.2436   88.0179   -6.3129 H   0  0  0  0  0
   20.3609   90.5963   -6.5767 H   0  0  0  0  0
   19.5828   92.1411   -4.6522 H   0  0  0  0  0
   18.1853   85.1727   -2.7991 H   0  0  0  0  0
   17.1912   86.1497   -4.0161 H   0  0  0  0  0
   18.6743   91.1258   -2.4401 H   0  0  0  0  0
   17.5038   86.4927   -1.1929 H   0  0  0  0  0
   16.5318   87.4886   -2.4163 H   0  0  0  0  0
   17.7963   89.0778   -1.2808 H   0  0  0  0  0
   19.2486   88.0081   -1.2085 H   0  0  0  0  0
   28.1764   83.4145   -3.6520 H   0  0  0  0  0
   30.2117   82.9182   -4.5091 H   0  0  0  0  0
   29.1328   83.6886   -5.6980 H   0  0  0  0  0
   30.8952   83.7059   -5.9524 H   0  0  0  0  0
   30.1386   87.2607   -2.9904 H   0  0  0  0  0
   26.6955   86.1157   -0.5486 H   0  0  0  0  0
   30.3649   88.7435   -1.2206 H   0  0  0  0  0
   29.1261   89.4345   -2.2971 H   0  0  0  0  0
   29.1985   89.9314   -0.5886 H   0  0  0  0  0
   23.4320   78.6879    0.6116 H   0  0  0  0  0
  1  2  1  0  0  0
  1 41  1  0  0  0
  2  3  1  0  0  0
  2  4  1  0  0  0
  3  8  1  0  0  0
  4  5  1  0  0  0
  4  6  1  0  0  0
  6  7  1  0  0  0
  6  8  1  0  0  0
  7 29  1  0  0  0
  8  9  1  0  0  0
  9 10  4  0  0  0
  9 18  4  0  0  0
 10 11  4  0  0  0
 11 12  4  0  0  0
 12 13  4  0  0  0
 12 18  4  0  0  0
 13 14  1  0  0  0
 13 15  4  0  0  0
 14 19  1  0  0  0
 15 16  4  0  0  0
 16 17  4  0  0  0
 17 18  4  0  0  0
 19 20  1  0  0  0
 19 24  1  0  0  0
 20 21  4  0  0  0
 20 25  4  0  0  0
 21 22  4  0  0  0
 22 23  4  0  0  0
 23 26  4  0  0  0
 24 27  1  0  0  0
 25 26  4  0  0  0
 25 28  1  0  0  0
 27 28  1  0  0  0
 29 30  2  0  0  0
 29 31  1  0  0  0
 31 32  4  0  0  0
 31 37  4  0  0  0
 32 33  4  0  0  0
 33 34  1  0  0  0
 33 36  4  0  0  0
 34 35  1  0  0  0
 36 38  4  0  0  0
 37 38  4  0  0  0
 38 39  1  0  0  0
 39 40  1  0  0  0
  1 42  1  0  0  0
  1 43  1  0  0  0
  2 44  1  0  0  0
  4 45  1  0  0  0
  5 46  1  0  0  0
  6 47  1  0  0  0
  7 48  1  0  0  0
  8 49  1  0  0  0
 10 50  1  0  0  0
 14 51  1  0  0  0
 16 52  1  0  0  0
 19 53  1  0  0  0
 21 54  1  0  0  0
 22 55  1  0  0  0
 23 56  1  0  0  0
 24 57  1  0  0  0
 24 58  1  0  0  0
 26 59  1  0  0  0
 27 60  1  0  0  0
 27 61  1  0  0  0
 28 62  1  0  0  0
 28 63  1  0  0  0
 32 64  1  0  0  0
 35 65  1  0  0  0
 35 66  1  0  0  0
 35 67  1  0  0  0
 36 68  1  0  0  0
 37 69  1  0  0  0
 40 70  1  0  0  0
 40 71  1  0  0  0
 40 72  1  0  0  0
 41 73  1  0  0  0
M  END
$$$$
