### 
### Created by X-TOOL on Mon Sep 10 21:13:06 2018
### 

@<TRIPOS>MOLECULE
3ll8_ligand
  173   173     1     0     0
SMALL
GAST_HUCK


@<TRIPOS>ATOM
      1 N         -25.6360  -25.8310   28.9670 N.4       1 GLU         0.2380
      2 CA        -25.7780  -24.4090   28.5030 C.3       1 GLU         0.0667
      3 C         -24.6580  -23.8830   27.5690 C.2       1 GLU         0.2293
      4 O         -24.5890  -22.6590   27.3530 O.2       1 GLU        -0.3905
      5 CB        -25.9540  -23.4550   29.7070 C.3       1 GLU         0.0194
      6 CG        -25.0000  -23.6980   30.9050 C.3       1 GLU         0.0075
      7 CD        -23.5220  -23.7060   30.5200 C.2       1 GLU         0.0351
      8 OE1       -22.8510  -22.6730   30.7220 O.co2     1 GLU        -0.5690
      9 OE2       -23.0340  -24.7360   30.0090 O.co2     1 GLU        -0.5690
     10 N         -23.7660  -24.7780   27.0440 N.am      1 PRO        -0.2471
     11 CA        -22.8610  -24.2560   25.9910 C.3       1 PRO         0.1339
     12 C         -23.6800  -23.9940   24.7140 C.2       1 PRO         0.2041
     13 O         -24.3810  -24.8930   24.2360 O.2       1 PRO        -0.3944
     14 CB        -21.8330  -25.3900   25.7830 C.3       1 PRO        -0.0104
     15 CG        -22.5080  -26.6310   26.2910 C.3       1 PRO        -0.0281
     16 CD        -23.4730  -26.1950   27.3720 C.3       1 PRO         0.0371
     17 N         -23.6420  -22.7610   24.2020 N.am      1 ILE        -0.2635
     18 CA        -24.5130  -22.4050   23.0800 C.3       1 ILE         0.1335
     19 C         -23.9580  -23.0840   21.8200 C.2       1 ILE         0.2041
     20 O         -22.7330  -23.2860   21.7050 O.2       1 ILE        -0.3944
     21 CB        -24.6800  -20.8660   22.8880 C.3       1 ILE        -0.0037
     22 CG1       -23.8160  -20.3750   21.7470 C.3       1 ILE        -0.0491
     23 CG2       -24.4060  -20.0730   24.2000 C.3       1 ILE        -0.0582
     24 CD1       -24.4720  -19.3650   20.9280 C.3       1 ILE        -0.0648
     25 N         -24.8620  -23.4540   20.9110 N.am      1 ALA        -0.2640
     26 CA        -24.4940  -24.1160   19.6600 C.3       1 ALA         0.1282
     27 C         -24.2960  -23.1520   18.4540 C.2       1 ALA         0.2036
     28 O         -25.0380  -22.1960   18.2750 O.2       1 ALA        -0.3944
     29 CB        -25.5350  -25.1370   19.3150 C.3       1 ALA        -0.0244
     30 N         -23.3160  -23.4580   17.6200 N.am      1 ILE        -0.2635
     31 CA        -23.0540  -22.7140   16.4150 C.3       1 ILE         0.1335
     32 C         -23.5360  -23.5250   15.1970 C.2       1 ILE         0.2042
     33 O         -23.1220  -24.6600   15.0140 O.2       1 ILE        -0.3944
     34 CB        -21.5590  -22.4530   16.3590 C.3       1 ILE        -0.0037
     35 CG1       -21.1480  -21.6240   17.6080 C.3       1 ILE        -0.0491
     36 CG2       -21.1890  -21.7960   15.0740 C.3       1 ILE        -0.0582
     37 CD1       -19.6160  -21.5750   17.9180 C.3       1 ILE        -0.0648
     38 N         -24.4180  -22.9410   14.3930 N.am      1 ILE        -0.2635
     39 CA        -24.8950  -23.5470   13.1370 C.3       1 ILE         0.1335
     40 C         -24.4740  -22.6160   11.9870 C.2       1 ILE         0.2042
     41 O         -24.8190  -21.4320   12.0110 O.2       1 ILE        -0.3944
     42 CB        -26.3940  -23.6470   13.1340 C.3       1 ILE        -0.0037
     43 CG1       -26.8360  -24.3820   14.4450 C.3       1 ILE        -0.0491
     44 CG2       -26.8630  -24.3580   11.8070 C.3       1 ILE        -0.0582
     45 CD1       -28.3690  -24.5740   14.6680 C.3       1 ILE        -0.0648
     46 N         -23.7370  -23.1590   11.0100 N.am      1 ILE        -0.2635
     47 CA        -23.2390  -22.4070    9.8500 C.3       1 ILE         0.1335
     48 C         -23.9340  -22.9900    8.6050 C.2       1 ILE         0.2042
     49 O         -23.8570  -24.2070    8.3440 O.2       1 ILE        -0.3944
     50 CB        -21.7110  -22.5520    9.7010 C.3       1 ILE        -0.0037
     51 CG1       -20.9790  -22.2590   11.0320 C.3       1 ILE        -0.0491
     52 CG2       -21.1980  -21.6430    8.5540 C.3       1 ILE        -0.0582
     53 CD1       -19.7230  -23.0340   11.2420 C.3       1 ILE        -0.0648
     54 N         -24.6330  -22.1220    7.8840 N.am      1 THR        -0.2613
     55 CA        -25.3720  -22.4700    6.6710 C.3       1 THR         0.1565
     56 C         -25.0450  -21.3750    5.6070 C.2       1 THR         0.2066
     57 O         -24.7300  -20.2370    5.9660 O.2       1 THR        -0.3943
     58 CB        -26.9040  -22.4160    6.9360 C.3       1 THR         0.0924
     59 OG1       -27.2240  -21.2000    7.6410 O.3       1 THR        -0.3874
     60 CG2       -27.4100  -23.6130    7.8120 C.3       1 THR        -0.0346
     61 N         -25.1330  -21.7290    4.3300 N.am      1 ASP        -0.2621
     62 CA        -25.0530  -20.7650    3.2170 C.3       1 ASP         0.1423
     63 C         -26.4260  -20.2690    2.7450 C.2       1 ASP         0.2057
     64 O         -27.4150  -20.9880    2.8080 O.2       1 ASP        -0.3943
     65 CB        -24.3160  -21.3800    2.0210 C.3       1 ASP         0.0406
     66 CG        -22.9630  -20.7370    1.7710 C.2       1 ASP         0.0393
     67 OD1       -22.9140  -19.6520    1.1230 O.co2     1 ASP        -0.5688
     68 OD2       -21.9540  -21.3330    2.2030 O.co2     1 ASP        -0.5688
     69 N         -26.4720  -19.0370    2.2190 N.am      1 THR        -0.2612
     70 CA        -27.7020  -18.4540    1.6610 C.3       1 THR         0.1564
     71 C         -27.4930  -18.2020    0.1600 C.2       1 THR         0.2059
     72 O         -28.1660  -18.8120   -0.6600 O.2       1 THR        -0.3943
     73 CB        -28.1390  -17.2170    2.4400 C.3       1 THR         0.0924
     74 OG1       -27.1540  -16.8860    3.4240 O.3       1 THR        -0.3874
     75 CG2       -29.4830  -17.4810    3.0940 C.3       1 THR        -0.0346
     76 N         -26.5420  -17.3170   -0.1820 N.am      1 GLU        -0.2693
     77 CA        -26.0900  -17.1080   -1.5670 C.3       1 GLU         0.0959
     78 C         -27.1470  -16.8150   -2.6450 C.2       1 GLU         0.0602
     79 O         -28.2780  -16.7050   -2.4670 O.co2     1 GLU        -0.5666
     80 CB        -25.2910  -18.3400   -1.9960 C.3       1 GLU        -0.0064
     81 CG        -26.1120  -19.4660   -2.6150 C.3       1 GLU         0.0038
     82 CD        -25.3730  -20.7890   -2.6300 C.2       1 GLU         0.0350
     83 OE1       -25.0580  -21.2690   -3.7300 O.co2     1 GLU        -0.5690
     84 OE2       -25.1040  -21.3430   -1.5300 O.co2     1 GLU        -0.5690
     85 OXT       -26.8040  -16.5270   -3.7890 O.co2     1 GLU        -0.5666
     86 H         -25.5213  -26.4415   28.1580 H         1 GLU         0.2015
     87 H         -24.8189  -25.9098   29.5725 H         1 GLU         0.2015
     88 H         -26.4717  -26.1036   29.4844 H         1 GLU         0.2015
     89 H         -26.6752  -24.4216   27.8841 H         1 GLU         0.1099
     90 H         -26.9652  -23.6147   30.0812 H         1 GLU         0.0363
     91 H         -25.7375  -22.4520   29.3394 H         1 GLU         0.0363
     92 H         -25.2355  -24.6799   31.3156 H         1 GLU         0.0434
     93 H         -25.1487  -22.8812   31.6113 H         1 GLU         0.0434
     94 H         -22.3725  -23.3171   26.2516 H         1 PRO         0.0802
     95 H         -20.9025  -25.1919   26.3150 H         1 PRO         0.0313
     96 H         -21.5480  -25.4873   24.7354 H         1 PRO         0.0313
     97 H         -21.7760  -27.3350   26.6869 H         1 PRO         0.0287
     98 H         -23.0350  -27.1421   25.4853 H         1 PRO         0.0287
     99 H         -24.3738  -26.8084   27.3926 H         1 PRO         0.0524
    100 H         -23.0520  -26.3086   28.3710 H         1 PRO         0.0524
    101 H         -23.0055  -22.0665   24.5930 H         1 ILE         0.1883
    102 H         -25.5209  -22.7624   23.2908 H         1 ILE         0.0803
    103 H         -25.7224  -20.6794   22.6299 H         1 ILE         0.0345
    104 H         -23.5958  -21.2292   21.1067 H         1 ILE         0.0267
    105 H         -22.9228  -19.9230   22.1783 H         1 ILE         0.0267
    106 H         -25.1060  -20.3954   24.9708 H         1 ILE         0.0235
    107 H         -23.3853  -20.2634   24.5317 H         1 ILE         0.0235
    108 H         -24.5356  -19.0071   24.0126 H         1 ILE         0.0235
    109 H         -25.3822  -19.7829   20.4979 H         1 ILE         0.0230
    110 H         -24.7233  -18.5039   21.5473 H         1 ILE         0.0230
    111 H         -23.7997  -19.0550   20.1280 H         1 ILE         0.0230
    112 H         -25.8477  -23.2679   21.0958 H         1 ALA         0.1883
    113 H         -23.5232  -24.5789   19.8373 H         1 ALA         0.0797
    114 H         -25.5971  -25.8752   20.1146 H         1 ALA         0.0277
    115 H         -26.5003  -24.6445   19.1977 H         1 ALA         0.0277
    116 H         -25.2622  -25.6314   18.3827 H         1 ALA         0.0277
    117 H         -22.7197  -24.2558   17.8399 H         1 ILE         0.1883
    118 H         -23.5881  -21.7639   16.4049 H         1 ILE         0.0803
    119 H         -21.0068  -23.3924   16.3848 H         1 ILE         0.0345
    120 H         -21.6204  -22.1038   18.4651 H         1 ILE         0.0267
    121 H         -21.4552  -20.5970   17.4106 H         1 ILE         0.0267
    122 H         -21.4662  -22.4444   14.2429 H         1 ILE         0.0235
    123 H         -21.7173  -20.8465   14.9876 H         1 ILE         0.0235
    124 H         -20.1138  -21.6181   15.0548 H         1 ILE         0.0235
    125 H         -19.2486  -22.5869   18.0887 H         1 ILE         0.0230
    126 H         -19.0893  -21.1338   17.0718 H         1 ILE         0.0230
    127 H         -19.4460  -20.9703   18.8088 H         1 ILE         0.0230
    128 H         -24.7837  -22.0266   14.6586 H         1 ILE         0.1883
    129 H         -24.4736  -24.5464   13.0290 H         1 ILE         0.0803
    130 H         -26.8736  -22.6682   13.1371 H         1 ILE         0.0345
    131 H         -26.4920  -23.7552   15.2677 H         1 ILE         0.0267
    132 H         -26.4171  -25.3861   14.3787 H         1 ILE         0.0267
    133 H         -26.5328  -23.7746   10.9475 H         1 ILE         0.0235
    134 H         -26.4289  -25.3566   11.7584 H         1 ILE         0.0235
    135 H         -27.9504  -24.4325   11.8010 H         1 ILE         0.0235
    136 H         -28.8551  -23.5989   14.7001 H         1 ILE         0.0230
    137 H         -28.7833  -25.1612   13.8485 H         1 ILE         0.0230
    138 H         -28.5352  -25.0955   15.6106 H         1 ILE         0.0230
    139 H         -23.5083  -24.1509   11.0746 H         1 ILE         0.1883
    140 H         -23.4554  -21.3460    9.9744 H         1 ILE         0.0803
    141 H         -21.4885  -23.5872    9.4422 H         1 ILE         0.0345
    142 H         -21.6606  -22.5394   11.8351 H         1 ILE         0.0267
    143 H         -20.7000  -21.2055   11.0132 H         1 ILE         0.0267
    144 H         -21.6781  -21.9335    7.6195 H         1 ILE         0.0235
    145 H         -21.4388  -20.6042    8.7800 H         1 ILE         0.0235
    146 H         -20.1179  -21.7546    8.4591 H         1 ILE         0.0235
    147 H         -19.9503  -24.1000   11.2371 H         1 ILE         0.0230
    148 H         -19.0196  -22.8075   10.4408 H         1 ILE         0.0230
    149 H         -19.2840  -22.7591   12.2011 H         1 ILE         0.0230
    150 H         -24.6562  -21.1511    8.1956 H         1 THR         0.1884
    151 H         -25.0943  -23.4719    6.3435 H         1 THR         0.0826
    152 H         -27.3919  -22.4660    5.9626 H         1 THR         0.0639
    153 H         -26.9629  -20.4448    7.1090 H         1 THR         0.2101
    154 H         -27.1919  -24.5518    7.3029 H         1 THR         0.0257
    155 H         -26.9032  -23.5952    8.7769 H         1 THR         0.0257
    156 H         -28.4856  -23.5216    7.9633 H         1 THR         0.0257
    157 H         -25.2623  -22.7162    4.1082 H         1 ASP         0.1884
    158 H         -24.5040  -19.9079    3.6069 H         1 ASP         0.0819
    159 H         -24.9295  -21.2234    1.1338 H         1 ASP         0.0478
    160 H         -24.1497  -22.4352    2.2375 H         1 ASP         0.0478
    161 H         -25.6177  -18.4799    2.2050 H         1 THR         0.1884
    162 H         -28.5312  -19.1535    1.7664 H         1 THR         0.0826
    163 H         -28.2390  -16.3723    1.7584 H         1 THR         0.0639
    164 H         -26.3168  -16.7072    2.9896 H         1 THR         0.2101
    165 H         -30.2217  -17.7071    2.3250 H         1 THR         0.0257
    166 H         -29.3944  -18.3277    3.7746 H         1 THR         0.0257
    167 H         -29.7948  -16.5971    3.6504 H         1 THR         0.0257
    168 H         -26.1108  -16.7610    0.5565 H         1 GLU         0.1875
    169 H         -25.5137  -16.1841   -1.5177 H         1 GLU         0.0727
    170 H         -24.8350  -18.7462   -1.0931 H         1 GLU         0.0323
    171 H         -24.5908  -18.0067   -2.7620 H         1 GLU         0.0323
    172 H         -26.3298  -19.1927   -3.6475 H         1 GLU         0.0432
    173 H         -27.0126  -19.5926   -2.0142 H         1 GLU         0.0432
@<TRIPOS>BOND
     1    1    2 1  
     2    2    3 1  
     3    2    5 1  
     4    3    4 2  
     5    3   10 am 
     6    5    6 1  
     7    6    7 1  
     8    7    8 ar 
     9    7    9 ar 
    10   10   11 1  
    11   10   16 1  
    12   11   12 1  
    13   11   14 1  
    14   12   13 2  
    15   12   17 am 
    16   14   15 1  
    17   15   16 1  
    18   17   18 1  
    19   18   19 1  
    20   18   21 1  
    21   19   20 2  
    22   19   25 am 
    23   21   22 1  
    24   21   23 1  
    25   22   24 1  
    26   25   26 1  
    27   26   27 1  
    28   26   29 1  
    29   27   28 2  
    30   27   30 am 
    31   30   31 1  
    32   31   32 1  
    33   31   34 1  
    34   32   33 2  
    35   32   38 am 
    36   34   35 1  
    37   34   36 1  
    38   35   37 1  
    39   38   39 1  
    40   39   40 1  
    41   39   42 1  
    42   40   41 2  
    43   40   46 am 
    44   42   43 1  
    45   42   44 1  
    46   43   45 1  
    47   46   47 1  
    48   47   48 1  
    49   47   50 1  
    50   48   49 2  
    51   48   54 am 
    52   50   51 1  
    53   50   52 1  
    54   51   53 1  
    55   54   55 1  
    56   55   56 1  
    57   55   58 1  
    58   56   57 2  
    59   56   61 am 
    60   58   59 1  
    61   58   60 1  
    62   61   62 1  
    63   62   63 1  
    64   62   65 1  
    65   63   64 2  
    66   63   69 am 
    67   65   66 1  
    68   66   67 ar 
    69   66   68 ar 
    70   69   70 1  
    71   70   71 1  
    72   70   73 1  
    73   71   72 2  
    74   71   76 am 
    75   73   74 1  
    76   73   75 1  
    77   76   77 1  
    78   77   78 1  
    79   77   80 1  
    80   78   79 ar 
    81   78   85 ar 
    82   80   81 1  
    83   81   82 1  
    84   82   83 ar 
    85   82   84 ar 
    86    1   86 1  
    87    1   87 1  
    88    1   88 1  
    89    2   89 1  
    90    5   90 1  
    91    5   91 1  
    92    6   92 1  
    93    6   93 1  
    94   11   94 1  
    95   14   95 1  
    96   14   96 1  
    97   15   97 1  
    98   15   98 1  
    99   16   99 1  
   100   16  100 1  
   101   17  101 1  
   102   18  102 1  
   103   21  103 1  
   104   22  104 1  
   105   22  105 1  
   106   23  106 1  
   107   23  107 1  
   108   23  108 1  
   109   24  109 1  
   110   24  110 1  
   111   24  111 1  
   112   25  112 1  
   113   26  113 1  
   114   29  114 1  
   115   29  115 1  
   116   29  116 1  
   117   30  117 1  
   118   31  118 1  
   119   34  119 1  
   120   35  120 1  
   121   35  121 1  
   122   36  122 1  
   123   36  123 1  
   124   36  124 1  
   125   37  125 1  
   126   37  126 1  
   127   37  127 1  
   128   38  128 1  
   129   39  129 1  
   130   42  130 1  
   131   43  131 1  
   132   43  132 1  
   133   44  133 1  
   134   44  134 1  
   135   44  135 1  
   136   45  136 1  
   137   45  137 1  
   138   45  138 1  
   139   46  139 1  
   140   47  140 1  
   141   50  141 1  
   142   51  142 1  
   143   51  143 1  
   144   52  144 1  
   145   52  145 1  
   146   52  146 1  
   147   53  147 1  
   148   53  148 1  
   149   53  149 1  
   150   54  150 1  
   151   55  151 1  
   152   58  152 1  
   153   59  153 1  
   154   60  154 1  
   155   60  155 1  
   156   60  156 1  
   157   61  157 1  
   158   62  158 1  
   159   65  159 1  
   160   65  160 1  
   161   69  161 1  
   162   70  162 1  
   163   73  163 1  
   164   74  164 1  
   165   75  165 1  
   166   75  166 1  
   167   75  167 1  
   168   76  168 1  
   169   77  169 1  
   170   80  170 1  
   171   80  171 1  
   172   81  172 1  
   173   81  173 1  
@<TRIPOS>SUBSTRUCTURE
     1 GLU         1

