3ll8_ligand
  -I-interpret- 

177177  0  0  0  0  0  0  0  0999 V2000
  -25.6360  -25.8310   28.9670 N   0  3  0  0  0
  -25.7780  -24.4090   28.5030 C   0  0  0  0  0
  -24.6580  -23.8830   27.5690 C   0  0  0  0  0
  -24.5890  -22.6590   27.3530 O   0  0  0  0  0
  -25.9540  -23.4550   29.7070 C   0  0  0  0  0
  -25.0000  -23.6980   30.9050 C   0  0  0  0  0
  -23.5220  -23.7060   30.5200 C   0  0  0  0  0
  -22.8510  -22.6730   30.7220 O   0  0  0  0  0
  -23.0340  -24.7360   30.0090 O   0  0  0  0  0
  -23.7660  -24.7780   27.0440 N   0  0  0  0  0
  -22.8610  -24.2560   25.9910 C   0  0  0  0  0
  -23.6800  -23.9940   24.7140 C   0  0  0  0  0
  -24.3810  -24.8930   24.2360 O   0  0  0  0  0
  -21.8330  -25.3900   25.7830 C   0  0  0  0  0
  -22.5080  -26.6310   26.2910 C   0  0  0  0  0
  -23.4730  -26.1950   27.3720 C   0  0  0  0  0
  -23.6420  -22.7610   24.2020 N   0  0  0  0  0
  -24.5130  -22.4050   23.0800 C   0  0  0  0  0
  -23.9580  -23.0840   21.8200 C   0  0  0  0  0
  -22.7330  -23.2860   21.7050 O   0  0  0  0  0
  -24.6800  -20.8660   22.8880 C   0  0  0  0  0
  -23.8160  -20.3750   21.7470 C   0  0  0  0  0
  -24.4060  -20.0730   24.2000 C   0  0  0  0  0
  -24.4720  -19.3650   20.9280 C   0  0  0  0  0
  -24.8620  -23.4540   20.9110 N   0  0  0  0  0
  -24.4940  -24.1160   19.6600 C   0  0  0  0  0
  -24.2960  -23.1520   18.4540 C   0  0  0  0  0
  -25.0380  -22.1960   18.2750 O   0  0  0  0  0
  -25.5350  -25.1370   19.3150 C   0  0  0  0  0
  -23.3160  -23.4580   17.6200 N   0  0  0  0  0
  -23.0540  -22.7140   16.4150 C   0  0  0  0  0
  -23.5360  -23.5250   15.1970 C   0  0  0  0  0
  -23.1220  -24.6600   15.0140 O   0  0  0  0  0
  -21.5590  -22.4530   16.3590 C   0  0  0  0  0
  -21.1480  -21.6240   17.6080 C   0  0  0  0  0
  -21.1890  -21.7960   15.0740 C   0  0  0  0  0
  -19.6160  -21.5750   17.9180 C   0  0  0  0  0
  -24.4180  -22.9410   14.3930 N   0  0  0  0  0
  -24.8950  -23.5470   13.1370 C   0  0  0  0  0
  -24.4740  -22.6160   11.9870 C   0  0  0  0  0
  -24.8190  -21.4320   12.0110 O   0  0  0  0  0
  -26.3940  -23.6470   13.1340 C   0  0  0  0  0
  -26.8360  -24.3820   14.4450 C   0  0  0  0  0
  -26.8630  -24.3580   11.8070 C   0  0  0  0  0
  -28.3690  -24.5740   14.6680 C   0  0  0  0  0
  -23.7370  -23.1590   11.0100 N   0  0  0  0  0
  -23.2390  -22.4070    9.8500 C   0  0  0  0  0
  -23.9340  -22.9900    8.6050 C   0  0  0  0  0
  -23.8570  -24.2070    8.3440 O   0  0  0  0  0
  -21.7110  -22.5520    9.7010 C   0  0  0  0  0
  -20.9790  -22.2590   11.0320 C   0  0  0  0  0
  -21.1980  -21.6430    8.5540 C   0  0  0  0  0
  -19.7230  -23.0340   11.2420 C   0  0  0  0  0
  -24.6330  -22.1220    7.8840 N   0  0  0  0  0
  -25.3720  -22.4700    6.6710 C   0  0  0  0  0
  -25.0450  -21.3750    5.6070 C   0  0  0  0  0
  -24.7300  -20.2370    5.9660 O   0  0  0  0  0
  -26.9040  -22.4160    6.9360 C   0  0  0  0  0
  -27.2240  -21.2000    7.6410 O   0  0  0  0  0
  -27.4100  -23.6130    7.8120 C   0  0  0  0  0
  -25.1330  -21.7290    4.3300 N   0  0  0  0  0
  -25.0530  -20.7650    3.2170 C   0  0  0  0  0
  -26.4260  -20.2690    2.7450 C   0  0  0  0  0
  -27.4150  -20.9880    2.8080 O   0  0  0  0  0
  -24.3160  -21.3800    2.0210 C   0  0  0  0  0
  -22.9630  -20.7370    1.7710 C   0  0  0  0  0
  -22.9140  -19.6520    1.1230 O   0  0  0  0  0
  -21.9540  -21.3330    2.2030 O   0  0  0  0  0
  -26.4720  -19.0370    2.2190 N   0  0  0  0  0
  -27.7020  -18.4540    1.6610 C   0  0  0  0  0
  -27.4930  -18.2020    0.1600 C   0  0  0  0  0
  -28.1660  -18.8120   -0.6600 O   0  0  0  0  0
  -28.1390  -17.2170    2.4400 C   0  0  0  0  0
  -27.1540  -16.8860    3.4240 O   0  0  0  0  0
  -29.4830  -17.4810    3.0940 C   0  0  0  0  0
  -26.5420  -17.3170   -0.1820 N   0  0  0  0  0
  -26.0900  -17.1080   -1.5670 C   0  0  0  0  0
  -27.1470  -16.8150   -2.6450 C   0  0  0  0  0
  -28.2780  -16.7050   -2.4670 O   0  0  0  0  0
  -25.2910  -18.3400   -1.9960 C   0  0  0  0  0
  -26.1120  -19.4660   -2.6150 C   0  0  0  0  0
  -25.3730  -20.7890   -2.6300 C   0  0  0  0  0
  -25.0580  -21.2690   -3.7300 O   0  0  0  0  0
  -25.1040  -21.3430   -1.5300 O   0  0  0  0  0
  -26.8040  -16.5270   -3.7890 O   0  0  0  0  0
  -25.5213  -26.4415   28.1580 H   0  0  0  0  0
  -24.8189  -25.9098   29.5725 H   0  0  0  0  0
  -26.4717  -26.1036   29.4844 H   0  0  0  0  0
  -26.6752  -24.4216   27.8841 H   0  0  0  0  0
  -26.9652  -23.6147   30.0812 H   0  0  0  0  0
  -25.7375  -22.4520   29.3394 H   0  0  0  0  0
  -25.2355  -24.6799   31.3156 H   0  0  0  0  0
  -25.1487  -22.8812   31.6113 H   0  0  0  0  0
  -23.7133  -25.4110   29.9414 H   0  0  0  0  0
  -22.3725  -23.3171   26.2516 H   0  0  0  0  0
  -20.9025  -25.1919   26.3150 H   0  0  0  0  0
  -21.5480  -25.4873   24.7354 H   0  0  0  0  0
  -21.7760  -27.3350   26.6869 H   0  0  0  0  0
  -23.0350  -27.1421   25.4853 H   0  0  0  0  0
  -24.3738  -26.8084   27.3926 H   0  0  0  0  0
  -23.0520  -26.3086   28.3710 H   0  0  0  0  0
  -23.0055  -22.0665   24.5930 H   0  0  0  0  0
  -25.5209  -22.7624   23.2908 H   0  0  0  0  0
  -25.7224  -20.6794   22.6299 H   0  0  0  0  0
  -23.5958  -21.2292   21.1067 H   0  0  0  0  0
  -22.9228  -19.9230   22.1783 H   0  0  0  0  0
  -25.1060  -20.3954   24.9708 H   0  0  0  0  0
  -23.3853  -20.2634   24.5317 H   0  0  0  0  0
  -24.5356  -19.0071   24.0126 H   0  0  0  0  0
  -25.3822  -19.7829   20.4979 H   0  0  0  0  0
  -24.7233  -18.5039   21.5473 H   0  0  0  0  0
  -23.7997  -19.0550   20.1280 H   0  0  0  0  0
  -25.8477  -23.2679   21.0958 H   0  0  0  0  0
  -23.5232  -24.5789   19.8373 H   0  0  0  0  0
  -25.5971  -25.8752   20.1146 H   0  0  0  0  0
  -26.5003  -24.6445   19.1977 H   0  0  0  0  0
  -25.2622  -25.6314   18.3827 H   0  0  0  0  0
  -22.7197  -24.2558   17.8399 H   0  0  0  0  0
  -23.5881  -21.7639   16.4049 H   0  0  0  0  0
  -21.0068  -23.3924   16.3848 H   0  0  0  0  0
  -21.6204  -22.1038   18.4651 H   0  0  0  0  0
  -21.4552  -20.5970   17.4106 H   0  0  0  0  0
  -21.4662  -22.4444   14.2429 H   0  0  0  0  0
  -21.7173  -20.8465   14.9876 H   0  0  0  0  0
  -20.1138  -21.6181   15.0548 H   0  0  0  0  0
  -19.2486  -22.5869   18.0887 H   0  0  0  0  0
  -19.0893  -21.1338   17.0718 H   0  0  0  0  0
  -19.4460  -20.9703   18.8088 H   0  0  0  0  0
  -24.7837  -22.0266   14.6586 H   0  0  0  0  0
  -24.4736  -24.5464   13.0290 H   0  0  0  0  0
  -26.8736  -22.6682   13.1371 H   0  0  0  0  0
  -26.4920  -23.7552   15.2677 H   0  0  0  0  0
  -26.4171  -25.3861   14.3787 H   0  0  0  0  0
  -26.5328  -23.7746   10.9475 H   0  0  0  0  0
  -26.4289  -25.3566   11.7584 H   0  0  0  0  0
  -27.9504  -24.4325   11.8010 H   0  0  0  0  0
  -28.8551  -23.5989   14.7001 H   0  0  0  0  0
  -28.7833  -25.1612   13.8485 H   0  0  0  0  0
  -28.5352  -25.0955   15.6106 H   0  0  0  0  0
  -23.5083  -24.1509   11.0746 H   0  0  0  0  0
  -23.4554  -21.3460    9.9744 H   0  0  0  0  0
  -21.4885  -23.5872    9.4422 H   0  0  0  0  0
  -21.6606  -22.5394   11.8351 H   0  0  0  0  0
  -20.7000  -21.2055   11.0132 H   0  0  0  0  0
  -21.6781  -21.9335    7.6195 H   0  0  0  0  0
  -21.4388  -20.6042    8.7800 H   0  0  0  0  0
  -20.1179  -21.7546    8.4591 H   0  0  0  0  0
  -19.9503  -24.1000   11.2371 H   0  0  0  0  0
  -19.0196  -22.8075   10.4408 H   0  0  0  0  0
  -19.2840  -22.7591   12.2011 H   0  0  0  0  0
  -24.6562  -21.1511    8.1956 H   0  0  0  0  0
  -25.0943  -23.4719    6.3435 H   0  0  0  0  0
  -27.3919  -22.4660    5.9626 H   0  0  0  0  0
  -28.1693  -21.1658    7.8050 H   0  0  0  0  0
  -27.1919  -24.5518    7.3029 H   0  0  0  0  0
  -26.9032  -23.5952    8.7769 H   0  0  0  0  0
  -28.4856  -23.5216    7.9633 H   0  0  0  0  0
  -25.2623  -22.7162    4.1082 H   0  0  0  0  0
  -24.5040  -19.9079    3.6069 H   0  0  0  0  0
  -24.9295  -21.2234    1.1338 H   0  0  0  0  0
  -24.1497  -22.4352    2.2375 H   0  0  0  0  0
  -23.8047  -19.3776    0.8928 H   0  0  0  0  0
  -25.6177  -18.4799    2.2050 H   0  0  0  0  0
  -28.5312  -19.1535    1.7664 H   0  0  0  0  0
  -28.2390  -16.3723    1.7584 H   0  0  0  0  0
  -27.4369  -16.1073    3.9090 H   0  0  0  0  0
  -30.2217  -17.7071    2.3250 H   0  0  0  0  0
  -29.3944  -18.3277    3.7746 H   0  0  0  0  0
  -29.7948  -16.5971    3.6504 H   0  0  0  0  0
  -26.1108  -16.7610    0.5565 H   0  0  0  0  0
  -25.5137  -16.1841   -1.5177 H   0  0  0  0  0
  -24.8350  -18.7462   -1.0931 H   0  0  0  0  0
  -24.5908  -18.0067   -2.7620 H   0  0  0  0  0
  -26.3298  -19.1927   -3.6475 H   0  0  0  0  0
  -27.0126  -19.5926   -2.0142 H   0  0  0  0  0
  -25.4381  -20.8023   -0.8105 H   0  0  0  0  0
  -25.8543  -16.6382   -3.8747 H   0  0  0  0  0
  1  2  1  0  0  0
  2  3  1  0  0  0
  2  5  1  0  0  0
  3  4  2  0  0  0
  3 10  1  0  0  0
  5  6  1  0  0  0
  6  7  1  0  0  0
  7  8  2  0  0  0
  7  9  1  0  0  0
 10 11  1  0  0  0
 10 16  1  0  0  0
 11 12  1  0  0  0
 11 14  1  0  0  0
 12 13  2  0  0  0
 12 17  1  0  0  0
 14 15  1  0  0  0
 15 16  1  0  0  0
 17 18  1  0  0  0
 18 19  1  0  0  0
 18 21  1  0  0  0
 19 20  2  0  0  0
 19 25  1  0  0  0
 21 22  1  0  0  0
 21 23  1  0  0  0
 22 24  1  0  0  0
 25 26  1  0  0  0
 26 27  1  0  0  0
 26 29  1  0  0  0
 27 28  2  0  0  0
 27 30  1  0  0  0
 30 31  1  0  0  0
 31 32  1  0  0  0
 31 34  1  0  0  0
 32 33  2  0  0  0
 32 38  1  0  0  0
 34 35  1  0  0  0
 34 36  1  0  0  0
 35 37  1  0  0  0
 38 39  1  0  0  0
 39 40  1  0  0  0
 39 42  1  0  0  0
 40 41  2  0  0  0
 40 46  1  0  0  0
 42 43  1  0  0  0
 42 44  1  0  0  0
 43 45  1  0  0  0
 46 47  1  0  0  0
 47 48  1  0  0  0
 47 50  1  0  0  0
 48 49  2  0  0  0
 48 54  1  0  0  0
 50 51  1  0  0  0
 50 52  1  0  0  0
 51 53  1  0  0  0
 54 55  1  0  0  0
 55 56  1  0  0  0
 55 58  1  0  0  0
 56 57  2  0  0  0
 56 61  1  0  0  0
 58 59  1  0  0  0
 58 60  1  0  0  0
 61 62  1  0  0  0
 62 63  1  0  0  0
 62 65  1  0  0  0
 63 64  2  0  0  0
 63 69  1  0  0  0
 65 66  1  0  0  0
 66 67  1  0  0  0
 66 68  2  0  0  0
 69 70  1  0  0  0
 70 71  1  0  0  0
 70 73  1  0  0  0
 71 72  2  0  0  0
 71 76  1  0  0  0
 73 74  1  0  0  0
 73 75  1  0  0  0
 76 77  1  0  0  0
 77 78  1  0  0  0
 77 80  1  0  0  0
 78 79  2  0  0  0
 78 85  1  0  0  0
 80 81  1  0  0  0
 81 82  1  0  0  0
 82 83  2  0  0  0
 82 84  1  0  0  0
  1 86  1  0  0  0
  1 87  1  0  0  0
  1 88  1  0  0  0
  2 89  1  0  0  0
  5 90  1  0  0  0
  5 91  1  0  0  0
  6 92  1  0  0  0
  6 93  1  0  0  0
  9 94  1  0  0  0
 11 95  1  0  0  0
 14 96  1  0  0  0
 14 97  1  0  0  0
 15 98  1  0  0  0
 15 99  1  0  0  0
 16100  1  0  0  0
 16101  1  0  0  0
 17102  1  0  0  0
 18103  1  0  0  0
 21104  1  0  0  0
 22105  1  0  0  0
 22106  1  0  0  0
 23107  1  0  0  0
 23108  1  0  0  0
 23109  1  0  0  0
 24110  1  0  0  0
 24111  1  0  0  0
 24112  1  0  0  0
 25113  1  0  0  0
 26114  1  0  0  0
 29115  1  0  0  0
 29116  1  0  0  0
 29117  1  0  0  0
 30118  1  0  0  0
 31119  1  0  0  0
 34120  1  0  0  0
 35121  1  0  0  0
 35122  1  0  0  0
 36123  1  0  0  0
 36124  1  0  0  0
 36125  1  0  0  0
 37126  1  0  0  0
 37127  1  0  0  0
 37128  1  0  0  0
 38129  1  0  0  0
 39130  1  0  0  0
 42131  1  0  0  0
 43132  1  0  0  0
 43133  1  0  0  0
 44134  1  0  0  0
 44135  1  0  0  0
 44136  1  0  0  0
 45137  1  0  0  0
 45138  1  0  0  0
 45139  1  0  0  0
 46140  1  0  0  0
 47141  1  0  0  0
 50142  1  0  0  0
 51143  1  0  0  0
 51144  1  0  0  0
 52145  1  0  0  0
 52146  1  0  0  0
 52147  1  0  0  0
 53148  1  0  0  0
 53149  1  0  0  0
 53150  1  0  0  0
 54151  1  0  0  0
 55152  1  0  0  0
 58153  1  0  0  0
 59154  1  0  0  0
 60155  1  0  0  0
 60156  1  0  0  0
 60157  1  0  0  0
 61158  1  0  0  0
 62159  1  0  0  0
 65160  1  0  0  0
 65161  1  0  0  0
 67162  1  0  0  0
 69163  1  0  0  0
 70164  1  0  0  0
 73165  1  0  0  0
 74166  1  0  0  0
 75167  1  0  0  0
 75168  1  0  0  0
 75169  1  0  0  0
 76170  1  0  0  0
 77171  1  0  0  0
 80172  1  0  0  0
 80173  1  0  0  0
 81174  1  0  0  0
 81175  1  0  0  0
 84176  1  0  0  0
 85177  1  0  0  0
M  END
$$$$
