### 
### Created by X-TOOL on Mon Sep 10 21:13:28 2018
### 

@<TRIPOS>MOLECULE
4z0f_ligand
  208   212     1     0     0
SMALL
GAST_HUCK


@<TRIPOS>ATOM
      1 N         -10.2810   19.1290  -29.1610 N.4       1 CYS         0.2385
      2 CA        -11.1060   20.0700  -28.4120 C.3       1 CYS         0.0749
      3 C         -12.1840   19.3580  -27.6000 C.2       1 CYS         0.2276
      4 O         -12.7110   18.3260  -28.0140 O.2       1 CYS        -0.3907
      5 CB        -11.7530   21.0860  -29.3560 C.3       1 CYS         0.0643
      6 SG        -10.5920   22.2260  -30.1430 S.3       1 CYS        -0.0848
      7 N         -12.5050   19.9210  -26.4390 N.am      1 6CW        -0.2599
      8 CA        -13.5340   19.3820  -25.5860 C.3       1 6CW         0.1353
      9 CB        -12.9780   18.7480  -24.2940 C.3       1 6CW         0.0043
     10 CG        -12.1090   17.5990  -24.5620 C.2       1 6CW        -0.0416
     11 CD2       -10.7240   17.6440  -24.9820 C.ar      1 6CW        -0.0212
     12 CE3        -9.8200   18.6730  -25.2500 C.ar      1 6CW        -0.0742
     13 CE2       -10.2970   16.2690  -25.1170 C.ar      1 6CW         0.0608
     14 NE1       -11.3760   15.4430  -24.7940 N.pl3     1 6CW        -0.2889
     15 CD1       -12.4620   16.2510  -24.4610 C.2       1 6CW         0.0169
     16 CZ2        -8.9910   15.9500  -25.5150 C.ar      1 6CW        -0.0305
     17 CH2        -8.1320   17.0120  -25.7710 C.ar      1 6CW         0.0251
     18 CLL        -6.5390   16.6760  -26.2570 Cl        1 6CW        -0.0799
     19 CZ3        -8.5310   18.3570  -25.6440 C.ar      1 6CW        -0.0654
     20 C         -14.5160   20.4640  -25.1510 C.2       1 6CW         0.2052
     21 O         -14.2710   21.6700  -25.1830 O.2       1 6CW        -0.3942
     22 N         -15.6840   20.0010  -24.7200 N.am      1 THR        -0.2612
     23 CA        -16.7170   20.8890  -24.2060 C.3       1 THR         0.1565
     24 C         -17.0690   20.4970  -22.7770 C.2       1 THR         0.2065
     25 O         -17.3630   19.3360  -22.5050 O.2       1 THR        -0.3943
     26 CB        -17.9860   20.8490  -25.0780 C.3       1 THR         0.0924
     27 OG1       -17.6860   21.3430  -26.3900 O.3       1 THR        -0.3874
     28 CG2       -19.0840   21.7030  -24.4630 C.3       1 THR        -0.0346
     29 N         -17.0250   21.4610  -21.8620 N.am      1 THR        -0.2613
     30 CA        -17.3680   21.1890  -20.4700 C.3       1 THR         0.1565
     31 C         -18.8480   20.8440  -20.3370 C.2       1 THR         0.2065
     32 O         -19.6930   21.4220  -21.0190 O.2       1 THR        -0.3943
     33 CB        -17.0380   22.3820  -19.5530 C.3       1 THR         0.0924
     34 OG1       -17.5860   23.5820  -20.1100 O.3       1 THR        -0.3874
     35 CG2       -15.5340   22.5410  -19.4090 C.3       1 THR        -0.0346
     36 N         -19.1510   19.8920  -19.4610 N.am      1 ARG        -0.2636
     37 CA        -20.5270   19.4610  -19.2450 C.3       1 ARG         0.1311
     38 C         -21.2180   20.3290  -18.1980 C.2       1 ARG         0.2039
     39 O         -22.4110   20.6160  -18.3050 O.2       1 ARG        -0.3944
     40 CB        -20.5680   17.9910  -18.8220 C.3       1 ARG        -0.0092
     41 CG        -20.0770   17.0190  -19.8860 C.3       1 ARG        -0.0156
     42 CD        -20.1420   15.5820  -19.3910 C.3       1 ARG         0.0627
     43 NE        -20.0170   14.6170  -20.4800 N.pl3     1 ARG        -0.2723
     44 CZ        -18.8880   13.9960  -20.8090 C.cat     1 ARG         0.2882
     45 NH1       -17.7730   14.2340  -20.1320 N.pl3     1 ARG        -0.2849
     46 NH2       -18.8750   13.1340  -21.8170 N.pl3     1 ARG        -0.2849
     47 N         -20.4620   20.7460  -17.1880 N.am      1 MET        -0.2637
     48 CA        -21.0050   21.5740  -16.1180 C.3       1 MET         0.1317
     49 C         -21.0070   23.0500  -16.5020 C.2       1 MET         0.2040
     50 O         -20.0460   23.5540  -17.0830 O.2       1 MET        -0.3944
     51 CB        -20.2150   21.3650  -14.8260 C.3       1 MET        -0.0034
     52 CG        -20.4800   20.0260  -14.1590 C.3       1 MET        -0.0024
     53 SD        -19.5470   19.7920  -12.6350 S.3       1 MET        -0.1639
     54 CE        -17.8750   19.6700  -13.2660 C.3       1 MET        -0.0181
     55 N         -22.0970   23.7350  -16.1680 N.am      1 SER        -0.2616
     56 CA        -22.2640   25.1460  -16.4990 C.3       1 SER         0.1541
     57 C         -21.3490   26.0350  -15.6560 C.2       1 SER         0.2087
     58 O         -21.1330   25.7610  -14.4760 O.2       1 SER        -0.3941
     59 CB        -23.7250   25.5640  -16.3110 C.3       1 SER         0.0843
     60 OG        -24.5720   24.9040  -17.2370 O.3       1 SER        -0.3903
     61 N         -20.8130   27.1100  -16.2580 N.am      1 PRO        -0.2498
     62 CA        -21.0300   27.5090  -17.6540 C.3       1 PRO         0.1340
     63 C         -20.1810   26.7160  -18.6460 C.2       1 PRO         0.2066
     64 O         -18.9750   26.5670  -18.4470 O.2       1 PRO        -0.3942
     65 CB        -20.6290   28.9850  -17.6570 C.3       1 PRO        -0.0104
     66 CG        -19.6040   29.0860  -16.5890 C.3       1 PRO        -0.0281
     67 CD        -20.0080   28.1020  -15.5230 C.3       1 PRO         0.0369
     68 N         -20.8170   26.2050  -19.7110 N.am      1 PRO        -0.2498
     69 CA        -20.1370   25.4190  -20.7440 C.3       1 PRO         0.1338
     70 C         -19.1590   26.2520  -21.5600 C.2       1 PRO         0.2041
     71 O         -19.4880   27.3490  -22.0110 O.2       1 PRO        -0.3944
     72 CB        -21.2880   24.9170  -21.6250 C.3       1 PRO        -0.0104
     73 CG        -22.5200   25.0850  -20.7980 C.3       1 PRO        -0.0281
     74 CD        -22.2640   26.2900  -19.9570 C.3       1 PRO         0.0369
     75 N         -17.9590   25.7140  -21.7400 N.am      1 GLN        -0.2636
     76 CA        -16.9090   26.3720  -22.5010 C.3       1 GLN         0.1330
     77 C         -16.1940   25.3460  -23.3630 C.2       1 GLN         0.2040
     78 O         -16.4370   24.1440  -23.2420 O.2       1 GLN        -0.3944
     79 CB        -15.9220   27.0630  -21.5640 C.3       1 GLN         0.0045
     80 CG        -15.2390   26.1030  -20.6070 C.3       1 GLN         0.0412
     81 CD        -14.3540   26.8060  -19.6020 C.2       1 GLN         0.1737
     82 OE1       -14.6260   26.7930  -18.4010 O.2       1 GLN        -0.3973
     83 NE2       -13.2880   27.4300  -20.0880 N.am      1 GLN        -0.3009
     84 N         -15.3120   25.8120  -24.2370 N.am      1 GLN        -0.2636
     85 CA        -14.5310   24.8910  -25.0450 C.3       1 GLN         0.1330
     86 C         -13.0510   24.9700  -24.6770 C.2       1 GLN         0.2041
     87 O         -12.5080   26.0510  -24.4280 O.2       1 GLN        -0.3944
     88 CB        -14.7020   25.1640  -26.5270 C.3       1 GLN         0.0045
     89 CG        -14.9530   23.8810  -27.3230 C.3       1 GLN         0.0412
     90 CD        -15.1370   24.1140  -28.8040 C.2       1 GLN         0.1737
     91 OE1       -16.1280   23.6800  -29.3820 O.2       1 GLN        -0.3973
     92 NE2       -14.1640   24.7620  -29.4380 N.am      1 GLN        -0.3009
     93 N         -12.4140   23.8050  -24.6320 N.am      1 ILE        -0.2635
     94 CA        -11.0120   23.6620  -24.2650 C.3       1 ILE         0.1335
     95 C         -10.2750   22.8870  -25.3500 C.2       1 ILE         0.2036
     96 O         -10.5460   21.7100  -25.5710 O.2       1 ILE        -0.3944
     97 CB        -10.8680   22.9320  -22.9170 C.3       1 ILE        -0.0037
     98 CG1       -11.8660   23.4960  -21.8960 C.3       1 ILE        -0.0491
     99 CG2        -9.4410   23.0340  -22.3980 C.3       1 ILE        -0.0582
    100 CD1       -12.0170   22.6540  -20.6600 C.3       1 ILE        -0.0648
    101 N          -9.3490   23.5530  -26.0300 N.am      1 CYS        -0.2686
    102 CA         -8.6510   22.9460  -27.1590 C.3       1 CYS         0.1041
    103 C          -7.1560   22.7870  -26.8920 C.2       1 CYS         0.0609
    104 O          -6.6660   23.1510  -25.8240 O.co2     1 CYS        -0.5666
    105 CB         -8.8700   23.7770  -28.4260 C.3       1 CYS         0.0388
    106 SG        -10.5940   23.8800  -28.9620 S.3       1 CYS        -0.0887
    107 OXT        -6.4150   22.2920  -27.7400 O.co2     1 CYS        -0.5666
    108 H1         -9.5830   19.6356  -29.6828 H         1 CYS         0.2015
    109 H2        -10.8617   18.6054  -29.7971 H         1 CYS         0.2015
    110 H3         -9.8280   18.4958  -28.5208 H         1 CYS         0.2015
    111 H4        -10.4530   20.6128  -27.7127 H         1 CYS         0.1107
    112 H5        -12.4775   21.6786  -28.7781 H         1 CYS         0.0466
    113 H6        -12.2800   20.5324  -30.1471 H         1 CYS         0.0466
    114 H7        -12.0171   20.7442  -26.1486 H         1 6CW         0.1886
    115 H8        -14.0747   18.6113  -26.1548 H         1 6CW         0.0815
    116 H9        -13.8224   18.4144  -23.6730 H         1 6CW         0.0397
    117 H10       -12.3995   19.5082  -23.7486 H         1 6CW         0.0397
    118 H11       -10.1240   19.7088  -25.1507 H         1 6CW         0.0541
    119 H12       -11.3702   14.4130  -24.8007 H         1 6CW         0.2216
    120 H13       -13.4438   15.8844  -24.1649 H         1 6CW         0.0797
    121 H14        -8.6659   14.9211  -25.6184 H         1 6CW         0.0547
    122 H15        -7.8236   19.1504  -25.8563 H         1 6CW         0.0515
    123 H16       -15.8584   19.0168  -24.7493 H         1 THR         0.1884
    124 H17       -16.3250   21.9168  -24.2070 H         1 THR         0.0826
    125 H18       -18.3372   19.8092  -25.1524 H         1 THR         0.0639
    126 H19       -18.4711   21.3166  -26.9243 H         1 THR         0.2101
    127 H20       -19.9804   21.6616  -25.0992 H         1 THR         0.0257
    128 H21       -18.7380   22.7442  -24.3843 H         1 THR         0.0257
    129 H22       -19.3278   21.3208  -23.4608 H         1 THR         0.0257
    130 H23       -16.7532   22.3848  -22.1315 H         1 THR         0.1884
    131 H24       -16.7762   20.3237  -20.1367 H         1 THR         0.0826
    132 H25       -17.4793   22.2060  -18.5609 H         1 THR         0.0639
    133 H26       -17.2106   23.7308  -20.9700 H         1 THR         0.2101
    134 H27       -15.3170   23.3961  -18.7520 H         1 THR         0.0257
    135 H28       -15.0874   22.7165  -20.3988 H         1 THR         0.0257
    136 H29       -15.1087   21.6256  -18.9719 H         1 THR         0.0257
    137 H30       -18.4169   19.4603  -18.9368 H         1 ARG         0.1883
    138 H31       -21.0730   19.5648  -20.1943 H         1 ARG         0.0800
    139 H32       -21.6080   17.7329  -18.5733 H         1 ARG         0.0313
    140 H33       -19.9369   17.8717  -17.9290 H         1 ARG         0.0313
    141 H34       -19.0355   17.2634  -20.1420 H         1 ARG         0.0301
    142 H35       -20.7078   17.1187  -20.7816 H         1 ARG         0.0301
    143 H36       -21.1069   15.4243  -18.8870 H         1 ARG         0.0689
    144 H37       -19.3232   15.4165  -18.6754 H         1 ARG         0.0689
    145 H38       -20.8607   14.4028  -21.0307 H         1 ARG         0.2642
    146 H39       -16.9007   13.7509  -20.3901 H         1 ARG         0.2615
    147 H40       -17.7792   14.9020  -19.3480 H         1 ARG         0.2615
    148 H41       -19.7390   12.9464  -22.3454 H         1 ARG         0.2615
    149 H42       -18.0009   12.6522  -22.0714 H         1 ARG         0.2615
    150 H43       -19.4969   20.4855  -17.1612 H         1 MET         0.1883
    151 H44       -22.0456   21.2646  -15.9411 H         1 MET         0.0800
    152 H45       -20.4854   22.1642  -14.1202 H         1 MET         0.0320
    153 H46       -19.1422   21.4301  -15.0603 H         1 MET         0.0320
    154 H47       -20.2066   19.2255  -14.8621 H         1 MET         0.0378
    155 H48       -21.5528   19.9584  -13.9255 H         1 MET         0.0378
    156 H49       -17.1771   19.5217  -12.4288 H         1 MET         0.0340
    157 H50       -17.6159   20.5963  -13.7996 H         1 MET         0.0340
    158 H51       -17.8052   18.8170  -13.9570 H         1 MET         0.0340
    159 H52       -22.8281   23.2662  -15.6723 H         1 SER         0.1884
    160 H53       -21.9961   25.2838  -17.5569 H         1 SER         0.0823
    161 H54       -23.8090   26.6506  -16.4598 H         1 SER         0.0606
    162 H55       -24.0425   25.3081  -15.2894 H         1 SER         0.0606
    163 H56       -25.4697   25.1820  -17.0972 H         1 SER         0.2097
    164 H57       -22.0901   27.3921  -17.9231 H         1 PRO         0.0802
    165 H58       -21.4942   29.6248  -17.4290 H         1 PRO         0.0313
    166 H59       -20.2069   29.2726  -18.6312 H         1 PRO         0.0313
    167 H60       -19.5816   30.1059  -16.1774 H         1 PRO         0.0287
    168 H61       -18.6114   28.8296  -16.9878 H         1 PRO         0.0287
    169 H62       -19.1244   27.6314  -15.0671 H         1 PRO         0.0524
    170 H63       -20.6065   28.5928  -14.7414 H         1 PRO         0.0524
    171 H64       -19.5965   24.5753  -20.2902 H         1 PRO         0.0802
    172 H65       -21.1404   23.8586  -21.8855 H         1 PRO         0.0313
    173 H66       -21.3576   25.5150  -22.5456 H         1 PRO         0.0313
    174 H67       -22.6835   24.2004  -20.1650 H         1 PRO         0.0287
    175 H68       -23.3981   25.2430  -21.4414 H         1 PRO         0.0287
    176 H69       -22.5219   27.2133  -20.4965 H         1 PRO         0.0524
    177 H70       -22.8306   26.2451  -19.0153 H         1 PRO         0.0524
    178 H71       -17.7692   24.8193  -21.3356 H         1 GLN         0.1883
    179 H72       -17.3646   27.1308  -23.1542 H         1 GLN         0.0801
    180 H73       -16.4664   27.8161  -20.9754 H         1 GLN         0.0337
    181 H74       -15.1511   27.5595  -22.1716 H         1 GLN         0.0337
    182 H75       -14.6214   25.4048  -21.1910 H         1 GLN         0.0504
    183 H76       -16.0118   25.5412  -20.0620 H         1 GLN         0.0504
    184 H77       -12.6663   27.9122  -19.4708 H         1 GLN         0.1814
    185 H78       -13.1066   27.4179  -21.0713 H         1 GLN         0.1814
    186 H79       -15.1843   26.7985  -24.3400 H         1 GLN         0.1883
    187 H80       -14.8870   23.8708  -24.8390 H         1 GLN         0.0801
    188 H81       -13.7883   25.6443  -26.9071 H         1 GLN         0.0337
    189 H82       -15.5575   25.8412  -26.6666 H         1 GLN         0.0337
    190 H83       -15.8617   23.4008  -26.9311 H         1 GLN         0.0504
    191 H84       -14.0932   23.2098  -27.1809 H         1 GLN         0.0504
    192 H85       -14.2389   24.9408  -30.4190 H         1 GLN         0.1814
    193 H86       -13.3574   25.0704  -28.9337 H         1 GLN         0.1814
    194 H87       -12.9270   22.9784  -24.8636 H         1 ILE         0.1883
    195 H88       -10.5660   24.6634  -24.1742 H         1 ILE         0.0803
    196 H89       -11.1002   21.8683  -23.0740 H         1 ILE         0.0345
    197 H90       -12.8496   23.5768  -22.3818 H         1 ILE         0.0267
    198 H91       -11.5232   24.4964  -21.5933 H         1 ILE         0.0267
    199 H92        -8.7481   22.6238  -23.1474 H         1 ILE         0.0235
    200 H93        -9.3493   22.4627  -21.4625 H         1 ILE         0.0235
    201 H94        -9.1941   24.0891  -22.2091 H         1 ILE         0.0235
    202 H95       -12.7454   23.1240  -19.9829 H         1 ILE         0.0230
    203 H96       -11.0449   22.5707  -20.1520 H         1 ILE         0.0230
    204 H97       -12.3713   21.6511  -20.9405 H         1 ILE         0.0230
    205 H98        -9.1252   24.4903  -25.7629 H         1 CYS         0.1876
    206 H99        -9.0762   21.9448  -27.3226 H         1 CYS         0.0734
    207 H100       -8.2831   23.3255  -29.2395 H         1 CYS         0.0425
    208 H101       -8.5074   24.7978  -28.2351 H         1 CYS         0.0425
@<TRIPOS>BOND
     1    1    2 1  
     2    2    3 1  
     3    2    5 1  
     4    3    4 2  
     5    3    7 am 
     6    5    6 1  
     7    6  106 1  
     8    7    8 1  
     9    8    9 1  
    10    8   20 1  
    11    9   10 1  
    12   10   11 1  
    13   10   15 2  
    14   11   12 ar 
    15   11   13 ar 
    16   12   19 ar 
    17   13   14 1  
    18   13   16 ar 
    19   14   15 1  
    20   16   17 ar 
    21   17   18 1  
    22   17   19 ar 
    23   20   21 2  
    24   20   22 am 
    25   22   23 1  
    26   23   24 1  
    27   23   26 1  
    28   24   25 2  
    29   24   29 am 
    30   26   27 1  
    31   26   28 1  
    32   29   30 1  
    33   30   31 1  
    34   30   33 1  
    35   31   32 2  
    36   31   36 am 
    37   33   34 1  
    38   33   35 1  
    39   36   37 1  
    40   37   38 1  
    41   37   40 1  
    42   38   39 2  
    43   38   47 am 
    44   40   41 1  
    45   41   42 1  
    46   42   43 1  
    47   43   44 ar 
    48   44   45 ar 
    49   44   46 ar 
    50   47   48 1  
    51   48   49 1  
    52   48   51 1  
    53   49   50 2  
    54   49   55 am 
    55   51   52 1  
    56   52   53 1  
    57   53   54 1  
    58   55   56 1  
    59   56   57 1  
    60   56   59 1  
    61   57   58 2  
    62   57   61 am 
    63   59   60 1  
    64   61   62 1  
    65   61   67 1  
    66   62   63 1  
    67   62   65 1  
    68   63   64 2  
    69   63   68 am 
    70   65   66 1  
    71   66   67 1  
    72   68   69 1  
    73   68   74 1  
    74   69   70 1  
    75   69   72 1  
    76   70   71 2  
    77   70   75 am 
    78   72   73 1  
    79   73   74 1  
    80   75   76 1  
    81   76   77 1  
    82   76   79 1  
    83   77   78 2  
    84   77   84 am 
    85   79   80 1  
    86   80   81 1  
    87   81   82 2  
    88   81   83 am 
    89   84   85 1  
    90   85   86 1  
    91   85   88 1  
    92   86   87 2  
    93   86   93 am 
    94   88   89 1  
    95   89   90 1  
    96   90   91 2  
    97   90   92 am 
    98   93   94 1  
    99   94   95 1  
   100   94   97 1  
   101   95   96 2  
   102   95  101 am 
   103   97   98 1  
   104   97   99 1  
   105   98  100 1  
   106  101  102 1  
   107  102  103 1  
   108  102  105 1  
   109  103  104 ar 
   110  103  107 ar 
   111  105  106 1  
   112    1  108 1  
   113    1  109 1  
   114    1  110 1  
   115    2  111 1  
   116    5  112 1  
   117    5  113 1  
   118    7  114 1  
   119    8  115 1  
   120    9  116 1  
   121    9  117 1  
   122   12  118 1  
   123   14  119 1  
   124   15  120 1  
   125   16  121 1  
   126   19  122 1  
   127   22  123 1  
   128   23  124 1  
   129   26  125 1  
   130   27  126 1  
   131   28  127 1  
   132   28  128 1  
   133   28  129 1  
   134   29  130 1  
   135   30  131 1  
   136   33  132 1  
   137   34  133 1  
   138   35  134 1  
   139   35  135 1  
   140   35  136 1  
   141   36  137 1  
   142   37  138 1  
   143   40  139 1  
   144   40  140 1  
   145   41  141 1  
   146   41  142 1  
   147   42  143 1  
   148   42  144 1  
   149   43  145 1  
   150   45  146 1  
   151   45  147 1  
   152   46  148 1  
   153   46  149 1  
   154   47  150 1  
   155   48  151 1  
   156   51  152 1  
   157   51  153 1  
   158   52  154 1  
   159   52  155 1  
   160   54  156 1  
   161   54  157 1  
   162   54  158 1  
   163   55  159 1  
   164   56  160 1  
   165   59  161 1  
   166   59  162 1  
   167   60  163 1  
   168   62  164 1  
   169   65  165 1  
   170   65  166 1  
   171   66  167 1  
   172   66  168 1  
   173   67  169 1  
   174   67  170 1  
   175   69  171 1  
   176   72  172 1  
   177   72  173 1  
   178   73  174 1  
   179   73  175 1  
   180   74  176 1  
   181   74  177 1  
   182   75  178 1  
   183   76  179 1  
   184   79  180 1  
   185   79  181 1  
   186   80  182 1  
   187   80  183 1  
   188   83  184 1  
   189   83  185 1  
   190   84  186 1  
   191   85  187 1  
   192   88  188 1  
   193   88  189 1  
   194   89  190 1  
   195   89  191 1  
   196   92  192 1  
   197   92  193 1  
   198   93  194 1  
   199   94  195 1  
   200   97  196 1  
   201   98  197 1  
   202   98  198 1  
   203   99  199 1  
   204   99  200 1  
   205   99  201 1  
   206  100  202 1  
   207  100  203 1  
   208  100  204 1  
   209  101  205 1  
   210  102  206 1  
   211  105  207 1  
   212  105  208 1  
@<TRIPOS>SUBSTRUCTURE
     1 CYS         1

