4z0f_ligand
  -I-interpret- 

207211  0  0  0  0  0  0  0  0999 V2000
  -10.2810   19.1290  -29.1610 N   0  3  0  0  0
  -11.1060   20.0700  -28.4120 C   0  0  0  0  0
  -12.1840   19.3580  -27.6000 C   0  0  0  0  0
  -12.7110   18.3260  -28.0140 O   0  0  0  0  0
  -11.7530   21.0860  -29.3560 C   0  0  0  0  0
  -10.5920   22.2260  -30.1430 S   0  0  0  0  0
  -12.5050   19.9210  -26.4390 N   0  0  0  0  0
  -13.5340   19.3820  -25.5860 C   0  0  0  0  0
  -12.9780   18.7480  -24.2940 C   0  0  0  0  0
  -12.1090   17.5990  -24.5620 C   0  0  0  0  0
  -10.7240   17.6440  -24.9820 C   0  0  0  0  0
   -9.8200   18.6730  -25.2500 C   0  0  0  0  0
  -10.2970   16.2690  -25.1170 C   0  0  0  0  0
  -11.3760   15.4430  -24.7940 N   0  0  0  0  0
  -12.4620   16.2510  -24.4610 C   0  0  0  0  0
   -8.9910   15.9500  -25.5150 C   0  0  0  0  0
   -8.1320   17.0120  -25.7710 C   0  0  0  0  0
   -6.5390   16.6760  -26.2570 Cl  0  0  0  0  0
   -8.5310   18.3570  -25.6440 C   0  0  0  0  0
  -14.5160   20.4640  -25.1510 C   0  0  0  0  0
  -14.2710   21.6700  -25.1830 O   0  0  0  0  0
  -15.6840   20.0010  -24.7200 N   0  0  0  0  0
  -16.7170   20.8890  -24.2060 C   0  0  0  0  0
  -17.0690   20.4970  -22.7770 C   0  0  0  0  0
  -17.3630   19.3360  -22.5050 O   0  0  0  0  0
  -17.9860   20.8490  -25.0780 C   0  0  0  0  0
  -17.6860   21.3430  -26.3900 O   0  0  0  0  0
  -19.0840   21.7030  -24.4630 C   0  0  0  0  0
  -17.0250   21.4610  -21.8620 N   0  0  0  0  0
  -17.3680   21.1890  -20.4700 C   0  0  0  0  0
  -18.8480   20.8440  -20.3370 C   0  0  0  0  0
  -19.6930   21.4220  -21.0190 O   0  0  0  0  0
  -17.0380   22.3820  -19.5530 C   0  0  0  0  0
  -17.5860   23.5820  -20.1100 O   0  0  0  0  0
  -15.5340   22.5410  -19.4090 C   0  0  0  0  0
  -19.1510   19.8920  -19.4610 N   0  0  0  0  0
  -20.5270   19.4610  -19.2450 C   0  0  0  0  0
  -21.2180   20.3290  -18.1980 C   0  0  0  0  0
  -22.4110   20.6160  -18.3050 O   0  0  0  0  0
  -20.5680   17.9910  -18.8220 C   0  0  0  0  0
  -20.0770   17.0190  -19.8860 C   0  0  0  0  0
  -20.1420   15.5820  -19.3910 C   0  0  0  0  0
  -20.0170   14.6170  -20.4800 N   0  0  0  0  0
  -18.8880   13.9960  -20.8090 C   0  0  0  0  0
  -17.7730   14.2340  -20.1320 N   0  0  0  0  0
  -18.8750   13.1340  -21.8170 N   0  0  0  0  0
  -20.4620   20.7460  -17.1880 N   0  0  0  0  0
  -21.0050   21.5740  -16.1180 C   0  0  0  0  0
  -21.0070   23.0500  -16.5020 C   0  0  0  0  0
  -20.0460   23.5540  -17.0830 O   0  0  0  0  0
  -20.2150   21.3650  -14.8260 C   0  0  0  0  0
  -20.4800   20.0260  -14.1590 C   0  0  0  0  0
  -19.5470   19.7920  -12.6350 S   0  0  0  0  0
  -17.8750   19.6700  -13.2660 C   0  0  0  0  0
  -22.0970   23.7350  -16.1680 N   0  0  0  0  0
  -22.2640   25.1460  -16.4990 C   0  0  0  0  0
  -21.3490   26.0350  -15.6560 C   0  0  0  0  0
  -21.1330   25.7610  -14.4760 O   0  0  0  0  0
  -23.7250   25.5640  -16.3110 C   0  0  0  0  0
  -24.5720   24.9040  -17.2370 O   0  0  0  0  0
  -20.8130   27.1100  -16.2580 N   0  0  0  0  0
  -21.0300   27.5090  -17.6540 C   0  0  0  0  0
  -20.1810   26.7160  -18.6460 C   0  0  0  0  0
  -18.9750   26.5670  -18.4470 O   0  0  0  0  0
  -20.6290   28.9850  -17.6570 C   0  0  0  0  0
  -19.6040   29.0860  -16.5890 C   0  0  0  0  0
  -20.0080   28.1020  -15.5230 C   0  0  0  0  0
  -20.8170   26.2050  -19.7110 N   0  0  0  0  0
  -20.1370   25.4190  -20.7440 C   0  0  0  0  0
  -19.1590   26.2520  -21.5600 C   0  0  0  0  0
  -19.4880   27.3490  -22.0110 O   0  0  0  0  0
  -21.2880   24.9170  -21.6250 C   0  0  0  0  0
  -22.5200   25.0850  -20.7980 C   0  0  0  0  0
  -22.2640   26.2900  -19.9570 C   0  0  0  0  0
  -17.9590   25.7140  -21.7400 N   0  0  0  0  0
  -16.9090   26.3720  -22.5010 C   0  0  0  0  0
  -16.1940   25.3460  -23.3630 C   0  0  0  0  0
  -16.4370   24.1440  -23.2420 O   0  0  0  0  0
  -15.9220   27.0630  -21.5640 C   0  0  0  0  0
  -15.2390   26.1030  -20.6070 C   0  0  0  0  0
  -14.3540   26.8060  -19.6020 C   0  0  0  0  0
  -14.6260   26.7930  -18.4010 O   0  0  0  0  0
  -13.2880   27.4300  -20.0880 N   0  0  0  0  0
  -15.3120   25.8120  -24.2370 N   0  0  0  0  0
  -14.5310   24.8910  -25.0450 C   0  0  0  0  0
  -13.0510   24.9700  -24.6770 C   0  0  0  0  0
  -12.5080   26.0510  -24.4280 O   0  0  0  0  0
  -14.7020   25.1640  -26.5270 C   0  0  0  0  0
  -14.9530   23.8810  -27.3230 C   0  0  0  0  0
  -15.1370   24.1140  -28.8040 C   0  0  0  0  0
  -16.1280   23.6800  -29.3820 O   0  0  0  0  0
  -14.1640   24.7620  -29.4380 N   0  0  0  0  0
  -12.4140   23.8050  -24.6320 N   0  0  0  0  0
  -11.0120   23.6620  -24.2650 C   0  0  0  0  0
  -10.2750   22.8870  -25.3500 C   0  0  0  0  0
  -10.5460   21.7100  -25.5710 O   0  0  0  0  0
  -10.8680   22.9320  -22.9170 C   0  0  0  0  0
  -11.8660   23.4960  -21.8960 C   0  0  0  0  0
   -9.4410   23.0340  -22.3980 C   0  0  0  0  0
  -12.0170   22.6540  -20.6600 C   0  0  0  0  0
   -9.3490   23.5530  -26.0300 N   0  0  0  0  0
   -8.6510   22.9460  -27.1590 C   0  0  0  0  0
   -7.1560   22.7870  -26.8920 C   0  0  0  0  0
   -6.6660   23.1510  -25.8240 O   0  0  0  0  0
   -8.8700   23.7770  -28.4260 C   0  0  0  0  0
  -10.5940   23.8800  -28.9620 S   0  0  0  0  0
   -6.4150   22.2920  -27.7400 O   0  0  0  0  0
   -9.8588   18.4608  -28.5162 H   0  0  0  0  0
  -10.8620   18.6316  -29.8358 H   0  0  0  0  0
   -9.5472   19.6388  -29.6529 H   0  0  0  0  0
  -10.4497   20.5916  -27.7153 H   0  0  0  0  0
  -12.4343   21.6892  -28.7560 H   0  0  0  0  0
  -12.2327   20.5189  -30.1538 H   0  0  0  0  0
  -12.0074   20.7607  -26.1428 H   0  0  0  0  0
  -14.0231   18.6173  -26.1894 H   0  0  0  0  0
  -13.8227   18.3995  -23.6998 H   0  0  0  0  0
  -12.3869   19.5033  -23.7761 H   0  0  0  0  0
  -10.1256   19.7145  -25.1501 H   0  0  0  0  0
  -13.4447   15.8841  -24.1646 H   0  0  0  0  0
   -8.6641   14.9154  -25.6190 H   0  0  0  0  0
   -7.8196   19.1548  -25.8575 H   0  0  0  0  0
  -15.8619   18.9971  -24.7499 H   0  0  0  0  0
  -16.3238   21.9054  -24.2277 H   0  0  0  0  0
  -18.3307   19.8167  -25.1393 H   0  0  0  0  0
  -18.4793   21.3163  -26.9299 H   0  0  0  0  0
  -19.3246   21.3233  -23.4700 H   0  0  0  0  0
  -18.7399   22.7344  -24.3855 H   0  0  0  0  0
  -19.9716   21.6612  -25.0943 H   0  0  0  0  0
  -16.7477   22.4033  -22.1369 H   0  0  0  0  0
  -16.7644   20.3377  -20.1554 H   0  0  0  0  0
  -17.4721   22.1962  -18.5706 H   0  0  0  0  0
  -17.3787   24.3234  -19.5364 H   0  0  0  0  0
  -15.1138   21.6333  -18.9758 H   0  0  0  0  0
  -15.0927   22.7148  -20.3904 H   0  0  0  0  0
  -15.3202   23.3886  -18.7578 H   0  0  0  0  0
  -18.4023   19.4517  -18.9263 H   0  0  0  0  0
  -21.0637   19.5721  -20.1872 H   0  0  0  0  0
  -21.6102   17.7446  -18.6189 H   0  0  0  0  0
  -19.9065   17.8861  -17.9620 H   0  0  0  0  0
  -19.0406   17.2583  -20.1240 H   0  0  0  0  0
  -20.7153   17.1134  -20.7645 H   0  0  0  0  0
  -21.1104   15.4312  -18.9139 H   0  0  0  0  0
  -19.3135   15.4234  -18.7007 H   0  0  0  0  0
  -20.8525   14.4049  -21.0254 H   0  0  0  0  0
  -17.7791   14.8955  -19.3556 H   0  0  0  0  0
  -18.0094   12.6569  -22.0689 H   0  0  0  0  0
  -19.7306   12.9482  -22.3402 H   0  0  0  0  0
  -19.4776   20.4803  -17.1606 H   0  0  0  0  0
  -22.0382   21.2678  -15.9544 H   0  0  0  0  0
  -20.5206   22.1437  -14.1272 H   0  0  0  0  0
  -19.1560   21.3980  -15.0822 H   0  0  0  0  0
  -20.1749   19.2449  -14.8553 H   0  0  0  0  0
  -21.5395   19.9879  -13.9059 H   0  0  0  0  0
  -17.8072   18.8245  -13.9505 H   0  0  0  0  0
  -17.6196   20.5884  -13.7945 H   0  0  0  0  0
  -17.1844   19.5231  -12.4356 H   0  0  0  0  0
  -22.8427   23.2568  -15.6624 H   0  0  0  0  0
  -21.9841   25.2769  -17.5443 H   0  0  0  0  0
  -23.8025   26.6389  -16.4744 H   0  0  0  0  0
  -24.0364   25.2940  -15.3019 H   0  0  0  0  0
  -25.4791   25.1849  -17.0958 H   0  0  0  0  0
  -22.0560   27.3240  -17.9723 H   0  0  0  0  0
  -21.4791   29.6425  -17.4747 H   0  0  0  0  0
  -20.2462   29.3052  -18.6260 H   0  0  0  0  0
  -19.5522   30.0987  -16.1891 H   0  0  0  0  0
  -18.6104   28.8597  -16.9758 H   0  0  0  0  0
  -19.1503   27.6546  -15.0206 H   0  0  0  0  0
  -20.5627   28.5708  -14.7102 H   0  0  0  0  0
  -19.5327   24.6195  -20.3154 H   0  0  0  0  0
  -21.1425   23.8782  -21.9214 H   0  0  0  0  0
  -21.3521   25.4764  -22.5583 H   0  0  0  0  0
  -22.7188   24.2036  -20.1884 H   0  0  0  0  0
  -23.4076   25.2085  -21.4186 H   0  0  0  0  0
  -22.5608   27.2200  -20.4419 H   0  0  0  0  0
  -22.8529   26.3036  -19.0399 H   0  0  0  0  0
  -17.7654   24.8014  -21.3275 H   0  0  0  0  0
  -17.3542   27.1325  -23.1426 H   0  0  0  0  0
  -16.4806   27.7844  -20.9676 H   0  0  0  0  0
  -15.1490   27.5245  -22.1785 H   0  0  0  0  0
  -14.6097   25.4361  -21.1963 H   0  0  0  0  0
  -16.0156   25.5739  -20.0547 H   0  0  0  0  0
  -12.6557   27.9247  -19.4588 H   0  0  0  0  0
  -13.1012   27.4148  -21.0906 H   0  0  0  0  0
  -15.1818   26.8182  -24.3421 H   0  0  0  0  0
  -14.9008   23.8871  -24.8361 H   0  0  0  0  0
  -13.7837   25.6198  -26.8971 H   0  0  0  0  0
  -15.5645   25.8181  -26.6551 H   0  0  0  0  0
  -15.8740   23.4371  -26.9452 H   0  0  0  0  0
  -14.0779   23.2431  -27.1989 H   0  0  0  0  0
  -14.2246   24.9148  -30.4447 H   0  0  0  0  0
  -13.3571   25.1062  -28.9176 H   0  0  0  0  0
  -12.9372   22.9619  -24.8682 H   0  0  0  0  0
  -10.5784   24.6571  -24.1652 H   0  0  0  0  0
  -11.0934   21.8764  -23.0688 H   0  0  0  0  0
  -12.8405   23.5336  -22.3829 H   0  0  0  0  0
  -11.4906   24.4695  -21.5804 H   0  0  0  0  0
   -8.7604   22.5807  -23.1186 H   0  0  0  0  0
   -9.1800   24.0833  -22.2601 H   0  0  0  0  0
   -9.3641   22.5109  -21.4448 H   0  0  0  0  0
  -12.3680   21.6606  -20.9393 H   0  0  0  0  0
  -11.0531   22.5722  -20.1576 H   0  0  0  0  0
  -12.7390   23.1208  -19.9899 H   0  0  0  0  0
   -9.1207   24.5091  -25.7575 H   0  0  0  0  0
   -9.0684   21.9490  -27.2999 H   0  0  0  0  0
   -7.3559   23.5144  -25.2640 H   0  0  0  0  0
   -8.3140   23.2910  -29.2277 H   0  0  0  0  0
   -8.5428   24.7926  -28.2033 H   0  0  0  0  0
  1  2  1  0  0  0
  2  3  1  0  0  0
  2  5  1  0  0  0
  3  4  2  0  0  0
  3  7  1  0  0  0
  5  6  1  0  0  0
  6106  1  0  0  0
  7  8  1  0  0  0
  8  9  1  0  0  0
  8 20  1  0  0  0
  9 10  1  0  0  0
 10 11  4  0  0  0
 10 15  4  0  0  0
 11 12  4  0  0  0
 11 13  4  0  0  0
 12 19  4  0  0  0
 13 14  4  0  0  0
 13 16  4  0  0  0
 14 15  4  0  0  0
 16 17  4  0  0  0
 17 18  1  0  0  0
 17 19  4  0  0  0
 20 21  2  0  0  0
 20 22  1  0  0  0
 22 23  1  0  0  0
 23 24  1  0  0  0
 23 26  1  0  0  0
 24 25  2  0  0  0
 24 29  1  0  0  0
 26 27  1  0  0  0
 26 28  1  0  0  0
 29 30  1  0  0  0
 30 31  1  0  0  0
 30 33  1  0  0  0
 31 32  2  0  0  0
 31 36  1  0  0  0
 33 34  1  0  0  0
 33 35  1  0  0  0
 36 37  1  0  0  0
 37 38  1  0  0  0
 37 40  1  0  0  0
 38 39  2  0  0  0
 38 47  1  0  0  0
 40 41  1  0  0  0
 41 42  1  0  0  0
 42 43  1  0  0  0
 43 44  1  0  0  0
 44 45  2  0  0  0
 44 46  1  0  0  0
 47 48  1  0  0  0
 48 49  1  0  0  0
 48 51  1  0  0  0
 49 50  2  0  0  0
 49 55  1  0  0  0
 51 52  1  0  0  0
 52 53  1  0  0  0
 53 54  1  0  0  0
 55 56  1  0  0  0
 56 57  1  0  0  0
 56 59  1  0  0  0
 57 58  2  0  0  0
 57 61  1  0  0  0
 59 60  1  0  0  0
 61 62  1  0  0  0
 61 67  1  0  0  0
 62 63  1  0  0  0
 62 65  1  0  0  0
 63 64  2  0  0  0
 63 68  1  0  0  0
 65 66  1  0  0  0
 66 67  1  0  0  0
 68 69  1  0  0  0
 68 74  1  0  0  0
 69 70  1  0  0  0
 69 72  1  0  0  0
 70 71  2  0  0  0
 70 75  1  0  0  0
 72 73  1  0  0  0
 73 74  1  0  0  0
 75 76  1  0  0  0
 76 77  1  0  0  0
 76 79  1  0  0  0
 77 78  2  0  0  0
 77 84  1  0  0  0
 79 80  1  0  0  0
 80 81  1  0  0  0
 81 82  2  0  0  0
 81 83  1  0  0  0
 84 85  1  0  0  0
 85 86  1  0  0  0
 85 88  1  0  0  0
 86 87  2  0  0  0
 86 93  1  0  0  0
 88 89  1  0  0  0
 89 90  1  0  0  0
 90 91  2  0  0  0
 90 92  1  0  0  0
 93 94  1  0  0  0
 94 95  1  0  0  0
 94 97  1  0  0  0
 95 96  2  0  0  0
 95101  1  0  0  0
 97 98  1  0  0  0
 97 99  1  0  0  0
 98100  1  0  0  0
101102  1  0  0  0
102103  1  0  0  0
102105  1  0  0  0
103104  1  0  0  0
103107  2  0  0  0
105106  1  0  0  0
  1108  1  0  0  0
  1109  1  0  0  0
  1110  1  0  0  0
  2111  1  0  0  0
  5112  1  0  0  0
  5113  1  0  0  0
  7114  1  0  0  0
  8115  1  0  0  0
  9116  1  0  0  0
  9117  1  0  0  0
 12118  1  0  0  0
 15119  1  0  0  0
 16120  1  0  0  0
 19121  1  0  0  0
 22122  1  0  0  0
 23123  1  0  0  0
 26124  1  0  0  0
 27125  1  0  0  0
 28126  1  0  0  0
 28127  1  0  0  0
 28128  1  0  0  0
 29129  1  0  0  0
 30130  1  0  0  0
 33131  1  0  0  0
 34132  1  0  0  0
 35133  1  0  0  0
 35134  1  0  0  0
 35135  1  0  0  0
 36136  1  0  0  0
 37137  1  0  0  0
 40138  1  0  0  0
 40139  1  0  0  0
 41140  1  0  0  0
 41141  1  0  0  0
 42142  1  0  0  0
 42143  1  0  0  0
 43144  1  0  0  0
 45145  1  0  0  0
 46146  1  0  0  0
 46147  1  0  0  0
 47148  1  0  0  0
 48149  1  0  0  0
 51150  1  0  0  0
 51151  1  0  0  0
 52152  1  0  0  0
 52153  1  0  0  0
 54154  1  0  0  0
 54155  1  0  0  0
 54156  1  0  0  0
 55157  1  0  0  0
 56158  1  0  0  0
 59159  1  0  0  0
 59160  1  0  0  0
 60161  1  0  0  0
 62162  1  0  0  0
 65163  1  0  0  0
 65164  1  0  0  0
 66165  1  0  0  0
 66166  1  0  0  0
 67167  1  0  0  0
 67168  1  0  0  0
 69169  1  0  0  0
 72170  1  0  0  0
 72171  1  0  0  0
 73172  1  0  0  0
 73173  1  0  0  0
 74174  1  0  0  0
 74175  1  0  0  0
 75176  1  0  0  0
 76177  1  0  0  0
 79178  1  0  0  0
 79179  1  0  0  0
 80180  1  0  0  0
 80181  1  0  0  0
 83182  1  0  0  0
 83183  1  0  0  0
 84184  1  0  0  0
 85185  1  0  0  0
 88186  1  0  0  0
 88187  1  0  0  0
 89188  1  0  0  0
 89189  1  0  0  0
 92190  1  0  0  0
 92191  1  0  0  0
 93192  1  0  0  0
 94193  1  0  0  0
 97194  1  0  0  0
 98195  1  0  0  0
 98196  1  0  0  0
 99197  1  0  0  0
 99198  1  0  0  0
 99199  1  0  0  0
100200  1  0  0  0
100201  1  0  0  0
100202  1  0  0  0
101203  1  0  0  0
102204  1  0  0  0
104205  1  0  0  0
105206  1  0  0  0
105207  1  0  0  0
M  END
$$$$
