1w3k_ligand
  -I-interpret- 

 43 44  0  0  0  0  0  0  0  0999 V2000
   61.3170   47.7350   36.3720 C   0  0  0  0  0
   60.6690   48.6770   37.3990 C   0  0  0  0  0
   59.1680   48.4110   37.5300 C   0  0  0  0  0
   58.9480   46.9260   37.8160 C   0  0  0  0  0
   57.4890   46.5200   37.9400 C   0  0  0  0  0
   60.9700   46.2910   36.7050 C   0  0  0  0  0
   62.7210   47.9140   36.3200 O   0  0  0  0  0
   60.8770   50.0310   37.0260 O   0  0  0  0  0
   58.6050   49.1900   38.5770 O   0  0  0  0  0
   59.5490   46.1750   36.7550 O   0  0  0  0  0
   56.8470   46.7590   36.6990 O   0  0  0  0  0
   63.3200   43.9820   37.3350 C   0  0  0  0  0
   62.6850   43.5230   36.0370 C   0  0  0  0  0
   61.2830   44.1120   35.8030 C   0  0  0  0  0
   60.6870   43.5210   34.5170 C   0  0  0  0  0
   60.6940   41.9790   34.5970 C   0  0  0  0  0
   62.4830   43.6730   38.4460 O   0  0  0  0  0
   62.5750   42.1090   36.1740 O   0  0  0  0  0
   61.3510   45.5240   35.6570 O   0  0  0  0  0
   59.3770   43.9260   34.2980 O   0  0  0  0  0
   62.0470   41.5380   34.9520 N   0  3  0  0  0
   60.9208   47.9779   35.3860 H   0  0  0  0  0
   61.1400   48.4866   38.3634 H   0  0  0  0  0
   58.6773   48.6890   36.5972 H   0  0  0  0  0
   59.4021   46.7197   38.7852 H   0  0  0  0  0
   57.0070   47.1018   38.7257 H   0  0  0  0  0
   57.4181   45.4632   38.1975 H   0  0  0  0  0
   61.4453   45.9972   37.6409 H   0  0  0  0  0
   62.9181   48.8296   36.1090 H   0  0  0  0  0
   61.8188   50.1980   36.9438 H   0  0  0  0  0
   58.7459   50.1215   38.3925 H   0  0  0  0  0
   55.9232   46.5063   36.7640 H   0  0  0  0  0
   63.4634   45.0617   37.2931 H   0  0  0  0  0
   64.2734   43.4687   37.4602 H   0  0  0  0  0
   63.2884   43.8480   35.1894 H   0  0  0  0  0
   60.6600   43.8655   36.6628 H   0  0  0  0  0
   61.3055   43.8827   33.6956 H   0  0  0  0  0
   60.4046   41.5551   33.6354 H   0  0  0  0  0
   59.9828   41.6422   35.3512 H   0  0  0  0  0
   62.9040   43.9719   39.2553 H   0  0  0  0  0
   59.0526   43.5308   33.4855 H   0  0  0  0  0
   62.6627   41.8382   34.1962 H   0  0  0  0  0
   62.0004   40.5290   35.0941 H   0  0  0  0  0
  1  2  1  0  0  0
  6  1  1  0  0  0
  1  7  1  0  0  0
  2  3  1  0  0  0
  2  8  1  0  0  0
  4  3  1  0  0  0
  3  9  1  0  0  0
  4  5  1  0  0  0
 10  4  1  0  0  0
  5 11  1  0  0  0
  6 10  1  0  0  0
 19  6  1  0  0  0
 13 12  1  0  0  0
 12 17  1  0  0  0
 14 13  1  0  0  0
 13 18  1  0  0  0
 14 15  1  0  0  0
 14 19  1  0  0  0
 15 16  1  0  0  0
 15 20  1  0  0  0
 16 21  1  0  0  0
 18 21  1  0  0  0
  1 22  1  0  0  0
  2 23  1  0  0  0
  3 24  1  0  0  0
  4 25  1  0  0  0
  5 26  1  0  0  0
  5 27  1  0  0  0
  6 28  1  0  0  0
  7 29  1  0  0  0
  8 30  1  0  0  0
  9 31  1  0  0  0
 11 32  1  0  0  0
 12 33  1  0  0  0
 12 34  1  0  0  0
 13 35  1  0  0  0
 14 36  1  0  0  0
 15 37  1  0  0  0
 16 38  1  0  0  0
 16 39  1  0  0  0
 17 40  1  0  0  0
 20 41  1  0  0  0
 21 42  1  0  0  0
 21 43  1  0  0  0
M  END
$$$$
