5t23_ligand
  -I-interpret- 

 53 57  0  0  0  0  0  0  0  0999 V2000
  -42.6080   16.0330  -33.5070 C   0  0  0  0  0
  -43.8780   16.5640  -33.4680 C   0  0  0  0  0
  -42.1890   15.0690  -32.6180 C   0  0  0  0  0
  -44.3910   15.2060  -31.6590 C   0  0  0  0  0
  -48.4710   15.3240  -30.5250 C   0  0  0  0  0
  -46.3930   14.4940  -30.3660 C   0  0  0  0  0
  -46.8730   13.3880  -29.6880 C   0  0  0  0  0
  -49.3940   16.3320  -30.9770 C   0  0  0  0  0
  -50.1350   18.0180  -32.0000 C   0  0  0  0  0
  -50.3810   21.1240  -31.4490 C   0  0  0  0  0
  -48.8950   21.1180  -33.2920 C   0  0  0  0  0
  -49.5380   22.1870  -30.7830 C   0  0  0  0  0
  -48.0740   22.1810  -32.5960 C   0  0  0  0  0
  -50.3380   19.2270  -32.8140 C   0  0  0  0  0
  -49.0160   17.3570  -31.8070 N   0  0  0  0  0
  -44.1670   13.6970  -30.0490 N   0  0  0  0  0
  -45.0120   14.5690  -30.6190 N   0  0  0  0  0
  -45.9890   12.3920  -29.2670 N   0  0  0  0  0
  -44.8200   16.1720  -32.5420 C   0  0  0  0  0
  -48.9540   14.2280  -29.8480 C   0  0  0  0  0
  -43.1240   14.6650  -31.6830 C   0  0  0  0  0
  -50.0550   18.9220  -34.2700 C   0  0  0  0  0
  -52.5280   17.7870  -31.2210 C   0  0  0  0  0
  -48.1730   13.2380  -29.4150 N   0  0  0  0  0
  -43.0070   13.7400  -30.6860 N   0  0  0  0  0
  -47.1740   15.4890  -30.8050 N   0  0  0  0  0
  -50.6900   16.3280  -30.6450 N   0  0  0  0  0
  -51.1330   17.4070  -31.3000 N   0  0  0  0  0
  -49.5050   20.2890  -32.2610 N   0  3  0  0  0
  -48.9420   22.9880  -31.8000 O   0  0  0  0  0
  -41.9116   16.3877  -34.2668 H   0  0  0  0  0
  -44.1491   17.3254  -34.1994 H   0  0  0  0  0
  -41.1831   14.6504  -32.6493 H   0  0  0  0  0
  -51.1422   21.5883  -32.0759 H   0  0  0  0  0
  -50.8829   20.5175  -30.6951 H   0  0  0  0  0
  -48.2625   20.5133  -33.9419 H   0  0  0  0  0
  -49.6626   21.5770  -33.9150 H   0  0  0  0  0
  -48.7643   21.7221  -30.1719 H   0  0  0  0  0
  -50.1595   22.8059  -30.1359 H   0  0  0  0  0
  -47.5703   22.8017  -33.3371 H   0  0  0  0  0
  -47.3234   21.7101  -31.9612 H   0  0  0  0  0
  -51.3729   19.5676  -32.7802 H   0  0  0  0  0
  -44.9913   12.4809  -29.4596 H   0  0  0  0  0
  -46.3411   11.5757  -28.7669 H   0  0  0  0  0
  -45.8249   16.5930  -32.5108 H   0  0  0  0  0
  -50.0253   14.1662  -29.6567 H   0  0  0  0  0
  -49.0235   18.5859  -34.3757 H   0  0  0  0  0
  -50.7307   18.1389  -34.6138 H   0  0  0  0  0
  -50.2078   19.8225  -34.8649 H   0  0  0  0  0
  -52.6064   18.7933  -30.8095 H   0  0  0  0  0
  -52.9660   17.7660  -32.2189 H   0  0  0  0  0
  -53.0580   17.0867  -30.5754 H   0  0  0  0  0
  -48.7439   19.8709  -31.7259 H   0  0  0  0  0
  2  1  4  0  0  0
  3  1  4  0  0  0
 19  2  4  0  0  0
 21  3  4  0  0  0
 17  4  4  0  0  0
  4 19  4  0  0  0
  4 21  4  0  0  0
  8  5  1  0  0  0
  5 20  4  0  0  0
  5 26  4  0  0  0
  6  7  4  0  0  0
  6 17  1  0  0  0
 26  6  4  0  0  0
  7 18  1  0  0  0
  7 24  4  0  0  0
 15  8  4  0  0  0
  8 27  4  0  0  0
 14  9  1  0  0  0
  9 15  4  0  0  0
  9 28  4  0  0  0
 10 12  1  0  0  0
 29 10  1  0  0  0
 11 13  1  0  0  0
 29 11  1  0  0  0
 12 30  1  0  0  0
 13 30  1  0  0  0
 14 22  1  0  0  0
 14 29  1  0  0  0
 17 16  4  0  0  0
 16 25  4  0  0  0
 20 24  4  0  0  0
 21 25  4  0  0  0
 28 23  1  0  0  0
 27 28  4  0  0  0
  1 31  1  0  0  0
  2 32  1  0  0  0
  3 33  1  0  0  0
 10 34  1  0  0  0
 10 35  1  0  0  0
 11 36  1  0  0  0
 11 37  1  0  0  0
 12 38  1  0  0  0
 12 39  1  0  0  0
 13 40  1  0  0  0
 13 41  1  0  0  0
 14 42  1  0  0  0
 18 43  1  0  0  0
 18 44  1  0  0  0
 19 45  1  0  0  0
 20 46  1  0  0  0
 22 47  1  0  0  0
 22 48  1  0  0  0
 22 49  1  0  0  0
 23 50  1  0  0  0
 23 51  1  0  0  0
 23 52  1  0  0  0
 29 53  1  0  0  0
M  END
$$$$
