5wh5_ligand
  -I-interpret- 

 42 43  0  0  0  0  0  0  0  0999 V2000
    7.8460   -3.0620   61.0070 F   0  0  0  0  0
    6.5600   -2.7290   61.3220 C   0  0  0  0  0
    6.4590   -1.3800   61.4950 F   0  0  0  0  0
    5.7120   -3.1580   60.2640 O   0  0  0  0  0
    5.7600   -2.6750   58.9750 C   0  0  0  0  0
    4.8370   -3.1860   58.0800 C   0  0  0  0  0
    3.9530   -4.1370   58.5130 O   0  0  0  0  0
    2.7840   -4.4940   57.7500 C   0  0  0  0  0
    2.9920   -5.8760   57.1700 C   0  0  0  0  0
    2.5930   -6.7550   58.2290 O   0  0  0  0  0
    1.7140   -6.0800   59.1310 C   0  0  0  0  0
    1.6140   -4.6480   58.6890 C   0  0  0  0  0
    6.6660   -1.7010   58.5430 C   0  0  0  0  0
    6.6390   -1.2570   57.2220 C   0  0  0  0  0
    5.7070   -1.7790   56.3250 C   0  0  0  0  0
    4.8130   -2.7410   56.7610 C   0  0  0  0  0
    5.5920   -1.3430   54.8920 C   0  0  0  0  0
    4.5240   -1.5210   54.3150 O   0  0  0  0  0
    6.7290   -0.6800   54.1500 C   0  0  0  0  0
    7.2850   -1.6260   53.0960 C   0  0  0  0  0
    8.4040   -0.9570   52.2910 C   0  0  0  0  0
    7.7430   -2.9170   53.7670 C   0  0  0  0  0
    6.2624   -3.2151   62.2511 H   0  0  0  0  0
    2.6127   -3.7334   56.9883 H   0  0  0  0  0
    4.0226   -6.0440   56.8575 H   0  0  0  0  0
    2.4147   -6.0349   56.2592 H   0  0  0  0  0
    2.1002   -6.1359   60.1487 H   0  0  0  0  0
    0.7298   -6.5485   59.1221 H   0  0  0  0  0
    0.6602   -4.4208   58.2128 H   0  0  0  0  0
    1.6496   -3.9473   59.5232 H   0  0  0  0  0
    7.3947   -1.2883   59.2407 H   0  0  0  0  0
    7.3484   -0.4995   56.8889 H   0  0  0  0  0
    4.0830   -3.1544   56.0651 H   0  0  0  0  0
    7.5191   -0.4269   54.8570 H   0  0  0  0  0
    6.3609    0.2229   53.6628 H   0  0  0  0  0
    6.5014   -1.8758   52.3806 H   0  0  0  0  0
    8.0114   -0.0705   51.7929 H   0  0  0  0  0
    9.2119   -0.6695   52.9638 H   0  0  0  0  0
    8.7819   -1.6568   51.5456 H   0  0  0  0  0
    8.5182   -2.6895   54.4987 H   0  0  0  0  0
    6.8954   -3.3854   54.2674 H   0  0  0  0  0
    8.1415   -3.5955   53.0127 H   0  0  0  0  0
  1  2  1  0  0  0
  2  3  1  0  0  0
  2  4  1  0  0  0
  4  5  1  0  0  0
  5  6  4  0  0  0
  5 13  4  0  0  0
  6  7  1  0  0  0
  6 16  4  0  0  0
  7  8  1  0  0  0
  8  9  1  0  0  0
  8 12  1  0  0  0
  9 10  1  0  0  0
 10 11  1  0  0  0
 11 12  1  0  0  0
 13 14  4  0  0  0
 14 15  4  0  0  0
 15 16  4  0  0  0
 15 17  1  0  0  0
 17 18  2  0  0  0
 17 19  1  0  0  0
 19 20  1  0  0  0
 20 21  1  0  0  0
 20 22  1  0  0  0
  2 23  1  0  0  0
  8 24  1  0  0  0
  9 25  1  0  0  0
  9 26  1  0  0  0
 11 27  1  0  0  0
 11 28  1  0  0  0
 12 29  1  0  0  0
 12 30  1  0  0  0
 13 31  1  0  0  0
 14 32  1  0  0  0
 16 33  1  0  0  0
 19 34  1  0  0  0
 19 35  1  0  0  0
 20 36  1  0  0  0
 21 37  1  0  0  0
 21 38  1  0  0  0
 21 39  1  0  0  0
 22 40  1  0  0  0
 22 41  1  0  0  0
 22 42  1  0  0  0
M  END
$$$$
