### 
### Created by X-TOOL on Mon Sep 10 21:12:53 2018
### 

@<TRIPOS>MOLECULE
2a25_ligand
  135   136     1     0     0
SMALL
GAST_HUCK


@<TRIPOS>ATOM
      1 N           6.3170   51.9840   18.2250 N.4       1 LYS         0.2379
      2 CA          6.4910   51.2810   16.9210 C.3       1 LYS         0.0652
      3 C           5.2660   50.4240   16.5930 C.2       1 LYS         0.2292
      4 O           4.6140   49.8910   17.4970 O.2       1 LYS        -0.3905
      5 CB          7.7360   50.3890   16.9150 C.3       1 LYS         0.0080
      6 CG          9.0140   51.0180   17.3730 C.3       1 LYS        -0.0410
      7 CD          9.7980   50.0030   18.2120 C.3       1 LYS        -0.0123
      8 CE         11.1870   50.5030   18.5770 C.3       1 LYS        -0.0354
      9 NZ         11.3150   50.7250   20.0470 N.4       1 LYS         0.2185
     10 N           4.9460   50.3120   15.3060 N.am      1 PRO        -0.2471
     11 CA          3.9950   49.2910   14.8320 C.3       1 PRO         0.1339
     12 C           4.5010   47.8660   15.1130 C.2       1 PRO         0.2041
     13 O           5.7000   47.6110   15.0650 O.2       1 PRO        -0.3944
     14 CB          3.9190   49.5320   13.3130 C.3       1 PRO        -0.0104
     15 CG          5.0220   50.4590   12.9650 C.3       1 PRO        -0.0281
     16 CD          5.4360   51.1810   14.2180 C.3       1 PRO         0.0371
     17 N           3.5720   46.9670   15.4220 N.am      1 ALA        -0.2640
     18 CA          3.8910   45.6010   15.7670 C.3       1 ALA         0.1282
     19 C           2.9780   44.6980   14.9900 C.2       1 ALA         0.2036
     20 O           1.8250   45.0340   14.7590 O.2       1 ALA        -0.3944
     21 CB          3.7070   45.3660   17.2360 C.3       1 ALA        -0.0244
     22 N           3.5060   43.5500   14.5630 N.am      1 ALA        -0.2640
     23 CA          2.6920   42.5540   13.9050 C.3       1 ALA         0.1282
     24 C           2.7300   41.3670   14.8150 C.2       1 ALA         0.2036
     25 O           3.8100   40.9810   15.2960 O.2       1 ALA        -0.3944
     26 CB          3.2540   42.2080   12.5210 C.3       1 ALA        -0.0244
     27 N           1.5470   40.8170   15.0720 N.am      1 VAL        -0.2635
     28 CA          1.3750   39.6210   15.8670 C.3       1 VAL         0.1332
     29 C           1.2600   38.4600   14.8900 C.2       1 VAL         0.2042
     30 O           0.2390   38.3200   14.2040 O.2       1 VAL        -0.3944
     31 CB          0.1030   39.7220   16.7660 C.3       1 VAL        -0.0063
     32 CG1        -0.0480   38.5130   17.6450 C.3       1 VAL        -0.0584
     33 CG2         0.1480   40.9780   17.6060 C.3       1 VAL        -0.0584
     34 N           2.2950   37.6140   14.8620 N.am      1 VAL        -0.2635
     35 CA          2.4840   36.6130   13.8130 C.3       1 VAL         0.1332
     36 C           2.3260   35.2080   14.3650 C.2       1 VAL         0.2041
     37 O           2.9910   34.8320   15.3380 O.2       1 VAL        -0.3944
     38 CB          3.9220   36.7540   13.2070 C.3       1 VAL        -0.0063
     39 CG1         4.2170   35.6940   12.1090 C.3       1 VAL        -0.0584
     40 CG2         4.1220   38.1580   12.6670 C.3       1 VAL        -0.0584
     41 N           1.4760   34.4280   13.7090 N.am      1 ALA        -0.2640
     42 CA          1.2530   33.0350   14.0310 C.3       1 ALA         0.1284
     43 C           2.1930   32.1340   13.2300 C.2       1 ALA         0.2061
     44 O           2.6090   32.4920   12.1460 O.2       1 ALA        -0.3942
     45 CB         -0.2150   32.6680   13.7330 C.3       1 ALA        -0.0244
     46 N           2.4890   30.9410   13.7470 N.am      1 PRO        -0.2498
     47 CA          3.3820   29.9860   13.0770 C.3       1 PRO         0.1338
     48 C           2.7950   29.1830   11.9020 C.2       1 PRO         0.2042
     49 O           1.6700   28.6460   11.9900 O.2       1 PRO        -0.3944
     50 CB          3.7390   29.0220   14.2000 C.3       1 PRO        -0.0104
     51 CG          2.5910   29.0580   15.1080 C.3       1 PRO        -0.0281
     52 CD          1.9940   30.4140   15.0330 C.3       1 PRO         0.0369
     53 N           3.5730   29.0850   10.8210 N.am      1 ILE        -0.2621
     54 CA          3.3340   28.0830    9.7660 C.3       1 ILE         0.1445
     55 C           3.8120   26.6360   10.1510 C.2       1 ILE         0.2573
     56 O           4.9870   26.3390   10.4630 O.2       1 ILE        -0.3680
     57 CB          3.9180   28.5490    8.3900 C.3       1 ILE        -0.0023
     58 CG1         3.7760   30.0630    8.2150 C.3       1 ILE        -0.0490
     59 CG2         3.2370   27.8020    7.2330 C.3       1 ILE        -0.0581
     60 CD1         4.4260   30.6090    6.9590 C.3       1 ILE        -0.0648
     61 O1          2.9068   25.6616   10.1448 O.3       1 ILE        -0.2910
     62 H1          7.1349   52.5405   18.4184 H         1 LYS         0.2015
     63 H2          6.1917   51.3045   18.9590 H         1 LYS         0.2015
     64 H3          5.5069   52.5820   18.1789 H         1 LYS         0.2015
     65 H4          6.6060   52.0434   16.1364 H         1 LYS         0.1098
     66 H5          7.8886   50.0361   15.8844 H         1 LYS         0.0346
     67 H6          7.5336   49.5294   17.5708 H         1 LYS         0.0346
     68 H7          8.7902   51.9057   17.9828 H         1 LYS         0.0270
     69 H8          9.6127   51.3148   16.4992 H         1 LYS         0.0270
     70 H9          9.8980   49.0709   17.6365 H         1 LYS         0.0317
     71 H10         9.2395   49.8038   19.1385 H         1 LYS         0.0317
     72 H11        11.3751   51.4521   18.0537 H         1 LYS         0.0813
     73 H12        11.9308   49.7566   18.2614 H         1 LYS         0.0813
     74 H13        12.2439   51.0552   20.2573 H         1 LYS         0.1994
     75 H14        11.1485   49.8580   20.5335 H         1 LYS         0.1994
     76 H15        10.6392   51.4117   20.3432 H         1 LYS         0.1994
     77 H16         3.0107   49.4297   15.3031 H         1 PRO         0.0802
     78 H17         2.9504   49.9820   13.0500 H         1 PRO         0.0313
     79 H18         4.0403   48.5813   12.7732 H         1 PRO         0.0313
     80 H19         5.8738   49.8911   12.5628 H         1 PRO         0.0287
     81 H20         4.6769   51.1840   12.2132 H         1 PRO         0.0287
     82 H21         6.5298   51.2880   14.2649 H         1 PRO         0.0524
     83 H22         4.9678   52.1750   14.2699 H         1 PRO         0.0524
     84 H23         2.6123   47.2480   15.4154 H         1 ALA         0.1883
     85 H24         4.9363   45.3902   15.4971 H         1 ALA         0.0797
     86 H25         3.9554   44.3212   17.4741 H         1 ALA         0.0277
     87 H26         2.6609   45.5660   17.5112 H         1 ALA         0.0277
     88 H27         4.3697   46.0382   17.8007 H         1 ALA         0.0277
     89 H28         4.4811   43.3758   14.7005 H         1 ALA         0.1883
     90 H29         1.6596   42.9169   13.7934 H         1 ALA         0.0797
     91 H30         2.6153   41.4493   12.0452 H         1 ALA         0.0277
     92 H31         4.2750   41.8129   12.6281 H         1 ALA         0.0277
     93 H32         3.2748   43.1135   11.8968 H         1 ALA         0.0277
     94 H33         0.7308   41.2546   14.6946 H         1 VAL         0.1883
     95 H34         2.2542   39.4763   16.5120 H         1 VAL         0.0802
     96 H35        -0.7765   39.7778   16.1077 H         1 VAL         0.0343
     97 H36        -0.9522   38.6192   18.2623 H         1 VAL         0.0234
     98 H37         0.8328   38.4218   18.2976 H         1 VAL         0.0234
     99 H38        -0.1352   37.6129   17.0187 H         1 VAL         0.0234
    100 H39         0.2586   41.8540   16.9500 H         1 VAL         0.0234
    101 H40         1.0027   40.9269   18.2966 H         1 VAL         0.0234
    102 H41        -0.7845   41.0672   18.1826 H         1 VAL         0.0234
    103 H42         2.9734   37.6685   15.5947 H         1 VAL         0.1883
    104 H43         1.7359   36.7767   13.0234 H         1 VAL         0.0802
    105 H44         4.6442   36.5962   14.0215 H         1 VAL         0.0343
    106 H45         5.2360   35.8411   11.7217 H         1 VAL         0.0234
    107 H46         3.4933   35.8051   11.2881 H         1 VAL         0.0234
    108 H47         4.1306   34.6857   12.5401 H         1 VAL         0.0234
    109 H48         3.9080   38.8897   13.4599 H         1 VAL         0.0234
    110 H49         3.4406   38.3256   11.8199 H         1 VAL         0.0234
    111 H50         5.1623   38.2765   12.3298 H         1 VAL         0.0234
    112 H51         0.9607   34.8252   12.9496 H         1 ALA         0.1883
    113 H52         1.4485   32.8833   15.1028 H         1 ALA         0.0797
    114 H53        -0.3851   31.6091   13.9776 H         1 ALA         0.0277
    115 H54        -0.4259   32.8364   12.6666 H         1 ALA         0.0277
    116 H55        -0.8811   33.2966   14.3422 H         1 ALA         0.0277
    117 H56         4.2747   30.5171   12.7151 H         1 PRO         0.0802
    118 H57         4.6519   29.3519   14.7174 H         1 PRO         0.0313
    119 H58         3.8881   28.0062   13.8051 H         1 PRO         0.0313
    120 H59         1.8491   28.3054   14.8028 H         1 PRO         0.0287
    121 H60         2.9213   28.8512   16.1366 H         1 PRO         0.0287
    122 H61         0.8953   30.3601   15.0385 H         1 PRO         0.0524
    123 H62         2.3346   31.0398   15.8710 H         1 PRO         0.0524
    124 H63         4.3449   29.7133   10.7236 H         1 ILE         0.1885
    125 H64         2.2430   28.0218    9.6399 H         1 ILE         0.0819
    126 H65         4.9900   28.3029    8.3732 H         1 ILE         0.0346
    127 H66         4.2377   30.5551    9.0837 H         1 ILE         0.0267
    128 H67         2.7039   30.3071    8.1821 H         1 ILE         0.0267
    129 H68         3.3512   26.7177    7.3790 H         1 ILE         0.0235
    130 H69         3.7047   28.0951    6.2815 H         1 ILE         0.0235
    131 H70         2.1675   28.0582    7.2101 H         1 ILE         0.0235
    132 H71         4.2771   31.6979    6.9128 H         1 ILE         0.0230
    133 H72         3.9694   30.1387    6.0757 H         1 ILE         0.0230
    134 H73         5.5031   30.3867    6.9772 H         1 ILE         0.0230
    135 H74         2.0625   26.0168    9.8930 H         1 ILE         0.2540
@<TRIPOS>BOND
     1    2    1 1  
     2    2    5 1  
     3    3    2 1  
     4    3    4 2  
     5    5    6 1  
     6    6    7 1  
     7    7    8 1  
     8    8    9 1  
     9   12   11 1  
    10   11   14 1  
    11   11   10 1  
    12   10   16 1  
    13   16   15 1  
    14   14   15 1  
    15   12   13 2  
    16   10    3 am 
    17   18   17 1  
    18   18   21 1  
    19   19   18 1  
    20   19   20 2  
    21   17   12 am 
    22   23   22 1  
    23   23   26 1  
    24   24   23 1  
    25   24   25 2  
    26   22   19 am 
    27   28   27 1  
    28   28   31 1  
    29   29   28 1  
    30   29   30 2  
    31   31   33 1  
    32   31   32 1  
    33   27   24 am 
    34   35   34 1  
    35   35   38 1  
    36   36   35 1  
    37   36   37 2  
    38   38   40 1  
    39   38   39 1  
    40   34   29 am 
    41   42   41 1  
    42   42   45 1  
    43   43   42 1  
    44   43   44 2  
    45   41   36 am 
    46   48   47 1  
    47   47   50 1  
    48   47   46 1  
    49   46   52 1  
    50   52   51 1  
    51   50   51 1  
    52   48   49 2  
    53   46   43 am 
    54   53   54 1  
    55   54   57 1  
    56   54   55 1  
    57   55   56 2  
    58   57   59 1  
    59   57   58 1  
    60   58   60 1  
    61   48   53 am 
    62   55   61 1  
    63    1   62 1  
    64    1   63 1  
    65    1   64 1  
    66    2   65 1  
    67    5   66 1  
    68    5   67 1  
    69    6   68 1  
    70    6   69 1  
    71    7   70 1  
    72    7   71 1  
    73    8   72 1  
    74    8   73 1  
    75    9   74 1  
    76    9   75 1  
    77    9   76 1  
    78   11   77 1  
    79   14   78 1  
    80   14   79 1  
    81   15   80 1  
    82   15   81 1  
    83   16   82 1  
    84   16   83 1  
    85   17   84 1  
    86   18   85 1  
    87   21   86 1  
    88   21   87 1  
    89   21   88 1  
    90   22   89 1  
    91   23   90 1  
    92   26   91 1  
    93   26   92 1  
    94   26   93 1  
    95   27   94 1  
    96   28   95 1  
    97   31   96 1  
    98   32   97 1  
    99   32   98 1  
   100   32   99 1  
   101   33  100 1  
   102   33  101 1  
   103   33  102 1  
   104   34  103 1  
   105   35  104 1  
   106   38  105 1  
   107   39  106 1  
   108   39  107 1  
   109   39  108 1  
   110   40  109 1  
   111   40  110 1  
   112   40  111 1  
   113   41  112 1  
   114   42  113 1  
   115   45  114 1  
   116   45  115 1  
   117   45  116 1  
   118   47  117 1  
   119   50  118 1  
   120   50  119 1  
   121   51  120 1  
   122   51  121 1  
   123   52  122 1  
   124   52  123 1  
   125   53  124 1  
   126   54  125 1  
   127   57  126 1  
   128   58  127 1  
   129   58  128 1  
   130   59  129 1  
   131   59  130 1  
   132   59  131 1  
   133   60  132 1  
   134   60  133 1  
   135   60  134 1  
   136   61  135 1  
@<TRIPOS>SUBSTRUCTURE
     1 LYS         1

