2a25_ligand
  -I-interpret- 

135136  0  0  0  0  0  0  0  0999 V2000
    6.3170   51.9840   18.2250 N   0  3  0  0  0
    6.4910   51.2810   16.9210 C   0  0  0  0  0
    5.2660   50.4240   16.5930 C   0  0  0  0  0
    4.6140   49.8910   17.4970 O   0  0  0  0  0
    7.7360   50.3890   16.9150 C   0  0  0  0  0
    9.0140   51.0180   17.3730 C   0  0  0  0  0
    9.7980   50.0030   18.2120 C   0  0  0  0  0
   11.1870   50.5030   18.5770 C   0  0  0  0  0
   11.3150   50.7250   20.0470 N   0  3  0  0  0
    4.9460   50.3120   15.3060 N   0  0  0  0  0
    3.9950   49.2910   14.8320 C   0  0  0  0  0
    4.5010   47.8660   15.1130 C   0  0  0  0  0
    5.7000   47.6110   15.0650 O   0  0  0  0  0
    3.9190   49.5320   13.3130 C   0  0  0  0  0
    5.0220   50.4590   12.9650 C   0  0  0  0  0
    5.4360   51.1810   14.2180 C   0  0  0  0  0
    3.5720   46.9670   15.4220 N   0  0  0  0  0
    3.8910   45.6010   15.7670 C   0  0  0  0  0
    2.9780   44.6980   14.9900 C   0  0  0  0  0
    1.8250   45.0340   14.7590 O   0  0  0  0  0
    3.7070   45.3660   17.2360 C   0  0  0  0  0
    3.5060   43.5500   14.5630 N   0  0  0  0  0
    2.6920   42.5540   13.9050 C   0  0  0  0  0
    2.7300   41.3670   14.8150 C   0  0  0  0  0
    3.8100   40.9810   15.2960 O   0  0  0  0  0
    3.2540   42.2080   12.5210 C   0  0  0  0  0
    1.5470   40.8170   15.0720 N   0  0  0  0  0
    1.3750   39.6210   15.8670 C   0  0  0  0  0
    1.2600   38.4600   14.8900 C   0  0  0  0  0
    0.2390   38.3200   14.2040 O   0  0  0  0  0
    0.1030   39.7220   16.7660 C   0  0  0  0  0
   -0.0480   38.5130   17.6450 C   0  0  0  0  0
    0.1480   40.9780   17.6060 C   0  0  0  0  0
    2.2950   37.6140   14.8620 N   0  0  0  0  0
    2.4840   36.6130   13.8130 C   0  0  0  0  0
    2.3260   35.2080   14.3650 C   0  0  0  0  0
    2.9910   34.8320   15.3380 O   0  0  0  0  0
    3.9220   36.7540   13.2070 C   0  0  0  0  0
    4.2170   35.6940   12.1090 C   0  0  0  0  0
    4.1220   38.1580   12.6670 C   0  0  0  0  0
    1.4760   34.4280   13.7090 N   0  0  0  0  0
    1.2530   33.0350   14.0310 C   0  0  0  0  0
    2.1930   32.1340   13.2300 C   0  0  0  0  0
    2.6090   32.4920   12.1460 O   0  0  0  0  0
   -0.2150   32.6680   13.7330 C   0  0  0  0  0
    2.4890   30.9410   13.7470 N   0  0  0  0  0
    3.3820   29.9860   13.0770 C   0  0  0  0  0
    2.7950   29.1830   11.9020 C   0  0  0  0  0
    1.6700   28.6460   11.9900 O   0  0  0  0  0
    3.7390   29.0220   14.2000 C   0  0  0  0  0
    2.5910   29.0580   15.1080 C   0  0  0  0  0
    1.9940   30.4140   15.0330 C   0  0  0  0  0
    3.5730   29.0850   10.8210 N   0  0  0  0  0
    3.3340   28.0830    9.7660 C   0  0  0  0  0
    3.8120   26.6360   10.1510 C   0  0  0  0  0
    4.9870   26.3390   10.4630 O   0  0  0  0  0
    3.9180   28.5490    8.3900 C   0  0  0  0  0
    3.7760   30.0630    8.2150 C   0  0  0  0  0
    3.2370   27.8020    7.2330 C   0  0  0  0  0
    4.4260   30.6090    6.9590 C   0  0  0  0  0
    2.9068   25.6616   10.1448 O   0  0  0  0  0
    7.1451   52.5468   18.4196 H   0  0  0  0  0
    5.4970   52.5887   18.1771 H   0  0  0  0  0
    6.1903   51.2955   18.9668 H   0  0  0  0  0
    6.6112   52.0557   16.1637 H   0  0  0  0  0
    7.8968   50.1041   15.8752 H   0  0  0  0  0
    7.5302   49.5808   17.6168 H   0  0  0  0  0
    8.7943   51.9001   17.9745 H   0  0  0  0  0
    9.6071   51.3161   16.5084 H   0  0  0  0  0
    9.9110   49.0933   17.6222 H   0  0  0  0  0
    9.2470   49.8324   19.1369 H   0  0  0  0  0
   11.3596   51.4507   18.0669 H   0  0  0  0  0
   11.9165   49.7516   18.2750 H   0  0  0  0  0
   12.2552   51.0591   20.2586 H   0  0  0  0  0
   10.6307   51.4200   20.3455 H   0  0  0  0  0
   11.1463   49.8471   20.5382 H   0  0  0  0  0
    3.0310   49.3714   15.3344 H   0  0  0  0  0
    2.9548   49.9598   13.0384 H   0  0  0  0  0
    4.0183   48.5931   12.7683 H   0  0  0  0  0
    5.8653   49.9034   12.5547 H   0  0  0  0  0
    4.6899   51.1731   12.2114 H   0  0  0  0  0
    6.5132   51.3396   14.2679 H   0  0  0  0  0
    5.0206   52.1872   14.2727 H   0  0  0  0  0
    2.5931   47.2536   15.4152 H   0  0  0  0  0
    4.9332   45.3960   15.5223 H   0  0  0  0  0
    4.3641   46.0327   17.7944 H   0  0  0  0  0
    2.6702   45.5646   17.5074 H   0  0  0  0  0
    3.9534   44.3305   17.4707 H   0  0  0  0  0
    4.5006   43.3723   14.7033 H   0  0  0  0  0
    1.6745   42.9051   13.7335 H   0  0  0  0  0
    3.2741   43.1060   11.9035 H   0  0  0  0  0
    4.2657   41.8167   12.6285 H   0  0  0  0  0
    2.6204   41.4562   12.0505 H   0  0  0  0  0
    0.7145   41.2633   14.6871 H   0  0  0  0  0
    2.2198   39.4801   16.5412 H   0  0  0  0  0
   -0.7645   39.7670   16.1076 H   0  0  0  0  0
   -0.1343   37.6219   17.0233 H   0  0  0  0  0
    0.8254   38.4237   18.2910 H   0  0  0  0  0
   -0.9442   38.6194   18.2562 H   0  0  0  0  0
    1.0322   40.9560   18.2430 H   0  0  0  0  0
    0.1910   41.8493   16.9525 H   0  0  0  0  0
   -0.7469   41.0311   18.2261 H   0  0  0  0  0
    2.9869   37.6696   15.6093 H   0  0  0  0  0
    1.7278   36.7800   13.0459 H   0  0  0  0  0
    4.6331   36.5712   14.0126 H   0  0  0  0  0
    4.1310   34.6954   12.5374 H   0  0  0  0  0
    3.4992   35.8051   11.2963 H   0  0  0  0  0
    5.2269   35.8408   11.7261 H   0  0  0  0  0
    3.3836   38.3556   11.8899 H   0  0  0  0  0
    4.0010   38.8779   13.4765 H   0  0  0  0  0
    5.1245   38.2454   12.2481 H   0  0  0  0  0
    0.9504   34.8331   12.9344 H   0  0  0  0  0
    1.4591   32.8824   15.0904 H   0  0  0  0  0
   -0.8739   33.2916   14.3372 H   0  0  0  0  0
   -0.4227   32.8353   12.6761 H   0  0  0  0  0
   -0.3823   31.6186   13.9758 H   0  0  0  0  0
    4.2007   30.5336   12.6101 H   0  0  0  0  0
    4.6617   29.3111   14.7031 H   0  0  0  0  0
    3.9265   28.0159   13.8249 H   0  0  0  0  0
    1.8571   28.3055   14.8193 H   0  0  0  0  0
    2.9089   28.8409   16.1278 H   0  0  0  0  0
    0.9054   30.3933   15.0834 H   0  0  0  0  0
    2.2783   31.0417   15.8776 H   0  0  0  0  0
    4.3603   29.7259   10.7217 H   0  0  0  0  0
    2.2516   28.0100    9.6607 H   0  0  0  0  0
    4.9811   28.3089    8.3767 H   0  0  0  0  0
    4.2735   30.5322    9.0638 H   0  0  0  0  0
    2.7100   30.2793    8.1447 H   0  0  0  0  0
    3.4057   26.7309    7.3445 H   0  0  0  0  0
    2.1665   28.0063    7.2505 H   0  0  0  0  0
    3.6574   28.1407    6.2861 H   0  0  0  0  0
    5.4932   30.3881    6.9783 H   0  0  0  0  0
    3.9728   30.1422    6.0845 H   0  0  0  0  0
    4.2778   31.6879    6.9143 H   0  0  0  0  0
    2.0536   26.0206    9.8903 H   0  0  0  0  0
  2  1  1  0  0  0
  2  5  1  0  0  0
  3  2  1  0  0  0
  3  4  2  0  0  0
  5  6  1  0  0  0
  6  7  1  0  0  0
  7  8  1  0  0  0
  8  9  1  0  0  0
 12 11  1  0  0  0
 11 14  1  0  0  0
 11 10  1  0  0  0
 10 16  1  0  0  0
 16 15  1  0  0  0
 14 15  1  0  0  0
 12 13  2  0  0  0
 10  3  1  0  0  0
 18 17  1  0  0  0
 18 21  1  0  0  0
 19 18  1  0  0  0
 19 20  2  0  0  0
 17 12  1  0  0  0
 23 22  1  0  0  0
 23 26  1  0  0  0
 24 23  1  0  0  0
 24 25  2  0  0  0
 22 19  1  0  0  0
 28 27  1  0  0  0
 28 31  1  0  0  0
 29 28  1  0  0  0
 29 30  2  0  0  0
 31 33  1  0  0  0
 31 32  1  0  0  0
 27 24  1  0  0  0
 35 34  1  0  0  0
 35 38  1  0  0  0
 36 35  1  0  0  0
 36 37  2  0  0  0
 38 40  1  0  0  0
 38 39  1  0  0  0
 34 29  1  0  0  0
 42 41  1  0  0  0
 42 45  1  0  0  0
 43 42  1  0  0  0
 43 44  2  0  0  0
 41 36  1  0  0  0
 48 47  1  0  0  0
 47 50  1  0  0  0
 47 46  1  0  0  0
 46 52  1  0  0  0
 52 51  1  0  0  0
 50 51  1  0  0  0
 48 49  2  0  0  0
 46 43  1  0  0  0
 53 54  1  0  0  0
 54 57  1  0  0  0
 54 55  1  0  0  0
 55 56  2  0  0  0
 57 59  1  0  0  0
 57 58  1  0  0  0
 58 60  1  0  0  0
 48 53  1  0  0  0
 55 61  1  0  0  0
  1 62  1  0  0  0
  1 63  1  0  0  0
  1 64  1  0  0  0
  2 65  1  0  0  0
  5 66  1  0  0  0
  5 67  1  0  0  0
  6 68  1  0  0  0
  6 69  1  0  0  0
  7 70  1  0  0  0
  7 71  1  0  0  0
  8 72  1  0  0  0
  8 73  1  0  0  0
  9 74  1  0  0  0
  9 75  1  0  0  0
  9 76  1  0  0  0
 11 77  1  0  0  0
 14 78  1  0  0  0
 14 79  1  0  0  0
 15 80  1  0  0  0
 15 81  1  0  0  0
 16 82  1  0  0  0
 16 83  1  0  0  0
 17 84  1  0  0  0
 18 85  1  0  0  0
 21 86  1  0  0  0
 21 87  1  0  0  0
 21 88  1  0  0  0
 22 89  1  0  0  0
 23 90  1  0  0  0
 26 91  1  0  0  0
 26 92  1  0  0  0
 26 93  1  0  0  0
 27 94  1  0  0  0
 28 95  1  0  0  0
 31 96  1  0  0  0
 32 97  1  0  0  0
 32 98  1  0  0  0
 32 99  1  0  0  0
 33100  1  0  0  0
 33101  1  0  0  0
 33102  1  0  0  0
 34103  1  0  0  0
 35104  1  0  0  0
 38105  1  0  0  0
 39106  1  0  0  0
 39107  1  0  0  0
 39108  1  0  0  0
 40109  1  0  0  0
 40110  1  0  0  0
 40111  1  0  0  0
 41112  1  0  0  0
 42113  1  0  0  0
 45114  1  0  0  0
 45115  1  0  0  0
 45116  1  0  0  0
 47117  1  0  0  0
 50118  1  0  0  0
 50119  1  0  0  0
 51120  1  0  0  0
 51121  1  0  0  0
 52122  1  0  0  0
 52123  1  0  0  0
 53124  1  0  0  0
 54125  1  0  0  0
 57126  1  0  0  0
 58127  1  0  0  0
 58128  1  0  0  0
 59129  1  0  0  0
 59130  1  0  0  0
 59131  1  0  0  0
 60132  1  0  0  0
 60133  1  0  0  0
 60134  1  0  0  0
 61135  1  0  0  0
M  END
$$$$
