6bt0_ligand
  -I-interpret- 

 53 56  0  0  0  0  0  0  0  0999 V2000
   18.5770    3.2120  -24.3530 C   0  0  0  0  0
   16.4800    3.5670  -23.2520 C   0  0  0  0  0
   16.0090    2.3060  -23.6470 C   0  0  0  0  0
   19.7880    3.9230  -24.5490 C   0  0  0  0  0
   16.8490    1.4910  -24.4190 C   0  0  0  0  0
   19.6760    5.1470  -23.9110 C   0  0  0  0  0
   18.1340    1.9440  -24.7690 C   0  0  0  0  0
   20.7920    6.1500  -23.9320 C   0  0  0  0  0
   17.7540    4.0280  -23.5950 C   0  0  0  0  0
   12.5820    3.6790  -17.4760 Cl  0  0  0  0  0
   13.1110    3.1770  -19.1260 C   0  0  0  0  0
   13.3390    4.1200  -20.1300 C   0  0  0  0  0
   13.1130    5.8890  -19.8410 Cl  0  0  0  0  0
   13.7410    3.6800  -21.3970 C   0  0  0  0  0
   13.2890    1.8160  -19.4030 C   0  0  0  0  0
   13.7120    1.3870  -20.6640 C   0  0  0  0  0
   13.9430    2.3200  -21.6730 C   0  0  0  0  0
   14.4430    1.7820  -23.2110 S   0  0  0  0  0
   19.2900    0.8630  -25.8100 Br  0  0  0  0  0
   21.6770    6.0960  -23.0500 O   0  0  0  0  0
   20.8330    7.0010  -24.8550 O   0  0  0  0  0
   18.4290    5.1880  -23.3270 N   0  0  0  0  0
   17.7940    6.2700  -22.5370 C   0  0  0  0  0
   18.7060    7.1760  -21.7370 C   0  0  0  0  0
   19.5200    6.6460  -20.7330 C   0  0  0  0  0
   20.3510    7.4900  -19.9950 C   0  0  0  0  0
   18.7170    8.5530  -21.9830 C   0  0  0  0  0
   19.5500    9.3890  -21.2380 C   0  0  0  0  0
   20.3770    8.8580  -20.2400 C   0  0  0  0  0
   21.3070    9.6900  -19.3940 C   0  0  0  0  0
   20.8650   10.1000  -18.3320 O   0  0  0  0  0
   22.5780    9.9210  -19.7830 N   0  0  0  0  0
   23.2710   11.2060  -19.6350 C   0  0  0  0  0
   23.4090    8.8810  -20.3930 C   0  0  0  0  0
   15.8302    4.2091  -22.6573 H   0  0  0  0  0
   20.6558    3.5681  -25.1049 H   0  0  0  0  0
   16.5074    0.5093  -24.7470 H   0  0  0  0  0
   13.9009    4.4125  -22.1882 H   0  0  0  0  0
   13.0946    1.0798  -18.6231 H   0  0  0  0  0
   13.8609    0.3248  -20.8579 H   0  0  0  0  0
   20.0727    6.8852  -25.4295 H   0  0  0  0  0
   17.1623    5.7675  -21.8045 H   0  0  0  0  0
   17.3023    6.9158  -23.2646 H   0  0  0  0  0
   19.5061    5.5758  -20.5265 H   0  0  0  0  0
   20.9881    7.0709  -19.2162 H   0  0  0  0  0
   18.0747    8.9733  -22.7569 H   0  0  0  0  0
   19.5570   10.4612  -21.4339 H   0  0  0  0  0
   22.7299   11.9748  -20.1866 H   0  0  0  0  0
   23.3125   11.4755  -18.5797 H   0  0  0  0  0
   24.2835   11.1188  -20.0291 H   0  0  0  0  0
   23.5165    8.0489  -19.6971 H   0  0  0  0  0
   22.9353    8.5306  -21.3100 H   0  0  0  0  0
   24.3917    9.2921  -20.6243 H   0  0  0  0  0
  1  4  4  0  0  0
  7  1  4  0  0  0
  9  1  4  0  0  0
  3  2  4  0  0  0
  2  9  4  0  0  0
  3  5  4  0  0  0
 18  3  1  0  0  0
  4  6  4  0  0  0
  5  7  4  0  0  0
  6  8  1  0  0  0
 22  6  4  0  0  0
  7 19  1  0  0  0
  8 20  2  0  0  0
  8 21  1  0  0  0
  9 22  4  0  0  0
 11 10  1  0  0  0
 12 11  4  0  0  0
 15 11  4  0  0  0
 12 13  1  0  0  0
 14 12  4  0  0  0
 17 14  4  0  0  0
 16 15  4  0  0  0
 17 16  4  0  0  0
 17 18  1  0  0  0
 22 23  1  0  0  0
 23 24  1  0  0  0
 24 25  4  0  0  0
 24 27  4  0  0  0
 25 26  4  0  0  0
 26 29  4  0  0  0
 27 28  4  0  0  0
 28 29  4  0  0  0
 29 30  1  0  0  0
 30 31  2  0  0  0
 30 32  1  0  0  0
 32 33  1  0  0  0
 32 34  1  0  0  0
  2 35  1  0  0  0
  4 36  1  0  0  0
  5 37  1  0  0  0
 14 38  1  0  0  0
 15 39  1  0  0  0
 16 40  1  0  0  0
 21 41  1  0  0  0
 23 42  1  0  0  0
 23 43  1  0  0  0
 25 44  1  0  0  0
 26 45  1  0  0  0
 27 46  1  0  0  0
 28 47  1  0  0  0
 33 48  1  0  0  0
 33 49  1  0  0  0
 33 50  1  0  0  0
 34 51  1  0  0  0
 34 52  1  0  0  0
 34 53  1  0  0  0
M  END
$$$$
