4xt2_ligand
  -I-interpret- 

 36 39  0  0  0  0  0  0  0  0999 V2000
   15.1330   -0.5890   30.5970 C   0  0  0  0  0
   15.9230   -0.3160   31.6910 C   0  0  0  0  0
   16.8470   -1.7580   32.5340 Br  0  0  0  0  0
   16.0570    0.9590   32.1790 C   0  0  0  0  0
   15.3750    1.9770   31.5460 C   0  0  0  0  0
   14.5840    1.7130   30.4390 C   0  0  0  0  0
   14.4700    0.4040   29.9310 C   0  0  0  0  0
   13.6040    0.0490   28.7780 C   0  0  0  0  0
   12.1620    0.0900   29.0300 C   0  0  0  0  0
   13.8100    0.8720   27.6130 N   0  0  0  0  0
   15.0460    1.2320   27.0950 N   0  0  0  0  0
   14.7910    1.9160   26.0720 N   0  0  0  0  0
   13.4730    2.0670   25.8010 N   0  0  0  0  0
   12.8210    1.4000   26.7830 C   0  0  0  0  0
   11.5050    1.1780   27.0170 N   0  0  0  0  0
   11.2050    0.0440   27.9010 C   0  0  0  0  0
    9.7690   -0.1500   28.2220 C   0  0  0  0  0
    9.0310    0.9700   28.4990 C   0  0  0  0  0
    7.7270    0.8520   28.8250 C   0  0  0  0  0
    6.7600    2.4050   29.1830 Br  0  0  0  0  0
    7.0750   -0.3330   28.9010 C   0  0  0  0  0
    7.8030   -1.4840   28.6260 C   0  0  0  0  0
    9.1360   -1.4070   28.3160 C   0  0  0  0  0
   15.0340   -1.6190   30.2545 H   0  0  0  0  0
   16.6866    1.1624   33.0452 H   0  0  0  0  0
   15.4588    2.9976   31.9194 H   0  0  0  0  0
   14.0440    2.5274   29.9560 H   0  0  0  0  0
   13.9214   -0.9795   28.6061 H   0  0  0  0  0
   11.9951    1.0659   29.4860 H   0  0  0  0  0
   11.9601   -0.8215   29.5926 H   0  0  0  0  0
   10.7730    1.7584   26.6075 H   0  0  0  0  0
   11.3686   -0.8961   27.3741 H   0  0  0  0  0
    9.4962    1.9548   28.4562 H   0  0  0  0  0
    6.0193   -0.3817   29.1678 H   0  0  0  0  0
    7.3103   -2.4558   28.6570 H   0  0  0  0  0
    9.7077   -2.3185   28.1419 H   0  0  0  0  0
  1  2  4  0  0  0
  1  7  4  0  0  0
  2  3  1  0  0  0
  2  4  4  0  0  0
  4  5  4  0  0  0
  5  6  4  0  0  0
  6  7  4  0  0  0
  7  8  1  0  0  0
  8  9  1  0  0  0
  8 10  1  0  0  0
  9 16  1  0  0  0
 10 11  4  0  0  0
 10 14  4  0  0  0
 11 12  4  0  0  0
 12 13  4  0  0  0
 13 14  4  0  0  0
 14 15  1  0  0  0
 15 16  1  0  0  0
 16 17  1  0  0  0
 17 18  4  0  0  0
 17 23  4  0  0  0
 18 19  4  0  0  0
 19 20  1  0  0  0
 19 21  4  0  0  0
 21 22  4  0  0  0
 22 23  4  0  0  0
  1 24  1  0  0  0
  4 25  1  0  0  0
  5 26  1  0  0  0
  6 27  1  0  0  0
  8 28  1  0  0  0
  9 29  1  0  0  0
  9 30  1  0  0  0
 15 31  1  0  0  0
 16 32  1  0  0  0
 18 33  1  0  0  0
 21 34  1  0  0  0
 22 35  1  0  0  0
 23 36  1  0  0  0
M  END
$$$$
