3twv_ligand
  -I-interpret- 

192193  0  0  0  0  0  0  0  0999 V2000
  -27.4940  -17.3090   36.3660 N   0  3  0  0  0
  -27.2920  -18.7340   36.1030 C   0  0  0  0  0
  -26.7440  -19.0470   34.7010 C   0  0  0  0  0
  -26.9520  -18.2980   33.7410 O   0  0  0  0  0
  -28.5890  -19.5020   36.3130 C   0  0  0  0  0
  -29.5260  -19.4300   35.1200 C   0  0  0  0  0
  -30.0210  -20.7940   34.6820 C   0  0  0  0  0
  -29.5090  -21.8270   35.1200 O   0  0  0  0  0
  -31.0240  -20.8050   33.8130 N   0  0  0  0  0
  -26.0540  -20.1790   34.5980 N   0  0  0  0  0
  -25.2980  -20.5160   33.3980 C   0  0  0  0  0
  -26.1300  -21.2290   32.3350 C   0  0  0  0  0
  -26.7750  -22.2430   32.6050 O   0  0  0  0  0
  -24.0840  -21.3710   33.7680 C   0  0  0  0  0
  -23.0650  -21.5000   32.6560 C   0  0  0  0  0
  -21.8100  -22.2170   33.1350 C   0  0  0  0  0
  -20.8290  -22.2710   32.0620 N   0  0  0  0  0
  -20.6050  -23.3290   31.2850 C   0  0  0  0  0
  -19.6920  -23.2520   30.3290 N   0  0  0  0  0
  -21.2640  -24.4630   31.4690 N   0  0  0  0  0
  -26.1070  -20.6990   31.1190 N   0  0  0  0  0
  -26.8530  -21.3090   30.0260 C   0  0  0  0  0
  -25.9120  -21.7630   28.9170 C   0  0  0  0  0
  -24.7060  -21.5110   28.9730 O   0  0  0  0  0
  -27.9020  -20.3550   29.4630 C   0  0  0  0  0
  -27.2470  -19.2510   28.8330 O   0  0  0  0  0
  -28.7840  -19.8240   30.5870 C   0  0  0  0  0
  -26.4700  -22.4340   27.9150 N   0  0  0  0  0
  -25.6800  -23.0840   26.8770 C   0  0  0  0  0
  -25.0460  -22.0890   25.8890 C   0  0  0  0  0
  -25.5490  -20.9900   25.6960 O   0  0  0  0  0
  -26.5450  -24.1160   26.1400 C   0  0  0  0  0
  -26.3640  -25.5610   26.6230 C   0  0  0  0  0
  -27.4530  -26.4960   26.0990 C   0  0  0  0  0
  -28.5550  -26.0560   25.7710 O   0  0  0  0  0
  -27.1500  -27.7910   26.0250 N   0  0  0  0  0
  -23.9120  -22.4680   25.2910 N   0  0  0  0  0
  -23.3420  -21.6980   24.1820 C   0  0  0  0  0
  -24.3410  -21.6160   23.0410 C   0  0  0  0  0
  -25.1730  -22.5130   22.9160 O   0  0  0  0  0
  -22.1490  -22.5570   23.7360 C   0  0  0  0  0
  -21.8040  -23.3890   24.9390 C   0  0  0  0  0
  -23.1050  -23.6590   25.6260 C   0  0  0  0  0
  -24.2870  -20.5640   22.2320 N   0  0  0  0  0
  -25.0570  -20.5730   20.9970 C   0  0  0  0  0
  -24.5000  -21.6830   20.0990 C   0  0  0  0  0
  -23.2810  -21.8580   19.9970 O   0  0  0  0  0
  -25.0390  -19.2050   20.3200 C   0  0  0  0  0
  -26.1020  -18.2610   20.8770 C   0  0  0  0  0
  -27.2450  -18.7190   21.1150 O   0  0  0  0  0
  -25.7960  -17.0630   21.0820 O   0  0  0  0  0
  -25.3960  -22.4700   19.5050 N   0  0  0  0  0
  -25.0070  -23.6310   18.7200 C   0  0  0  0  0
  -25.9080  -24.8350   18.9080 C   0  0  0  0  0
  -26.9260  -24.7570   19.5950 O   0  0  0  0  0
  -25.5360  -25.9440   18.2710 N   0  0  0  0  0
  -26.1650  -27.2510   18.4740 C   0  0  0  0  0
  -25.2440  -28.3200   17.9120 C   0  0  0  0  0
  -24.3880  -28.0350   17.0700 O   0  0  0  0  0
  -27.5540  -27.3420   17.8360 C   0  0  0  0  0
  -27.5730  -27.3420   16.3150 C   0  0  0  0  0
  -28.9860  -27.1320   15.7610 C   0  0  0  0  0
  -29.7250  -26.2650   16.2270 O   0  0  0  0  0
  -29.3660  -27.9360   14.7770 N   0  0  0  0  0
  -25.4120  -29.5450   18.3940 N   0  0  0  0  0
  -24.4990  -30.6300   18.0530 C   0  0  0  0  0
  -24.7040  -31.1320   16.6280 C   0  0  0  0  0
  -23.7450  -31.4830   15.9370 O   0  0  0  0  0
  -24.6810  -31.7970   19.0190 C   0  0  0  0  0
  -24.3710  -31.4050   20.3410 O   0  0  0  0  0
  -25.9610  -31.1570   16.2040 N   0  0  0  0  0
  -26.3450  -31.7910   14.9580 C   0  0  0  0  0
  -26.9080  -30.7970   13.9630 C   0  0  0  0  0
  -27.8390  -30.0640   14.2680 O   0  0  0  0  0
  -27.3720  -32.9030   15.2210 C   0  0  0  0  0
  -26.7610  -34.1670   15.7440 C   0  0  0  0  0
  -25.4290  -34.4620   15.4850 C   0  0  0  0  0
  -27.5000  -35.0530   16.5010 C   0  0  0  0  0
  -24.8500  -35.6170   15.9660 C   0  0  0  0  0
  -26.9250  -36.2180   16.9830 C   0  0  0  0  0
  -25.5980  -36.4980   16.7160 C   0  0  0  0  0
  -26.3350  -30.8070   12.7670 N   0  0  0  0  0
  -26.8100  -29.9950   11.6500 C   0  0  0  0  0
  -28.1690  -30.4470   11.1400 C   0  0  0  0  0
  -28.8600  -29.6760   10.4950 O   0  0  0  0  0
  -25.8200  -30.0460   10.4830 C   0  0  0  0  0
  -24.6230  -29.1500   10.6460 C   0  0  0  0  0
  -23.6590  -29.3080    9.4760 C   0  0  0  0  0
  -22.8390  -30.4970    9.6220 N   0  0  0  0  0
  -22.2410  -31.1220    8.6120 C   0  0  0  0  0
  -21.5170  -32.2030    8.8550 N   0  0  0  0  0
  -22.3740  -30.6810    7.3640 N   0  0  0  0  0
  -28.5480  -31.6980   11.3910 N   0  0  0  0  0
  -29.8950  -32.1430   10.9840 C   0  0  0  0  0
  -29.9530  -33.6160   10.5370 C   0  0  0  0  0
  -29.6530  -34.4840   11.6290 O   0  0  0  0  0
  -30.3390  -31.4820   13.2670 N   0  0  0  0  0
  -30.8870  -31.9060   12.1310 C   0  0  0  0  0
  -32.0920  -32.1170   11.9850 O   0  0  0  0  0
  -26.6164  -16.8099   36.2208 H   0  0  0  0  0
  -28.2031  -16.9443   35.7300 H   0  0  0  0  0
  -27.8028  -17.1828   37.3299 H   0  0  0  0  0
  -26.5315  -19.0528   36.8158 H   0  0  0  0  0
  -29.1031  -19.0561   37.1645 H   0  0  0  0  0
  -28.3314  -20.5497   36.4682 H   0  0  0  0  0
  -28.9755  -18.9907   34.2881 H   0  0  0  0  0
  -30.3930  -18.8367   35.4107 H   0  0  0  0  0
  -31.4015  -21.6925   33.4811 H   0  0  0  0  0
  -31.4173  -19.9259   33.4770 H   0  0  0  0  0
  -26.0537  -20.8312   35.3823 H   0  0  0  0  0
  -24.9766  -19.5712   32.9597 H   0  0  0  0  0
  -24.4488  -22.3734   33.9921 H   0  0  0  0  0
  -23.5882  -20.8847   34.6081 H   0  0  0  0  0
  -22.7872  -20.5001   32.3226 H   0  0  0  0  0
  -23.5075  -22.0795   31.8458 H   0  0  0  0  0
  -22.0692  -23.2321   33.4359 H   0  0  0  0  0
  -21.3874  -21.6747   33.9809 H   0  0  0  0  0
  -20.2702  -21.4348   31.8919 H   0  0  0  0  0
  -19.1676  -22.3877   30.1930 H   0  0  0  0  0
  -21.0668  -25.2694   30.8763 H   0  0  0  0  0
  -21.9687  -24.5300   32.2034 H   0  0  0  0  0
  -25.5609  -19.8548   30.9472 H   0  0  0  0  0
  -27.3689  -22.1797   30.4308 H   0  0  0  0  0
  -28.5170  -20.8920   28.7408 H   0  0  0  0  0
  -27.9058  -18.6496   28.4781 H   0  0  0  0  0
  -29.2850  -20.6578   31.0787 H   0  0  0  0  0
  -28.1669  -19.2915   31.3106 H   0  0  0  0  0
  -29.5286  -19.1443   30.1726 H   0  0  0  0  0
  -27.4871  -22.4964   27.8707 H   0  0  0  0  0
  -24.8480  -23.5882   27.3687 H   0  0  0  0  0
  -26.2472  -24.0909   25.0918 H   0  0  0  0  0
  -27.5856  -23.8474   26.3218 H   0  0  0  0  0
  -26.4177  -25.5601   27.7117 H   0  0  0  0  0
  -25.4048  -25.9214   26.2513 H   0  0  0  0  0
  -27.8431  -28.4584   25.6866 H   0  0  0  0  0
  -26.2248  -28.1152   26.3067 H   0  0  0  0  0
  -23.0750  -20.6794   24.4635 H   0  0  0  0  0
  -21.3075  -21.9452   23.4109 H   0  0  0  0  0
  -22.3943  -23.1748   22.8721 H   0  0  0  0  0
  -21.1060  -22.8702   25.5960 H   0  0  0  0  0
  -21.3038  -24.3145   24.6539 H   0  0  0  0  0
  -23.5697  -24.5893   25.2994 H   0  0  0  0  0
  -22.9928  -23.8043   26.7004 H   0  0  0  0  0
  -23.7114  -19.7575   22.4740 H   0  0  0  0  0
  -26.1064  -20.7797   21.2069 H   0  0  0  0  0
  -25.2435  -19.3525   19.2596 H   0  0  0  0  0
  -24.0628  -18.7545   20.4994 H   0  0  0  0  0
  -27.2682  -19.6517   20.8891 H   0  0  0  0  0
  -26.3873  -22.2511   19.6040 H   0  0  0  0  0
  -24.0084  -23.9213   19.0466 H   0  0  0  0  0
  -25.0660  -23.3448   17.6699 H   0  0  0  0  0
  -24.7681  -25.8793   17.6027 H   0  0  0  0  0
  -26.3138  -27.4002   19.5434 H   0  0  0  0  0
  -28.1021  -26.4554   18.1546 H   0  0  0  0  0
  -27.9810  -28.2934   18.1531 H   0  0  0  0  0
  -27.2106  -28.3099   15.9688 H   0  0  0  0  0
  -26.9438  -26.5235   15.9654 H   0  0  0  0  0
  -30.3009  -27.8481   14.3788 H   0  0  0  0  0
  -28.7233  -28.6423   14.4185 H   0  0  0  0  0
  -26.1976  -29.7320   19.0172 H   0  0  0  0  0
  -23.4888  -30.2280   18.1308 H   0  0  0  0  0
  -24.0112  -32.6051   18.7251 H   0  0  0  0  0
  -25.7199  -32.1249   18.9834 H   0  0  0  0  0
  -24.4917  -32.1521   20.9317 H   0  0  0  0  0
  -26.6820  -30.7150   16.7743 H   0  0  0  0  0
  -25.4429  -32.2212   14.5230 H   0  0  0  0  0
  -27.8511  -33.1388   14.2707 H   0  0  0  0  0
  -28.0661  -32.5365   15.9773 H   0  0  0  0  0
  -24.8318  -33.7694   14.8920 H   0  0  0  0  0
  -28.5449  -34.8346   16.7217 H   0  0  0  0  0
  -23.8029  -35.8327   15.7534 H   0  0  0  0  0
  -27.5200  -36.9146   17.5736 H   0  0  0  0  0
  -25.1448  -37.4129   17.0976 H   0  0  0  0  0
  -25.5252  -31.4096   12.6206 H   0  0  0  0  0
  -26.8994  -28.9779   12.0317 H   0  0  0  0  0
  -26.3541  -29.7087    9.5947 H   0  0  0  0  0
  -25.4486  -31.0690   10.4224 H   0  0  0  0  0
  -24.1048  -29.4226   11.5653 H   0  0  0  0  0
  -24.9632  -28.1150   10.6815 H   0  0  0  0  0
  -23.0040  -28.4372    9.4472 H   0  0  0  0  0
  -24.2403  -29.3990    8.5585 H   0  0  0  0  0
  -22.7134  -30.8776   10.5599 H   0  0  0  0  0
  -21.4219  -32.5491    9.8098 H   0  0  0  0  0
  -21.9186  -31.1757    6.5970 H   0  0  0  0  0
  -22.9314  -29.8482    7.1741 H   0  0  0  0  0
  -27.9130  -32.3435   11.8606 H   0  0  0  0  0
  -30.1671  -31.5479   10.1123 H   0  0  0  0  0
  -29.2186  -33.7748    9.7474 H   0  0  0  0  0
  -30.9576  -33.8364   10.1761 H   0  0  0  0  0
  -29.6939  -35.3960   11.3320 H   0  0  0  0  0
  -30.9256  -31.3123   14.0840 H   0  0  0  0  0
  -29.3323  -31.3266   13.3208 H   0  0  0  0  0
  1  2  1  0  0  0
  2  3  1  0  0  0
  2  5  1  0  0  0
  3  4  2  0  0  0
  3 10  1  0  0  0
  5  6  1  0  0  0
  6  7  1  0  0  0
  7  8  2  0  0  0
  7  9  1  0  0  0
 10 11  1  0  0  0
 11 12  1  0  0  0
 11 14  1  0  0  0
 12 13  2  0  0  0
 12 21  1  0  0  0
 14 15  1  0  0  0
 15 16  1  0  0  0
 16 17  1  0  0  0
 17 18  1  0  0  0
 18 19  2  0  0  0
 18 20  1  0  0  0
 21 22  1  0  0  0
 22 23  1  0  0  0
 22 25  1  0  0  0
 23 24  2  0  0  0
 23 28  1  0  0  0
 25 26  1  0  0  0
 25 27  1  0  0  0
 28 29  1  0  0  0
 29 30  1  0  0  0
 29 32  1  0  0  0
 30 31  2  0  0  0
 30 37  1  0  0  0
 32 33  1  0  0  0
 33 34  1  0  0  0
 34 35  2  0  0  0
 34 36  1  0  0  0
 37 38  1  0  0  0
 37 43  1  0  0  0
 38 39  1  0  0  0
 38 41  1  0  0  0
 39 40  2  0  0  0
 39 44  1  0  0  0
 41 42  1  0  0  0
 42 43  1  0  0  0
 44 45  1  0  0  0
 45 46  1  0  0  0
 45 48  1  0  0  0
 46 47  2  0  0  0
 46 52  1  0  0  0
 48 49  1  0  0  0
 49 50  1  0  0  0
 49 51  2  0  0  0
 52 53  1  0  0  0
 53 54  1  0  0  0
 54 55  2  0  0  0
 54 56  1  0  0  0
 56 57  1  0  0  0
 57 58  1  0  0  0
 57 60  1  0  0  0
 58 59  2  0  0  0
 58 65  1  0  0  0
 60 61  1  0  0  0
 61 62  1  0  0  0
 62 63  2  0  0  0
 62 64  1  0  0  0
 65 66  1  0  0  0
 66 67  1  0  0  0
 66 69  1  0  0  0
 67 68  2  0  0  0
 67 71  1  0  0  0
 69 70  1  0  0  0
 71 72  1  0  0  0
 72 73  1  0  0  0
 72 75  1  0  0  0
 73 74  2  0  0  0
 73 82  1  0  0  0
 75 76  1  0  0  0
 76 77  4  0  0  0
 76 78  4  0  0  0
 77 79  4  0  0  0
 78 80  4  0  0  0
 79 81  4  0  0  0
 80 81  4  0  0  0
 82 83  1  0  0  0
 83 84  1  0  0  0
 83 86  1  0  0  0
 84 85  2  0  0  0
 84 93  1  0  0  0
 86 87  1  0  0  0
 87 88  1  0  0  0
 88 89  1  0  0  0
 89 90  1  0  0  0
 90 91  2  0  0  0
 90 92  1  0  0  0
 93 94  1  0  0  0
 94 95  1  0  0  0
 94 98  1  0  0  0
 95 96  1  0  0  0
 98 97  1  0  0  0
 98 99  2  0  0  0
  1100  1  0  0  0
  1101  1  0  0  0
  1102  1  0  0  0
  2103  1  0  0  0
  5104  1  0  0  0
  5105  1  0  0  0
  6106  1  0  0  0
  6107  1  0  0  0
  9108  1  0  0  0
  9109  1  0  0  0
 10110  1  0  0  0
 11111  1  0  0  0
 14112  1  0  0  0
 14113  1  0  0  0
 15114  1  0  0  0
 15115  1  0  0  0
 16116  1  0  0  0
 16117  1  0  0  0
 17118  1  0  0  0
 19119  1  0  0  0
 20120  1  0  0  0
 20121  1  0  0  0
 21122  1  0  0  0
 22123  1  0  0  0
 25124  1  0  0  0
 26125  1  0  0  0
 27126  1  0  0  0
 27127  1  0  0  0
 27128  1  0  0  0
 28129  1  0  0  0
 29130  1  0  0  0
 32131  1  0  0  0
 32132  1  0  0  0
 33133  1  0  0  0
 33134  1  0  0  0
 36135  1  0  0  0
 36136  1  0  0  0
 38137  1  0  0  0
 41138  1  0  0  0
 41139  1  0  0  0
 42140  1  0  0  0
 42141  1  0  0  0
 43142  1  0  0  0
 43143  1  0  0  0
 44144  1  0  0  0
 45145  1  0  0  0
 48146  1  0  0  0
 48147  1  0  0  0
 50148  1  0  0  0
 52149  1  0  0  0
 53150  1  0  0  0
 53151  1  0  0  0
 56152  1  0  0  0
 57153  1  0  0  0
 60154  1  0  0  0
 60155  1  0  0  0
 61156  1  0  0  0
 61157  1  0  0  0
 64158  1  0  0  0
 64159  1  0  0  0
 65160  1  0  0  0
 66161  1  0  0  0
 69162  1  0  0  0
 69163  1  0  0  0
 70164  1  0  0  0
 71165  1  0  0  0
 72166  1  0  0  0
 75167  1  0  0  0
 75168  1  0  0  0
 77169  1  0  0  0
 78170  1  0  0  0
 79171  1  0  0  0
 80172  1  0  0  0
 81173  1  0  0  0
 82174  1  0  0  0
 83175  1  0  0  0
 86176  1  0  0  0
 86177  1  0  0  0
 87178  1  0  0  0
 87179  1  0  0  0
 88180  1  0  0  0
 88181  1  0  0  0
 89182  1  0  0  0
 91183  1  0  0  0
 92184  1  0  0  0
 92185  1  0  0  0
 93186  1  0  0  0
 94187  1  0  0  0
 95188  1  0  0  0
 95189  1  0  0  0
 96190  1  0  0  0
 97191  1  0  0  0
 97192  1  0  0  0
M  END
$$$$
