### 
### Created by X-TOOL on Mon Sep 10 21:13:06 2018
### 

@<TRIPOS>MOLECULE
3twv_ligand
  193   194     1     0     0
SMALL
GAST_HUCK


@<TRIPOS>ATOM
      1 N         -27.4940  -17.3090   36.3660 N.4       1 GLN         0.2380
      2 CA        -27.2920  -18.7340   36.1030 C.3       1 GLN         0.0671
      3 C         -26.7440  -19.0470   34.7010 C.2       1 GLN         0.2269
      4 O         -26.9520  -18.2980   33.7410 O.2       1 GLN        -0.3907
      5 CB        -28.5890  -19.5020   36.3130 C.3       1 GLN         0.0247
      6 CG        -29.5260  -19.4300   35.1200 C.3       1 GLN         0.0443
      7 CD        -30.0210  -20.7940   34.6820 C.2       1 GLN         0.1738
      8 OE1       -29.5090  -21.8270   35.1200 O.2       1 GLN        -0.3973
      9 NE2       -31.0240  -20.8050   33.8130 N.am      1 GLN        -0.3009
     10 N         -26.0540  -20.1790   34.5980 N.am      1 ARG        -0.2610
     11 CA        -25.2980  -20.5160   33.3980 C.3       1 ARG         0.1312
     12 C         -26.1300  -21.2290   32.3350 C.2       1 ARG         0.2040
     13 O         -26.7750  -22.2430   32.6050 O.2       1 ARG        -0.3944
     14 CB        -24.0840  -21.3710   33.7680 C.3       1 ARG        -0.0092
     15 CG        -23.0650  -21.5000   32.6560 C.3       1 ARG        -0.0156
     16 CD        -21.8100  -22.2170   33.1350 C.3       1 ARG         0.0627
     17 NE        -20.8290  -22.2710   32.0620 N.pl3     1 ARG        -0.2723
     18 CZ        -20.6050  -23.3290   31.2850 C.cat     1 ARG         0.2882
     19 NH1       -19.6920  -23.2520   30.3290 N.pl3     1 ARG        -0.2849
     20 NH2       -21.2640  -24.4630   31.4690 N.pl3     1 ARG        -0.2849
     21 N         -26.1070  -20.6990   31.1190 N.am      1 THR        -0.2613
     22 CA        -26.8530  -21.3090   30.0260 C.3       1 THR         0.1565
     23 C         -25.9120  -21.7630   28.9170 C.2       1 THR         0.2065
     24 O         -24.7060  -21.5110   28.9730 O.2       1 THR        -0.3943
     25 CB        -27.9020  -20.3550   29.4630 C.3       1 THR         0.0924
     26 OG1       -27.2470  -19.2510   28.8330 O.3       1 THR        -0.3874
     27 CG2       -28.7840  -19.8240   30.5870 C.3       1 THR        -0.0346
     28 N         -26.4700  -22.4340   27.9150 N.am      1 GLN        -0.2635
     29 CA        -25.6800  -23.0840   26.8770 C.3       1 GLN         0.1332
     30 C         -25.0460  -22.0890   25.8890 C.2       1 GLN         0.2065
     31 O         -25.5490  -20.9900   25.6960 O.2       1 GLN        -0.3942
     32 CB        -26.5450  -24.1160   26.1400 C.3       1 GLN         0.0045
     33 CG        -26.3640  -25.5610   26.6230 C.3       1 GLN         0.0412
     34 CD        -27.4530  -26.4960   26.0990 C.2       1 GLN         0.1737
     35 OE1       -28.5550  -26.0560   25.7710 O.2       1 GLN        -0.3973
     36 NE2       -27.1500  -27.7910   26.0250 N.am      1 GLN        -0.3009
     37 N         -23.9120  -22.4680   25.2910 N.am      1 PRO        -0.2498
     38 CA        -23.3420  -21.6980   24.1820 C.3       1 PRO         0.1338
     39 C         -24.3410  -21.6160   23.0410 C.2       1 PRO         0.2042
     40 O         -25.1730  -22.5130   22.9160 O.2       1 PRO        -0.3944
     41 CB        -22.1490  -22.5570   23.7360 C.3       1 PRO        -0.0104
     42 CG        -21.8040  -23.3890   24.9390 C.3       1 PRO        -0.0281
     43 CD        -23.1050  -23.6590   25.6260 C.3       1 PRO         0.0369
     44 N         -24.2870  -20.5640   22.2320 N.am      1 ASP        -0.2622
     45 CA        -25.0570  -20.5730   20.9970 C.3       1 ASP         0.1423
     46 C         -24.5000  -21.6830   20.0990 C.2       1 ASP         0.2054
     47 O         -23.2810  -21.8580   19.9970 O.2       1 ASP        -0.3943
     48 CB        -25.0390  -19.2050   20.3200 C.3       1 ASP         0.0406
     49 CG        -26.1020  -18.2610   20.8770 C.2       1 ASP         0.0393
     50 OD1       -27.2450  -18.7190   21.1150 O.co2     1 ASP        -0.5688
     51 OD2       -25.7960  -17.0630   21.0820 O.co2     1 ASP        -0.5688
     52 N         -25.3960  -22.4700   19.5050 N.am      1 GLY        -0.2663
     53 CA        -25.0070  -23.6310   18.7200 C.3       1 GLY         0.1201
     54 C         -25.9080  -24.8350   18.9080 C.2       1 GLY         0.2007
     55 O         -26.9260  -24.7570   19.5950 O.2       1 GLY        -0.3947
     56 N         -25.5360  -25.9440   18.2710 N.am      1 GLN        -0.2638
     57 CA        -26.1650  -27.2510   18.4740 C.3       1 GLN         0.1330
     58 C         -25.2440  -28.3200   17.9120 C.2       1 GLN         0.2041
     59 O         -24.3880  -28.0350   17.0700 O.2       1 GLN        -0.3944
     60 CB        -27.5540  -27.3420   17.8360 C.3       1 GLN         0.0045
     61 CG        -27.5730  -27.3420   16.3150 C.3       1 GLN         0.0412
     62 CD        -28.9860  -27.1320   15.7610 C.2       1 GLN         0.1737
     63 OE1       -29.7250  -26.2650   16.2270 O.2       1 GLN        -0.3973
     64 NE2       -29.3660  -27.9360   14.7770 N.am      1 GLN        -0.3009
     65 N         -25.4120  -29.5450   18.3940 N.am      1 SER        -0.2616
     66 CA        -24.4990  -30.6300   18.0530 C.3       1 SER         0.1539
     67 C         -24.7040  -31.1320   16.6280 C.2       1 SER         0.2063
     68 O         -23.7450  -31.4830   15.9370 O.2       1 SER        -0.3943
     69 CB        -24.6810  -31.7970   19.0190 C.3       1 SER         0.0843
     70 OG        -24.3710  -31.4050   20.3410 O.3       1 SER        -0.3903
     71 N         -25.9610  -31.1570   16.2040 N.am      1 PHE        -0.2619
     72 CA        -26.3450  -31.7910   14.9580 C.3       1 PHE         0.1404
     73 C         -26.9080  -30.7970   13.9630 C.2       1 PHE         0.2060
     74 O         -27.8390  -30.0640   14.2680 O.2       1 PHE        -0.3942
     75 CB        -27.3720  -32.9030   15.2210 C.3       1 PHE         0.0214
     76 CG        -26.7610  -34.1670   15.7440 C.ar      1 PHE        -0.0386
     77 CD1       -25.4290  -34.4620   15.4850 C.ar      1 PHE        -0.0601
     78 CD2       -27.5000  -35.0530   16.5010 C.ar      1 PHE        -0.0601
     79 CE1       -24.8500  -35.6170   15.9660 C.ar      1 PHE        -0.0686
     80 CE2       -26.9250  -36.2180   16.9830 C.ar      1 PHE        -0.0686
     81 CZ        -25.5980  -36.4980   16.7160 C.ar      1 PHE        -0.0687
     82 N         -26.3350  -30.8070   12.7670 N.am      1 ARG        -0.2636
     83 CA        -26.8100  -29.9950   11.6500 C.3       1 ARG         0.1311
     84 C         -28.1690  -30.4470   11.1400 C.2       1 ARG         0.2040
     85 O         -28.8600  -29.6760   10.4950 O.2       1 ARG        -0.3944
     86 CB        -25.8200  -30.0460   10.4830 C.3       1 ARG        -0.0092
     87 CG        -24.6230  -29.1500   10.6460 C.3       1 ARG        -0.0156
     88 CD        -23.6590  -29.3080    9.4760 C.3       1 ARG         0.0627
     89 NE        -22.8390  -30.4970    9.6220 N.pl3     1 ARG        -0.2723
     90 CZ        -22.2410  -31.1220    8.6120 C.cat     1 ARG         0.2882
     91 NH1       -21.5170  -32.2030    8.8550 N.pl3     1 ARG        -0.2849
     92 NH2       -22.3740  -30.6810    7.3640 N.pl3     1 ARG        -0.2849
     93 N         -28.5480  -31.6980   11.3910 N.am      1 SET        -0.2616
     94 CA        -29.8950  -32.1430   10.9840 C.3       1 SET         0.1536
     95 CB        -29.9530  -33.6160   10.5370 C.3       1 SET         0.0843
     96 OG        -29.6530  -34.4840   11.6290 O.3       1 SET        -0.3903
     97 NT        -30.3390  -31.4820   13.2670 N.am      1 SET        -0.2989
     98 C         -30.8870  -31.9060   12.1310 C.2       1 SET         0.2015
     99 O         -32.0920  -32.1170   11.9850 O.2       1 SET        -0.3947
    100 H         -26.6164  -16.8099   36.2208 H         1 GLN         0.2015
    101 H         -28.2031  -16.9443   35.7300 H         1 GLN         0.2015
    102 H         -27.8028  -17.1828   37.3299 H         1 GLN         0.2015
    103 H         -26.5315  -19.0528   36.8158 H         1 GLN         0.1100
    104 H         -29.1031  -19.0561   37.1645 H         1 GLN         0.0370
    105 H         -28.3314  -20.5497   36.4682 H         1 GLN         0.0370
    106 H         -28.9755  -18.9907   34.2881 H         1 GLN         0.0506
    107 H         -30.3930  -18.8367   35.4107 H         1 GLN         0.0506
    108 H         -31.4015  -21.6925   33.4811 H         1 GLN         0.1814
    109 H         -31.4173  -19.9259   33.4770 H         1 GLN         0.1814
    110 H         -26.0537  -20.8312   35.3823 H         1 ARG         0.1884
    111 H         -24.9766  -19.5712   32.9597 H         1 ARG         0.0800
    112 H         -24.4488  -22.3734   33.9921 H         1 ARG         0.0313
    113 H         -23.5882  -20.8847   34.6081 H         1 ARG         0.0313
    114 H         -22.7872  -20.5001   32.3226 H         1 ARG         0.0301
    115 H         -23.5075  -22.0795   31.8458 H         1 ARG         0.0301
    116 H         -22.0692  -23.2321   33.4359 H         1 ARG         0.0689
    117 H         -21.3874  -21.6747   33.9809 H         1 ARG         0.0689
    118 H         -20.2702  -21.4348   31.8919 H         1 ARG         0.2642
    119 H         -19.1676  -22.3877   30.1930 H         1 ARG         0.2615
    120 H         -19.5131  -24.0569   29.7286 H         1 ARG         0.2615
    121 H         -21.9556  -24.5357   32.2152 H         1 ARG         0.2615
    122 H         -21.0799  -25.2637   30.8645 H         1 ARG         0.2615
    123 H         -25.5609  -19.8548   30.9472 H         1 THR         0.1884
    124 H         -27.3689  -22.1797   30.4308 H         1 THR         0.0826
    125 H         -28.5170  -20.8920   28.7408 H         1 THR         0.0639
    126 H         -27.9058  -18.6496   28.4781 H         1 THR         0.2101
    127 H         -29.2850  -20.6578   31.0787 H         1 THR         0.0257
    128 H         -28.1669  -19.2915   31.3106 H         1 THR         0.0257
    129 H         -29.5286  -19.1443   30.1726 H         1 THR         0.0257
    130 H         -27.4871  -22.4964   27.8707 H         1 GLN         0.1883
    131 H         -24.8480  -23.5882   27.3687 H         1 GLN         0.0801
    132 H         -26.2472  -24.0909   25.0918 H         1 GLN         0.0337
    133 H         -27.5856  -23.8474   26.3218 H         1 GLN         0.0337
    134 H         -26.4177  -25.5601   27.7117 H         1 GLN         0.0504
    135 H         -25.4048  -25.9214   26.2513 H         1 GLN         0.0504
    136 H         -27.8431  -28.4584   25.6866 H         1 GLN         0.1814
    137 H         -26.2248  -28.1152   26.3067 H         1 GLN         0.1814
    138 H         -23.0750  -20.6794   24.4635 H         1 PRO         0.0802
    139 H         -21.3075  -21.9452   23.4109 H         1 PRO         0.0313
    140 H         -22.3943  -23.1748   22.8721 H         1 PRO         0.0313
    141 H         -21.1060  -22.8702   25.5960 H         1 PRO         0.0287
    142 H         -21.3038  -24.3145   24.6539 H         1 PRO         0.0287
    143 H         -23.5697  -24.5893   25.2994 H         1 PRO         0.0524
    144 H         -22.9928  -23.8043   26.7004 H         1 PRO         0.0524
    145 H         -23.7114  -19.7575   22.4740 H         1 ASP         0.1884
    146 H         -26.1064  -20.7797   21.2069 H         1 ASP         0.0819
    147 H         -25.2435  -19.3525   19.2596 H         1 ASP         0.0478
    148 H         -24.0628  -18.7545   20.4994 H         1 ASP         0.0478
    149 H         -26.3873  -22.2511   19.6040 H         1 GLY         0.1881
    150 H         -24.0084  -23.9213   19.0466 H         1 GLY         0.0763
    151 H         -25.0660  -23.3448   17.6699 H         1 GLY         0.0763
    152 H         -24.7681  -25.8793   17.6027 H         1 GLN         0.1883
    153 H         -26.3138  -27.4002   19.5434 H         1 GLN         0.0801
    154 H         -28.1021  -26.4554   18.1546 H         1 GLN         0.0337
    155 H         -27.9810  -28.2934   18.1531 H         1 GLN         0.0337
    156 H         -27.2106  -28.3099   15.9688 H         1 GLN         0.0504
    157 H         -26.9438  -26.5235   15.9654 H         1 GLN         0.0504
    158 H         -30.3009  -27.8481   14.3788 H         1 GLN         0.1814
    159 H         -28.7233  -28.6423   14.4185 H         1 GLN         0.1814
    160 H         -26.1976  -29.7320   19.0172 H         1 SER         0.1884
    161 H         -23.4888  -30.2280   18.1308 H         1 SER         0.0823
    162 H         -24.0112  -32.6051   18.7251 H         1 SER         0.0606
    163 H         -25.7199  -32.1249   18.9834 H         1 SER         0.0606
    164 H         -24.4917  -32.1521   20.9317 H         1 SER         0.2097
    165 H         -26.6820  -30.7150   16.7743 H         1 PHE         0.1885
    166 H         -25.4429  -32.2212   14.5230 H         1 PHE         0.0823
    167 H         -27.8511  -33.1388   14.2707 H         1 PHE         0.0474
    168 H         -28.0661  -32.5365   15.9773 H         1 PHE         0.0474
    169 H         -24.8318  -33.7694   14.8920 H         1 PHE         0.0557
    170 H         -28.5449  -34.8346   16.7217 H         1 PHE         0.0557
    171 H         -23.8029  -35.8327   15.7534 H         1 PHE         0.0599
    172 H         -27.5200  -36.9146   17.5736 H         1 PHE         0.0599
    173 H         -25.1448  -37.4129   17.0976 H         1 PHE         0.0559
    174 H         -25.5252  -31.4096   12.6206 H         1 ARG         0.1883
    175 H         -26.8994  -28.9779   12.0317 H         1 ARG         0.0800
    176 H         -26.3541  -29.7087    9.5947 H         1 ARG         0.0313
    177 H         -25.4486  -31.0690   10.4224 H         1 ARG         0.0313
    178 H         -24.1048  -29.4226   11.5653 H         1 ARG         0.0301
    179 H         -24.9632  -28.1150   10.6815 H         1 ARG         0.0301
    180 H         -23.0040  -28.4372    9.4472 H         1 ARG         0.0689
    181 H         -24.2403  -29.3990    8.5585 H         1 ARG         0.0689
    182 H         -22.7134  -30.8776   10.5599 H         1 ARG         0.2642
    183 H         -21.4219  -32.5491    9.8098 H         1 ARG         0.2615
    184 H         -21.0541  -32.6899    8.0875 H         1 ARG         0.2615
    185 H         -22.9400  -29.8542    7.1728 H         1 ARG         0.2615
    186 H         -21.9100  -31.1696    6.5983 H         1 ARG         0.2615
    187 H         -27.9130  -32.3435   11.8606 H         1 SET         0.1884
    188 H         -30.1671  -31.5479   10.1123 H         1 SET         0.0823
    189 H         -29.2186  -33.7748    9.7474 H         1 SET         0.0606
    190 H         -30.9576  -33.8364   10.1761 H         1 SET         0.0606
    191 H         -29.6939  -35.3960   11.3320 H         1 SET         0.2097
    192 H         -30.9256  -31.3123   14.0840 H         1 SET         0.1815
    193 H         -29.3323  -31.3266   13.3208 H         1 SET         0.1815
@<TRIPOS>BOND
     1    1    2 1  
     2    2    3 1  
     3    2    5 1  
     4    3    4 2  
     5    3   10 am 
     6    5    6 1  
     7    6    7 1  
     8    7    8 2  
     9    7    9 am 
    10   10   11 1  
    11   11   12 1  
    12   11   14 1  
    13   12   13 2  
    14   12   21 am 
    15   14   15 1  
    16   15   16 1  
    17   16   17 1  
    18   17   18 ar 
    19   18   19 ar 
    20   18   20 ar 
    21   21   22 1  
    22   22   23 1  
    23   22   25 1  
    24   23   24 2  
    25   23   28 am 
    26   25   26 1  
    27   25   27 1  
    28   28   29 1  
    29   29   30 1  
    30   29   32 1  
    31   30   31 2  
    32   30   37 am 
    33   32   33 1  
    34   33   34 1  
    35   34   35 2  
    36   34   36 am 
    37   37   38 1  
    38   37   43 1  
    39   38   39 1  
    40   38   41 1  
    41   39   40 2  
    42   39   44 am 
    43   41   42 1  
    44   42   43 1  
    45   44   45 1  
    46   45   46 1  
    47   45   48 1  
    48   46   47 2  
    49   46   52 am 
    50   48   49 1  
    51   49   50 ar 
    52   49   51 ar 
    53   52   53 1  
    54   53   54 1  
    55   54   55 2  
    56   54   56 am 
    57   56   57 1  
    58   57   58 1  
    59   57   60 1  
    60   58   59 2  
    61   58   65 am 
    62   60   61 1  
    63   61   62 1  
    64   62   63 2  
    65   62   64 am 
    66   65   66 1  
    67   66   67 1  
    68   66   69 1  
    69   67   68 2  
    70   67   71 am 
    71   69   70 1  
    72   71   72 1  
    73   72   73 1  
    74   72   75 1  
    75   73   74 2  
    76   73   82 am 
    77   75   76 1  
    78   76   77 ar 
    79   76   78 ar 
    80   77   79 ar 
    81   78   80 ar 
    82   79   81 ar 
    83   80   81 ar 
    84   82   83 1  
    85   83   84 1  
    86   83   86 1  
    87   84   85 2  
    88   84   93 am 
    89   86   87 1  
    90   87   88 1  
    91   88   89 1  
    92   89   90 ar 
    93   90   91 ar 
    94   90   92 ar 
    95   93   94 1  
    96   94   95 1  
    97   94   98 1  
    98   95   96 1  
    99   98   97 am 
   100   98   99 2  
   101    1  100 1  
   102    1  101 1  
   103    1  102 1  
   104    2  103 1  
   105    5  104 1  
   106    5  105 1  
   107    6  106 1  
   108    6  107 1  
   109    9  108 1  
   110    9  109 1  
   111   10  110 1  
   112   11  111 1  
   113   14  112 1  
   114   14  113 1  
   115   15  114 1  
   116   15  115 1  
   117   16  116 1  
   118   16  117 1  
   119   17  118 1  
   120   19  119 1  
   121   19  120 1  
   122   20  121 1  
   123   20  122 1  
   124   21  123 1  
   125   22  124 1  
   126   25  125 1  
   127   26  126 1  
   128   27  127 1  
   129   27  128 1  
   130   27  129 1  
   131   28  130 1  
   132   29  131 1  
   133   32  132 1  
   134   32  133 1  
   135   33  134 1  
   136   33  135 1  
   137   36  136 1  
   138   36  137 1  
   139   38  138 1  
   140   41  139 1  
   141   41  140 1  
   142   42  141 1  
   143   42  142 1  
   144   43  143 1  
   145   43  144 1  
   146   44  145 1  
   147   45  146 1  
   148   48  147 1  
   149   48  148 1  
   150   52  149 1  
   151   53  150 1  
   152   53  151 1  
   153   56  152 1  
   154   57  153 1  
   155   60  154 1  
   156   60  155 1  
   157   61  156 1  
   158   61  157 1  
   159   64  158 1  
   160   64  159 1  
   161   65  160 1  
   162   66  161 1  
   163   69  162 1  
   164   69  163 1  
   165   70  164 1  
   166   71  165 1  
   167   72  166 1  
   168   75  167 1  
   169   75  168 1  
   170   77  169 1  
   171   78  170 1  
   172   79  171 1  
   173   80  172 1  
   174   81  173 1  
   175   82  174 1  
   176   83  175 1  
   177   86  176 1  
   178   86  177 1  
   179   87  178 1  
   180   87  179 1  
   181   88  180 1  
   182   88  181 1  
   183   89  182 1  
   184   91  183 1  
   185   91  184 1  
   186   92  185 1  
   187   92  186 1  
   188   93  187 1  
   189   94  188 1  
   190   95  189 1  
   191   95  190 1  
   192   96  191 1  
   193   97  192 1  
   194   97  193 1  
@<TRIPOS>SUBSTRUCTURE
     1 GLN         1

