5ygf_ligand
  -I-interpret- 

154154  0  0  0  0  0  0  0  0999 V2000
   29.6450   29.2120   10.9740 N   0  3  0  0  0
   29.6740   30.5950   10.5190 C   0  0  0  0  0
   28.2710   31.1210   10.2360 C   0  0  0  0  0
   28.0980   32.1460    9.5640 O   0  0  0  0  0
   30.5380   30.7290    9.2710 C   0  0  0  0  0
   31.0350   32.1420    9.0770 C   0  0  0  0  0
   31.1130   32.8850   10.0890 O   0  0  0  0  0
   31.3740   32.5180    7.9330 O   0  0  0  0  0
   27.2820   30.3920   10.7440 N   0  0  0  0  0
   25.8810   30.7930   10.6780 C   0  0  0  0  0
   25.3820   30.8990    9.2360 C   0  0  0  0  0
   24.4770   31.6790    8.9430 O   0  0  0  0  0
   25.6830   32.1170   11.4320 C   0  0  0  0  0
   26.0650   31.9850   12.9020 C   0  0  0  0  0
   25.8850   33.2500   13.7270 C   0  0  0  0  0
   25.5790   34.3280   13.2110 O   0  0  0  0  0
   26.0900   33.1160   15.0280 N   0  0  0  0  0
   25.9730   30.1030    8.3440 N   0  0  0  0  0
   25.5690   30.0850    6.9530 C   0  0  0  0  0
   24.8330   28.8260    6.5320 C   0  0  0  0  0
   24.2020   28.8050    5.4760 O   0  0  0  0  0
   24.9310   27.7630    7.3320 N   0  0  0  0  0
   24.2480   26.5060    7.0170 C   0  0  0  0  0
   22.9060   26.4130    7.7200 C   0  0  0  0  0
   22.8210   26.5160    8.9500 O   0  0  0  0  0
   25.1090   25.2970    7.3990 C   0  0  0  0  0
   26.3640   25.1870    6.5710 C   0  0  0  0  0
   27.2580   24.0550    7.0170 C   0  0  0  0  0
   26.8010   22.7230    6.6200 N   0  0  0  0  0
   26.9060   22.2200    5.3910 C   0  0  0  0  0
   27.4090   22.9590    4.4040 N   0  0  0  0  0
   26.4830   20.9880    5.1450 N   0  0  0  0  0
   21.8580   26.2030    6.9380 N   0  0  0  0  0
   20.5360   26.0330    7.5030 C   0  0  0  0  0
   20.3640   24.7520    8.2870 C   0  0  0  0  0
   20.9390   23.7160    7.9620 O   0  0  0  0  0
   19.5470   24.8270    9.3320 N   0  0  0  0  0
   19.2580   23.6730   10.1710 C   0  0  0  0  0
   17.7460   23.4460   10.2750 C   0  0  0  0  0
   16.9710   24.3990   10.4100 O   0  0  0  0  0
   19.8880   23.8660   11.5600 C   0  0  0  0  0
   19.1020   23.2700   12.7140 C   0  0  0  0  0
   19.7450   23.6130   14.0580 C   0  0  0  0  0
   21.1930   23.4380   14.0300 N   0  0  0  0  0
   21.9470   23.2510   15.1100 C   0  0  0  0  0
   21.3880   23.2050   16.3120 N   0  0  0  0  0
   23.2600   23.1010   14.9880 N   0  0  0  0  0
   17.3690   22.1780   10.1670 N   0  0  0  0  0
   16.0060   21.6710   10.2470 C   0  0  0  0  0
   15.9760   20.5730   11.3120 C   0  0  0  0  0
   16.7080   19.5860   11.1980 O   0  0  0  0  0
   15.5780   21.0900    8.9020 C   0  0  0  0  0
   14.1080   20.9270    8.6930 C   0  0  0  0  0
   13.8160   19.6540    7.9220 C   0  0  0  0  0
   14.7360   19.4240    6.8070 N   0  0  0  0  0
   14.6000   18.4240    5.9470 C   0  0  0  0  0
   13.5720   17.5990    6.0660 N   0  0  0  0  0
   15.4690   18.2580    4.9610 N   0  0  0  0  0
   15.1570   20.7180   12.3460 N   0  0  0  0  0
   15.0220   19.6150   13.3040 C   0  0  0  0  0
   13.5860   19.3980   13.7860 C   0  0  0  0  0
   13.1620   19.9550   14.8020 O   0  0  0  0  0
   15.9610   19.8230   14.4970 C   0  0  0  0  0
   16.5360   21.2210   14.6350 C   0  0  0  0  0
   17.0090   21.4430   16.0540 C   0  0  0  0  0
   17.3500   22.8330   16.3330 N   0  0  0  0  0
   16.4600   23.7950   16.5460 C   0  0  0  0  0
   15.1620   23.5300   16.4860 N   0  0  0  0  0
   16.8720   25.0270   16.8040 N   0  0  0  0  0
   12.8370   18.5580   13.0510 N   0  0  0  0  0
   11.4450   18.2220   13.3650 C   0  0  0  0  0
   11.3200   17.3610   14.6220 C   0  0  0  0  0
   10.7090   17.8120   15.5940 O   0  0  0  0  0
   10.9910   17.4530   12.1200 C   0  0  0  0  0
   12.2540   16.7910   11.6320 C   0  0  0  0  0
   13.3250   17.8230   11.8650 C   0  0  0  0  0
   11.8340   16.2400   14.6290 O   0  0  0  0  0
   29.0629   29.1421   11.8087 H   0  0  0  0  0
   29.2583   28.6212   10.2379 H   0  0  0  0  0
   30.5935   28.9074   11.1930 H   0  0  0  0  0
   30.1061   31.1937   11.3208 H   0  0  0  0  0
   29.9323   30.4587    8.4061 H   0  0  0  0  0
   31.4031   30.0755    9.3832 H   0  0  0  0  0
   30.8048   32.4053   10.8613 H   0  0  0  0  0
   27.5139   29.5104   11.2016 H   0  0  0  0  0
   25.2840   30.0179   11.1585 H   0  0  0  0  0
   24.6306   32.3945   11.3722 H   0  0  0  0  0
   26.3218   32.8732   10.9757 H   0  0  0  0  0
   27.1262   31.7379   12.9311 H   0  0  0  0  0
   25.4059   31.2312   13.3327 H   0  0  0  0  0
   25.9963   33.9229   15.6448 H   0  0  0  0  0
   26.3416   32.2058   15.4136 H   0  0  0  0  0
   26.7295   29.4907    8.6493 H   0  0  0  0  0
   26.4783   30.1401    6.3544 H   0  0  0  0  0
   24.8843   30.9205    6.8073 H   0  0  0  0  0
   25.4932   27.8268    8.1807 H   0  0  0  0  0
   24.0809   26.4967    5.9399 H   0  0  0  0  0
   24.5166   24.3983    7.2274 H   0  0  0  0  0
   25.4064   25.4154    8.4409 H   0  0  0  0  0
   26.9210   26.1173    6.6818 H   0  0  0  0  0
   26.0690   24.9944    5.5395 H   0  0  0  0  0
   27.2739   24.0735    8.1067 H   0  0  0  0  0
   28.2280   24.2116    6.5450 H   0  0  0  0  0
   26.3710   22.1373    7.3359 H   0  0  0  0  0
   27.4684   22.5769    3.4601 H   0  0  0  0  0
   27.7349   23.9071    4.5919 H   0  0  0  0  0
   26.0786   20.4282    5.8957 H   0  0  0  0  0
   21.9837   26.1606    5.9267 H   0  0  0  0  0
   19.8305   26.0017    6.6727 H   0  0  0  0  0
   20.3701   26.8600    8.1934 H   0  0  0  0  0
   19.1086   25.7210    9.5533 H   0  0  0  0  0
   19.6945   22.7843    9.7152 H   0  0  0  0  0
   19.9358   24.9407   11.7356 H   0  0  0  0  0
   20.8512   23.3561   11.5406 H   0  0  0  0  0
   19.0884   22.1859   12.6019 H   0  0  0  0  0
   18.0929   23.6817   12.6964 H   0  0  0  0  0
   19.3347   22.9430   14.8136 H   0  0  0  0  0
   19.5318   24.6583   14.2816 H   0  0  0  0  0
   21.6581   23.4605   13.1225 H   0  0  0  0  0
   20.3784   23.3131   16.4094 H   0  0  0  0  0
   23.8354   22.9510   15.8168 H   0  0  0  0  0
   23.6937   23.1357   14.0655 H   0  0  0  0  0
   18.1067   21.4907   10.0127 H   0  0  0  0  0
   15.3213   22.4788   10.5054 H   0  0  0  0  0
   16.0057   20.0887    8.8526 H   0  0  0  0  0
   15.9173   21.7954    8.1435 H   0  0  0  0  0
   13.7359   21.7783    8.1229 H   0  0  0  0  0
   13.6172   20.8717    9.6647 H   0  0  0  0  0
   12.8127   19.7453    7.5059 H   0  0  0  0  0
   13.9244   18.8191    8.6143 H   0  0  0  0  0
   15.5204   20.0646    6.6856 H   0  0  0  0  0
   12.8927   17.7353    6.8146 H   0  0  0  0  0
   15.3452   17.4953    4.2951 H   0  0  0  0  0
   16.2619   18.8928    4.8677 H   0  0  0  0  0
   14.6300   21.5821   12.4727 H   0  0  0  0  0
   15.3059   18.7089   12.7687 H   0  0  0  0  0
   16.8066   19.1513   14.3491 H   0  0  0  0  0
   15.3704   19.6388   15.3944 H   0  0  0  0  0
   15.7653   21.9530   14.3935 H   0  0  0  0  0
   17.3787   21.3329   13.9527 H   0  0  0  0  0
   17.9089   20.8456   16.2002 H   0  0  0  0  0
   16.1951   21.1613   16.7221 H   0  0  0  0  0
   18.3383   23.0830   16.3668 H   0  0  0  0  0
   14.4819   24.2747   16.6385 H   0  0  0  0  0
   14.8438   22.5815   16.2874 H   0  0  0  0  0
   17.8701   25.2342   16.8386 H   0  0  0  0  0
   10.8420   19.1040   13.5808 H   0  0  0  0  0
   10.3881   18.6930   15.3881 H   0  0  0  0  0
   10.5441   18.1036   11.3682 H   0  0  0  0  0
   10.2015   16.7341   12.3390 H   0  0  0  0  0
   12.1864   16.4974   10.5845 H   0  0  0  0  0
   12.4596   15.8587   12.1579 H   0  0  0  0  0
   14.3082   17.3793   12.0216 H   0  0  0  0  0
   13.4771   18.4719   11.0025 H   0  0  0  0  0
  1  2  1  0  0  0
  2  3  1  0  0  0
  2  5  1  0  0  0
  3  4  2  0  0  0
  3  9  1  0  0  0
  5  6  1  0  0  0
  6  7  1  0  0  0
  6  8  2  0  0  0
  9 10  1  0  0  0
 10 11  1  0  0  0
 10 13  1  0  0  0
 11 12  2  0  0  0
 11 18  1  0  0  0
 13 14  1  0  0  0
 14 15  1  0  0  0
 15 16  2  0  0  0
 15 17  1  0  0  0
 18 19  1  0  0  0
 19 20  1  0  0  0
 20 21  2  0  0  0
 20 22  1  0  0  0
 22 23  1  0  0  0
 23 24  1  0  0  0
 23 26  1  0  0  0
 24 25  2  0  0  0
 24 33  1  0  0  0
 26 27  1  0  0  0
 27 28  1  0  0  0
 28 29  1  0  0  0
 29 30  1  0  0  0
 30 31  1  0  0  0
 30 32  2  0  0  0
 33 34  1  0  0  0
 34 35  1  0  0  0
 35 36  2  0  0  0
 35 37  1  0  0  0
 37 38  1  0  0  0
 38 39  1  0  0  0
 38 41  1  0  0  0
 39 40  2  0  0  0
 39 48  1  0  0  0
 41 42  1  0  0  0
 42 43  1  0  0  0
 43 44  1  0  0  0
 44 45  1  0  0  0
 45 46  2  0  0  0
 45 47  1  0  0  0
 48 49  1  0  0  0
 49 50  1  0  0  0
 49 52  1  0  0  0
 50 51  2  0  0  0
 50 59  1  0  0  0
 52 53  1  0  0  0
 53 54  1  0  0  0
 54 55  1  0  0  0
 55 56  1  0  0  0
 56 57  2  0  0  0
 56 58  1  0  0  0
 59 60  1  0  0  0
 60 61  1  0  0  0
 60 63  1  0  0  0
 61 62  2  0  0  0
 61 70  1  0  0  0
 63 64  1  0  0  0
 64 65  1  0  0  0
 65 66  1  0  0  0
 66 67  1  0  0  0
 67 68  1  0  0  0
 67 69  2  0  0  0
 70 71  1  0  0  0
 70 76  1  0  0  0
 71 72  1  0  0  0
 71 74  1  0  0  0
 72 73  1  0  0  0
 72 77  2  0  0  0
 74 75  1  0  0  0
 75 76  1  0  0  0
  1 78  1  0  0  0
  1 79  1  0  0  0
  1 80  1  0  0  0
  2 81  1  0  0  0
  5 82  1  0  0  0
  5 83  1  0  0  0
  7 84  1  0  0  0
  9 85  1  0  0  0
 10 86  1  0  0  0
 13 87  1  0  0  0
 13 88  1  0  0  0
 14 89  1  0  0  0
 14 90  1  0  0  0
 17 91  1  0  0  0
 17 92  1  0  0  0
 18 93  1  0  0  0
 19 94  1  0  0  0
 19 95  1  0  0  0
 22 96  1  0  0  0
 23 97  1  0  0  0
 26 98  1  0  0  0
 26 99  1  0  0  0
 27100  1  0  0  0
 27101  1  0  0  0
 28102  1  0  0  0
 28103  1  0  0  0
 29104  1  0  0  0
 31105  1  0  0  0
 31106  1  0  0  0
 32107  1  0  0  0
 33108  1  0  0  0
 34109  1  0  0  0
 34110  1  0  0  0
 37111  1  0  0  0
 38112  1  0  0  0
 41113  1  0  0  0
 41114  1  0  0  0
 42115  1  0  0  0
 42116  1  0  0  0
 43117  1  0  0  0
 43118  1  0  0  0
 44119  1  0  0  0
 46120  1  0  0  0
 47121  1  0  0  0
 47122  1  0  0  0
 48123  1  0  0  0
 49124  1  0  0  0
 52125  1  0  0  0
 52126  1  0  0  0
 53127  1  0  0  0
 53128  1  0  0  0
 54129  1  0  0  0
 54130  1  0  0  0
 55131  1  0  0  0
 57132  1  0  0  0
 58133  1  0  0  0
 58134  1  0  0  0
 59135  1  0  0  0
 60136  1  0  0  0
 63137  1  0  0  0
 63138  1  0  0  0
 64139  1  0  0  0
 64140  1  0  0  0
 65141  1  0  0  0
 65142  1  0  0  0
 66143  1  0  0  0
 68144  1  0  0  0
 68145  1  0  0  0
 69146  1  0  0  0
 71147  1  0  0  0
 73148  1  0  0  0
 74149  1  0  0  0
 74150  1  0  0  0
 75151  1  0  0  0
 75152  1  0  0  0
 76153  1  0  0  0
 76154  1  0  0  0
M  END
$$$$
