### 
### Created by X-TOOL on Wed Jan  1 15:39:37 2020
### 

@<TRIPOS>MOLECULE
5ygf_ligand
  156   156     1     0     0
SMALL
GAST_HUCK


@<TRIPOS>ATOM
      1 N          29.6450   29.2120   10.9740 N.4       1 ASP         0.2391
      2 CA         29.6740   30.5950   10.5190 C.3       1 ASP         0.0764
      3 C          28.2710   31.1210   10.2360 C.2       1 ASP         0.2284
      4 O          28.0980   32.1460    9.5640 O.2       1 ASP        -0.3906
      5 CB         30.5380   30.7290    9.2710 C.3       1 ASP         0.0607
      6 CG         31.0350   32.1420    9.0770 C.2       1 ASP         0.0425
      7 OD1        31.1130   32.8850   10.0890 O.co2     1 ASP        -0.5686
      8 OD2        31.3740   32.5180    7.9330 O.co2     1 ASP        -0.5686
      9 N          27.2820   30.3920   10.7440 N.am      1 GLN        -0.2608
     10 CA         25.8810   30.7930   10.6780 C.3       1 GLN         0.1331
     11 C          25.3820   30.8990    9.2360 C.2       1 GLN         0.2038
     12 O          24.4770   31.6790    8.9430 O.2       1 GLN        -0.3944
     13 CB         25.6830   32.1170   11.4320 C.3       1 GLN         0.0045
     14 CG         26.0650   31.9850   12.9020 C.3       1 GLN         0.0412
     15 CD         25.8850   33.2500   13.7270 C.2       1 GLN         0.1737
     16 OE1        25.5790   34.3280   13.2110 O.2       1 GLN        -0.3973
     17 NE2        26.0900   33.1160   15.0280 N.am      1 GLN        -0.3009
     18 N          25.9730   30.1030    8.3440 N.am      1 GLY        -0.2664
     19 CA         25.5690   30.0850    6.9530 C.3       1 GLY         0.1201
     20 C          24.8330   28.8260    6.5320 C.2       1 GLY         0.2007
     21 O          24.2020   28.8050    5.4760 O.2       1 GLY        -0.3947
     22 N          24.9310   27.7630    7.3320 N.am      1 ARG        -0.2640
     23 CA         24.2480   26.5060    7.0170 C.3       1 ARG         0.1311
     24 C          22.9060   26.4130    7.7200 C.2       1 ARG         0.2037
     25 O          22.8210   26.5160    8.9500 O.2       1 ARG        -0.3944
     26 CB         25.1090   25.2970    7.3990 C.3       1 ARG        -0.0092
     27 CG         26.3640   25.1870    6.5710 C.3       1 ARG        -0.0156
     28 CD         27.2580   24.0550    7.0170 C.3       1 ARG         0.0627
     29 NE         26.8010   22.7230    6.6200 N.pl3     1 ARG        -0.2723
     30 CZ         26.9060   22.2200    5.3910 C.cat     1 ARG         0.2882
     31 NH1        27.4090   22.9590    4.4040 N.pl3     1 ARG        -0.2849
     32 NH2        26.4830   20.9880    5.1450 N.pl3     1 ARG        -0.2849
     33 N          21.8580   26.2030    6.9380 N.am      1 GLY        -0.2664
     34 CA         20.5360   26.0330    7.5030 C.3       1 GLY         0.1201
     35 C          20.3640   24.7520    8.2870 C.2       1 GLY         0.2007
     36 O          20.9390   23.7160    7.9620 O.2       1 GLY        -0.3947
     37 N          19.5470   24.8270    9.3320 N.am      1 ARG        -0.2640
     38 CA         19.2580   23.6730   10.1710 C.3       1 ARG         0.1311
     39 C          17.7460   23.4460   10.2750 C.2       1 ARG         0.2039
     40 O          16.9710   24.3990   10.4100 O.2       1 ARG        -0.3944
     41 CB         19.8880   23.8660   11.5600 C.3       1 ARG        -0.0092
     42 CG         19.1020   23.2700   12.7140 C.3       1 ARG        -0.0156
     43 CD         19.7450   23.6130   14.0580 C.3       1 ARG         0.0627
     44 NE         21.1930   23.4380   14.0300 N.pl3     1 ARG        -0.2723
     45 CZ         21.9470   23.2510   15.1100 C.cat     1 ARG         0.2882
     46 NH1        21.3880   23.2050   16.3120 N.pl3     1 ARG        -0.2849
     47 NH2        23.2600   23.1010   14.9880 N.pl3     1 ARG        -0.2849
     48 N          17.3690   22.1780   10.1670 N.am      1 ARG        -0.2637
     49 CA         16.0060   21.6710   10.2470 C.3       1 ARG         0.1311
     50 C          15.9760   20.5730   11.3120 C.2       1 ARG         0.2039
     51 O          16.7080   19.5860   11.1980 O.2       1 ARG        -0.3944
     52 CB         15.5780   21.0900    8.9020 C.3       1 ARG        -0.0092
     53 CG         14.1080   20.9270    8.6930 C.3       1 ARG        -0.0156
     54 CD         13.8160   19.6540    7.9220 C.3       1 ARG         0.0627
     55 NE         14.7360   19.4240    6.8070 N.pl3     1 ARG        -0.2723
     56 CZ         14.6000   18.4240    5.9470 C.cat     1 ARG         0.2882
     57 NH1        13.5720   17.5990    6.0660 N.pl3     1 ARG        -0.2849
     58 NH2        15.4690   18.2580    4.9610 N.pl3     1 ARG        -0.2849
     59 N          15.1570   20.7180   12.3460 N.am      1 ARG        -0.2637
     60 CA         15.0220   19.6150   13.3040 C.3       1 ARG         0.1312
     61 C          13.5860   19.3980   13.7860 C.2       1 ARG         0.2058
     62 O          13.1620   19.9550   14.8020 O.2       1 ARG        -0.3942
     63 CB         15.9610   19.8230   14.4970 C.3       1 ARG        -0.0092
     64 CG         16.5360   21.2210   14.6350 C.3       1 ARG        -0.0156
     65 CD         17.0090   21.4430   16.0540 C.3       1 ARG         0.0627
     66 NE         17.3500   22.8330   16.3330 N.pl3     1 ARG        -0.2723
     67 CZ         16.4600   23.7950   16.5460 C.cat     1 ARG         0.2882
     68 NH1        15.1620   23.5300   16.4860 N.pl3     1 ARG        -0.2849
     69 NH2        16.8720   25.0270   16.8040 N.pl3     1 ARG        -0.2849
     70 N          12.8370   18.5580   13.0510 N.am      1 PRO        -0.2556
     71 CA         11.4450   18.2220   13.3650 C.3       1 PRO         0.0972
     72 C          11.3200   17.3610   14.6220 C.2       1 PRO         0.0603
     73 O          10.7090   17.8120   15.5940 O.co2     1 PRO        -0.5666
     74 CB         10.9910   17.4530   12.1200 C.3       1 PRO        -0.0159
     75 CG         12.2540   16.7910   11.6320 C.3       1 PRO        -0.0288
     76 CD         13.3250   17.8230   11.8650 C.3       1 PRO         0.0362
     77 OXT        11.8340   16.2400   14.6290 O.co2     1 PRO        -0.5666
     78 H1         30.5859   28.8969   11.1514 H         1 ASP         0.2016
     79 H2         29.2252   28.6332   10.2635 H         1 ASP         0.2016
     80 H3         29.1040   29.1486   11.8221 H         1 ASP         0.2016
     81 H4         30.1175   31.2085   11.3171 H         1 ASP         0.1117
     82 H5         29.9420   30.4384    8.3933 H         1 ASP         0.0512
     83 H6         31.4042   30.0575    9.3647 H         1 ASP         0.0512
     84 H7         27.5093   29.5277   11.1927 H         1 GLN         0.1885
     85 H8         25.2831   30.0196   11.1823 H         1 GLN         0.0801
     86 H9         24.6260   32.4133   11.3626 H         1 GLN         0.0337
     87 H10        26.3120   32.8906   10.9673 H         1 GLN         0.0337
     88 H11        27.1235   31.6905   12.9548 H         1 GLN         0.0504
     89 H12        25.4420   31.1953   13.3473 H         1 GLN         0.0504
     90 H13        25.9899   33.9053   15.6338 H         1 GLN         0.1814
     91 H14        26.3450   32.2255   15.4049 H         1 GLN         0.1814
     92 H15        26.7147   29.5027    8.6433 H         1 GLY         0.1881
     93 H16        26.4712   30.1807    6.3310 H         1 GLY         0.0763
     94 H17        24.9080   30.9460    6.7752 H         1 GLY         0.0763
     95 H18        25.4822   27.8256    8.1640 H         1 ARG         0.1883
     96 H19        24.0725   26.4775    5.9315 H         1 ARG         0.0800
     97 H20        24.5136   24.3830    7.2574 H         1 ARG         0.0313
     98 H21        25.3936   25.3889    8.4575 H         1 ARG         0.0313
     99 H22        26.9235   26.1305    6.6526 H         1 ARG         0.0301
    100 H23        26.0799   25.0187    5.5217 H         1 ARG         0.0301
    101 H24        27.3233   24.0819    8.1147 H         1 ARG         0.0689
    102 H25        28.2570   24.2171    6.5862 H         1 ARG         0.0689
    103 H26        26.3668   22.1316    7.3429 H         1 ARG         0.2642
    104 H27        27.4883   22.5659    3.4553 H         1 ARG         0.2615
    105 H28        27.7188   23.9237    4.5893 H         1 ARG         0.2615
    106 H29        26.0937   20.4153    5.9075 H         1 ARG         0.2615
    107 H30        26.5436   20.6035    4.1914 H         1 ARG         0.2615
    108 H31        21.9812   26.1614    5.9465 H         1 GLY         0.1881
    109 H32        19.8051   26.0365    6.6809 H         1 GLY         0.0763
    110 H33        20.3354   26.8800    8.1756 H         1 GLY         0.0763
    111 H34        19.1172   25.7035    9.5490 H         1 ARG         0.1883
    112 H35        19.7082   22.7831    9.7069 H         1 ARG         0.0800
    113 H36        19.9907   24.9463   11.7401 H         1 ARG         0.0313
    114 H37        20.8841   23.3996   11.5498 H         1 ARG         0.0313
    115 H38        19.0712   22.1764   12.6000 H         1 ARG         0.0301
    116 H39        18.0774   23.6697   12.6943 H         1 ARG         0.0301
    117 H40        19.3225   22.9556   14.8322 H         1 ARG         0.0689
    118 H41        19.5184   24.6611   14.3032 H         1 ARG         0.0689
    119 H42        21.6626   23.4607   13.1136 H         1 ARG         0.2642
    120 H43        21.9734   23.0601   17.1470 H         1 ARG         0.2615
    121 H44        20.3685   23.3141   16.4104 H         1 ARG         0.2615
    122 H45        23.6980   23.1361   14.0564 H         1 ARG         0.2615
    123 H46        23.8410   22.9495   15.8249 H         1 ARG         0.2615
    124 H47        18.0923   21.5042   10.0158 H         1 ARG         0.1883
    125 H48        15.3219   22.4851   10.5284 H         1 ARG         0.0800
    126 H49        16.0435   20.0985    8.8011 H         1 ARG         0.0313
    127 H50        15.9576   21.7554    8.1126 H         1 ARG         0.0313
    128 H51        13.7258   21.7886    8.1260 H         1 ARG         0.0301
    129 H52        13.6068   20.8801    9.6711 H         1 ARG         0.0301
    130 H53        12.7930   19.7155    7.5225 H         1 ARG         0.0689
    131 H54        13.8886   18.8027    8.6148 H         1 ARG         0.0689
    132 H55        15.5281   20.0709    6.6844 H         1 ARG         0.2642
    133 H56        13.4579   16.8193    5.4027 H         1 ARG         0.2615
    134 H57        12.8860   17.7366    6.8219 H         1 ARG         0.2615
    135 H58        16.2697   18.8991    4.8668 H         1 ARG         0.2615
    136 H59        15.3440   17.4879    4.2886 H         1 ARG         0.2615
    137 H60        14.6403   21.5651   12.4702 H         1 ARG         0.1883
    138 H61        15.3340   18.6955   12.7871 H         1 ARG         0.0800
    139 H62        16.8002   19.1191   14.3955 H         1 ARG         0.0313
    140 H63        15.3997   19.5945   15.4150 H         1 ARG         0.0313
    141 H64        15.7601   21.9609   14.3889 H         1 ARG         0.0301
    142 H65        17.3848   21.3364   13.9450 H         1 ARG         0.0301
    143 H66        17.9007   20.8225   16.2268 H         1 ARG         0.0689
    144 H67        16.2083   21.1342   16.7422 H         1 ARG         0.0689
    145 H68        18.3480   23.0855   16.3671 H         1 ARG         0.2642
    146 H69        14.4752   24.2794   16.6519 H         1 ARG         0.2615
    147 H70        14.8407   22.5748   16.2735 H         1 ARG         0.2615
    148 H71        17.8799   25.2338   16.8508 H         1 ARG         0.2615
    149 H72        16.1845   25.7783   16.9578 H         1 ARG         0.2615
    150 H73        10.8482   19.1363   13.4986 H         1 PRO         0.0728
    151 H74        10.5882   18.1387   11.3600 H         1 PRO         0.0306
    152 H75        10.2289   16.7029   12.3779 H         1 PRO         0.0306
    153 H76        12.1768   16.5433   10.5630 H         1 PRO         0.0286
    154 H77        12.4621   15.8762   12.2063 H         1 PRO         0.0286
    155 H78        14.2947   17.3454   12.0689 H         1 PRO         0.0524
    156 H79        13.4215   18.4933   10.9982 H         1 PRO         0.0524
@<TRIPOS>BOND
     1    1    2 1  
     2    2    3 1  
     3    2    5 1  
     4    3    4 2  
     5    3    9 am 
     6    5    6 1  
     7    6    7 ar 
     8    6    8 ar 
     9    9   10 1  
    10   10   11 1  
    11   10   13 1  
    12   11   12 2  
    13   11   18 am 
    14   13   14 1  
    15   14   15 1  
    16   15   16 2  
    17   15   17 am 
    18   18   19 1  
    19   19   20 1  
    20   20   21 2  
    21   20   22 am 
    22   22   23 1  
    23   23   24 1  
    24   23   26 1  
    25   24   25 2  
    26   24   33 am 
    27   26   27 1  
    28   27   28 1  
    29   28   29 1  
    30   29   30 ar 
    31   30   31 ar 
    32   30   32 ar 
    33   33   34 1  
    34   34   35 1  
    35   35   36 2  
    36   35   37 am 
    37   37   38 1  
    38   38   39 1  
    39   38   41 1  
    40   39   40 2  
    41   39   48 am 
    42   41   42 1  
    43   42   43 1  
    44   43   44 1  
    45   44   45 ar 
    46   45   46 ar 
    47   45   47 ar 
    48   48   49 1  
    49   49   50 1  
    50   49   52 1  
    51   50   51 2  
    52   50   59 am 
    53   52   53 1  
    54   53   54 1  
    55   54   55 1  
    56   55   56 ar 
    57   56   57 ar 
    58   56   58 ar 
    59   59   60 1  
    60   60   61 1  
    61   60   63 1  
    62   61   62 2  
    63   61   70 am 
    64   63   64 1  
    65   64   65 1  
    66   65   66 1  
    67   66   67 ar 
    68   67   68 ar 
    69   67   69 ar 
    70   70   71 1  
    71   70   76 1  
    72   71   72 1  
    73   71   74 1  
    74   72   73 ar 
    75   72   77 ar 
    76   74   75 1  
    77   75   76 1  
    78    1   78 1  
    79    1   79 1  
    80    1   80 1  
    81    2   81 1  
    82    5   82 1  
    83    5   83 1  
    84    9   84 1  
    85   10   85 1  
    86   13   86 1  
    87   13   87 1  
    88   14   88 1  
    89   14   89 1  
    90   17   90 1  
    91   17   91 1  
    92   18   92 1  
    93   19   93 1  
    94   19   94 1  
    95   22   95 1  
    96   23   96 1  
    97   26   97 1  
    98   26   98 1  
    99   27   99 1  
   100   27  100 1  
   101   28  101 1  
   102   28  102 1  
   103   29  103 1  
   104   31  104 1  
   105   31  105 1  
   106   32  106 1  
   107   32  107 1  
   108   33  108 1  
   109   34  109 1  
   110   34  110 1  
   111   37  111 1  
   112   38  112 1  
   113   41  113 1  
   114   41  114 1  
   115   42  115 1  
   116   42  116 1  
   117   43  117 1  
   118   43  118 1  
   119   44  119 1  
   120   46  120 1  
   121   46  121 1  
   122   47  122 1  
   123   47  123 1  
   124   48  124 1  
   125   49  125 1  
   126   52  126 1  
   127   52  127 1  
   128   53  128 1  
   129   53  129 1  
   130   54  130 1  
   131   54  131 1  
   132   55  132 1  
   133   57  133 1  
   134   57  134 1  
   135   58  135 1  
   136   58  136 1  
   137   59  137 1  
   138   60  138 1  
   139   63  139 1  
   140   63  140 1  
   141   64  141 1  
   142   64  142 1  
   143   65  143 1  
   144   65  144 1  
   145   66  145 1  
   146   68  146 1  
   147   68  147 1  
   148   69  148 1  
   149   69  149 1  
   150   71  150 1  
   151   74  151 1  
   152   74  152 1  
   153   75  153 1  
   154   75  154 1  
   155   76  155 1  
   156   76  156 1  
@<TRIPOS>SUBSTRUCTURE
     1 ASP         1

