3mdz_ligand
  -I-interpret- 

 26 27  0  0  0  0  0  0  0  0999 V2000
   15.8730   12.5730   80.9780 N   0  0  0  0  0
   15.2480    7.8930   81.7440 C   0  0  0  0  0
   14.0870    7.6460   80.9600 C   0  0  0  0  0
   13.4120    6.4610   81.0850 C   0  0  0  0  0
   13.8010    5.4700   81.9760 C   0  0  0  0  0
   13.6890    3.1060   82.2510 C   0  0  0  0  0
   16.7720   11.2790   79.0280 O   0  0  0  0  0
   14.4110   11.6960   79.0050 O   0  0  0  0  0
   15.5860   11.4040   79.8610 S   0  0  0  0  0
   15.1850    9.8450   80.5200 C   0  0  0  0  0
   15.8370    9.1190   81.4750 N   0  0  0  0  0
   13.7630    8.9930   79.9280 S   0  0  0  0  0
   14.9260    5.6800   82.7960 C   0  0  0  0  0
   15.6290    6.8790   82.6620 C   0  0  0  0  0
   12.9920    4.3580   82.0000 O   0  0  0  0  0
   12.6010    2.0430   81.9650 C   0  0  0  0  0
   16.7692   13.0600   80.9878 H   0  0  0  0  0
   15.1551   12.8121   81.6620 H   0  0  0  0  0
   12.5352    6.2892   80.4606 H   0  0  0  0  0
   14.0907    3.0399   83.2621 H   0  0  0  0  0
   14.5758    2.9826   81.6293 H   0  0  0  0  0
   15.2403    4.9256   83.5173 H   0  0  0  0  0
   16.5062    7.0433   83.2878 H   0  0  0  0  0
   11.7580    2.1975   82.6385 H   0  0  0  0  0
   12.2649    2.1377   80.9324 H   0  0  0  0  0
   13.0166    1.0479   82.1234 H   0  0  0  0  0
  9  1  1  0  0  0
  2  3  4  0  0  0
 11  2  4  0  0  0
  2 14  4  0  0  0
  3  4  4  0  0  0
  3 12  4  0  0  0
  4  5  4  0  0  0
  5 13  4  0  0  0
  5 15  1  0  0  0
 15  6  1  0  0  0
  6 16  1  0  0  0
  9  7  2  0  0  0
  9  8  2  0  0  0
 10  9  1  0  0  0
 10 11  4  0  0  0
 10 12  4  0  0  0
 13 14  4  0  0  0
  1 17  1  0  0  0
  1 18  1  0  0  0
  4 19  1  0  0  0
  6 20  1  0  0  0
  6 21  1  0  0  0
 13 22  1  0  0  0
 14 23  1  0  0  0
 16 24  1  0  0  0
 16 25  1  0  0  0
 16 26  1  0  0  0
M  END
$$$$
