4ask_ligand
  -I-interpret- 

 52 55  0  0  0  0  0  0  0  0999 V2000
   47.7830   19.3300  -21.8310 O   0  0  0  0  0
   48.9660   19.6350  -21.8470 C   0  0  0  0  0
   49.5290   20.3580  -22.8130 O   0  0  0  0  0
   49.9300   19.2240  -20.7590 C   0  0  0  0  0
   49.7830   17.7690  -20.3450 C   0  0  0  0  0
   50.4600   17.4790  -19.0920 N   0  0  0  0  0
   50.4570   16.2390  -18.5450 C   0  0  0  0  0
   51.2090   16.0710  -17.4480 N   0  0  0  0  0
   51.2000   14.8370  -16.8940 C   0  0  0  0  0
   52.0400   14.6320  -15.6830 C   0  0  0  0  0
   52.7060   15.7050  -15.2170 N   0  0  0  0  0
   53.4840   15.5340  -14.1440 C   0  0  0  0  0
   53.6230   14.3250  -13.4760 C   0  0  0  0  0
   52.9260   13.2320  -13.9630 C   0  0  0  0  0
   52.1220   13.3710  -15.0790 C   0  0  0  0  0
   50.5060   13.7770  -17.3420 N   0  0  0  0  0
   49.7810   13.9730  -18.4460 C   0  0  0  0  0
   49.7150   15.2090  -19.0770 C   0  0  0  0  0
   49.0270   12.8880  -18.8750 N   0  0  0  0  0
   48.1710   12.9280  -20.0620 C   0  0  0  0  0
   46.8740   13.5550  -19.5460 C   0  0  0  0  0
   45.9530   12.5770  -18.8320 C   0  0  0  0  0
   46.3640   11.8330  -17.7160 C   0  0  0  0  0
   47.7490   11.9360  -17.1090 C   0  0  0  0  0
   48.9310   11.6860  -18.0540 C   0  0  0  0  0
   44.6450   12.4490  -19.3190 C   0  0  0  0  0
   43.7460   11.5870  -18.7060 C   0  0  0  0  0
   44.1420   10.8450  -17.6000 C   0  0  0  0  0
   45.4410   10.9720  -17.1070 C   0  0  0  0  0
   50.4623   20.4752  -22.6209 H   0  0  0  0  0
   49.7208   19.8387  -19.8835 H   0  0  0  0  0
   50.9403   19.3562  -21.1463 H   0  0  0  0  0
   50.2316   17.1501  -21.1221 H   0  0  0  0  0
   48.7213   17.5620  -20.2107 H   0  0  0  0  0
   50.9521   18.2312  -18.6099 H   0  0  0  0  0
   54.0416   16.3934  -13.7718 H   0  0  0  0  0
   54.2605   14.2388  -12.5961 H   0  0  0  0  0
   53.0111   12.2647  -13.4678 H   0  0  0  0  0
   51.5669   12.5221  -15.4781 H   0  0  0  0  0
   49.0971   15.3579  -19.9625 H   0  0  0  0  0
   48.0137   11.9411  -20.4971 H   0  0  0  0  0
   48.6148   13.4981  -20.8782 H   0  0  0  0  0
   46.3322   13.9347  -20.4123 H   0  0  0  0  0
   47.1518   14.3226  -18.8237 H   0  0  0  0  0
   47.8028   11.1590  -16.3464 H   0  0  0  0  0
   47.8513   12.9647  -16.7635 H   0  0  0  0  0
   49.8533   11.5011  -17.5033 H   0  0  0  0  0
   48.7769   10.7951  -18.6628 H   0  0  0  0  0
   44.3313   13.0308  -20.1857 H   0  0  0  0  0
   42.7309   11.4924  -19.0917 H   0  0  0  0  0
   43.4392   10.1651  -17.1185 H   0  0  0  0  0
   45.7427   10.3925  -16.2345 H   0  0  0  0  0
  1  2  2  0  0  0
  2  3  1  0  0  0
  2  4  1  0  0  0
  4  5  1  0  0  0
  5  6  1  0  0  0
  6  7  1  0  0  0
  7  8  4  0  0  0
  7 18  4  0  0  0
  8  9  4  0  0  0
  9 10  1  0  0  0
  9 16  4  0  0  0
 10 11  4  0  0  0
 10 15  4  0  0  0
 11 12  4  0  0  0
 12 13  4  0  0  0
 13 14  4  0  0  0
 14 15  4  0  0  0
 16 17  4  0  0  0
 17 18  4  0  0  0
 17 19  1  0  0  0
 19 20  1  0  0  0
 19 25  1  0  0  0
 20 21  1  0  0  0
 21 22  1  0  0  0
 22 23  4  0  0  0
 22 26  4  0  0  0
 23 24  1  0  0  0
 23 29  4  0  0  0
 24 25  1  0  0  0
 26 27  4  0  0  0
 27 28  4  0  0  0
 28 29  4  0  0  0
  3 30  1  0  0  0
  4 31  1  0  0  0
  4 32  1  0  0  0
  5 33  1  0  0  0
  5 34  1  0  0  0
  6 35  1  0  0  0
 12 36  1  0  0  0
 13 37  1  0  0  0
 14 38  1  0  0  0
 15 39  1  0  0  0
 18 40  1  0  0  0
 20 41  1  0  0  0
 20 42  1  0  0  0
 21 43  1  0  0  0
 21 44  1  0  0  0
 24 45  1  0  0  0
 24 46  1  0  0  0
 25 47  1  0  0  0
 25 48  1  0  0  0
 26 49  1  0  0  0
 27 50  1  0  0  0
 28 51  1  0  0  0
 29 52  1  0  0  0
M  END
$$$$
