1j36_ligand
  -I-interpret- 

 60 61  0  0  0  0  0  0  0  0999 V2000
   12.5770   -2.9380   16.7020 O   0  0  0  0  0
    8.9730   -3.7270   18.9430 O   0  0  0  0  0
    8.4720   -5.5280   17.7990 O   0  0  0  0  0
   15.1350   -1.0660   18.1450 O   0  0  0  0  0
   15.7420   -3.1480   17.7750 O   0  0  0  0  0
   10.6500   -4.7360   16.0920 N   0  3  0  0  0
   13.1100   -3.9420   18.6650 N   0  0  0  0  0
   17.3490   -6.5550   15.0770 N   0  3  0  0  0
   12.5270   -3.9660   17.4490 C   0  0  0  0  0
   11.7940   -5.2460   16.9290 C   0  0  0  0  0
    8.9600   -4.3930   17.8710 C   0  0  0  0  0
    9.6100   -3.7590   16.6350 C   0  0  0  0  0
   13.8310   -2.7070   19.1490 C   0  0  0  0  0
   14.3250   -3.1340   20.5410 C   0  0  0  0  0
   13.9290   -4.4160   20.7920 C   0  0  0  0  0
   13.1620   -5.0230   19.6830 C   0  0  0  0  0
   15.0370   -2.3350   18.2760 C   0  0  0  0  0
   12.7750   -6.0630   16.1370 C   0  0  0  0  0
   13.8840   -6.7200   16.8100 C   0  0  0  0  0
   15.3550   -6.1920   16.4250 C   0  0  0  0  0
   15.8950   -6.8730   15.2810 C   0  0  0  0  0
    8.5840   -3.4400   15.4970 C   0  0  0  0  0
    7.4970   -2.4550   15.8930 C   0  0  0  0  0
    6.4910   -2.1120   14.8290 C   0  0  0  0  0
    6.5270   -2.7720   13.5580 C   0  0  0  0  0
    5.5690   -2.4500   12.5540 C   0  0  0  0  0
    4.5700   -1.4630   12.8120 C   0  0  0  0  0
    4.5340   -0.8000   14.0790 C   0  0  0  0  0
    5.4910   -1.1270   15.0760 C   0  0  0  0  0
    9.3937   -2.8785   18.7862 H   0  0  0  0  0
   14.4422   -0.6385   18.6538 H   0  0  0  0  0
   11.1142   -4.2027   15.3568 H   0  0  0  0  0
   10.1060   -5.5767   15.8977 H   0  0  0  0  0
   17.6937   -7.0560   14.2581 H   0  0  0  0  0
   17.4595   -5.5511   14.9343 H   0  0  0  0  0
   17.8775   -6.8428   15.9006 H   0  0  0  0  0
   11.4123   -5.8921   17.7196 H   0  0  0  0  0
   10.0537   -2.8124   16.9435 H   0  0  0  0  0
   13.1839   -1.8300   19.1327 H   0  0  0  0  0
   14.9025   -2.5093   21.2224 H   0  0  0  0  0
   14.1561   -4.9412   21.7197 H   0  0  0  0  0
   12.1705   -5.3535   19.9925 H   0  0  0  0  0
   13.6263   -5.9330   19.3028 H   0  0  0  0  0
   13.2490   -5.3457   15.4670 H   0  0  0  0  0
   12.1814   -6.8806   15.7279 H   0  0  0  0  0
   13.8466   -7.7675   16.5108 H   0  0  0  0  0
   13.7566   -6.5226   17.8744 H   0  0  0  0  0
   16.0144   -6.3784   17.2726 H   0  0  0  0  0
   15.2820   -5.1314   16.1846 H   0  0  0  0  0
   15.3459   -6.5470   14.3976 H   0  0  0  0  0
   15.7988   -7.9464   15.4444 H   0  0  0  0  0
    9.1436   -2.9879   14.6782 H   0  0  0  0  0
    8.0896   -4.3766   15.2392 H   0  0  0  0  0
    8.0062   -1.5239   16.1415 H   0  0  0  0  0
    6.9371   -2.9281   16.6997 H   0  0  0  0  0
    7.2906   -3.5237   13.3583 H   0  0  0  0  0
    5.5986   -2.9568   11.5894 H   0  0  0  0  0
    3.8362   -1.2152   12.0450 H   0  0  0  0  0
    3.7734   -0.0452   14.2789 H   0  0  0  0  0
    5.4604   -0.6194   16.0401 H   0  0  0  0  0
  9  1  2  0  0  0
  9 10  1  0  0  0
 10 18  1  0  0  0
 12 11  1  0  0  0
 13 14  1  0  0  0
 13 17  1  0  0  0
 14 15  2  0  0  0
 16 15  1  0  0  0
 18 19  1  0  0  0
 19 20  1  0  0  0
 20 21  1  0  0  0
 22 23  1  0  0  0
 23 24  1  0  0  0
 24 25  4  0  0  0
 24 29  4  0  0  0
 25 26  4  0  0  0
 26 27  4  0  0  0
 28 27  4  0  0  0
 29 28  4  0  0  0
 12 22  1  0  0  0
 21  8  1  0  0  0
 17  5  2  0  0  0
 17  4  1  0  0  0
  7 16  1  0  0  0
  7 13  1  0  0  0
  6 12  1  0  0  0
 11  3  2  0  0  0
 11  2  1  0  0  0
 10  6  1  0  0  0
  9  7  1  0  0  0
  2 30  1  0  0  0
  4 31  1  0  0  0
  6 32  1  0  0  0
  6 33  1  0  0  0
  8 34  1  0  0  0
  8 35  1  0  0  0
  8 36  1  0  0  0
 10 37  1  0  0  0
 12 38  1  0  0  0
 13 39  1  0  0  0
 14 40  1  0  0  0
 15 41  1  0  0  0
 16 42  1  0  0  0
 16 43  1  0  0  0
 18 44  1  0  0  0
 18 45  1  0  0  0
 19 46  1  0  0  0
 19 47  1  0  0  0
 20 48  1  0  0  0
 20 49  1  0  0  0
 21 50  1  0  0  0
 21 51  1  0  0  0
 22 52  1  0  0  0
 22 53  1  0  0  0
 23 54  1  0  0  0
 23 55  1  0  0  0
 25 56  1  0  0  0
 26 57  1  0  0  0
 27 58  1  0  0  0
 28 59  1  0  0  0
 29 60  1  0  0  0
M  END
$$$$
