5ws3_ligand
  -I-interpret- 

 58 60  0  0  0  0  0  0  0  0999 V2000
   38.4520   38.6490  -50.4440 C   0  0  0  0  0
   42.1560   39.3590  -55.1010 C   0  0  0  0  0
   43.3500   40.8230  -53.6680 C   0  0  0  0  0
   43.3110   41.9680  -54.4760 C   0  0  0  0  0
   44.0080   44.3680  -50.4740 C   0  0  0  0  0
   45.4410   39.8640  -55.8800 C   0  0  0  0  0
   45.7660   40.2210  -58.2380 C   0  0  0  0  0
   46.7410   41.2890  -54.3140 C   0  0  0  0  0
   46.3700   40.8850  -55.6000 C   0  0  0  0  0
   46.9780   41.5580  -56.6550 C   0  0  0  0  0
   46.6790   41.2240  -57.9620 C   0  0  0  0  0
   45.1570   39.5390  -57.2000 C   0  0  0  0  0
   44.6140   38.9120  -54.6180 S   0  0  0  0  0
   44.2520   37.5390  -55.1870 O   0  0  0  0  0
   45.5720   38.7280  -53.4610 O   0  0  0  0  0
   43.2230   39.5570  -54.1210 N   0  0  0  0  0
   43.5460   40.9440  -52.2940 C   0  0  0  0  0
   43.7000   42.1940  -51.7030 N   0  0  0  0  0
   43.4590   43.2120  -53.8610 C   0  0  0  0  0
   43.6500   43.3030  -52.4680 C   0  0  0  0  0
   43.7980   44.5130  -51.8820 O   0  0  0  0  0
   40.8400   39.4620  -54.3190 C   0  0  0  0  0
   40.1220   40.4440  -54.4360 O   0  0  0  0  0
   40.5190   38.4500  -53.4670 N   0  0  0  0  0
   41.3280   37.2140  -53.3070 C   0  0  0  0  0
   40.6580   36.1280  -54.1390 C   0  0  0  0  0
   39.2540   38.5320  -52.7210 C   0  0  0  0  0
   39.4810   38.8280  -51.3630 C   0  0  0  0  0
   38.6410   38.9230  -49.1020 C   0  0  0  0  0
   39.8640   39.4000  -48.6490 C   0  0  0  0  0
   40.9050   39.5800  -49.5490 N   0  0  0  0  0
   40.7090   39.2960  -50.9020 C   0  0  0  0  0
   37.4826   38.2875  -50.7869 H   0  0  0  0  0
   42.2475   38.3915  -55.5945 H   0  0  0  0  0
   42.2040   40.1058  -55.8935 H   0  0  0  0  0
   43.1691   41.8889  -55.5538 H   0  0  0  0  0
   43.1504   43.8624  -50.0302 H   0  0  0  0  0
   44.9084   43.7785  -50.3010 H   0  0  0  0  0
   44.1246   45.3530  -50.0220 H   0  0  0  0  0
   45.5273   39.9690  -59.2713 H   0  0  0  0  0
   45.8605   41.6424  -53.7774 H   0  0  0  0  0
   47.1781   40.4445  -53.7812 H   0  0  0  0  0
   47.4726   42.0940  -54.3843 H   0  0  0  0  0
   47.6944   42.3534  -56.4493 H   0  0  0  0  0
   47.1653   41.7539  -58.7811 H   0  0  0  0  0
   44.4487   38.7402  -57.4198 H   0  0  0  0  0
   43.5791   40.0480  -51.6742 H   0  0  0  0  0
   43.4266   44.1202  -54.4629 H   0  0  0  0  0
   41.3770   36.9197  -52.2586 H   0  0  0  0  0
   42.3519   37.3786  -53.6427 H   0  0  0  0  0
   39.6413   35.9714  -53.7787 H   0  0  0  0  0
   40.6310   36.4373  -55.1838 H   0  0  0  0  0
   41.2240   35.2010  -54.0477 H   0  0  0  0  0
   38.7484   37.5686  -52.7870 H   0  0  0  0  0
   38.6464   39.3271  -53.1532 H   0  0  0  0  0
   37.8259   38.7638  -48.3960 H   0  0  0  0  0
   40.0054   39.6316  -47.5933 H   0  0  0  0  0
   41.5277   39.4425  -51.6065 H   0  0  0  0  0
 28  1  4  0  0  0
  1 29  4  0  0  0
  2 16  1  0  0  0
 22  2  1  0  0  0
  3  4  4  0  0  0
 16  3  1  0  0  0
  3 17  4  0  0  0
  4 19  4  0  0  0
 21  5  1  0  0  0
  6  9  4  0  0  0
  6 12  4  0  0  0
 13  6  1  0  0  0
  7 11  4  0  0  0
 12  7  4  0  0  0
  9  8  1  0  0  0
  9 10  4  0  0  0
 10 11  4  0  0  0
 13 14  2  0  0  0
 13 15  2  0  0  0
 16 13  1  0  0  0
 17 18  4  0  0  0
 18 20  4  0  0  0
 19 20  4  0  0  0
 20 21  1  0  0  0
 22 23  2  0  0  0
 24 22  1  0  0  0
 24 25  1  0  0  0
 27 24  1  0  0  0
 25 26  1  0  0  0
 27 28  1  0  0  0
 28 32  4  0  0  0
 29 30  4  0  0  0
 30 31  4  0  0  0
 31 32  4  0  0  0
  1 33  1  0  0  0
  2 34  1  0  0  0
  2 35  1  0  0  0
  4 36  1  0  0  0
  5 37  1  0  0  0
  5 38  1  0  0  0
  5 39  1  0  0  0
  7 40  1  0  0  0
  8 41  1  0  0  0
  8 42  1  0  0  0
  8 43  1  0  0  0
 10 44  1  0  0  0
 11 45  1  0  0  0
 12 46  1  0  0  0
 17 47  1  0  0  0
 19 48  1  0  0  0
 25 49  1  0  0  0
 25 50  1  0  0  0
 26 51  1  0  0  0
 26 52  1  0  0  0
 26 53  1  0  0  0
 27 54  1  0  0  0
 27 55  1  0  0  0
 29 56  1  0  0  0
 30 57  1  0  0  0
 32 58  1  0  0  0
M  END
$$$$
