1njj_ligand
  -I-interpret- 

 78 80  0  0  0  0  0  0  0  0999 V2000
   76.6540   85.3650  121.5890 C   0  0  0  0  0
   77.3340   84.0990  121.4000 O   0  0  0  0  0
   76.3600   85.9900  120.2060 C   0  0  0  0  0
   77.6220   86.1750  119.4660 N   0  3  0  0  0
   75.6440   87.3360  120.3650 C   0  0  0  0  0
   74.3610   87.1160  120.9630 O   0  0  0  0  0
   76.4420   88.3170  121.2370 C   0  0  0  0  0
   77.5060   88.8350  120.4610 O   0  0  0  0  0
   77.0310   87.6670  122.5360 C   0  0  0  0  0
   77.4600   86.2540  122.4280 O   0  0  0  0  0
   76.0270   87.8530  123.7010 C   0  0  0  0  0
   76.4320   87.0270  124.8460 O   0  0  0  0  0
   75.9890   89.3340  124.1430 C   0  0  0  0  0
   75.7750   80.0440  120.8100 C   0  0  0  0  0
   74.6740   79.0710  120.9310 N   0  3  0  0  0
   76.1510   80.5580  122.2340 C   0  0  0  0  0
   77.0880   81.7900  122.1970 C   0  0  0  0  0
   77.3590   82.2350  123.5720 N   0  3  0  0  0
   76.4500   82.9440  121.3810 C   0  0  0  0  0
   76.1880   82.4780  119.9110 C   0  0  0  0  0
   75.4840   83.4840  119.1890 O   0  0  0  0  0
   75.3420   81.1800  119.8140 C   0  0  0  0  0
   75.4570   80.7000  118.4680 O   0  0  0  0  0
   74.1600   80.5820  117.8770 C   0  0  0  0  0
   73.8880   79.1610  117.3140 C   0  0  0  0  0
   75.0330   78.7390  116.5670 O   0  0  0  0  0
   72.6320   79.0880  116.3720 C   0  0  0  0  0
   71.5990   78.2740  117.0700 N   0  3  0  0  0
   71.8590   76.8330  116.8420 C   0  0  0  0  0
   71.9670   80.4490  115.8590 C   0  0  0  0  0
   70.6630   80.5350  116.3930 O   0  0  0  0  0
   71.8540   80.3780  114.3230 C   0  0  0  0  0
   72.7420   81.7670  116.2350 C   0  0  0  0  0
   74.0710   81.5320  116.7900 O   0  0  0  0  0
   75.7070   85.2074  122.1051 H   0  0  0  0  0
   75.7094   85.3166  119.6480 H   0  0  0  0  0
   78.0908   85.2747  119.3653 H   0  0  0  0  0
   77.4203   86.5598  118.5431 H   0  0  0  0  0
   78.2247   86.8180  119.9795 H   0  0  0  0  0
   75.5417   87.7780  119.3739 H   0  0  0  0  0
   73.8578   86.5033  120.4218 H   0  0  0  0  0
   75.7527   89.0960  121.5626 H   0  0  0  0  0
   77.1532   89.2352  119.6629 H   0  0  0  0  0
   77.9629   88.1996  122.7260 H   0  0  0  0  0
   75.0383   87.5501  123.3564 H   0  0  0  0  0
   75.8056   87.1474  125.5635 H   0  0  0  0  0
   76.9816   89.6383  124.4750 H   0  0  0  0  0
   75.6795   89.9549  123.3023 H   0  0  0  0  0
   75.2792   89.4493  124.9622 H   0  0  0  0  0
   76.6753   79.5919  120.3938 H   0  0  0  0  0
   74.4208   78.7289  120.0041 H   0  0  0  0  0
   74.9752   78.2892  121.5128 H   0  0  0  0  0
   73.8669   79.5242  121.3596 H   0  0  0  0  0
   76.6749   79.7547  122.7520 H   0  0  0  0  0
   75.2302   80.8531  122.7370 H   0  0  0  0  0
   78.0222   81.5082  121.7112 H   0  0  0  0  0
   77.9763   83.0467  123.5500 H   0  0  0  0  0
   76.4809   82.4863  124.0260 H   0  0  0  0  0
   77.8072   81.4795  124.0905 H   0  0  0  0  0
   75.4962   83.2218  121.8295 H   0  0  0  0  0
   77.1758   82.2876  119.4913 H   0  0  0  0  0
   75.3311   83.1834  118.2902 H   0  0  0  0  0
   74.3180   81.4318  120.0899 H   0  0  0  0  0
   73.4189   80.7766  118.6522 H   0  0  0  0  0
   73.6894   78.5145  118.1688 H   0  0  0  0  0
   74.8768   77.8603  116.2132 H   0  0  0  0  0
   73.0157   78.6546  115.4484 H   0  0  0  0  0
   70.6771   78.5128  116.7046 H   0  0  0  0  0
   71.6343   78.4694  118.0705 H   0  0  0  0  0
   71.8230   76.6233  115.7730 H   0  0  0  0  0
   72.8446   76.5770  117.2308 H   0  0  0  0  0
   71.1000   76.2425  117.3551 H   0  0  0  0  0
   70.2490   81.3479  116.0941 H   0  0  0  0  0
   72.8481   80.2594  113.8919 H   0  0  0  0  0
   71.2320   79.5273  114.0447 H   0  0  0  0  0
   71.4023   81.2973  113.9503 H   0  0  0  0  0
   72.1576   82.2807  116.9983 H   0  0  0  0  0
   72.8702   82.3412  115.3174 H   0  0  0  0  0
  2  1  1  0  0  0
  1  3  1  0  0  0
  1 10  1  0  0  0
 19  2  1  0  0  0
  3  4  1  0  0  0
  3  5  1  0  0  0
  5  6  1  0  0  0
  5  7  1  0  0  0
  7  8  1  0  0  0
  9  7  1  0  0  0
 10  9  1  0  0  0
  9 11  1  0  0  0
 11 12  1  0  0  0
 11 13  1  0  0  0
 14 15  1  0  0  0
 16 14  1  0  0  0
 17 16  1  0  0  0
 17 18  1  0  0  0
 19 17  1  0  0  0
 19 20  1  0  0  0
 20 21  1  0  0  0
 20 22  1  0  0  0
 22 14  1  0  0  0
 22 23  1  0  0  0
 23 24  1  0  0  0
 24 25  1  0  0  0
 24 34  1  0  0  0
 25 26  1  0  0  0
 25 27  1  0  0  0
 27 28  1  0  0  0
 27 30  1  0  0  0
 28 29  1  0  0  0
 30 31  1  0  0  0
 30 32  1  0  0  0
 30 33  1  0  0  0
 33 34  1  0  0  0
  1 35  1  0  0  0
  3 36  1  0  0  0
  4 37  1  0  0  0
  4 38  1  0  0  0
  4 39  1  0  0  0
  5 40  1  0  0  0
  6 41  1  0  0  0
  7 42  1  0  0  0
  8 43  1  0  0  0
  9 44  1  0  0  0
 11 45  1  0  0  0
 12 46  1  0  0  0
 13 47  1  0  0  0
 13 48  1  0  0  0
 13 49  1  0  0  0
 14 50  1  0  0  0
 15 51  1  0  0  0
 15 52  1  0  0  0
 15 53  1  0  0  0
 16 54  1  0  0  0
 16 55  1  0  0  0
 17 56  1  0  0  0
 18 57  1  0  0  0
 18 58  1  0  0  0
 18 59  1  0  0  0
 19 60  1  0  0  0
 20 61  1  0  0  0
 21 62  1  0  0  0
 22 63  1  0  0  0
 24 64  1  0  0  0
 25 65  1  0  0  0
 26 66  1  0  0  0
 27 67  1  0  0  0
 28 68  1  0  0  0
 28 69  1  0  0  0
 29 70  1  0  0  0
 29 71  1  0  0  0
 29 72  1  0  0  0
 31 73  1  0  0  0
 32 74  1  0  0  0
 32 75  1  0  0  0
 32 76  1  0  0  0
 33 77  1  0  0  0
 33 78  1  0  0  0
M  END
$$$$
