3gx0_ligand
  -I-interpret- 

 74 73  0  0  0  0  0  0  0  0999 V2000
   28.5050   43.3690   52.6740 N   0  3  0  0  0
   29.1170   42.6390   51.5640 C   0  0  0  0  0
   30.6390   42.7150   51.7130 C   0  0  0  0  0
   31.1300   43.8220   52.0710 O   0  0  0  0  0
   31.2850   41.6510   51.4660 O   0  0  0  0  0
   28.6430   43.1670   50.1740 C   0  0  0  0  0
   28.9750   42.1580   49.0490 C   0  0  0  0  0
   28.1870   40.8130   49.1730 C   0  0  0  0  0
   26.9970   40.8010   49.5300 O   0  0  0  0  0
   28.9030   39.7120   48.8760 N   0  0  0  0  0
   28.3560   38.3280   48.9200 C   0  0  0  0  0
   29.2770   37.4440   49.7480 C   0  0  0  0  0
   30.4790   37.7260   49.8340 O   0  0  0  0  0
   28.3020   37.7470   47.5070 C   0  0  0  0  0
   26.9750   38.4120   46.4380 S   0  0  0  0  0
   28.7060   36.3740   50.3280 N   0  0  0  0  0
   29.4900   35.4180   51.1330 C   0  0  0  0  0
   28.7720   34.0640   51.2530 C   0  0  0  0  0
   28.9360   33.4560   52.3550 O   0  0  0  0  0
   28.0600   33.6650   50.2840 O   0  0  0  0  0
   24.2610   41.1860   50.6440 N   0  0  0  0  0
   23.5070   42.3500   51.2010 C   0  0  0  0  0
   24.4160   43.1380   52.1650 C   0  0  0  0  0
   25.5730   42.6700   52.3400 O   0  0  0  0  0
   23.9320   44.1750   52.7010 O   0  0  0  0  0
   23.5870   40.1340   50.1530 C   0  0  0  0  0
   22.3440   40.0470   50.1090 O   0  0  0  0  0
   24.4640   39.0110   49.5970 C   0  0  0  0  0
   23.9530   37.7400   50.1660 N   0  0  0  0  0
   24.4070   39.0950   48.0570 C   0  0  0  0  0
   25.2090   37.6800   47.2480 S   0  0  0  0  0
   24.1470   33.6470   52.8660 C   0  0  0  0  0
   23.4210   32.7160   51.8780 C   0  0  0  0  0
   22.2830   33.0980   51.5270 O   0  0  0  0  0
   23.9860   31.6500   51.5000 O   0  0  0  0  0
   25.1010   32.9150   53.7340 N   0  3  0  0  0
   24.8910   34.7500   52.1250 C   0  0  0  0  0
   23.9520   35.6380   51.3420 C   0  0  0  0  0
   24.7220   36.8400   50.7820 C   0  0  0  0  0
   25.9490   36.9120   50.8970 O   0  0  0  0  0
   28.8445   42.9890   53.5576 H   0  0  0  0  0
   28.7543   44.3559   52.6088 H   0  0  0  0  0
   27.4910   43.2694   52.6269 H   0  0  0  0  0
   28.7978   41.5976   51.6045 H   0  0  0  0  0
   30.6716   40.9565   51.2149 H   0  0  0  0  0
   29.1582   44.1043   49.9638 H   0  0  0  0  0
   27.5628   43.3093   50.2059 H   0  0  0  0  0
   30.0376   41.9251   49.1181 H   0  0  0  0  0
   28.6956   42.6176   48.1010 H   0  0  0  0  0
   29.8787   39.8334   48.6046 H   0  0  0  0  0
   27.3577   38.3615   49.3563 H   0  0  0  0  0
   28.1095   36.6797   47.6157 H   0  0  0  0  0
   29.2467   38.0038   47.0278 H   0  0  0  0  0
   27.7049   36.2191   50.2084 H   0  0  0  0  0
   29.6182   35.8315   52.1333 H   0  0  0  0  0
   30.4501   35.2582   50.6423 H   0  0  0  0  0
   29.5205   33.9687   52.9181 H   0  0  0  0  0
   25.2810   41.1909   50.6370 H   0  0  0  0  0
   22.6307   41.9905   51.7404 H   0  0  0  0  0
   23.1907   43.0013   50.3862 H   0  0  0  0  0
   23.0316   44.3024   52.3933 H   0  0  0  0  0
   25.5158   39.0861   49.8732 H   0  0  0  0  0
   22.9559   37.5424   50.0815 H   0  0  0  0  0
   24.9344   39.9986   47.7512 H   0  0  0  0  0
   23.3581   39.0998   47.7606 H   0  0  0  0  0
   23.3758   34.0839   53.5004 H   0  0  0  0  0
   24.8518   31.5855   51.9096 H   0  0  0  0  0
   25.5549   33.5723   54.3683 H   0  0  0  0  0
   24.5967   32.2122   54.2745 H   0  0  0  0  0
   25.8053   32.4588   53.1541 H   0  0  0  0  0
   25.5830   34.2832   51.4240 H   0  0  0  0  0
   25.4089   35.3657   52.8604 H   0  0  0  0  0
   23.1582   35.9925   51.9995 H   0  0  0  0  0
   23.5211   35.0696   50.5177 H   0  0  0  0  0
  2  1  1  0  0  0
  2  3  1  0  0  0
  6  2  1  0  0  0
  3  4  2  0  0  0
  3  5  1  0  0  0
  7  6  1  0  0  0
  8  7  1  0  0  0
  8  9  2  0  0  0
 10  8  1  0  0  0
 11 10  1  0  0  0
 11 12  1  0  0  0
 14 11  1  0  0  0
 12 13  2  0  0  0
 12 16  1  0  0  0
 15 14  1  0  0  0
 31 15  1  0  0  0
 16 17  1  0  0  0
 17 18  1  0  0  0
 18 19  1  0  0  0
 18 20  2  0  0  0
 21 22  1  0  0  0
 26 21  1  0  0  0
 22 23  1  0  0  0
 23 24  2  0  0  0
 23 25  1  0  0  0
 26 27  2  0  0  0
 28 26  1  0  0  0
 29 28  1  0  0  0
 28 30  1  0  0  0
 39 29  1  0  0  0
 30 31  1  0  0  0
 32 33  1  0  0  0
 32 36  1  0  0  0
 37 32  1  0  0  0
 33 34  2  0  0  0
 33 35  1  0  0  0
 38 37  1  0  0  0
 38 39  1  0  0  0
 39 40  2  0  0  0
  1 41  1  0  0  0
  1 42  1  0  0  0
  1 43  1  0  0  0
  2 44  1  0  0  0
  5 45  1  0  0  0
  6 46  1  0  0  0
  6 47  1  0  0  0
  7 48  1  0  0  0
  7 49  1  0  0  0
 10 50  1  0  0  0
 11 51  1  0  0  0
 14 52  1  0  0  0
 14 53  1  0  0  0
 16 54  1  0  0  0
 17 55  1  0  0  0
 17 56  1  0  0  0
 19 57  1  0  0  0
 21 58  1  0  0  0
 22 59  1  0  0  0
 22 60  1  0  0  0
 25 61  1  0  0  0
 28 62  1  0  0  0
 29 63  1  0  0  0
 30 64  1  0  0  0
 30 65  1  0  0  0
 32 66  1  0  0  0
 35 67  1  0  0  0
 36 68  1  0  0  0
 36 69  1  0  0  0
 36 70  1  0  0  0
 37 71  1  0  0  0
 37 72  1  0  0  0
 38 73  1  0  0  0
 38 74  1  0  0  0
M  END
$$$$
