### 
### Created by X-TOOL on Mon Sep 10 21:12:49 2018
### 

@<TRIPOS>MOLECULE
1mto_ligand
   27    27     1     0     0
SMALL
GAST_HUCK


@<TRIPOS>ATOM
      1 O1        -26.3460   17.8740   98.7390 O.3       1 F6P        -0.3896
      2 C1        -26.0870   16.9310   97.7300 C.3       1 F6P         0.1006
      3 C2        -25.5710   15.6320   98.3800 C.3       1 F6P         0.2205
      4 O2        -25.2620   14.6260   97.4050 O.3       1 F6P        -0.3608
      5 C3        -26.6120   15.1570   99.3980 C.3       1 F6P         0.1392
      6 O3        -27.6580   14.4400   98.8220 O.3       1 F6P        -0.3837
      7 C4        -25.8020   14.4000  100.4660 C.3       1 F6P         0.1148
      8 O4        -26.3200   14.4520  101.7980 O.3       1 F6P        -0.3864
      9 C5        -24.3850   14.9530  100.2790 C.3       1 F6P         0.1181
     10 O5        -24.4430   15.8690   99.1770 O.3       1 F6P        -0.3361
     11 C6        -23.3860   13.9140  100.0180 C.3       1 F6P         0.1071
     12 O6        -22.4650   14.4530   98.9900 O.3       1 F6P        -0.2734
     13 P         -20.8830   14.4480   99.1290 P.3       1 F6P         0.2008
     14 O1P       -20.4500   15.2280  100.3320 O.co2     1 F6P        -0.5537
     15 O2P       -20.3370   13.0440   99.1670 O.co2     1 F6P        -0.5537
     16 O3P       -20.3140   15.0610   97.8970 O.co2     1 F6P        -0.5537
     17 H1        -27.0025   17.5288   99.3326 H         1 F6P         0.2096
     18 H2        -25.3259   17.3267   97.0415 H         1 F6P         0.0612
     19 H3        -27.0124   16.7227   97.1731 H         1 F6P         0.0612
     20 H4        -25.0113   13.8238   97.8478 H         1 F6P         0.2129
     21 H5        -27.0638   16.0398   99.8740 H         1 F6P         0.0675
     22 H6        -27.3108   13.6705   98.3864 H         1 F6P         0.2101
     23 H7        -25.7913   13.3342  100.1940 H         1 F6P         0.0648
     24 H8        -27.1925   14.0766  101.8121 H         1 F6P         0.2100
     25 H9        -24.0899   15.4925  101.1911 H         1 F6P         0.0650
     26 H10       -23.8763   13.0023   99.6462 H         1 F6P         0.0639
     27 H11       -22.8312   13.6824  100.9391 H         1 F6P         0.0639
@<TRIPOS>BOND
     1    1    2 1  
     2    2    3 1  
     3    3    4 1  
     4    3    5 1  
     5    3   10 1  
     6    5    6 1  
     7    5    7 1  
     8    7    8 1  
     9    7    9 1  
    10    9   10 1  
    11    9   11 1  
    12   11   12 1  
    13   12   13 1  
    14   13   14 ar 
    15   13   15 ar 
    16   13   16 ar 
    17    1   17 1  
    18    2   18 1  
    19    2   19 1  
    20    4   20 1  
    21    5   21 1  
    22    6   22 1  
    23    7   23 1  
    24    8   24 1  
    25    9   25 1  
    26   11   26 1  
    27   11   27 1  
@<TRIPOS>SUBSTRUCTURE
     1 F6P         1

