1mto_ligand
  -I-interpret- 

 29 29  0  0  0  0  0  0  0  0999 V2000
  -26.3460   17.8740   98.7390 O   0  0  0  0  0
  -26.0870   16.9310   97.7300 C   0  0  0  0  0
  -25.5710   15.6320   98.3800 C   0  0  0  0  0
  -25.2620   14.6260   97.4050 O   0  0  0  0  0
  -26.6120   15.1570   99.3980 C   0  0  0  0  0
  -27.6580   14.4400   98.8220 O   0  0  0  0  0
  -25.8020   14.4000  100.4660 C   0  0  0  0  0
  -26.3200   14.4520  101.7980 O   0  0  0  0  0
  -24.3850   14.9530  100.2790 C   0  0  0  0  0
  -24.4430   15.8690   99.1770 O   0  0  0  0  0
  -23.3860   13.9140  100.0180 C   0  0  0  0  0
  -22.4650   14.4530   98.9900 O   0  0  0  0  0
  -20.8830   14.4480   99.1290 P   0  0  0  0  0
  -20.4500   15.2280  100.3320 O   0  0  0  0  0
  -20.3370   13.0440   99.1670 O   0  0  0  0  0
  -20.3140   15.0610   97.8970 O   0  0  0  0  0
  -26.6680   18.6863   98.3413 H   0  0  0  0  0
  -25.3362   17.3228   97.0438 H   0  0  0  0  0
  -27.0018   16.7262   97.1738 H   0  0  0  0  0
  -26.0345   14.4634   96.8588 H   0  0  0  0  0
  -27.1531   15.9854   99.8553 H   0  0  0  0  0
  -28.1020   14.9901   98.1725 H   0  0  0  0  0
  -25.8460   13.3200  100.3256 H   0  0  0  0  0
  -27.2069   14.0847  101.8098 H   0  0  0  0  0
  -24.0678   15.4365  101.2030 H   0  0  0  0  0
  -23.8623   12.9978   99.6690 H   0  0  0  0  0
  -22.8438   13.6606  100.9290 H   0  0  0  0  0
  -20.8202   14.8274  101.1220 H   0  0  0  0  0
  -20.6709   12.5930   99.9459 H   0  0  0  0  0
  1  2  1  0  0  0
  2  3  1  0  0  0
  3  4  1  0  0  0
  3  5  1  0  0  0
  3 10  1  0  0  0
  5  6  1  0  0  0
  5  7  1  0  0  0
  7  8  1  0  0  0
  7  9  1  0  0  0
  9 10  1  0  0  0
  9 11  1  0  0  0
 11 12  1  0  0  0
 12 13  1  0  0  0
 13 14  1  0  0  0
 13 15  1  0  0  0
 13 16  2  0  0  0
  1 17  1  0  0  0
  2 18  1  0  0  0
  2 19  1  0  0  0
  4 20  1  0  0  0
  5 21  1  0  0  0
  6 22  1  0  0  0
  7 23  1  0  0  0
  8 24  1  0  0  0
  9 25  1  0  0  0
 11 26  1  0  0  0
 11 27  1  0  0  0
 14 28  1  0  0  0
 15 29  1  0  0  0
M  END
$$$$
