4av4_ligand
  -I-interpret- 

 38 39  0  0  0  0  0  0  0  0999 V2000
  -14.6670    3.9780   -9.5890 O   0  0  0  0  0
  -15.3850    3.7320  -10.8030 C   0  0  0  0  0
  -15.2040    2.4900  -11.5060 C   0  0  0  0  0
  -13.7290    2.2320  -11.5090 O   0  0  0  0  0
  -15.9880    1.3950  -10.8580 C   0  0  0  0  0
  -17.4140    1.7570  -10.8450 O   0  0  0  0  0
  -15.6700    0.0890  -11.4380 C   0  0  0  0  0
  -16.2120   -0.9440  -10.6730 O   0  0  0  0  0
  -14.1870   -0.1410  -11.5470 C   0  0  0  0  0
  -13.6570   -0.3710  -10.2860 O   0  0  0  0  0
  -13.4460    1.0100  -12.1480 C   0  0  0  0  0
  -13.8170    1.0900  -13.4730 O   0  0  0  0  0
  -13.0690    2.0180  -14.2870 C   0  0  0  0  0
  -13.6360    2.1130  -15.6370 C   0  0  0  0  0
  -14.1170    2.2930  -16.7220 C   0  0  0  0  0
  -14.6980    2.5790  -18.0730 C   0  0  0  0  0
  -13.8360    3.1590  -19.0530 C   0  0  0  0  0
  -14.3750    3.4500  -20.3120 C   0  0  0  0  0
  -15.7250    3.1380  -20.5460 C   0  0  0  0  0
  -16.5170    2.5880  -19.5800 N   0  0  0  0  0
  -16.0190    2.3040  -18.3440 C   0  0  0  0  0
  -14.9005    4.8455   -9.2506 H   0  0  0  0  0
  -15.0207    4.4921  -11.4941 H   0  0  0  0  0
  -16.4330    3.7256  -10.5035 H   0  0  0  0  0
  -15.5762    2.5363  -12.5294 H   0  0  0  0  0
  -15.6985    1.2847   -9.8129 H   0  0  0  0  0
  -17.5191    2.6247  -10.4479 H   0  0  0  0  0
  -16.1052    0.0904  -12.4373 H   0  0  0  0  0
  -17.1599   -0.8164  -10.5908 H   0  0  0  0  0
  -14.0645   -1.0010  -12.2055 H   0  0  0  0  0
  -12.7111   -0.5173  -10.3595 H   0  0  0  0  0
  -12.3762    0.8370  -12.0312 H   0  0  0  0  0
  -12.0411    1.6637  -14.3647 H   0  0  0  0  0
  -13.1108    3.0026  -13.8212 H   0  0  0  0  0
  -12.7904    3.3687  -18.8276 H   0  0  0  0  0
  -13.7635    3.9066  -21.0902 H   0  0  0  0  0
  -16.1523    3.3412  -21.5279 H   0  0  0  0  0
  -16.6591    1.8643  -17.5791 H   0  0  0  0  0
  1  2  1  0  0  0
  2  3  1  0  0  0
  3  4  1  0  0  0
  3  5  1  0  0  0
  4 11  1  0  0  0
  5  6  1  0  0  0
  5  7  1  0  0  0
  7  8  1  0  0  0
  7  9  1  0  0  0
  9 10  1  0  0  0
  9 11  1  0  0  0
 11 12  1  0  0  0
 12 13  1  0  0  0
 13 14  1  0  0  0
 14 15  3  0  0  0
 15 16  1  0  0  0
 16 17  4  0  0  0
 16 21  4  0  0  0
 17 18  4  0  0  0
 18 19  4  0  0  0
 19 20  4  0  0  0
 20 21  4  0  0  0
  1 22  1  0  0  0
  2 23  1  0  0  0
  2 24  1  0  0  0
  3 25  1  0  0  0
  5 26  1  0  0  0
  6 27  1  0  0  0
  7 28  1  0  0  0
  8 29  1  0  0  0
  9 30  1  0  0  0
 10 31  1  0  0  0
 11 32  1  0  0  0
 13 33  1  0  0  0
 13 34  1  0  0  0
 17 35  1  0  0  0
 18 36  1  0  0  0
 19 37  1  0  0  0
 21 38  1  0  0  0
M  END
$$$$
