2qyk_ligand
  -I-interpret- 

 41 44  0  0  0  0  0  0  0  0999 V2000
   94.6300   66.2770   16.2820 C   0  0  0  0  0
   95.4300   67.2380   16.8900 C   0  0  0  0  0
   96.0440   66.9680   18.1080 C   0  0  0  0  0
   95.8570   65.7330   18.7210 C   0  0  0  0  0
   94.4480   65.0410   16.8910 C   0  0  0  0  0
   96.4370   65.4420   19.9490 C   0  0  0  0  0
   98.7060   65.3040   24.3190 C   0  0  0  0  0
   97.1100   66.4150   20.6800 C   0  0  0  0  0
   97.6570   66.0750   21.9120 C   0  0  0  0  0
   98.3410   67.0140   22.6750 C   0  0  0  0  0
   93.9840   66.5500   15.0930 C   0  0  0  0  0
   93.3140   65.6330   14.5710 O   0  0  0  0  0
   94.0930   67.6990   14.6110 O   0  0  0  0  0
   95.0610   64.7710   18.1090 C   0  0  0  0  0
   96.3230   64.1960   20.4330 N   0  0  0  0  0
   98.8720   66.6180   23.8970 C   0  0  0  0  0
   98.0500   64.4320   23.5730 N   0  0  0  0  0
   97.5240   64.7760   22.3890 C   0  0  0  0  0
   96.8420   63.8410   21.6150 C   0  0  0  0  0
   96.7280   62.5160   22.0200 C   0  0  0  0  0
   96.9400   61.5090   21.0860 C   0  0  0  0  0
   96.4150   62.1880   23.3350 C   0  0  0  0  0
   96.3190   60.8530   23.7100 C   0  0  0  0  0
   96.5350   59.8470   22.7750 C   0  0  0  0  0
   96.8450   60.1730   21.4600 C   0  0  0  0  0
   97.0600   59.2200   20.5560 N   0  0  0  0  0
   96.9830   58.0530   20.8690 O   0  0  0  0  0
   97.3310   59.5200   19.4160 O   0  0  0  0  0
   95.5763   68.2059   16.4105 H   0  0  0  0  0
   96.6711   67.7230   18.5821 H   0  0  0  0  0
   93.8252   64.2842   16.4140 H   0  0  0  0  0
   99.1216   64.9890   25.2762 H   0  0  0  0  0
   97.2072   67.4292   20.2927 H   0  0  0  0  0
   98.4585   68.0388   22.3227 H   0  0  0  0  0
   94.6532   68.2317   15.1802 H   0  0  0  0  0
   94.9172   63.8016   18.5861 H   0  0  0  0  0
   99.4135   67.3311   24.5185 H   0  0  0  0  0
   97.1819   61.7677   20.0551 H   0  0  0  0  0
   96.2455   62.9755   24.0693 H   0  0  0  0  0
   96.0737   60.5941   24.7400 H   0  0  0  0  0
   96.4611   58.8013   23.0736 H   0  0  0  0  0
  2  1  4  0  0  0
  5  1  4  0  0  0
  1 11  1  0  0  0
  3  2  4  0  0  0
  4  3  4  0  0  0
  6  4  1  0  0  0
  4 14  4  0  0  0
 14  5  4  0  0  0
  8  6  4  0  0  0
  6 15  4  0  0  0
 16  7  4  0  0  0
  7 17  4  0  0  0
  9  8  4  0  0  0
 10  9  4  0  0  0
  9 18  4  0  0  0
 10 16  4  0  0  0
 11 12  2  0  0  0
 11 13  1  0  0  0
 15 19  4  0  0  0
 17 18  4  0  0  0
 18 19  4  0  0  0
 19 20  1  0  0  0
 20 21  4  0  0  0
 20 22  4  0  0  0
 21 25  4  0  0  0
 22 23  4  0  0  0
 23 24  4  0  0  0
 24 25  4  0  0  0
 25 26  1  0  0  0
 26 27  2  0  0  0
 26 28  2  0  0  0
  2 29  1  0  0  0
  3 30  1  0  0  0
  5 31  1  0  0  0
  7 32  1  0  0  0
  8 33  1  0  0  0
 10 34  1  0  0  0
 13 35  1  0  0  0
 14 36  1  0  0  0
 16 37  1  0  0  0
 21 38  1  0  0  0
 22 39  1  0  0  0
 23 40  1  0  0  0
 24 41  1  0  0  0
M  END
$$$$
