### 
### Created by X-TOOL on Mon Sep 10 21:13:06 2018
### 

@<TRIPOS>MOLECULE
3nfk_ligand
  200   202     1     0     0
SMALL
GAST_HUCK


@<TRIPOS>ATOM
      1 N          24.9470   -6.0770   16.5970 N.4       1 SER         0.2396
      2 CA         25.2780   -5.2050   15.4600 C.3       1 SER         0.0885
      3 C          25.2540   -6.0460   14.2070 C.2       1 SER         0.2291
      4 O          25.0830   -7.2730   14.2990 O.2       1 SER        -0.3906
      5 CB         26.6430   -4.5460   15.6470 C.3       1 SER         0.1041
      6 OG         26.6590   -3.9140   16.9210 O.3       1 SER        -0.3870
      7 N          25.3400   -5.3760   13.0250 N.am      1 TRP        -0.2599
      8 CA         25.3420   -6.0980   11.7570 C.3       1 TRP         0.1353
      9 C          24.1180   -7.0070   11.6390 C.2       1 TRP         0.2052
     10 O          24.2200   -8.1390   11.1840 O.2       1 TRP        -0.3942
     11 CB         26.6710   -6.8840   11.5800 C.3       1 TRP         0.0042
     12 CG         27.8890   -5.9970   11.5820 C.2       1 TRP        -0.0418
     13 CD1        28.9000   -5.9860   12.5000 C.2       1 TRP         0.0167
     14 CD2        28.1850   -4.9580   10.6420 C.ar      1 TRP        -0.0214
     15 NE1        29.8050   -4.9960   12.1920 N.pl3     1 TRP        -0.2890
     16 CE2        29.4090   -4.3700   11.0320 C.ar      1 TRP         0.0603
     17 CE3        27.5690   -4.5110    9.4660 C.ar      1 TRP        -0.0747
     18 CZ2        29.9890   -3.3100   10.3330 C.ar      1 TRP        -0.0443
     19 CZ3        28.1620   -3.4870    8.7450 C.ar      1 TRP        -0.0792
     20 CH2        29.3600   -2.8930    9.1770 C.ar      1 TRP        -0.0768
     21 N          22.9500   -6.5000   12.0580 N.am      1 GLU        -0.2635
     22 CA         21.6740   -7.2260   11.9900 C.3       1 GLU         0.1325
     23 C          21.6010   -8.4850   12.8440 C.2       1 GLU         0.2041
     24 O          20.7850   -9.3690   12.6000 O.2       1 GLU        -0.3944
     25 CB         21.1810   -7.4560   10.5450 C.3       1 GLU        -0.0008
     26 CG         21.0280   -6.1710    9.7380 C.3       1 GLU         0.0044
     27 CD         19.7910   -5.3440   10.0190 C.2       1 GLU         0.0350
     28 OE1        18.8320   -5.4350    9.2190 O.co2     1 GLU        -0.5690
     29 OE2        19.8000   -4.5610   10.9960 O.co2     1 GLU        -0.5690
     30 N          22.4460   -8.5430   13.8770 N.am      1 SER        -0.2616
     31 CA         22.4330   -9.6310   14.8430 C.3       1 SER         0.1539
     32 C          22.2430   -9.0050   16.2200 C.2       1 SER         0.2063
     33 O          22.7210   -7.8910   16.4880 O.2       1 SER        -0.3943
     34 CB         23.6990  -10.4730   14.7620 C.3       1 SER         0.0843
     35 OG         23.5470  -11.5200   13.8080 O.3       1 SER        -0.3903
     36 N          21.5070   -9.6840   17.0830 N.am      1 HIS        -0.2618
     37 CA         21.2040   -9.1940   18.4210 C.3       1 HIS         0.1421
     38 C          22.4270   -9.2090   19.2940 C.2       1 HIS         0.2060
     39 O          23.0920  -10.2460   19.4110 O.2       1 HIS        -0.3942
     40 CB         20.1080  -10.0600   19.0720 C.3       1 HIS         0.0427
     41 CG         19.5120   -9.4210   20.2870 C.2       1 HIS         0.0561
     42 ND1        19.8680   -9.8220   21.5630 N.pl3     1 HIS        -0.2623
     43 CD2        18.6330   -8.3910   20.3780 C.2       1 HIS        -0.0276
     44 CE1        19.1350   -9.0780   22.3880 C.2       1 HIS         0.0875
     45 NE2        18.4060   -8.1790   21.7240 N.2       1 HIS        -0.3437
     46 N          22.7170   -8.0760   19.9310 N.am      1 LYS        -0.2636
     47 CA         23.8400   -7.9240   20.8430 C.3       1 LYS         0.1310
     48 C          23.2860   -7.4520   22.1880 C.2       1 LYS         0.2040
     49 O          22.5020   -6.4880   22.2440 O.2       1 LYS        -0.3944
     50 CB         24.8690   -6.9450   20.2850 C.3       1 LYS        -0.0122
     51 CG         26.1260   -6.8280   21.1460 C.3       1 LYS        -0.0440
     52 CD         27.2250   -6.0020   20.4540 C.3       1 LYS        -0.0124
     53 CE         28.4890   -5.9010   21.2570 C.3       1 LYS        -0.0354
     54 NZ         29.5050   -5.1050   20.4640 N.4       1 LYS         0.2185
     55 N          23.6990   -8.1230   23.2630 N.am      1 SER        -0.2616
     56 CA         23.2130   -7.7800   24.5900 C.3       1 SER         0.1539
     57 C          24.2960   -8.2420   25.5740 C.2       1 SER         0.2060
     58 O          24.7980   -9.3810   25.4230 O.2       1 SER        -0.3943
     59 CB         21.9000   -8.5010   24.8530 C.3       1 SER         0.0843
     60 OG         21.4000   -8.1850   26.1440 O.3       1 SER        -0.3903
     61 N          24.6750   -7.3990   26.5330 N.am      1 GLY        -0.2663
     62 CA         25.7140   -7.7830   27.4860 C.3       1 GLY         0.1201
     63 C          27.0410   -8.0850   26.8070 C.2       1 GLY         0.2005
     64 O          27.8430   -8.8620   27.3310 O.2       1 GLY        -0.3947
     65 N          27.2800   -7.4790   25.6450 N.am      1 GLY        -0.2666
     66 CA         28.5200   -7.7070   24.9110 C.3       1 GLY         0.1201
     67 C          28.5800   -9.0570   24.2290 C.2       1 GLY         0.2007
     68 O          29.6500   -9.5000   23.8260 O.2       1 GLY        -0.3947
     69 N          27.4210   -9.7200   24.0680 N.am      1 GLU        -0.2639
     70 CA         27.3250  -11.0490   23.4450 C.3       1 GLU         0.1324
     71 C          26.4420  -10.9380   22.2150 C.2       1 GLU         0.2041
     72 O          25.3500  -10.3550   22.3240 O.2       1 GLU        -0.3944
     73 CB         26.6370  -11.9760   24.4820 C.3       1 GLU        -0.0008
     74 CG         26.3460  -13.3770   23.9690 C.3       1 GLU         0.0044
     75 CD         25.6540  -14.2860   24.9710 C.2       1 GLU         0.0350
     76 OE1        24.9010  -13.7830   25.8380 O.co2     1 GLU        -0.5690
     77 OE2        25.8490  -15.5130   24.8840 O.co2     1 GLU        -0.5690
     78 N          26.8690  -11.5090   21.0840 N.am      1 THR        -0.2613
     79 CA         26.0910  -11.4460   19.8580 C.3       1 THR         0.1565
     80 C          25.6550  -12.8310   19.4730 C.2       1 THR         0.2065
     81 O          26.4420  -13.7700   19.6010 O.2       1 THR        -0.3943
     82 CB         26.9100  -10.8000   18.7330 C.3       1 THR         0.0924
     83 OG1        27.2570   -9.4690   19.1540 O.3       1 THR        -0.3874
     84 CG2        26.1190  -10.6830   17.4300 C.3       1 THR        -0.0346
     85 N          24.4040  -12.9650   18.9850 N.am      1 ARG        -0.2637
     86 CA         23.8500  -14.2040   18.4790 C.3       1 ARG         0.1310
     87 C          24.0910  -14.2850   16.9760 C.2       1 ARG         0.2033
     88 O          23.6510  -13.3940   16.2310 O.2       1 ARG        -0.3944
     89 CB         22.3370  -14.2460   18.7270 C.3       1 ARG        -0.0092
     90 CG         21.8960  -14.2190   20.1590 C.3       1 ARG        -0.0156
     91 CD         20.3820  -14.3400   20.1720 C.3       1 ARG         0.0627
     92 NE         19.7900  -13.9070   21.4350 N.pl3     1 ARG        -0.2723
     93 CZ         18.6540  -13.2210   21.5260 C.cat     1 ARG         0.2882
     94 NH1        18.0020  -12.8520   20.4290 N.pl3     1 ARG        -0.2849
     95 NH2        18.1740  -12.8780   22.7130 N.pl3     1 ARG        -0.2849
     96 N          24.7220  -15.3660   16.5260 N.am      1 LEU        -0.2695
     97 CA         25.0820  -15.6060   15.1150 C.3       1 LEU         0.0946
     98 C          24.3690  -16.7850   14.5320 C.2       1 LEU         0.0601
     99 O          23.7420  -17.5770   15.2940 O.co2     1 LEU        -0.5666
    100 CB         26.6190  -15.8830   14.9430 C.3       1 LEU        -0.0156
    101 CG         27.5920  -14.7140   15.0720 C.3       1 LEU        -0.0431
    102 CD1        27.2460  -13.5480   14.1380 C.3       1 LEU        -0.0625
    103 CD2        27.9330  -14.3980   16.5110 C.3       1 LEU        -0.0625
    104 OXT        24.4970  -16.9880   13.3130 O.co2     1 LEU        -0.5666
    105 H          24.0324   -6.5015   16.4434 H         1 SER         0.2016
    106 H          25.6531   -6.8084   16.6798 H         1 SER         0.2016
    107 H          24.9268   -5.5237   17.4537 H         1 SER         0.2016
    108 H          24.5468   -4.4000   15.3868 H         1 SER         0.1122
    109 H          26.8155   -3.8106   14.8611 H         1 SER         0.0640
    110 H          27.4325   -5.2954   15.5899 H         1 SER         0.0640
    111 H          27.5109   -3.4930   17.0574 H         1 SER         0.2099
    112 H          25.4037   -4.3580   13.0258 H         1 TRP         0.1886
    113 H          25.2782   -5.3732   10.9454 H         1 TRP         0.0815
    114 H          26.6308   -7.3882   10.6145 H         1 TRP         0.0397
    115 H          26.7622   -7.5727   12.4199 H         1 TRP         0.0397
    116 H          28.9786   -6.6619   13.3515 H         1 TRP         0.0795
    117 H          30.6359   -4.7635   12.7361 H         1 TRP         0.2216
    118 H          26.6376   -4.9617    9.1234 H         1 TRP         0.0540
    119 H          30.9021   -2.8306   10.6859 H         1 TRP         0.0541
    120 H          27.6910   -3.1361    7.8268 H         1 TRP         0.0510
    121 H          29.8007   -2.0882    8.5886 H         1 TRP         0.0530
    122 H          22.9466   -5.5567   12.4461 H         1 GLU         0.1883
    123 H          20.9637   -6.5432   12.4563 H         1 GLU         0.0801
    124 H          20.1973   -7.9216   10.6063 H         1 GLU         0.0330
    125 H          21.9260   -8.0712   10.0404 H         1 GLU         0.0330
    126 H          20.9582   -6.4754    8.6937 H         1 GLU         0.0433
    127 H          21.8788   -5.5434   10.0032 H         1 GLU         0.0433
    128 H          23.1283   -7.7938   13.9933 H         1 SER         0.1884
    129 H          21.6167  -10.3214   14.6307 H         1 SER         0.0823
    130 H          23.8928  -10.9130   15.7402 H         1 SER         0.0606
    131 H          24.5278   -9.8347   14.4557 H         1 SER         0.0606
    132 H          24.3543  -12.0383   13.7720 H         1 SER         0.2097
    133 H          21.1350  -10.5905   16.7997 H         1 HIS         0.1885
    134 H          20.8526   -8.1667   18.3250 H         1 HIS         0.0824
    135 H          20.5637  -11.0015   19.3787 H         1 HIS         0.0491
    136 H          19.3112  -10.1964   18.3409 H         1 HIS         0.0491
    137 H          20.5490  -10.5374   21.8176 H         1 HIS         0.2386
    138 H          18.1914   -7.8378   19.5491 H         1 HIS         0.0324
    139 H          19.1307   -9.1893   23.4723 H         1 HIS         0.1149
    140 H          22.1165   -7.2674   19.7699 H         1 LYS         0.1883
    141 H          24.3572   -8.8750   20.9702 H         1 LYS         0.0800
    142 H          24.4014   -5.9610   20.2515 H         1 LYS         0.0312
    143 H          25.1750   -7.3132   19.3058 H         1 LYS         0.0312
    144 H          26.5136   -7.8316   21.3210 H         1 LYS         0.0269
    145 H          25.8568   -6.3259   22.0752 H         1 LYS         0.0269
    146 H          26.8402   -4.9913   20.3183 H         1 LYS         0.0317
    147 H          27.4702   -6.5011   19.5165 H         1 LYS         0.0317
    148 H          28.8782   -6.8982   21.4624 H         1 LYS         0.0813
    149 H          28.2867   -5.4032   22.2054 H         1 LYS         0.0813
    150 H          30.3694   -5.0295   21.0001 H         1 LYS         0.1994
    151 H          29.6919   -5.5790   19.5804 H         1 LYS         0.1994
    152 H          29.1354   -4.1724   20.2794 H         1 LYS         0.1994
    153 H          24.3651   -8.8876   23.1534 H         1 SER         0.1884
    154 H          23.0263   -6.7112   24.6939 H         1 SER         0.0823
    155 H          22.0722   -9.5758   24.7965 H         1 SER         0.0606
    156 H          21.1706   -8.1855   24.1070 H         1 SER         0.0606
    157 H          20.5726   -8.6500   26.2881 H         1 SER         0.2097
    158 H          24.2375   -6.4802   26.6026 H         1 GLY         0.1881
    159 H          25.3841   -8.6867   27.9984 H         1 GLY         0.0763
    160 H          25.8679   -6.9493   28.1711 H         1 GLY         0.0763
    161 H          26.5817   -6.8426   25.2606 H         1 GLY         0.1881
    162 H          29.3380   -7.6672   25.6303 H         1 GLY         0.0763
    163 H          28.5853   -6.9450   24.1344 H         1 GLY         0.0763
    164 H          26.5624   -9.2774   24.3955 H         1 GLU         0.1883
    165 H          28.3029  -11.4355   23.1580 H         1 GLU         0.0801
    166 H          25.6794  -11.5208   24.7349 H         1 GLU         0.0330
    167 H          27.3200  -12.0778   25.3254 H         1 GLU         0.0330
    168 H          27.3064  -13.8356   23.7335 H         1 GLU         0.0433
    169 H          25.6733  -13.2710   23.1179 H         1 GLU         0.0433
    170 H          27.7626  -12.0008   21.0815 H         1 THR         0.1884
    171 H          25.2079  -10.8289   20.0236 H         1 THR         0.0826
    172 H          27.7827  -11.4257   18.5459 H         1 THR         0.0639
    173 H          27.7749   -9.5147   19.9610 H         1 THR         0.2101
    174 H          25.8168  -11.6767   17.0994 H         1 THR         0.0257
    175 H          25.2337  -10.0697   17.5977 H         1 THR         0.0257
    176 H          26.7445  -10.2195   16.6671 H         1 THR         0.0257
    177 H          23.8079  -12.1374   18.9716 H         1 ARG         0.1883
    178 H          24.3301  -15.0383   18.9904 H         1 ARG         0.0800
    179 H          21.9898  -15.1961   18.3211 H         1 ARG         0.0313
    180 H          21.9297  -13.3453   18.2676 H         1 ARG         0.0313
    181 H          22.2086  -13.2906   20.6370 H         1 ARG         0.0301
    182 H          22.3491  -15.0409   20.7133 H         1 ARG         0.0301
    183 H          20.1300  -15.3907   20.0283 H         1 ARG         0.0689
    184 H          19.9893  -13.6993   19.3825 H         1 ARG         0.0689
    185 H          20.2769  -14.1449   22.2991 H         1 ARG         0.2642
    186 H          18.3720  -13.0946   19.5099 H         1 ARG         0.2615
    187 H          17.1314  -12.3261   20.5058 H         1 ARG         0.2615
    188 H          18.6761  -13.1401   23.5613 H         1 ARG         0.2615
    189 H          17.3025  -12.3520   22.7781 H         1 ARG         0.2615
    190 H          24.9759  -16.0821   17.2065 H         1 LEU         0.1875
    191 H          24.7888  -14.6939   14.5952 H         1 LEU         0.0726
    192 H          26.7311  -16.2336   13.9170 H         1 LEU         0.0308
    193 H          26.8784  -16.5593   15.7575 H         1 LEU         0.0308
    194 H          28.5609  -15.0232   14.6799 H         1 LEU         0.0297
    195 H          27.2727  -13.8921   13.1041 H         1 LEU         0.0232
    196 H          26.2478  -13.1791   14.3738 H         1 LEU         0.0232
    197 H          27.9724  -12.7469   14.2745 H         1 LEU         0.0232
    198 H          27.0222  -14.1375   17.0501 H         1 LEU         0.0232
    199 H          28.3937  -15.2707   16.9739 H         1 LEU         0.0232
    200 H          28.6280  -13.5589   16.5425 H         1 LEU         0.0232
@<TRIPOS>BOND
     1    1    2 1  
     2    2    3 1  
     3    2    5 1  
     4    3    4 2  
     5    3    7 am 
     6    5    6 1  
     7    7    8 1  
     8    8    9 1  
     9    8   11 1  
    10    9   10 2  
    11    9   21 am 
    12   11   12 1  
    13   12   13 2  
    14   12   14 1  
    15   13   15 1  
    16   14   16 ar 
    17   14   17 ar 
    18   15   16 1  
    19   16   18 ar 
    20   17   19 ar 
    21   18   20 ar 
    22   19   20 ar 
    23   21   22 1  
    24   22   23 1  
    25   22   25 1  
    26   23   24 2  
    27   23   30 am 
    28   25   26 1  
    29   26   27 1  
    30   27   28 ar 
    31   27   29 ar 
    32   30   31 1  
    33   31   32 1  
    34   31   34 1  
    35   32   33 2  
    36   32   36 am 
    37   34   35 1  
    38   36   37 1  
    39   37   38 1  
    40   37   40 1  
    41   38   39 2  
    42   38   46 am 
    43   40   41 1  
    44   41   42 1  
    45   41   43 2  
    46   42   44 1  
    47   43   45 1  
    48   44   45 2  
    49   46   47 1  
    50   47   48 1  
    51   47   50 1  
    52   48   49 2  
    53   48   55 am 
    54   50   51 1  
    55   51   52 1  
    56   52   53 1  
    57   53   54 1  
    58   55   56 1  
    59   56   57 1  
    60   56   59 1  
    61   57   58 2  
    62   57   61 am 
    63   59   60 1  
    64   61   62 1  
    65   62   63 1  
    66   63   64 2  
    67   63   65 am 
    68   65   66 1  
    69   66   67 1  
    70   67   68 2  
    71   67   69 am 
    72   69   70 1  
    73   70   71 1  
    74   70   73 1  
    75   71   72 2  
    76   71   78 am 
    77   73   74 1  
    78   74   75 1  
    79   75   76 ar 
    80   75   77 ar 
    81   78   79 1  
    82   79   80 1  
    83   79   82 1  
    84   80   81 2  
    85   80   85 am 
    86   82   83 1  
    87   82   84 1  
    88   85   86 1  
    89   86   87 1  
    90   86   89 1  
    91   87   88 2  
    92   87   96 am 
    93   89   90 1  
    94   90   91 1  
    95   91   92 1  
    96   92   93 ar 
    97   93   94 ar 
    98   93   95 ar 
    99   96   97 1  
   100   97   98 1  
   101   97  100 1  
   102   98   99 ar 
   103   98  104 ar 
   104  100  101 1  
   105  101  102 1  
   106  101  103 1  
   107    1  105 1  
   108    1  106 1  
   109    1  107 1  
   110    2  108 1  
   111    5  109 1  
   112    5  110 1  
   113    6  111 1  
   114    7  112 1  
   115    8  113 1  
   116   11  114 1  
   117   11  115 1  
   118   13  116 1  
   119   15  117 1  
   120   17  118 1  
   121   18  119 1  
   122   19  120 1  
   123   20  121 1  
   124   21  122 1  
   125   22  123 1  
   126   25  124 1  
   127   25  125 1  
   128   26  126 1  
   129   26  127 1  
   130   30  128 1  
   131   31  129 1  
   132   34  130 1  
   133   34  131 1  
   134   35  132 1  
   135   36  133 1  
   136   37  134 1  
   137   40  135 1  
   138   40  136 1  
   139   42  137 1  
   140   43  138 1  
   141   44  139 1  
   142   46  140 1  
   143   47  141 1  
   144   50  142 1  
   145   50  143 1  
   146   51  144 1  
   147   51  145 1  
   148   52  146 1  
   149   52  147 1  
   150   53  148 1  
   151   53  149 1  
   152   54  150 1  
   153   54  151 1  
   154   54  152 1  
   155   55  153 1  
   156   56  154 1  
   157   59  155 1  
   158   59  156 1  
   159   60  157 1  
   160   61  158 1  
   161   62  159 1  
   162   62  160 1  
   163   65  161 1  
   164   66  162 1  
   165   66  163 1  
   166   69  164 1  
   167   70  165 1  
   168   73  166 1  
   169   73  167 1  
   170   74  168 1  
   171   74  169 1  
   172   78  170 1  
   173   79  171 1  
   174   82  172 1  
   175   83  173 1  
   176   84  174 1  
   177   84  175 1  
   178   84  176 1  
   179   85  177 1  
   180   86  178 1  
   181   89  179 1  
   182   89  180 1  
   183   90  181 1  
   184   90  182 1  
   185   91  183 1  
   186   91  184 1  
   187   92  185 1  
   188   94  186 1  
   189   94  187 1  
   190   95  188 1  
   191   95  189 1  
   192   96  190 1  
   193   97  191 1  
   194  100  192 1  
   195  100  193 1  
   196  101  194 1  
   197  102  195 1  
   198  102  196 1  
   199  102  197 1  
   200  103  198 1  
   201  103  199 1  
   202  103  200 1  
@<TRIPOS>SUBSTRUCTURE
     1 SER         1

