3nfk_ligand
  -I-interpret- 

200202  0  0  0  0  0  0  0  0999 V2000
   24.9470   -6.0770   16.5970 N   0  3  0  0  0
   25.2780   -5.2050   15.4600 C   0  0  0  0  0
   25.2540   -6.0460   14.2070 C   0  0  0  0  0
   25.0830   -7.2730   14.2990 O   0  0  0  0  0
   26.6430   -4.5460   15.6470 C   0  0  0  0  0
   26.6590   -3.9140   16.9210 O   0  0  0  0  0
   25.3400   -5.3760   13.0250 N   0  0  0  0  0
   25.3420   -6.0980   11.7570 C   0  0  0  0  0
   24.1180   -7.0070   11.6390 C   0  0  0  0  0
   24.2200   -8.1390   11.1840 O   0  0  0  0  0
   26.6710   -6.8840   11.5800 C   0  0  0  0  0
   27.8890   -5.9970   11.5820 C   0  0  0  0  0
   28.9000   -5.9860   12.5000 C   0  0  0  0  0
   28.1850   -4.9580   10.6420 C   0  0  0  0  0
   29.8050   -4.9960   12.1920 N   0  0  0  0  0
   29.4090   -4.3700   11.0320 C   0  0  0  0  0
   27.5690   -4.5110    9.4660 C   0  0  0  0  0
   29.9890   -3.3100   10.3330 C   0  0  0  0  0
   28.1620   -3.4870    8.7450 C   0  0  0  0  0
   29.3600   -2.8930    9.1770 C   0  0  0  0  0
   22.9500   -6.5000   12.0580 N   0  0  0  0  0
   21.6740   -7.2260   11.9900 C   0  0  0  0  0
   21.6010   -8.4850   12.8440 C   0  0  0  0  0
   20.7850   -9.3690   12.6000 O   0  0  0  0  0
   21.1810   -7.4560   10.5450 C   0  0  0  0  0
   21.0280   -6.1710    9.7380 C   0  0  0  0  0
   19.7910   -5.3440   10.0190 C   0  0  0  0  0
   18.8320   -5.4350    9.2190 O   0  0  0  0  0
   19.8000   -4.5610   10.9960 O   0  0  0  0  0
   22.4460   -8.5430   13.8770 N   0  0  0  0  0
   22.4330   -9.6310   14.8430 C   0  0  0  0  0
   22.2430   -9.0050   16.2200 C   0  0  0  0  0
   22.7210   -7.8910   16.4880 O   0  0  0  0  0
   23.6990  -10.4730   14.7620 C   0  0  0  0  0
   23.5470  -11.5200   13.8080 O   0  0  0  0  0
   21.5070   -9.6840   17.0830 N   0  0  0  0  0
   21.2040   -9.1940   18.4210 C   0  0  0  0  0
   22.4270   -9.2090   19.2940 C   0  0  0  0  0
   23.0920  -10.2460   19.4110 O   0  0  0  0  0
   20.1080  -10.0600   19.0720 C   0  0  0  0  0
   19.5120   -9.4210   20.2870 C   0  0  0  0  0
   19.8680   -9.8220   21.5630 N   0  0  0  0  0
   18.6330   -8.3910   20.3780 C   0  0  0  0  0
   19.1350   -9.0780   22.3880 C   0  0  0  0  0
   18.4060   -8.1790   21.7240 N   0  0  0  0  0
   22.7170   -8.0760   19.9310 N   0  0  0  0  0
   23.8400   -7.9240   20.8430 C   0  0  0  0  0
   23.2860   -7.4520   22.1880 C   0  0  0  0  0
   22.5020   -6.4880   22.2440 O   0  0  0  0  0
   24.8690   -6.9450   20.2850 C   0  0  0  0  0
   26.1260   -6.8280   21.1460 C   0  0  0  0  0
   27.2250   -6.0020   20.4540 C   0  0  0  0  0
   28.4890   -5.9010   21.2570 C   0  0  0  0  0
   29.5050   -5.1050   20.4640 N   0  3  0  0  0
   23.6990   -8.1230   23.2630 N   0  0  0  0  0
   23.2130   -7.7800   24.5900 C   0  0  0  0  0
   24.2960   -8.2420   25.5740 C   0  0  0  0  0
   24.7980   -9.3810   25.4230 O   0  0  0  0  0
   21.9000   -8.5010   24.8530 C   0  0  0  0  0
   21.4000   -8.1850   26.1440 O   0  0  0  0  0
   24.6750   -7.3990   26.5330 N   0  0  0  0  0
   25.7140   -7.7830   27.4860 C   0  0  0  0  0
   27.0410   -8.0850   26.8070 C   0  0  0  0  0
   27.8430   -8.8620   27.3310 O   0  0  0  0  0
   27.2800   -7.4790   25.6450 N   0  0  0  0  0
   28.5200   -7.7070   24.9110 C   0  0  0  0  0
   28.5800   -9.0570   24.2290 C   0  0  0  0  0
   29.6500   -9.5000   23.8260 O   0  0  0  0  0
   27.4210   -9.7200   24.0680 N   0  0  0  0  0
   27.3250  -11.0490   23.4450 C   0  0  0  0  0
   26.4420  -10.9380   22.2150 C   0  0  0  0  0
   25.3500  -10.3550   22.3240 O   0  0  0  0  0
   26.6370  -11.9760   24.4820 C   0  0  0  0  0
   26.3460  -13.3770   23.9690 C   0  0  0  0  0
   25.6540  -14.2860   24.9710 C   0  0  0  0  0
   24.9010  -13.7830   25.8380 O   0  0  0  0  0
   25.8490  -15.5130   24.8840 O   0  0  0  0  0
   26.8690  -11.5090   21.0840 N   0  0  0  0  0
   26.0910  -11.4460   19.8580 C   0  0  0  0  0
   25.6550  -12.8310   19.4730 C   0  0  0  0  0
   26.4420  -13.7700   19.6010 O   0  0  0  0  0
   26.9100  -10.8000   18.7330 C   0  0  0  0  0
   27.2570   -9.4690   19.1540 O   0  0  0  0  0
   26.1190  -10.6830   17.4300 C   0  0  0  0  0
   24.4040  -12.9650   18.9850 N   0  0  0  0  0
   23.8500  -14.2040   18.4790 C   0  0  0  0  0
   24.0910  -14.2850   16.9760 C   0  0  0  0  0
   23.6510  -13.3940   16.2310 O   0  0  0  0  0
   22.3370  -14.2460   18.7270 C   0  0  0  0  0
   21.8960  -14.2190   20.1590 C   0  0  0  0  0
   20.3820  -14.3400   20.1720 C   0  0  0  0  0
   19.7900  -13.9070   21.4350 N   0  0  0  0  0
   18.6540  -13.2210   21.5260 C   0  0  0  0  0
   18.0020  -12.8520   20.4290 N   0  0  0  0  0
   18.1740  -12.8780   22.7130 N   0  0  0  0  0
   24.7220  -15.3660   16.5260 N   0  0  0  0  0
   25.0820  -15.6060   15.1150 C   0  0  0  0  0
   24.3690  -16.7850   14.5320 C   0  0  0  0  0
   23.7420  -17.5770   15.2940 O   0  0  0  0  0
   26.6190  -15.8830   14.9430 C   0  0  0  0  0
   27.5920  -14.7140   15.0720 C   0  0  0  0  0
   27.2460  -13.5480   14.1380 C   0  0  0  0  0
   27.9330  -14.3980   16.5110 C   0  0  0  0  0
   24.4970  -16.9880   13.3130 O   0  0  0  0  0
   24.0324   -6.5015   16.4434 H   0  0  0  0  0
   25.6531   -6.8084   16.6798 H   0  0  0  0  0
   24.9268   -5.5237   17.4537 H   0  0  0  0  0
   24.5468   -4.4000   15.3868 H   0  0  0  0  0
   26.8155   -3.8106   14.8611 H   0  0  0  0  0
   27.4325   -5.2954   15.5899 H   0  0  0  0  0
   27.5109   -3.4930   17.0574 H   0  0  0  0  0
   25.4037   -4.3580   13.0258 H   0  0  0  0  0
   25.2782   -5.3732   10.9454 H   0  0  0  0  0
   26.6308   -7.3882   10.6145 H   0  0  0  0  0
   26.7622   -7.5727   12.4199 H   0  0  0  0  0
   28.9786   -6.6619   13.3515 H   0  0  0  0  0
   26.6376   -4.9617    9.1234 H   0  0  0  0  0
   30.9021   -2.8306   10.6859 H   0  0  0  0  0
   27.6910   -3.1361    7.8268 H   0  0  0  0  0
   29.8007   -2.0882    8.5886 H   0  0  0  0  0
   22.9466   -5.5567   12.4461 H   0  0  0  0  0
   20.9637   -6.5432   12.4563 H   0  0  0  0  0
   20.1973   -7.9216   10.6063 H   0  0  0  0  0
   21.9260   -8.0712   10.0404 H   0  0  0  0  0
   20.9582   -6.4754    8.6937 H   0  0  0  0  0
   21.8788   -5.5434   10.0032 H   0  0  0  0  0
   19.0361   -6.0926    8.5501 H   0  0  0  0  0
   23.1283   -7.7938   13.9933 H   0  0  0  0  0
   21.6167  -10.3214   14.6307 H   0  0  0  0  0
   23.8928  -10.9130   15.7402 H   0  0  0  0  0
   24.5278   -9.8347   14.4557 H   0  0  0  0  0
   24.3543  -12.0383   13.7720 H   0  0  0  0  0
   21.1350  -10.5905   16.7997 H   0  0  0  0  0
   20.8526   -8.1667   18.3250 H   0  0  0  0  0
   20.5637  -11.0015   19.3787 H   0  0  0  0  0
   19.3112  -10.1964   18.3409 H   0  0  0  0  0
   18.1914   -7.8378   19.5491 H   0  0  0  0  0
   19.1307   -9.1893   23.4723 H   0  0  0  0  0
   22.1165   -7.2674   19.7699 H   0  0  0  0  0
   24.3572   -8.8750   20.9702 H   0  0  0  0  0
   24.4014   -5.9610   20.2515 H   0  0  0  0  0
   25.1750   -7.3132   19.3058 H   0  0  0  0  0
   26.5136   -7.8316   21.3210 H   0  0  0  0  0
   25.8568   -6.3259   22.0752 H   0  0  0  0  0
   26.8402   -4.9913   20.3183 H   0  0  0  0  0
   27.4702   -6.5011   19.5165 H   0  0  0  0  0
   28.8782   -6.8982   21.4624 H   0  0  0  0  0
   28.2867   -5.4032   22.2054 H   0  0  0  0  0
   30.3694   -5.0295   21.0001 H   0  0  0  0  0
   29.6919   -5.5790   19.5804 H   0  0  0  0  0
   29.1354   -4.1724   20.2794 H   0  0  0  0  0
   24.3651   -8.8876   23.1534 H   0  0  0  0  0
   23.0263   -6.7112   24.6939 H   0  0  0  0  0
   22.0722   -9.5758   24.7965 H   0  0  0  0  0
   21.1706   -8.1855   24.1070 H   0  0  0  0  0
   20.5726   -8.6500   26.2881 H   0  0  0  0  0
   24.2375   -6.4802   26.6026 H   0  0  0  0  0
   25.3841   -8.6867   27.9984 H   0  0  0  0  0
   25.8679   -6.9493   28.1711 H   0  0  0  0  0
   26.5817   -6.8426   25.2606 H   0  0  0  0  0
   29.3380   -7.6672   25.6303 H   0  0  0  0  0
   28.5853   -6.9450   24.1344 H   0  0  0  0  0
   26.5624   -9.2774   24.3955 H   0  0  0  0  0
   28.3029  -11.4355   23.1580 H   0  0  0  0  0
   25.6794  -11.5208   24.7349 H   0  0  0  0  0
   27.3200  -12.0778   25.3254 H   0  0  0  0  0
   27.3064  -13.8356   23.7335 H   0  0  0  0  0
   25.6733  -13.2710   23.1179 H   0  0  0  0  0
   24.8881  -12.8287   25.7343 H   0  0  0  0  0
   27.7626  -12.0008   21.0815 H   0  0  0  0  0
   25.2079  -10.8289   20.0236 H   0  0  0  0  0
   27.7827  -11.4257   18.5459 H   0  0  0  0  0
   27.7716   -9.0409   18.4659 H   0  0  0  0  0
   25.8168  -11.6767   17.0994 H   0  0  0  0  0
   25.2337  -10.0697   17.5977 H   0  0  0  0  0
   26.7445  -10.2195   16.6671 H   0  0  0  0  0
   23.8079  -12.1374   18.9716 H   0  0  0  0  0
   24.3301  -15.0383   18.9904 H   0  0  0  0  0
   21.9898  -15.1961   18.3211 H   0  0  0  0  0
   21.9297  -13.3453   18.2676 H   0  0  0  0  0
   22.2086  -13.2906   20.6370 H   0  0  0  0  0
   22.3491  -15.0409   20.7133 H   0  0  0  0  0
   20.1300  -15.3907   20.0283 H   0  0  0  0  0
   19.9893  -13.6993   19.3825 H   0  0  0  0  0
   20.2769  -14.1449   22.2991 H   0  0  0  0  0
   17.1411  -12.3103   20.5053 H   0  0  0  0  0
   18.3622  -13.1104   19.5104 H   0  0  0  0  0
   18.6761  -13.1401   23.5613 H   0  0  0  0  0
   24.9759  -16.0821   17.2065 H   0  0  0  0  0
   24.7888  -14.6939   14.5952 H   0  0  0  0  0
   23.7608  -17.2375   16.1918 H   0  0  0  0  0
   26.7311  -16.2336   13.9170 H   0  0  0  0  0
   26.8784  -16.5593   15.7575 H   0  0  0  0  0
   28.5609  -15.0232   14.6799 H   0  0  0  0  0
   27.2727  -13.8921   13.1041 H   0  0  0  0  0
   26.2478  -13.1791   14.3738 H   0  0  0  0  0
   27.9724  -12.7469   14.2745 H   0  0  0  0  0
   27.0222  -14.1375   17.0501 H   0  0  0  0  0
   28.3937  -15.2707   16.9739 H   0  0  0  0  0
   28.6280  -13.5589   16.5425 H   0  0  0  0  0
  1  2  1  0  0  0
  2  3  1  0  0  0
  2  5  1  0  0  0
  3  4  2  0  0  0
  3  7  1  0  0  0
  5  6  1  0  0  0
  7  8  1  0  0  0
  8  9  1  0  0  0
  8 11  1  0  0  0
  9 10  2  0  0  0
  9 21  1  0  0  0
 11 12  1  0  0  0
 12 13  4  0  0  0
 12 14  4  0  0  0
 13 15  4  0  0  0
 14 16  4  0  0  0
 14 17  4  0  0  0
 15 16  4  0  0  0
 16 18  4  0  0  0
 17 19  4  0  0  0
 18 20  4  0  0  0
 19 20  4  0  0  0
 21 22  1  0  0  0
 22 23  1  0  0  0
 22 25  1  0  0  0
 23 24  2  0  0  0
 23 30  1  0  0  0
 25 26  1  0  0  0
 26 27  1  0  0  0
 27 28  1  0  0  0
 27 29  2  0  0  0
 30 31  1  0  0  0
 31 32  1  0  0  0
 31 34  1  0  0  0
 32 33  2  0  0  0
 32 36  1  0  0  0
 34 35  1  0  0  0
 36 37  1  0  0  0
 37 38  1  0  0  0
 37 40  1  0  0  0
 38 39  2  0  0  0
 38 46  1  0  0  0
 40 41  1  0  0  0
 41 42  4  0  0  0
 41 43  4  0  0  0
 42 44  4  0  0  0
 43 45  4  0  0  0
 44 45  4  0  0  0
 46 47  1  0  0  0
 47 48  1  0  0  0
 47 50  1  0  0  0
 48 49  2  0  0  0
 48 55  1  0  0  0
 50 51  1  0  0  0
 51 52  1  0  0  0
 52 53  1  0  0  0
 53 54  1  0  0  0
 55 56  1  0  0  0
 56 57  1  0  0  0
 56 59  1  0  0  0
 57 58  2  0  0  0
 57 61  1  0  0  0
 59 60  1  0  0  0
 61 62  1  0  0  0
 62 63  1  0  0  0
 63 64  2  0  0  0
 63 65  1  0  0  0
 65 66  1  0  0  0
 66 67  1  0  0  0
 67 68  2  0  0  0
 67 69  1  0  0  0
 69 70  1  0  0  0
 70 71  1  0  0  0
 70 73  1  0  0  0
 71 72  2  0  0  0
 71 78  1  0  0  0
 73 74  1  0  0  0
 74 75  1  0  0  0
 75 76  1  0  0  0
 75 77  2  0  0  0
 78 79  1  0  0  0
 79 80  1  0  0  0
 79 82  1  0  0  0
 80 81  2  0  0  0
 80 85  1  0  0  0
 82 83  1  0  0  0
 82 84  1  0  0  0
 85 86  1  0  0  0
 86 87  1  0  0  0
 86 89  1  0  0  0
 87 88  2  0  0  0
 87 96  1  0  0  0
 89 90  1  0  0  0
 90 91  1  0  0  0
 91 92  1  0  0  0
 92 93  1  0  0  0
 93 94  1  0  0  0
 93 95  2  0  0  0
 96 97  1  0  0  0
 97 98  1  0  0  0
 97100  1  0  0  0
 98 99  1  0  0  0
 98104  2  0  0  0
100101  1  0  0  0
101102  1  0  0  0
101103  1  0  0  0
  1105  1  0  0  0
  1106  1  0  0  0
  1107  1  0  0  0
  2108  1  0  0  0
  5109  1  0  0  0
  5110  1  0  0  0
  6111  1  0  0  0
  7112  1  0  0  0
  8113  1  0  0  0
 11114  1  0  0  0
 11115  1  0  0  0
 13116  1  0  0  0
 17117  1  0  0  0
 18118  1  0  0  0
 19119  1  0  0  0
 20120  1  0  0  0
 21121  1  0  0  0
 22122  1  0  0  0
 25123  1  0  0  0
 25124  1  0  0  0
 26125  1  0  0  0
 26126  1  0  0  0
 28127  1  0  0  0
 30128  1  0  0  0
 31129  1  0  0  0
 34130  1  0  0  0
 34131  1  0  0  0
 35132  1  0  0  0
 36133  1  0  0  0
 37134  1  0  0  0
 40135  1  0  0  0
 40136  1  0  0  0
 43137  1  0  0  0
 44138  1  0  0  0
 46139  1  0  0  0
 47140  1  0  0  0
 50141  1  0  0  0
 50142  1  0  0  0
 51143  1  0  0  0
 51144  1  0  0  0
 52145  1  0  0  0
 52146  1  0  0  0
 53147  1  0  0  0
 53148  1  0  0  0
 54149  1  0  0  0
 54150  1  0  0  0
 54151  1  0  0  0
 55152  1  0  0  0
 56153  1  0  0  0
 59154  1  0  0  0
 59155  1  0  0  0
 60156  1  0  0  0
 61157  1  0  0  0
 62158  1  0  0  0
 62159  1  0  0  0
 65160  1  0  0  0
 66161  1  0  0  0
 66162  1  0  0  0
 69163  1  0  0  0
 70164  1  0  0  0
 73165  1  0  0  0
 73166  1  0  0  0
 74167  1  0  0  0
 74168  1  0  0  0
 76169  1  0  0  0
 78170  1  0  0  0
 79171  1  0  0  0
 82172  1  0  0  0
 83173  1  0  0  0
 84174  1  0  0  0
 84175  1  0  0  0
 84176  1  0  0  0
 85177  1  0  0  0
 86178  1  0  0  0
 89179  1  0  0  0
 89180  1  0  0  0
 90181  1  0  0  0
 90182  1  0  0  0
 91183  1  0  0  0
 91184  1  0  0  0
 92185  1  0  0  0
 94186  1  0  0  0
 94187  1  0  0  0
 95188  1  0  0  0
 96189  1  0  0  0
 97190  1  0  0  0
 99191  1  0  0  0
100192  1  0  0  0
100193  1  0  0  0
101194  1  0  0  0
102195  1  0  0  0
102196  1  0  0  0
102197  1  0  0  0
103198  1  0  0  0
103199  1  0  0  0
103200  1  0  0  0
M  END
$$$$
