1gvk_ligand
  -I-interpret- 

 54 54  0  0  0  0  0  0  0  0999 V2000
  -15.7400   18.0620   39.5140 C   0  0  0  0  0
  -15.1830   16.9770   39.3860 O   0  0  0  0  0
  -16.7630   18.3670   40.5840 C   0  0  0  0  0
  -15.4010   19.0490   38.6990 N   0  0  0  0  0
  -14.5120   19.1060   37.5420 C   0  0  0  0  0
  -13.2250   19.8180   37.9480 C   0  0  0  0  0
  -13.3150   21.0270   38.1900 O   0  0  0  0  0
  -15.0980   19.8710   36.3870 C   0  0  0  0  0
  -15.4220   19.2880   35.0340 C   0  0  0  0  0
  -15.8110   20.0290   34.1060 O   0  0  0  0  0
  -15.2980   17.9820   34.7940 N   0  0  0  0  0
  -12.0780   19.1400   38.0010 N   0  0  0  0  0
  -10.8530   19.8750   38.3470 C   0  0  0  0  0
  -10.5580   20.9860   37.3380 C   0  0  0  0  0
  -10.7640   20.7610   36.1650 O   0  0  0  0  0
   -9.7990   18.7860   38.2670 C   0  0  0  0  0
  -10.5090   17.4840   38.4880 C   0  0  0  0  0
  -11.7950   17.7110   37.7860 C   0  0  0  0  0
  -10.0880   22.1270   37.8350 N   0  0  0  0  0
   -9.7280   23.2220   36.9440 C   0  0  0  0  0
   -8.3190   23.8270   37.2100 C   0  0  0  0  0
   -7.9350   24.6260   36.4130 O   0  0  0  0  0
  -10.6460   24.4330   37.1630 C   0  0  0  0  0
  -10.9280   24.8730   38.6240 C   0  0  0  0  0
  -11.9380   24.1280   36.5150 C   0  0  0  0  0
  -11.2770   26.3810   38.6870 C   0  0  0  0  0
  -17.6118   17.6916   40.4764 H   0  0  0  0  0
  -16.3109   18.2309   41.5664 H   0  0  0  0  0
  -17.1015   19.3977   40.4780 H   0  0  0  0  0
  -15.8457   19.9394   38.9219 H   0  0  0  0  0
  -14.3419   18.0778   37.2228 H   0  0  0  0  0
  -14.3022   20.5771   36.1499 H   0  0  0  0  0
  -16.0843   20.1405   36.7648 H   0  0  0  0  0
  -15.5188   17.6100   33.8703 H   0  0  0  0  0
  -14.9824   17.3552   35.5342 H   0  0  0  0  0
  -10.9080   20.3759   39.3135 H   0  0  0  0  0
   -9.0242   18.9388   39.0182 H   0  0  0  0  0
   -9.3007   18.7976   37.2976 H   0  0  0  0  0
  -10.6309   17.2322   39.5415 H   0  0  0  0  0
   -9.9578   16.6224   38.1113 H   0  0  0  0  0
  -11.7352   17.4588   36.7273 H   0  0  0  0  0
  -12.5907   17.0724   38.1695 H   0  0  0  0  0
   -9.9793   22.2356   38.8434 H   0  0  0  0  0
   -9.7925   22.7670   35.9556 H   0  0  0  0  0
   -7.7194   23.5376   38.0730 H   0  0  0  0  0
  -10.1029   25.2762   36.7362 H   0  0  0  0  0
  -10.0355   24.6935   39.2235 H   0  0  0  0  0
  -11.7730   24.3005   39.0065 H   0  0  0  0  0
  -11.7776   23.9564   35.4506 H   0  0  0  0  0
  -12.3680   23.2345   36.9676 H   0  0  0  0  0
  -12.6183   24.9688   36.6503 H   0  0  0  0  0
  -10.4406   26.9627   38.2995 H   0  0  0  0  0
  -12.1647   26.5727   38.0842 H   0  0  0  0  0
  -11.4704   26.6650   39.7214 H   0  0  0  0  0
  1  2  2  0  0  0
  1  3  1  0  0  0
  1  4  1  0  0  0
  4  5  1  0  0  0
  5  6  1  0  0  0
  5  8  1  0  0  0
  6  7  2  0  0  0
  6 12  1  0  0  0
  8  9  1  0  0  0
  9 10  2  0  0  0
  9 11  1  0  0  0
 12 13  1  0  0  0
 12 18  1  0  0  0
 13 14  1  0  0  0
 13 16  1  0  0  0
 14 15  2  0  0  0
 14 19  1  0  0  0
 16 17  1  0  0  0
 17 18  1  0  0  0
 19 20  1  0  0  0
 20 21  1  0  0  0
 20 23  1  0  0  0
 21 22  2  0  0  0
 23 24  1  0  0  0
 23 25  1  0  0  0
 24 26  1  0  0  0
  3 27  1  0  0  0
  3 28  1  0  0  0
  3 29  1  0  0  0
  4 30  1  0  0  0
  5 31  1  0  0  0
  8 32  1  0  0  0
  8 33  1  0  0  0
 11 34  1  0  0  0
 11 35  1  0  0  0
 13 36  1  0  0  0
 16 37  1  0  0  0
 16 38  1  0  0  0
 17 39  1  0  0  0
 17 40  1  0  0  0
 18 41  1  0  0  0
 18 42  1  0  0  0
 19 43  1  0  0  0
 20 44  1  0  0  0
 21 45  1  0  0  0
 23 46  1  0  0  0
 24 47  1  0  0  0
 24 48  1  0  0  0
 25 49  1  0  0  0
 25 50  1  0  0  0
 25 51  1  0  0  0
 26 52  1  0  0  0
 26 53  1  0  0  0
 26 54  1  0  0  0
M  END
$$$$
