4hw3_ligand
  -I-interpret- 

 44 46  0  0  0  0  0  0  0  0999 V2000
   34.2990   -7.9750   18.8340 O   0  0  0  0  0
   35.1510   -8.3700   19.6660 C   0  0  0  0  0
   36.1100   -9.0960   19.2990 O   0  0  0  0  0
   34.9500   -7.9270   21.0700 C   0  0  0  0  0
   33.4380   -7.5230   21.7050 S   0  0  0  0  0
   33.8970   -7.0980   23.2830 C   0  0  0  0  0
   33.2060   -6.6510   24.4070 C   0  0  0  0  0
   33.8750   -6.3910   25.5950 C   0  0  0  0  0
   35.2640   -6.5680   25.6470 C   0  0  0  0  0
   35.9680   -6.9970   24.5290 C   0  0  0  0  0
   35.2930   -7.2720   23.3400 C   0  0  0  0  0
   35.8870   -7.7310   22.1150 C   0  0  0  0  0
   37.3510   -7.9920   21.9630 C   0  0  0  0  0
   37.7700   -9.4210   22.1080 C   0  0  0  0  0
   37.8260  -10.0100   23.4830 C   0  0  0  0  0
   38.7230   -9.3180   24.2740 O   0  0  0  0  0
   38.9470   -9.6210   25.5900 C   0  0  0  0  0
   38.0490  -10.3920   26.2950 C   0  0  0  0  0
   38.3180  -10.6800   27.6320 C   0  0  0  0  0
   37.3480  -11.5030   28.4200 C   0  0  0  0  0
   39.4700  -10.2020   28.2590 C   0  0  0  0  0
   39.8080  -10.5630   29.9270 Cl  0  0  0  0  0
   40.3630   -9.4280   27.5350 C   0  0  0  0  0
   41.5970   -8.9100   28.2090 C   0  0  0  0  0
   40.1020   -9.1430   26.1950 C   0  0  0  0  0
   36.6609   -9.3039   20.0572 H   0  0  0  0  0
   32.1274   -6.5037   24.3529 H   0  0  0  0  0
   33.3275   -6.0539   26.4752 H   0  0  0  0  0
   35.7983   -6.3667   26.5755 H   0  0  0  0  0
   37.0499   -7.1189   24.5811 H   0  0  0  0  0
   37.8487   -7.4405   22.7607 H   0  0  0  0  0
   37.6156   -7.6927   20.9488 H   0  0  0  0  0
   38.7952   -9.4572   21.7394 H   0  0  0  0  0
   37.0093   -9.9969   21.5810 H   0  0  0  0  0
   38.1493  -11.0483   23.4089 H   0  0  0  0  0
   36.8359   -9.9465   23.9344 H   0  0  0  0  0
   37.1454  -10.7696   25.8164 H   0  0  0  0  0
   36.3814  -10.9998   28.4431 H   0  0  0  0  0
   37.2388  -12.4811   27.9515 H   0  0  0  0  0
   37.7198  -11.6254   29.4373 H   0  0  0  0  0
   41.3120   -8.2795   29.0512 H   0  0  0  0  0
   42.1933   -9.7492   28.5671 H   0  0  0  0  0
   42.1802   -8.3258   27.4972 H   0  0  0  0  0
   40.8073   -8.5427   25.6203 H   0  0  0  0  0
  1  2  2  0  0  0
  2  3  1  0  0  0
  2  4  1  0  0  0
  4  5  4  0  0  0
  4 12  4  0  0  0
  5  6  4  0  0  0
  6  7  4  0  0  0
  6 11  4  0  0  0
  7  8  4  0  0  0
  8  9  4  0  0  0
  9 10  4  0  0  0
 10 11  4  0  0  0
 11 12  4  0  0  0
 12 13  1  0  0  0
 13 14  1  0  0  0
 14 15  1  0  0  0
 15 16  1  0  0  0
 16 17  1  0  0  0
 17 18  4  0  0  0
 17 25  4  0  0  0
 18 19  4  0  0  0
 19 20  1  0  0  0
 19 21  4  0  0  0
 21 22  1  0  0  0
 21 23  4  0  0  0
 23 24  1  0  0  0
 23 25  4  0  0  0
  3 26  1  0  0  0
  7 27  1  0  0  0
  8 28  1  0  0  0
  9 29  1  0  0  0
 10 30  1  0  0  0
 13 31  1  0  0  0
 13 32  1  0  0  0
 14 33  1  0  0  0
 14 34  1  0  0  0
 15 35  1  0  0  0
 15 36  1  0  0  0
 18 37  1  0  0  0
 20 38  1  0  0  0
 20 39  1  0  0  0
 20 40  1  0  0  0
 24 41  1  0  0  0
 24 42  1  0  0  0
 24 43  1  0  0  0
 25 44  1  0  0  0
M  END
$$$$
