6bnh_ligand
  -I-interpret- 

265267  0  0  0  0  0  0  0  0999 V2000
    3.5070   -6.5240  -11.5810 N   0  3  0  0  0
    2.9690   -5.1750  -11.2980 C   0  0  0  0  0
    3.5740   -4.6280  -10.0100 C   0  0  0  0  0
    4.3460   -3.6690  -10.0300 O   0  0  0  0  0
    1.4420   -5.2310  -11.1730 C   0  0  0  0  0
    0.7790   -3.8670  -11.0470 C   0  0  0  0  0
   -0.6820   -3.9970  -10.6450 C   0  0  0  0  0
   -1.4100   -2.6610  -10.7040 C   0  0  0  0  0
   -1.5380   -2.1540  -12.0980 N   0  3  0  0  0
    3.2190   -5.2490   -8.8940 N   0  0  0  0  0
    3.7030   -4.8330   -7.5890 C   0  0  0  0  0
    3.9530   -6.0690   -6.7260 C   0  0  0  0  0
    3.7310   -6.0760   -5.5180 O   0  0  0  0  0
    2.6770   -3.8970   -6.9420 C   0  0  0  0  0
    3.1230   -3.2780   -5.6510 C   0  0  0  0  0
    4.3300   -2.7000   -5.3800 C   0  0  0  0  0
    2.3490   -3.1670   -4.4590 C   0  0  0  0  0
    4.3480   -2.2280   -4.0930 N   0  0  0  0  0
    3.1450   -2.5050   -3.5050 C   0  0  0  0  0
    1.0580   -3.5610   -4.1050 C   0  0  0  0  0
    2.6910   -2.2280   -2.2230 C   0  0  0  0  0
    0.6140   -3.2860   -2.8290 C   0  0  0  0  0
    1.4260   -2.6260   -1.9040 C   0  0  0  0  0
    4.4210   -7.1200   -7.3740 N   0  0  0  0  0
    4.6910   -8.3760   -6.7040 C   0  0  0  0  0
    6.0100   -8.3210   -5.9410 C   0  0  0  0  0
    6.5710   -7.2380   -5.7420 O   0  0  0  0  0
    4.6970   -9.5310   -7.7170 C   0  0  0  0  0
    5.3420   -9.1160   -8.9300 O   0  0  0  0  0
    3.2770   -9.9790   -8.0160 C   0  0  0  0  0
    6.4840   -9.4920   -5.5070 N   0  0  0  0  0
    7.6870   -9.6140   -4.6810 C   0  0  0  0  0
    8.8280   -8.7100   -5.1490 C   0  0  0  0  0
    9.5350   -8.1390   -4.3270 O   0  0  0  0  0
    8.1380  -11.0860   -4.6180 C   0  0  0  0  0
    8.1980  -11.8380   -5.9580 C   0  0  0  0  0
    9.5300  -11.6190   -6.6590 C   0  0  0  0  0
    7.9520  -13.3230   -5.7430 C   0  0  0  0  0
    8.9820   -8.5570   -6.4590 N   0  0  0  0  0
   10.0380   -7.7180   -7.0100 C   0  0  0  0  0
    9.9610   -6.2950   -6.4520 C   0  0  0  0  0
   10.7940   -5.8970   -5.6340 O   0  0  0  0  0
    9.9540   -7.7000   -8.5380 C   0  0  0  0  0
   11.0160   -6.8430   -9.2060 C   0  0  0  0  0
   10.9680   -6.9440  -10.7130 C   0  0  0  0  0
   11.8730   -7.5730  -11.3000 O   0  0  0  0  0
   10.0180   -6.4080  -11.3210 O   0  0  0  0  0
    8.9420   -5.5490   -6.8600 N   0  0  0  0  0
    8.8220   -4.1530   -6.4620 C   0  0  0  0  0
    8.6120   -4.0220   -4.9550 C   0  0  0  0  0
    9.4030   -3.3790   -4.2690 O   0  0  0  0  0
    7.6830   -3.4650   -7.2220 C   0  0  0  0  0
    7.4970   -2.0020   -6.8370 C   0  0  0  0  0
    6.4470   -1.3130   -7.6980 C   0  0  0  0  0
    6.8770   -1.1590   -9.0830 N   0  0  0  0  0
    6.2290   -0.4250   -9.9820 C   0  0  0  0  0
    5.1180    0.2210   -9.6460 N   0  0  0  0  0
    6.6880   -0.3430  -11.2230 N   0  0  0  0  0
    7.5670   -4.6560   -4.4360 N   0  0  0  0  0
    7.2120   -4.4960   -3.0300 C   0  0  0  0  0
    8.2880   -5.0480   -2.1080 C   0  0  0  0  0
    8.9090   -4.2980   -1.3640 O   0  0  0  0  0
    5.8740   -5.1690   -2.7200 C   0  0  0  0  0
    5.4730   -5.1870   -1.2350 C   0  0  0  0  0
    5.5050   -3.7900   -0.6310 C   0  0  0  0  0
    4.0950   -5.7880   -1.0860 C   0  0  0  0  0
    8.5240   -6.3500   -2.1800 N   0  0  0  0  0
    9.3730   -7.0210   -1.2050 C   0  0  0  0  0
   10.8000   -6.4820   -1.2410 C   0  0  0  0  0
   11.4320   -6.3230   -0.1950 O   0  0  0  0  0
    9.3620   -8.5320   -1.4450 C   0  0  0  0  0
   10.1970   -9.3230   -0.4530 C   0  0  0  0  0
   10.1600  -10.8120   -0.7530 C   0  0  0  0  0
    8.7490  -11.3680   -0.6600 C   0  0  0  0  0
    8.7310  -12.8510   -0.7380 N   0  3  0  0  0
   11.2980   -6.1610   -2.4310 N   0  0  0  0  0
   12.6720   -5.7010   -2.5590 C   0  0  0  0  0
   12.8140   -4.2120   -2.2370 C   0  0  0  0  0
   13.9270   -3.7170   -2.0810 O   0  0  0  0  0
   13.2310   -6.0170   -3.9480 C   0  0  0  0  0
   13.6930   -7.4600   -4.1050 C   0  0  0  0  0
   12.5380   -8.4560   -4.1030 C   0  0  0  0  0
   12.8430   -9.6310   -3.2900 N   0  0  0  0  0
   12.7040  -10.8880   -3.7050 C   0  0  0  0  0
   12.3280  -11.1450   -4.9480 N   0  0  0  0  0
   12.9580  -11.8920   -2.8780 N   0  0  0  0  0
   11.7000   -3.4920   -2.1570 N   0  0  0  0  0
   11.7210   -2.1190   -1.6450 C   0  0  0  0  0
   11.3430   -2.1010   -0.1660 C   0  0  0  0  0
   11.5530   -1.1130    0.5360 O   0  0  0  0  0
   10.7660   -1.2190   -2.4360 C   0  0  0  0  0
   11.2320   -0.9120   -3.8530 C   0  0  0  0  0
   12.5050   -0.0780   -3.8560 C   0  0  0  0  0
   12.9600    0.2490   -5.2700 C   0  0  0  0  0
   13.2400   -0.9750   -6.0640 N   0  3  0  0  0
   10.7820   -3.2090    0.2900 N   0  0  0  0  0
   10.3020   -3.3430    1.6580 C   0  0  0  0  0
   11.4100   -3.8600    2.5690 C   0  0  0  0  0
   11.7640   -3.2230    3.5620 O   0  0  0  0  0
    9.1100   -4.3080    1.6670 C   0  0  0  0  0
    8.4080   -4.4750    2.9970 C   0  0  0  0  0
    7.1110   -4.0210    3.1570 C   0  0  0  0  0
    9.0240   -5.0970    4.0790 C   0  0  0  0  0
    6.4440   -4.1810    4.3560 C   0  0  0  0  0
    8.3650   -5.2560    5.2830 C   0  0  0  0  0
    7.0740   -4.7950    5.4160 C   0  0  0  0  0
    6.4030   -4.9550    6.6100 O   0  0  0  0  0
   11.9530   -5.0190    2.2180 N   0  0  0  0  0
   12.9600   -5.6750    3.0390 C   0  0  0  0  0
   14.3140   -4.9880    2.8860 C   0  0  0  0  0
   15.1720   -5.0740    3.7680 O   0  0  0  0  0
   13.0530   -7.1600    2.6630 C   0  0  0  0  0
   14.0290   -7.9520    3.5170 C   0  0  0  0  0
   13.9390   -9.4450    3.2420 C   0  0  0  0  0
   14.9270  -10.1950    4.0160 N   0  0  0  0  0
   14.9180  -11.5190    4.1690 C   0  0  0  0  0
   13.9400  -12.2530    3.6500 N   0  0  0  0  0
   15.8830  -12.1110    4.8610 N   0  0  0  0  0
   14.4920   -4.2940    1.7720 N   0  0  0  0  0
   15.7230   -3.5590    1.5200 C   0  0  0  0  0
   15.5200   -2.0830    1.8350 C   0  0  0  0  0
   15.2760   -1.2960    0.8970 O   0  0  0  0  0
   16.1730   -3.7300    0.0650 C   0  0  0  0  0
   16.5100   -5.1670   -0.2870 C   0  0  0  0  0
   16.9510   -5.9420    0.5600 O   0  0  0  0  0
   16.3010   -5.5350   -1.5420 N   0  0  0  0  0
   15.5770   -1.7150    3.0280 O   0  0  0  0  0
    4.5225   -6.4736  -11.6618 H   0  0  0  0  0
    3.2562   -7.1553  -10.8201 H   0  0  0  0  0
    3.1118   -6.8698  -12.4555 H   0  0  0  0  0
    3.2334   -4.5135  -12.1230 H   0  0  0  0  0
    1.2128   -5.7864  -10.2635 H   0  0  0  0  0
    1.0604   -5.6924  -12.0838 H   0  0  0  0  0
    0.8293   -3.3664  -12.0139 H   0  0  0  0  0
    1.3009   -3.2975  -10.2780 H   0  0  0  0  0
   -0.7223   -4.3624   -9.6189 H   0  0  0  0  0
   -1.1677   -4.6812  -11.3408 H   0  0  0  0  0
   -0.8349   -1.9348  -10.1296 H   0  0  0  0  0
   -2.4125   -2.8020  -10.3001 H   0  0  0  0  0
   -2.0300   -1.2605  -12.0897 H   0  0  0  0  0
   -0.6088   -2.0281  -12.4994 H   0  0  0  0  0
   -2.0626   -2.8272  -12.6565 H   0  0  0  0  0
    2.5848   -6.0456   -8.9535 H   0  0  0  0  0
    4.6431   -4.2905   -7.6884 H   0  0  0  0  0
    1.7951   -4.4975   -6.7188 H   0  0  0  0  0
    2.5048   -3.0805   -7.6433 H   0  0  0  0  0
    5.1585   -2.6248   -6.0843 H   0  0  0  0  0
    0.4156   -4.0742   -4.8206 H   0  0  0  0  0
    3.3213   -1.7121   -1.4987 H   0  0  0  0  0
   -0.3910   -3.5898   -2.5362 H   0  0  0  0  0
    1.0401   -2.4244   -0.9047 H   0  0  0  0  0
    4.5977   -7.0455   -8.3758 H   0  0  0  0  0
    3.8956   -8.5521   -5.9799 H   0  0  0  0  0
    5.2465  -10.3685   -7.2873 H   0  0  0  0  0
    5.3411   -9.8433   -9.5566 H   0  0  0  0  0
    2.8021  -10.3161   -7.0946 H   0  0  0  0  0
    2.7138   -9.1436   -8.4320 H   0  0  0  0  0
    3.2995  -10.7977   -8.7353 H   0  0  0  0  0
    5.9835  -10.3429   -5.7635 H   0  0  0  0  0
    7.4243   -9.2747   -3.6790 H   0  0  0  0  0
    7.3959  -11.6052   -4.0115 H   0  0  0  0  0
    9.1566  -11.0751   -4.2301 H   0  0  0  0  0
    7.4130  -11.4383   -6.6000 H   0  0  0  0  0
    9.6666  -10.5551   -6.8526 H   0  0  0  0  0
   10.3378  -11.9805   -6.0226 H   0  0  0  0  0
    9.5368  -12.1651   -7.6023 H   0  0  0  0  0
    8.7151  -13.7235   -5.0757 H   0  0  0  0  0
    6.9672  -13.4662   -5.2983 H   0  0  0  0  0
    7.9980  -13.8401   -6.7014 H   0  0  0  0  0
    8.3458   -9.0383   -7.0947 H   0  0  0  0  0
   10.9981   -8.1410   -6.7143 H   0  0  0  0  0
    8.9846   -7.2782   -8.8033 H   0  0  0  0  0
   10.1017   -8.7238   -8.8818 H   0  0  0  0  0
   11.9929   -7.1943   -8.8739 H   0  0  0  0  0
   10.8356   -5.8040   -8.9303 H   0  0  0  0  0
    9.4369   -5.9782  -10.6891 H   0  0  0  0  0
    8.2299   -5.9607   -7.4632 H   0  0  0  0  0
    9.7581   -3.6563   -6.7171 H   0  0  0  0  0
    6.7597   -3.9897   -6.9766 H   0  0  0  0  0
    7.9292   -3.4971   -8.2834 H   0  0  0  0  0
    8.4472   -1.4883   -6.9829 H   0  0  0  0  0
    7.1654   -1.9627   -5.7994 H   0  0  0  0  0
    6.2731   -0.3188   -7.2865 H   0  0  0  0  0
    5.5479   -1.9291   -7.6907 H   0  0  0  0  0
    7.7247   -1.6429   -9.3792 H   0  0  0  0  0
    4.6214    0.7775  -10.3418 H   0  0  0  0  0
    4.7615    0.1605   -8.6922 H   0  0  0  0  0
    7.5372   -0.8427  -11.4867 H   0  0  0  0  0
    7.0035   -5.2645   -5.0298 H   0  0  0  0  0
    7.1227   -3.4249   -2.8484 H   0  0  0  0  0
    5.9701   -6.2098   -3.0291 H   0  0  0  0  0
    5.1085   -4.5950   -3.2422 H   0  0  0  0  0
    6.1970   -5.7974   -0.6953 H   0  0  0  0  0
    6.5132   -3.3837   -0.7116 H   0  0  0  0  0
    4.8086   -3.1469   -1.1691 H   0  0  0  0  0
    5.2160   -3.8427    0.4187 H   0  0  0  0  0
    3.3767   -5.1904   -1.6473 H   0  0  0  0  0
    4.1011   -6.8076   -1.4713 H   0  0  0  0  0
    3.8164   -5.7981   -0.0322 H   0  0  0  0  0
    8.1026   -6.8933   -2.9334 H   0  0  0  0  0
    8.9700   -6.8182   -0.2128 H   0  0  0  0  0
    9.7864   -8.7047   -2.4340 H   0  0  0  0  0
    8.3306   -8.8681   -1.3389 H   0  0  0  0  0
    9.7896   -9.1625    0.5452 H   0  0  0  0  0
   11.2301   -8.9829   -0.5241 H   0  0  0  0  0
   10.7812  -11.3261   -0.0195 H   0  0  0  0  0
   10.5245  -10.9673   -1.7684 H   0  0  0  0  0
    8.1713  -10.9750   -1.4966 H   0  0  0  0  0
    8.3277  -11.0714    0.3006 H   0  0  0  0  0
    7.7685  -13.1821   -0.6720 H   0  0  0  0  0
    9.1339  -13.1485   -1.6266 H   0  0  0  0  0
    9.2782  -13.2374    0.0312 H   0  0  0  0  0
   10.7113   -6.2380   -3.2618 H   0  0  0  0  0
   13.2609   -6.2463   -1.8215 H   0  0  0  0  0
   14.0992   -5.3768   -4.1045 H   0  0  0  0  0
   12.4304   -5.8497   -4.6685 H   0  0  0  0  0
   14.3386   -7.6969   -3.2593 H   0  0  0  0  0
   14.2034   -7.5438   -5.0644 H   0  0  0  0  0
   12.3627   -8.7824   -5.1281 H   0  0  0  0  0
   11.6602   -7.9648   -3.6830 H   0  0  0  0  0
   13.1852   -9.4779   -2.3414 H   0  0  0  0  0
   12.1430  -10.3775   -5.5939 H   0  0  0  0  0
   12.8633  -12.8550   -3.2007 H   0  0  0  0  0
   13.2482  -11.7017   -1.9188 H   0  0  0  0  0
   10.8154   -3.9018   -2.4570 H   0  0  0  0  0
   12.7334   -1.7328   -1.7630 H   0  0  0  0  0
   10.7028   -0.2696   -1.9043 H   0  0  0  0  0
    9.8163   -1.7479   -2.5162 H   0  0  0  0  0
   10.4488   -0.3467   -4.3581 H   0  0  0  0  0
   11.4370   -1.8549   -4.3599 H   0  0  0  0  0
   13.2921   -0.6510   -3.3658 H   0  0  0  0  0
   12.3036    0.8580   -3.3350 H   0  0  0  0  0
   13.8799    0.8302   -5.2053 H   0  0  0  0  0
   12.1608    0.8002   -5.7654 H   0  0  0  0  0
   13.5409   -0.7091   -7.0017 H   0  0  0  0  0
   13.9774   -1.5129   -5.6087 H   0  0  0  0  0
   12.3933   -1.5404   -6.1249 H   0  0  0  0  0
   10.6816   -4.0024   -0.3432 H   0  0  0  0  0
    9.9913   -2.3676    2.0323 H   0  0  0  0  0
    9.5058   -5.2886    1.4026 H   0  0  0  0  0
    8.3727   -3.8930    0.9798 H   0  0  0  0  0
    6.6078   -3.5296    2.3243 H   0  0  0  0  0
   10.0446   -5.4653    3.9747 H   0  0  0  0  0
    5.4205   -3.8219    4.4632 H   0  0  0  0  0
    8.8632   -5.7427    6.1214 H   0  0  0  0  0
    6.9759   -5.3967    7.2410 H   0  0  0  0  0
   11.6564   -5.4624    1.3486 H   0  0  0  0  0
   12.6653   -5.5982    4.0856 H   0  0  0  0  0
   13.4073   -7.2120    1.6335 H   0  0  0  0  0
   12.0647   -7.5947    2.8129 H   0  0  0  0  0
   13.7830   -7.7816    4.5651 H   0  0  0  0  0
   15.0396   -7.6204    3.2786 H   0  0  0  0  0
   14.1322   -9.6124    2.1824 H   0  0  0  0  0
   12.9447   -9.7886    3.5275 H   0  0  0  0  0
   15.6740   -9.6692    4.4698 H   0  0  0  0  0
   13.9346  -13.2640    3.7848 H   0  0  0  0  0
   13.1945  -11.8056    3.1167 H   0  0  0  0  0
   16.6299  -11.5530    5.2747 H   0  0  0  0  0
   13.7486   -4.2741    1.0739 H   0  0  0  0  0
   16.5025   -3.9602    2.1677 H   0  0  0  0  0
   17.0745   -3.1337   -0.0758 H   0  0  0  0  0
   15.3495   -3.4157   -0.5762 H   0  0  0  0  0
   16.5071   -6.4902   -1.8345 H   0  0  0  0  0
   15.9339   -4.8632   -2.2161 H   0  0  0  0  0
   15.7753   -2.4708    3.5857 H   0  0  0  0  0
  1  2  1  0  0  0
  2  3  1  0  0  0
  2  5  1  0  0  0
  3  4  2  0  0  0
  3 10  1  0  0  0
  5  6  1  0  0  0
  6  7  1  0  0  0
  7  8  1  0  0  0
  8  9  1  0  0  0
 10 11  1  0  0  0
 11 12  1  0  0  0
 11 14  1  0  0  0
 12 13  2  0  0  0
 12 24  1  0  0  0
 14 15  1  0  0  0
 15 16  4  0  0  0
 15 17  4  0  0  0
 16 18  4  0  0  0
 17 19  4  0  0  0
 17 20  4  0  0  0
 18 19  4  0  0  0
 19 21  4  0  0  0
 20 22  4  0  0  0
 21 23  4  0  0  0
 22 23  4  0  0  0
 24 25  1  0  0  0
 25 26  1  0  0  0
 25 28  1  0  0  0
 26 27  2  0  0  0
 26 31  1  0  0  0
 28 29  1  0  0  0
 28 30  1  0  0  0
 31 32  1  0  0  0
 32 33  1  0  0  0
 32 35  1  0  0  0
 33 34  2  0  0  0
 33 39  1  0  0  0
 35 36  1  0  0  0
 36 37  1  0  0  0
 36 38  1  0  0  0
 39 40  1  0  0  0
 40 41  1  0  0  0
 40 43  1  0  0  0
 41 42  2  0  0  0
 41 48  1  0  0  0
 43 44  1  0  0  0
 44 45  1  0  0  0
 45 46  2  0  0  0
 45 47  1  0  0  0
 48 49  1  0  0  0
 49 50  1  0  0  0
 49 52  1  0  0  0
 50 51  2  0  0  0
 50 59  1  0  0  0
 52 53  1  0  0  0
 53 54  1  0  0  0
 54 55  1  0  0  0
 55 56  1  0  0  0
 56 57  1  0  0  0
 56 58  2  0  0  0
 59 60  1  0  0  0
 60 61  1  0  0  0
 60 63  1  0  0  0
 61 62  2  0  0  0
 61 67  1  0  0  0
 63 64  1  0  0  0
 64 65  1  0  0  0
 64 66  1  0  0  0
 67 68  1  0  0  0
 68 69  1  0  0  0
 68 71  1  0  0  0
 69 70  2  0  0  0
 69 76  1  0  0  0
 71 72  1  0  0  0
 72 73  1  0  0  0
 73 74  1  0  0  0
 74 75  1  0  0  0
 76 77  1  0  0  0
 77 78  1  0  0  0
 77 80  1  0  0  0
 78 79  2  0  0  0
 78 87  1  0  0  0
 80 81  1  0  0  0
 81 82  1  0  0  0
 82 83  1  0  0  0
 83 84  1  0  0  0
 84 85  2  0  0  0
 84 86  1  0  0  0
 87 88  1  0  0  0
 88 89  1  0  0  0
 88 91  1  0  0  0
 89 90  2  0  0  0
 89 96  1  0  0  0
 91 92  1  0  0  0
 92 93  1  0  0  0
 93 94  1  0  0  0
 94 95  1  0  0  0
 96 97  1  0  0  0
 97 98  1  0  0  0
 97100  1  0  0  0
 98 99  2  0  0  0
 98108  1  0  0  0
100101  1  0  0  0
101102  4  0  0  0
101103  4  0  0  0
102104  4  0  0  0
103105  4  0  0  0
104106  4  0  0  0
105106  4  0  0  0
106107  1  0  0  0
108109  1  0  0  0
109110  1  0  0  0
109112  1  0  0  0
110111  2  0  0  0
110119  1  0  0  0
112113  1  0  0  0
113114  1  0  0  0
114115  1  0  0  0
115116  1  0  0  0
116117  1  0  0  0
116118  2  0  0  0
119120  1  0  0  0
120121  1  0  0  0
120123  1  0  0  0
121122  2  0  0  0
121127  1  0  0  0
123124  1  0  0  0
124125  2  0  0  0
124126  1  0  0  0
  1128  1  0  0  0
  1129  1  0  0  0
  1130  1  0  0  0
  2131  1  0  0  0
  5132  1  0  0  0
  5133  1  0  0  0
  6134  1  0  0  0
  6135  1  0  0  0
  7136  1  0  0  0
  7137  1  0  0  0
  8138  1  0  0  0
  8139  1  0  0  0
  9140  1  0  0  0
  9141  1  0  0  0
  9142  1  0  0  0
 10143  1  0  0  0
 11144  1  0  0  0
 14145  1  0  0  0
 14146  1  0  0  0
 16147  1  0  0  0
 20148  1  0  0  0
 21149  1  0  0  0
 22150  1  0  0  0
 23151  1  0  0  0
 24152  1  0  0  0
 25153  1  0  0  0
 28154  1  0  0  0
 29155  1  0  0  0
 30156  1  0  0  0
 30157  1  0  0  0
 30158  1  0  0  0
 31159  1  0  0  0
 32160  1  0  0  0
 35161  1  0  0  0
 35162  1  0  0  0
 36163  1  0  0  0
 37164  1  0  0  0
 37165  1  0  0  0
 37166  1  0  0  0
 38167  1  0  0  0
 38168  1  0  0  0
 38169  1  0  0  0
 39170  1  0  0  0
 40171  1  0  0  0
 43172  1  0  0  0
 43173  1  0  0  0
 44174  1  0  0  0
 44175  1  0  0  0
 47176  1  0  0  0
 48177  1  0  0  0
 49178  1  0  0  0
 52179  1  0  0  0
 52180  1  0  0  0
 53181  1  0  0  0
 53182  1  0  0  0
 54183  1  0  0  0
 54184  1  0  0  0
 55185  1  0  0  0
 57186  1  0  0  0
 57187  1  0  0  0
 58188  1  0  0  0
 59189  1  0  0  0
 60190  1  0  0  0
 63191  1  0  0  0
 63192  1  0  0  0
 64193  1  0  0  0
 65194  1  0  0  0
 65195  1  0  0  0
 65196  1  0  0  0
 66197  1  0  0  0
 66198  1  0  0  0
 66199  1  0  0  0
 67200  1  0  0  0
 68201  1  0  0  0
 71202  1  0  0  0
 71203  1  0  0  0
 72204  1  0  0  0
 72205  1  0  0  0
 73206  1  0  0  0
 73207  1  0  0  0
 74208  1  0  0  0
 74209  1  0  0  0
 75210  1  0  0  0
 75211  1  0  0  0
 75212  1  0  0  0
 76213  1  0  0  0
 77214  1  0  0  0
 80215  1  0  0  0
 80216  1  0  0  0
 81217  1  0  0  0
 81218  1  0  0  0
 82219  1  0  0  0
 82220  1  0  0  0
 83221  1  0  0  0
 85222  1  0  0  0
 86223  1  0  0  0
 86224  1  0  0  0
 87225  1  0  0  0
 88226  1  0  0  0
 91227  1  0  0  0
 91228  1  0  0  0
 92229  1  0  0  0
 92230  1  0  0  0
 93231  1  0  0  0
 93232  1  0  0  0
 94233  1  0  0  0
 94234  1  0  0  0
 95235  1  0  0  0
 95236  1  0  0  0
 95237  1  0  0  0
 96238  1  0  0  0
 97239  1  0  0  0
100240  1  0  0  0
100241  1  0  0  0
102242  1  0  0  0
103243  1  0  0  0
104244  1  0  0  0
105245  1  0  0  0
107246  1  0  0  0
108247  1  0  0  0
109248  1  0  0  0
112249  1  0  0  0
112250  1  0  0  0
113251  1  0  0  0
113252  1  0  0  0
114253  1  0  0  0
114254  1  0  0  0
115255  1  0  0  0
117256  1  0  0  0
117257  1  0  0  0
118258  1  0  0  0
119259  1  0  0  0
120260  1  0  0  0
123261  1  0  0  0
123262  1  0  0  0
126263  1  0  0  0
126264  1  0  0  0
127265  1  0  0  0
M  END
$$$$
