### 
### Created by X-TOOL on Mon Sep 10 21:13:35 2018
### 

@<TRIPOS>MOLECULE
6bnh_ligand
  267   269     1     0     0
SMALL
GAST_HUCK


@<TRIPOS>ATOM
      1 N           3.5070   -6.5240  -11.5810 N.4       1 LYS         0.2379
      2 CA          2.9690   -5.1750  -11.2980 C.3       1 LYS         0.0650
      3 C           3.5740   -4.6280  -10.0100 C.2       1 LYS         0.2268
      4 O           4.3460   -3.6690  -10.0300 O.2       1 LYS        -0.3907
      5 CB          1.4420   -5.2310  -11.1730 C.3       1 LYS         0.0080
      6 CG          0.7790   -3.8670  -11.0470 C.3       1 LYS        -0.0410
      7 CD         -0.6820   -3.9970  -10.6450 C.3       1 LYS        -0.0123
      8 CE         -1.4100   -2.6610  -10.7040 C.3       1 LYS        -0.0354
      9 NZ         -1.5380   -2.1540  -12.0980 N.4       1 LYS         0.2185
     10 N           3.2190   -5.2490   -8.8940 N.am      1 TRP        -0.2600
     11 CA          3.7030   -4.8330   -7.5890 C.3       1 TRP         0.1353
     12 C           3.9530   -6.0690   -6.7260 C.2       1 TRP         0.2052
     13 O           3.7310   -6.0760   -5.5180 O.2       1 TRP        -0.3942
     14 CB          2.6770   -3.8970   -6.9420 C.3       1 TRP         0.0042
     15 CG          3.1230   -3.2780   -5.6510 C.2       1 TRP        -0.0418
     16 CD1         4.3300   -2.7000   -5.3800 C.2       1 TRP         0.0167
     17 CD2         2.3490   -3.1670   -4.4590 C.ar      1 TRP        -0.0214
     18 NE1         4.3480   -2.2280   -4.0930 N.pl3     1 TRP        -0.2890
     19 CE2         3.1450   -2.5050   -3.5050 C.ar      1 TRP         0.0603
     20 CE3         1.0580   -3.5610   -4.1050 C.ar      1 TRP        -0.0747
     21 CZ2         2.6910   -2.2280   -2.2230 C.ar      1 TRP        -0.0443
     22 CZ3         0.6140   -3.2860   -2.8290 C.ar      1 TRP        -0.0792
     23 CH2         1.4260   -2.6260   -1.9040 C.ar      1 TRP        -0.0768
     24 N           4.4210   -7.1200   -7.3740 N.am      1 THR        -0.2612
     25 CA          4.6910   -8.3760   -6.7040 C.3       1 THR         0.1565
     26 C           6.0100   -8.3210   -5.9410 C.2       1 THR         0.2065
     27 O           6.5710   -7.2380   -5.7420 O.2       1 THR        -0.3943
     28 CB          4.6970   -9.5310   -7.7170 C.3       1 THR         0.0924
     29 OG1         5.3420   -9.1160   -8.9300 O.3       1 THR        -0.3874
     30 CG2         3.2770   -9.9790   -8.0160 C.3       1 THR        -0.0346
     31 N           6.4840   -9.4920   -5.5070 N.am      1 LEU        -0.2636
     32 CA          7.6870   -9.6140   -4.6810 C.3       1 LEU         0.1312
     33 C           8.8280   -8.7100   -5.1490 C.2       1 LEU         0.2039
     34 O           9.5350   -8.1390   -4.3270 O.2       1 LEU        -0.3944
     35 CB          8.1380  -11.0860   -4.6180 C.3       1 LEU        -0.0101
     36 CG          8.1980  -11.8380   -5.9580 C.3       1 LEU        -0.0425
     37 CD1         9.5300  -11.6190   -6.6590 C.3       1 LEU        -0.0625
     38 CD2         7.9520  -13.3230   -5.7430 C.3       1 LEU        -0.0625
     39 N           8.9820   -8.5570   -6.4590 N.am      1 GLU        -0.2636
     40 CA         10.0380   -7.7180   -7.0100 C.3       1 GLU         0.1325
     41 C           9.9610   -6.2950   -6.4520 C.2       1 GLU         0.2040
     42 O          10.7940   -5.8970   -5.6340 O.2       1 GLU        -0.3944
     43 CB          9.9540   -7.7000   -8.5380 C.3       1 GLU        -0.0008
     44 CG         11.0160   -6.8430   -9.2060 C.3       1 GLU         0.0044
     45 CD         10.9680   -6.9440  -10.7130 C.2       1 GLU         0.0350
     46 OE1        11.8730   -7.5730  -11.3000 O.co2     1 GLU        -0.5690
     47 OE2        10.0180   -6.4080  -11.3210 O.co2     1 GLU        -0.5690
     48 N           8.9420   -5.5490   -6.8600 N.am      1 ARG        -0.2637
     49 CA          8.8220   -4.1530   -6.4620 C.3       1 ARG         0.1311
     50 C           8.6120   -4.0220   -4.9550 C.2       1 ARG         0.2039
     51 O           9.4030   -3.3790   -4.2690 O.2       1 ARG        -0.3944
     52 CB          7.6830   -3.4650   -7.2220 C.3       1 ARG        -0.0092
     53 CG          7.4970   -2.0020   -6.8370 C.3       1 ARG        -0.0156
     54 CD          6.4470   -1.3130   -7.6980 C.3       1 ARG         0.0627
     55 NE          6.8770   -1.1590   -9.0830 N.pl3     1 ARG        -0.2723
     56 CZ          6.2290   -0.4250   -9.9820 C.cat     1 ARG         0.2882
     57 NH1         5.1180    0.2210   -9.6460 N.pl3     1 ARG        -0.2849
     58 NH2         6.6880   -0.3430  -11.2230 N.pl3     1 ARG        -0.2849
     59 N           7.5670   -4.6560   -4.4360 N.am      1 LEU        -0.2637
     60 CA          7.2120   -4.4960   -3.0300 C.3       1 LEU         0.1312
     61 C           8.2880   -5.0480   -2.1080 C.2       1 LEU         0.2039
     62 O           8.9090   -4.2980   -1.3640 O.2       1 LEU        -0.3944
     63 CB          5.8740   -5.1690   -2.7200 C.3       1 LEU        -0.0101
     64 CG          5.4730   -5.1870   -1.2350 C.3       1 LEU        -0.0425
     65 CD1         5.5050   -3.7900   -0.6310 C.3       1 LEU        -0.0625
     66 CD2         4.0950   -5.7880   -1.0860 C.3       1 LEU        -0.0625
     67 N           8.5240   -6.3500   -2.1800 N.am      1 LYS        -0.2637
     68 CA          9.3730   -7.0210   -1.2050 C.3       1 LYS         0.1310
     69 C          10.8000   -6.4820   -1.2410 C.2       1 LYS         0.2039
     70 O          11.4320   -6.3230   -0.1950 O.2       1 LYS        -0.3944
     71 CB          9.3620   -8.5320   -1.4450 C.3       1 LYS        -0.0122
     72 CG         10.1970   -9.3230   -0.4530 C.3       1 LYS        -0.0440
     73 CD         10.1600  -10.8120   -0.7530 C.3       1 LYS        -0.0124
     74 CE          8.7490  -11.3680   -0.6600 C.3       1 LYS        -0.0354
     75 NZ          8.7310  -12.8510   -0.7380 N.4       1 LYS         0.2185
     76 N          11.2980   -6.1610   -2.4310 N.am      1 ARG        -0.2637
     77 CA         12.6720   -5.7010   -2.5590 C.3       1 ARG         0.1311
     78 C          12.8140   -4.2120   -2.2370 C.2       1 ARG         0.2039
     79 O          13.9270   -3.7170   -2.0810 O.2       1 ARG        -0.3944
     80 CB         13.2310   -6.0170   -3.9480 C.3       1 ARG        -0.0092
     81 CG         13.6930   -7.4600   -4.1050 C.3       1 ARG        -0.0156
     82 CD         12.5380   -8.4560   -4.1030 C.3       1 ARG         0.0627
     83 NE         12.8430   -9.6310   -3.2900 N.pl3     1 ARG        -0.2723
     84 CZ         12.7040  -10.8880   -3.7050 C.cat     1 ARG         0.2882
     85 NH1        12.3280  -11.1450   -4.9480 N.pl3     1 ARG        -0.2849
     86 NH2        12.9580  -11.8920   -2.8780 N.pl3     1 ARG        -0.2849
     87 N          11.7000   -3.4920   -2.1570 N.am      1 LYS        -0.2637
     88 CA         11.7210   -2.1190   -1.6450 C.3       1 LYS         0.1310
     89 C          11.3430   -2.1010   -0.1660 C.2       1 LYS         0.2040
     90 O          11.5530   -1.1130    0.5360 O.2       1 LYS        -0.3944
     91 CB         10.7660   -1.2190   -2.4360 C.3       1 LYS        -0.0122
     92 CG         11.2320   -0.9120   -3.8530 C.3       1 LYS        -0.0440
     93 CD         12.5050   -0.0780   -3.8560 C.3       1 LYS        -0.0124
     94 CE         12.9600    0.2490   -5.2700 C.3       1 LYS        -0.0354
     95 NZ         13.2400   -0.9750   -6.0640 N.4       1 LYS         0.2185
     96 N          10.7820   -3.2090    0.2900 N.am      1 TYR        -0.2621
     97 CA         10.3020   -3.3430    1.6580 C.3       1 TYR         0.1390
     98 C          11.4100   -3.8600    2.5690 C.2       1 TYR         0.2057
     99 O          11.7640   -3.2230    3.5620 O.2       1 TYR        -0.3942
    100 CB          9.1100   -4.3080    1.6670 C.3       1 TYR         0.0163
    101 CG          8.4080   -4.4750    2.9970 C.ar      1 TYR        -0.0493
    102 CD1         7.1110   -4.0210    3.1570 C.ar      1 TYR        -0.0685
    103 CD2         9.0240   -5.0970    4.0790 C.ar      1 TYR        -0.0685
    104 CE1         6.4440   -4.1810    4.3560 C.ar      1 TYR        -0.0398
    105 CE2         8.3650   -5.2560    5.2830 C.ar      1 TYR        -0.0398
    106 CZ          7.0740   -4.7950    5.4160 C.ar      1 TYR         0.0805
    107 OH          6.4030   -4.9550    6.6100 O.3       1 TYR        -0.3376
    108 N          11.9530   -5.0190    2.2180 N.am      1 ARG        -0.2636
    109 CA         12.9600   -5.6750    3.0390 C.3       1 ARG         0.1311
    110 C          14.3140   -4.9880    2.8860 C.2       1 ARG         0.2035
    111 O          15.1720   -5.0740    3.7680 O.2       1 ARG        -0.3944
    112 CB         13.0530   -7.1600    2.6630 C.3       1 ARG        -0.0092
    113 CG         14.0290   -7.9520    3.5170 C.3       1 ARG        -0.0156
    114 CD         13.9390   -9.4450    3.2420 C.3       1 ARG         0.0627
    115 NE         14.9270  -10.1950    4.0160 N.pl3     1 ARG        -0.2723
    116 CZ         14.9180  -11.5190    4.1690 C.cat     1 ARG         0.2882
    117 NH1        13.9400  -12.2530    3.6500 N.pl3     1 ARG        -0.2849
    118 NH2        15.8830  -12.1110    4.8610 N.pl3     1 ARG        -0.2849
    119 N          14.4920   -4.2940    1.7720 N.am      1 ASN        -0.2674
    120 CA         15.7230   -3.5590    1.5200 C.3       1 ASN         0.1110
    121 C          15.5200   -2.0830    1.8350 C.2       1 ASN         0.0624
    122 O          15.2760   -1.2960    0.8970 O.co2     1 ASN        -0.5665
    123 CB         16.1730   -3.7300    0.0650 C.3       1 ASN         0.0718
    124 CG         16.5100   -5.1670   -0.2870 C.2       1 ASN         0.1774
    125 OD1        16.9510   -5.9420    0.5600 O.2       1 ASN        -0.3971
    126 ND2        16.3010   -5.5350   -1.5420 N.am      1 ASN        -0.3007
    127 OXT        15.5770   -1.7150    3.0280 O.co2     1 ASN        -0.5665
    128 H1          3.1007   -6.8757  -12.4338 H         1 LYS         0.2015
    129 H2          3.2783   -7.1435  -10.8195 H         1 LYS         0.2015
    130 H3          4.5085   -6.4718  -11.6826 H         1 LYS         0.2015
    131 H4          3.2343   -4.5050  -12.1291 H         1 LYS         0.1098
    132 H5          1.1898   -5.8215  -10.2799 H         1 LYS         0.0346
    133 H6          1.0401   -5.7292  -12.0676 H         1 LYS         0.0346
    134 H7          0.8393   -3.3486  -12.0153 H         1 LYS         0.0270
    135 H8          1.3098   -3.2799  -10.2831 H         1 LYS         0.0270
    136 H9         -0.7345   -4.3851   -9.6171 H         1 LYS         0.0317
    137 H10        -1.1773   -4.7020  -11.3289 H         1 LYS         0.0317
    138 H11        -0.8494   -1.9250  -10.1090 H         1 LYS         0.0813
    139 H12        -2.4165   -2.7864  -10.2784 H         1 LYS         0.0813
    140 H13        -2.0241   -1.2710  -12.0910 H         1 LYS         0.1994
    141 H14        -2.0563   -2.8185  -12.6510 H         1 LYS         0.1994
    142 H15        -0.6203   -2.0291  -12.4957 H         1 LYS         0.1994
    143 H16         2.5972   -6.0300   -8.9524 H         1 TRP         0.1886
    144 H17         4.6510   -4.2887   -7.7113 H         1 TRP         0.0815
    145 H18         1.7611   -4.4741   -6.7472 H         1 TRP         0.0397
    146 H19         2.4558   -3.0868   -7.6524 H         1 TRP         0.0397
    147 H20         5.1577   -2.6249   -6.0837 H         1 TRP         0.0795
    148 H21         5.1380   -1.7441   -3.6429 H         1 TRP         0.2216
    149 H22         0.4191   -4.0714   -4.8166 H         1 TRP         0.0540
    150 H23         3.3179   -1.7149   -1.5027 H         1 TRP         0.0541
    151 H24        -0.3855   -3.5882   -2.5378 H         1 TRP         0.0510
    152 H25         1.0423   -2.4255   -0.9102 H         1 TRP         0.0530
    153 H26         4.5942   -7.0469   -8.3562 H         1 THR         0.1884
    154 H27         3.8843   -8.5581   -5.9787 H         1 THR         0.0826
    155 H28         5.2539  -10.3770   -7.2878 H         1 THR         0.0639
    156 H29         5.3411   -9.8357   -9.5500 H         1 THR         0.2101
    157 H30         3.2984  -10.8053   -8.7418 H         1 THR         0.0257
    158 H31         2.7075   -9.1368   -8.4359 H         1 THR         0.0257
    159 H32         2.7966  -10.3195   -7.0869 H         1 THR         0.0257
    160 H33         5.9933  -10.3262   -5.7585 H         1 LEU         0.1883
    161 H34         7.4197   -9.3000   -3.6613 H         1 LEU         0.0800
    162 H35         7.4366  -11.6237   -3.9631 H         1 LEU         0.0315
    163 H36         9.1446  -11.1095   -4.1752 H         1 LEU         0.0315
    164 H37         7.4011  -11.4455   -6.6067 H         1 LEU         0.0298
    165 H38         9.5381  -12.1697   -7.6112 H         1 LEU         0.0232
    166 H39        10.3461  -11.9834   -6.0178 H         1 LEU         0.0232
    167 H40         9.6691  -10.5456   -6.8550 H         1 LEU         0.0232
    168 H41         6.9863  -13.4650   -5.2358 H         1 LEU         0.0232
    169 H42         8.7574  -13.7420   -5.1219 H         1 LEU         0.0232
    170 H43         7.9342  -13.8363   -6.7157 H         1 LEU         0.0232
    171 H44         8.3583   -9.0289   -7.0822 H         1 GLU         0.1883
    172 H45        11.0077   -8.1489   -6.7204 H         1 GLU         0.0801
    173 H46         8.9656   -7.3121   -8.8254 H         1 GLU         0.0330
    174 H47        10.0630   -8.7321   -8.9025 H         1 GLU         0.0330
    175 H48        12.0066   -7.1736   -8.8605 H         1 GLU         0.0433
    176 H49        10.8579   -5.7937   -8.9164 H         1 GLU         0.0433
    177 H50         8.2439   -5.9526   -7.4514 H         1 ARG         0.1883
    178 H51         9.7624   -3.6444   -6.7206 H         1 ARG         0.0800
    179 H52         6.7473   -4.0031   -7.0103 H         1 ARG         0.0313
    180 H53         7.9005   -3.5174   -8.2990 H         1 ARG         0.0313
    181 H54         8.4563   -1.4780   -6.9600 H         1 ARG         0.0301
    182 H55         7.1828   -1.9493   -5.7842 H         1 ARG         0.0301
    183 H56         6.2444   -0.3166   -7.2783 H         1 ARG         0.0689
    184 H57         5.5254   -1.9132   -7.6790 H         1 ARG         0.0689
    185 H58         7.7330   -1.6476   -9.3821 H         1 ARG         0.2642
    186 H59         4.6201    0.7883  -10.3469 H         1 ARG         0.2615
    187 H60         4.7544    0.1546   -8.6846 H         1 ARG         0.2615
    188 H61         7.5491   -0.8424  -11.4877 H         1 ARG         0.2615
    189 H62         6.1835    0.2201  -11.9225 H         1 ARG         0.2615
    190 H63         7.0146   -5.2526   -5.0182 H         1 LEU         0.1883
    191 H64         7.1101   -3.4193   -2.8294 H         1 LEU         0.0800
    192 H65         5.9290   -6.2106   -3.0693 H         1 LEU         0.0315
    193 H66         5.0891   -4.6364   -3.2770 H         1 LEU         0.0315
    194 H67         6.1918   -5.8157   -0.6891 H         1 LEU         0.0298
    195 H68         5.2135   -3.8418    0.4284 H         1 LEU         0.0232
    196 H69         4.8025   -3.1399   -1.1731 H         1 LEU         0.0232
    197 H70         6.5220   -3.3788   -0.7117 H         1 LEU         0.0232
    198 H71         4.0852   -6.7962   -1.5259 H         1 LEU         0.0232
    199 H72         3.3606   -5.1545   -1.6049 H         1 LEU         0.0232
    200 H73         3.8359   -5.8511   -0.0188 H         1 LEU         0.0232
    201 H74         8.1109   -6.8826   -2.9187 H         1 LYS         0.1883
    202 H75         8.9615   -6.8279   -0.2033 H         1 LYS         0.0800
    203 H76         9.7519   -8.7243   -2.4555 H         1 LYS         0.0312
    204 H77         8.3221   -8.8847   -1.3799 H         1 LYS         0.0312
    205 H78         9.8037   -9.1531    0.5601 H         1 LYS         0.0269
    206 H79        11.2389   -8.9741   -0.5052 H         1 LYS         0.0269
    207 H80        10.7990  -11.3379   -0.0284 H         1 LYS         0.0317
    208 H81        10.5434  -10.9806   -1.7701 H         1 LYS         0.0317
    209 H82         8.1513  -10.9612   -1.4890 H         1 LYS         0.0813
    210 H83         8.3068  -11.0571    0.2980 H         1 LYS         0.0813
    211 H84         7.7802  -13.1793   -0.6728 H         1 LYS         0.1994
    212 H85         9.2715  -13.2340    0.0217 H         1 LYS         0.1994
    213 H86         9.1290  -13.1462   -1.6158 H         1 LYS         0.1994
    214 H87        10.7228   -6.2364   -3.2456 H         1 ARG         0.1883
    215 H88        13.2740   -6.2554   -1.8240 H         1 ARG         0.0800
    216 H89        14.0887   -5.3547   -4.1367 H         1 ARG         0.0313
    217 H90        12.4452   -5.8205   -4.6922 H         1 ARG         0.0313
    218 H91        14.3690   -7.7048   -3.2725 H         1 ARG         0.0301
    219 H92        14.2354   -7.5534   -5.0574 H         1 ARG         0.0301
    220 H93        12.3423   -8.7780   -5.1365 H         1 ARG         0.0689
    221 H94        11.6424   -7.9634   -3.6966 H         1 ARG         0.0689
    222 H95        13.1885   -9.4764   -2.3321 H         1 ARG         0.2642
    223 H96        12.2223  -12.1200   -5.2629 H         1 ARG         0.2615
    224 H97        12.1412  -10.3700   -5.6002 H         1 ARG         0.2615
    225 H98        13.2510  -11.6999   -1.9094 H         1 ARG         0.2615
    226 H99        12.8624  -12.8644   -3.2038 H         1 ARG         0.2615
    227 H100       10.8328   -3.8938   -2.4511 H         1 LYS         0.1883
    228 H101       12.7419   -1.7239   -1.7524 H         1 LYS         0.0800
    229 H102       10.6589   -0.2679   -1.8939 H         1 LYS         0.0312
    230 H103        9.7883   -1.7197   -2.4947 H         1 LYS         0.0312
    231 H104       10.4401   -0.3564   -4.3767 H         1 LYS         0.0269
    232 H105       11.4245   -1.8590   -4.3785 H         1 LYS         0.0269
    233 H106       13.3011   -0.6408   -3.3466 H         1 LYS         0.0317
    234 H107       12.3169    0.8616   -3.3159 H         1 LYS         0.0317
    235 H108       13.8768    0.8545   -5.2165 H         1 LYS         0.0813
    236 H109       12.1691    0.8248   -5.7729 H         1 LYS         0.0813
    237 H110       13.5374   -0.7134   -6.9909 H         1 LYS         0.1994
    238 H111       12.4038   -1.5346   -6.1249 H         1 LYS         0.1994
    239 H112       13.9687   -1.5074   -5.6150 H         1 LYS         0.1994
    240 H113       10.6835   -3.9868   -0.3307 H         1 TYR         0.1885
    241 H114        9.9734   -2.3587    2.0230 H         1 TYR         0.0821
    242 H115        9.4738   -5.2968    1.3510 H         1 TYR         0.0453
    243 H116        8.3717   -3.9393    0.9397 H         1 TYR         0.0453
    244 H117        6.6106   -3.5323    2.3289 H         1 TYR         0.0530
    245 H118       10.0390   -5.4633    3.9753 H         1 TYR         0.0530
    246 H119        5.4261   -3.8238    4.4626 H         1 TYR         0.0525
    247 H120        8.8605   -5.7401    6.1168 H         1 TYR         0.0525
    248 H121        5.5313   -4.5849    6.5342 H         1 TYR         0.2458
    249 H122       11.6622   -5.4537    1.3657 H         1 ARG         0.1883
    250 H123       12.6530   -5.6013    4.0927 H         1 ARG         0.0800
    251 H124       13.3740   -7.2320    1.6134 H         1 ARG         0.0313
    252 H125       12.0544   -7.6081    2.7726 H         1 ARG         0.0313
    253 H126       13.8015   -7.7713    4.5779 H         1 ARG         0.0301
    254 H127       15.0516   -7.6109    3.2980 H         1 ARG         0.0301
    255 H128       14.1155   -9.6220    2.1708 H         1 ARG         0.0689
    256 H129       12.9324   -9.7976    3.5110 H         1 ARG         0.0689
    257 H130       15.6813   -9.6640    4.4742 H         1 ARG         0.2642
    258 H131       13.9422  -13.2755    3.7738 H         1 ARG         0.2615
    259 H132       13.1795  -11.7996    3.1237 H         1 ARG         0.2615
    260 H133       16.6449  -11.5491    5.2667 H         1 ARG         0.2615
    261 H134       15.8702  -13.1325    4.9925 H         1 ARG         0.2615
    262 H135       13.7632   -4.2745    1.0876 H         1 ASN         0.1877
    263 H136       16.5096   -3.9560    2.1785 H         1 ASN         0.0752
    264 H137       17.0663   -3.1099   -0.1007 H         1 ASN         0.0544
    265 H138       15.3620   -3.3885   -0.5951 H         1 ASN         0.0544
    266 H139       16.5057   -6.4707   -1.8294 H         1 ASN         0.1814
    267 H140       15.9385   -4.8772   -2.2022 H         1 ASN         0.1814
@<TRIPOS>BOND
     1    1    2 1  
     2    2    3 1  
     3    2    5 1  
     4    3    4 2  
     5    3   10 am 
     6    5    6 1  
     7    6    7 1  
     8    7    8 1  
     9    8    9 1  
    10   10   11 1  
    11   11   12 1  
    12   11   14 1  
    13   12   13 2  
    14   12   24 am 
    15   14   15 1  
    16   15   16 2  
    17   15   17 1  
    18   16   18 1  
    19   17   19 ar 
    20   17   20 ar 
    21   18   19 1  
    22   19   21 ar 
    23   20   22 ar 
    24   21   23 ar 
    25   22   23 ar 
    26   24   25 1  
    27   25   26 1  
    28   25   28 1  
    29   26   27 2  
    30   26   31 am 
    31   28   29 1  
    32   28   30 1  
    33   31   32 1  
    34   32   33 1  
    35   32   35 1  
    36   33   34 2  
    37   33   39 am 
    38   35   36 1  
    39   36   37 1  
    40   36   38 1  
    41   39   40 1  
    42   40   41 1  
    43   40   43 1  
    44   41   42 2  
    45   41   48 am 
    46   43   44 1  
    47   44   45 1  
    48   45   46 ar 
    49   45   47 ar 
    50   48   49 1  
    51   49   50 1  
    52   49   52 1  
    53   50   51 2  
    54   50   59 am 
    55   52   53 1  
    56   53   54 1  
    57   54   55 1  
    58   55   56 ar 
    59   56   57 ar 
    60   56   58 ar 
    61   59   60 1  
    62   60   61 1  
    63   60   63 1  
    64   61   62 2  
    65   61   67 am 
    66   63   64 1  
    67   64   65 1  
    68   64   66 1  
    69   67   68 1  
    70   68   69 1  
    71   68   71 1  
    72   69   70 2  
    73   69   76 am 
    74   71   72 1  
    75   72   73 1  
    76   73   74 1  
    77   74   75 1  
    78   76   77 1  
    79   77   78 1  
    80   77   80 1  
    81   78   79 2  
    82   78   87 am 
    83   80   81 1  
    84   81   82 1  
    85   82   83 1  
    86   83   84 ar 
    87   84   85 ar 
    88   84   86 ar 
    89   87   88 1  
    90   88   89 1  
    91   88   91 1  
    92   89   90 2  
    93   89   96 am 
    94   91   92 1  
    95   92   93 1  
    96   93   94 1  
    97   94   95 1  
    98   96   97 1  
    99   97   98 1  
   100   97  100 1  
   101   98   99 2  
   102   98  108 am 
   103  100  101 1  
   104  101  102 ar 
   105  101  103 ar 
   106  102  104 ar 
   107  103  105 ar 
   108  104  106 ar 
   109  105  106 ar 
   110  106  107 1  
   111  108  109 1  
   112  109  110 1  
   113  109  112 1  
   114  110  111 2  
   115  110  119 am 
   116  112  113 1  
   117  113  114 1  
   118  114  115 1  
   119  115  116 ar 
   120  116  117 ar 
   121  116  118 ar 
   122  119  120 1  
   123  120  121 1  
   124  120  123 1  
   125  121  122 ar 
   126  121  127 ar 
   127  123  124 1  
   128  124  125 2  
   129  124  126 am 
   130    1  128 1  
   131    1  129 1  
   132    1  130 1  
   133    2  131 1  
   134    5  132 1  
   135    5  133 1  
   136    6  134 1  
   137    6  135 1  
   138    7  136 1  
   139    7  137 1  
   140    8  138 1  
   141    8  139 1  
   142    9  140 1  
   143    9  141 1  
   144    9  142 1  
   145   10  143 1  
   146   11  144 1  
   147   14  145 1  
   148   14  146 1  
   149   16  147 1  
   150   18  148 1  
   151   20  149 1  
   152   21  150 1  
   153   22  151 1  
   154   23  152 1  
   155   24  153 1  
   156   25  154 1  
   157   28  155 1  
   158   29  156 1  
   159   30  157 1  
   160   30  158 1  
   161   30  159 1  
   162   31  160 1  
   163   32  161 1  
   164   35  162 1  
   165   35  163 1  
   166   36  164 1  
   167   37  165 1  
   168   37  166 1  
   169   37  167 1  
   170   38  168 1  
   171   38  169 1  
   172   38  170 1  
   173   39  171 1  
   174   40  172 1  
   175   43  173 1  
   176   43  174 1  
   177   44  175 1  
   178   44  176 1  
   179   48  177 1  
   180   49  178 1  
   181   52  179 1  
   182   52  180 1  
   183   53  181 1  
   184   53  182 1  
   185   54  183 1  
   186   54  184 1  
   187   55  185 1  
   188   57  186 1  
   189   57  187 1  
   190   58  188 1  
   191   58  189 1  
   192   59  190 1  
   193   60  191 1  
   194   63  192 1  
   195   63  193 1  
   196   64  194 1  
   197   65  195 1  
   198   65  196 1  
   199   65  197 1  
   200   66  198 1  
   201   66  199 1  
   202   66  200 1  
   203   67  201 1  
   204   68  202 1  
   205   71  203 1  
   206   71  204 1  
   207   72  205 1  
   208   72  206 1  
   209   73  207 1  
   210   73  208 1  
   211   74  209 1  
   212   74  210 1  
   213   75  211 1  
   214   75  212 1  
   215   75  213 1  
   216   76  214 1  
   217   77  215 1  
   218   80  216 1  
   219   80  217 1  
   220   81  218 1  
   221   81  219 1  
   222   82  220 1  
   223   82  221 1  
   224   83  222 1  
   225   85  223 1  
   226   85  224 1  
   227   86  225 1  
   228   86  226 1  
   229   87  227 1  
   230   88  228 1  
   231   91  229 1  
   232   91  230 1  
   233   92  231 1  
   234   92  232 1  
   235   93  233 1  
   236   93  234 1  
   237   94  235 1  
   238   94  236 1  
   239   95  237 1  
   240   95  238 1  
   241   95  239 1  
   242   96  240 1  
   243   97  241 1  
   244  100  242 1  
   245  100  243 1  
   246  102  244 1  
   247  103  245 1  
   248  104  246 1  
   249  105  247 1  
   250  107  248 1  
   251  108  249 1  
   252  109  250 1  
   253  112  251 1  
   254  112  252 1  
   255  113  253 1  
   256  113  254 1  
   257  114  255 1  
   258  114  256 1  
   259  115  257 1  
   260  117  258 1  
   261  117  259 1  
   262  118  260 1  
   263  118  261 1  
   264  119  262 1  
   265  120  263 1  
   266  123  264 1  
   267  123  265 1  
   268  126  266 1  
   269  126  267 1  
@<TRIPOS>SUBSTRUCTURE
     1 LYS         1

