5m44_ligand
  -I-interpret- 

 36 38  0  0  0  0  0  0  0  0999 V2000
   -3.7680   18.0760  -18.1700 C   0  0  0  0  0
   -4.5630   16.9870  -18.3250 C   0  0  0  0  0
   -5.1720   16.4920  -17.2190 C   0  0  0  0  0
   -4.9910   17.0490  -16.0120 N   0  0  0  0  0
   -3.5640   18.6620  -16.9820 N   0  0  0  0  0
   -8.9800   13.3770  -17.5840 O   0  0  0  0  0
   -9.2640   14.1390  -16.6310 C   0  0  0  0  0
  -10.3000   14.8350  -16.5340 O   0  0  0  0  0
   -8.2610   14.2160  -15.4710 C   0  0  0  0  0
   -7.2460   15.3370  -15.7190 C   0  0  0  0  0
   -6.2500   15.0700  -17.2310 S   0  0  0  0  0
   -4.1790   18.1620  -15.8480 C   0  0  0  0  0
   -3.1530   18.4970  -19.6240 S   0  0  0  0  0
   -3.8640   17.3260  -20.4900 C   0  0  0  0  0
   -4.5950   16.6000  -19.6390 C   0  0  0  0  0
   -5.2640   15.5610  -20.1480 C   0  0  0  0  0
   -6.4770   15.7410  -20.8020 C   0  0  0  0  0
   -7.1480   14.6430  -21.3350 C   0  0  0  0  0
   -6.6080   13.3660  -21.2270 C   0  0  0  0  0
   -7.2830   12.2730  -21.7620 C   0  0  0  0  0
   -5.3920   13.1840  -20.5800 C   0  0  0  0  0
   -4.7210   14.2820  -20.0530 C   0  0  0  0  0
   -8.1319   12.9594  -17.4166 H   0  0  0  0  0
   -7.7311   13.2665  -15.3952 H   0  0  0  0  0
   -8.8009   14.4228  -14.5469 H   0  0  0  0  0
   -6.5632   15.3630  -14.8697 H   0  0  0  0  0
   -7.8000   16.2673  -15.8441 H   0  0  0  0  0
   -4.0323   18.6214  -14.8705 H   0  0  0  0  0
   -3.7647   17.1618  -21.5630 H   0  0  0  0  0
   -6.9026   16.7399  -20.8977 H   0  0  0  0  0
   -8.1032   14.7856  -21.8404 H   0  0  0  0  0
   -8.2612   12.1848  -21.2894 H   0  0  0  0  0
   -7.4082   12.4148  -22.8355 H   0  0  0  0  0
   -6.7065   11.3663  -21.5788 H   0  0  0  0  0
   -4.9660   12.1851  -20.4860 H   0  0  0  0  0
   -3.7593   14.1401  -19.5600 H   0  0  0  0  0
  2  1  4  0  0  0
  1  5  4  0  0  0
  1 13  4  0  0  0
  3  2  4  0  0  0
  2 15  4  0  0  0
  3  4  4  0  0  0
 11  3  1  0  0  0
  4 12  4  0  0  0
 12  5  4  0  0  0
  7  6  1  0  0  0
  7  8  2  0  0  0
  9  7  1  0  0  0
 10  9  1  0  0  0
 10 11  1  0  0  0
 13 14  4  0  0  0
 14 15  4  0  0  0
 15 16  1  0  0  0
 16 17  4  0  0  0
 16 22  4  0  0  0
 17 18  4  0  0  0
 18 19  4  0  0  0
 19 20  1  0  0  0
 19 21  4  0  0  0
 21 22  4  0  0  0
  6 23  1  0  0  0
  9 24  1  0  0  0
  9 25  1  0  0  0
 10 26  1  0  0  0
 10 27  1  0  0  0
 12 28  1  0  0  0
 14 29  1  0  0  0
 17 30  1  0  0  0
 18 31  1  0  0  0
 20 32  1  0  0  0
 20 33  1  0  0  0
 20 34  1  0  0  0
 21 35  1  0  0  0
 22 36  1  0  0  0
M  END
$$$$
