5hg8_ligand
  -I-interpret- 

 46 49  0  0  0  0  0  0  0  0999 V2000
   10.0960   -4.0180  -33.4800 C   0  0  0  0  0
    9.8090   -2.6520  -33.6040 C   0  0  0  0  0
    7.8790   -3.7760  -33.7380 C   0  0  0  0  0
   15.5470   -6.1060  -33.2670 C   0  0  0  0  0
   14.7310   -6.3610  -30.9380 C   0  0  0  0  0
   15.6030   -6.9060  -27.3030 C   0  0  0  0  0
   16.4400   -6.2450  -26.2260 C   0  0  0  0  0
   15.1300   -2.2770  -33.0210 C   0  0  0  0  0
   17.5680   -2.7080  -32.7070 C   0  0  0  0  0
   12.0020   -2.0080  -33.4030 C   0  0  0  0  0
   12.3730   -3.3140  -33.2740 N   0  0  0  0  0
   11.4530   -4.3310  -33.3080 C   0  0  0  0  0
   10.7000   -1.6130  -33.5760 N   0  0  0  0  0
    8.4590   -2.5300  -33.7590 N   0  0  0  0  0
    8.8660   -4.7200  -33.5670 C   0  0  0  0  0
   11.8560   -5.6580  -33.1710 O   0  0  0  0  0
   13.1590   -5.8810  -32.7740 C   0  0  0  0  0
   14.2250   -5.8710  -33.7200 C   0  0  0  0  0
   15.8060   -6.3510  -31.8870 C   0  0  0  0  0
   13.4090   -6.1240  -31.3960 C   0  0  0  0  0
   14.8620   -6.6050  -29.5420 N   0  0  0  0  0
   15.9910   -6.5360  -28.7330 C   0  0  0  0  0
   17.1380   -6.2380  -29.0680 O   0  0  0  0  0
   13.0060   -1.0070  -33.3570 N   0  0  0  0  0
   14.3620   -1.1400  -33.1910 C   0  0  0  0  0
   16.4150   -1.8630  -32.9010 N   0  0  0  0  0
   16.5570   -0.5300  -32.9780 N   0  0  0  0  0
   15.3040   -0.0920  -33.1550 C   0  0  0  0  0
    6.8136   -3.9824  -33.8399 H   0  0  0  0  0
   16.3720   -6.0993  -33.9793 H   0  0  0  0  0
   14.5764   -6.5701  -27.1567 H   0  0  0  0  0
   15.7507   -7.9813  -27.2032 H   0  0  0  0  0
   17.4843   -6.5305  -26.3528 H   0  0  0  0  0
   16.3456   -5.1622  -26.3077 H   0  0  0  0  0
   16.0899   -6.5686  -25.2458 H   0  0  0  0  0
   14.7718   -3.3060  -32.9896 H   0  0  0  0  0
   17.4516   -3.2725  -31.7819 H   0  0  0  0  0
   17.6567   -3.3977  -33.5463 H   0  0  0  0  0
   18.4638   -2.0899  -32.6467 H   0  0  0  0  0
    8.7290   -5.7998  -33.5095 H   0  0  0  0  0
   14.0265   -5.6855  -34.7756 H   0  0  0  0  0
   16.8271   -6.5318  -31.5511 H   0  0  0  0  0
   12.5808   -6.1283  -30.6873 H   0  0  0  0  0
   14.0005   -6.8696  -29.0643 H   0  0  0  0  0
   12.6717   -0.0492  -33.4626 H   0  0  0  0  0
   15.0411    0.9606  -33.2599 H   0  0  0  0  0
  2  1  4  0  0  0
 12  1  4  0  0  0
  1 15  4  0  0  0
 13  2  4  0  0  0
  2 14  4  0  0  0
 14  3  4  0  0  0
  3 15  4  0  0  0
 18  4  4  0  0  0
  4 19  4  0  0  0
  5 19  4  0  0  0
 20  5  4  0  0  0
  5 21  1  0  0  0
  6  7  1  0  0  0
 22  6  1  0  0  0
 25  8  4  0  0  0
  8 26  4  0  0  0
 26  9  1  0  0  0
 10 11  4  0  0  0
 10 13  4  0  0  0
 24 10  1  0  0  0
 11 12  4  0  0  0
 12 16  1  0  0  0
 16 17  1  0  0  0
 17 18  4  0  0  0
 17 20  4  0  0  0
 21 22  1  0  0  0
 22 23  2  0  0  0
 24 25  1  0  0  0
 25 28  4  0  0  0
 26 27  4  0  0  0
 27 28  4  0  0  0
  3 29  1  0  0  0
  4 30  1  0  0  0
  6 31  1  0  0  0
  6 32  1  0  0  0
  7 33  1  0  0  0
  7 34  1  0  0  0
  7 35  1  0  0  0
  8 36  1  0  0  0
  9 37  1  0  0  0
  9 38  1  0  0  0
  9 39  1  0  0  0
 15 40  1  0  0  0
 18 41  1  0  0  0
 19 42  1  0  0  0
 20 43  1  0  0  0
 21 44  1  0  0  0
 24 45  1  0  0  0
 28 46  1  0  0  0
M  END
$$$$
