3lcv_ligand
  -I-interpret- 

 51 53  0  0  0  0  0  0  0  0999 V2000
    8.8800   -1.7400   22.9860 N   0  3  0  0  0
    7.4430   -1.4750   23.1020 C   0  0  0  0  0
    6.6850   -2.7520   23.4550 C   0  0  0  0  0
    7.0640   -3.8230   23.0130 O   0  0  0  0  0
    5.5110   -2.8550   24.2750 O   0  0  0  0  0
    6.8680   -0.9090   21.6660 C   0  0  0  0  0
    6.8360   -1.7890   20.4270 C   0  0  0  0  0
    6.1850   -0.9500   18.9480 S   0  0  0  0  0
    5.7510   -2.2890   17.8130 C   0  0  0  0  0
    6.9580   -0.1310   18.3140 C   0  0  0  0  0
    7.5660    1.1460   18.8760 C   0  0  0  0  0
    8.8050    1.4340   18.1900 O   0  0  0  0  0
    6.6900    2.3680   18.6720 C   0  0  0  0  0
    6.3920    2.6690   20.0790 O   0  0  0  0  0
    7.5610    3.4890   18.1150 C   0  0  0  0  0
    7.4540    4.8020   18.6330 O   0  0  0  0  0
    8.9700    2.8340   18.1100 C   0  0  0  0  0
    9.7170    3.4880   17.1450 N   0  0  0  0  0
    9.4990    3.4780   15.7830 C   0  0  0  0  0
   10.5600    3.9520   15.1560 N   0  0  0  0  0
   11.4800    4.2880   16.0480 C   0  0  0  0  0
   12.7790    4.8310   15.9010 C   0  0  0  0  0
   13.2910    5.0970   14.7300 N   0  0  0  0  0
   13.5220    5.0850   17.0170 N   0  0  0  0  0
   12.9870    4.8040   18.2370 C   0  0  0  0  0
   11.7460    4.2810   18.3600 N   0  0  0  0  0
   10.9910    4.0230   17.2730 C   0  0  0  0  0
    9.2329   -2.0903   23.8766 H   0  0  0  0  0
    9.0383   -2.4371   22.2584 H   0  0  0  0  0
    9.3652   -0.8764   22.7426 H   0  0  0  0  0
    7.2955   -0.7369   23.8904 H   0  0  0  0  0
    5.2648   -1.9824   24.5905 H   0  0  0  0  0
    7.5614   -0.1104   21.4025 H   0  0  0  0  0
    5.8170   -0.7020   21.8677 H   0  0  0  0  0
    6.1757   -2.6293   20.6416 H   0  0  0  0  0
    7.8631   -2.0820   20.2093 H   0  0  0  0  0
    6.6418   -2.8751   17.5870 H   0  0  0  0  0
    5.0016   -2.9293   18.2782 H   0  0  0  0  0
    5.3489   -1.8669   16.8920 H   0  0  0  0  0
    6.2895    0.2586   17.5462 H   0  0  0  0  0
    7.8430   -0.7444   18.1446 H   0  0  0  0  0
    7.6963    0.9654   19.9430 H   0  0  0  0  0
    5.8312    2.2458   18.0120 H   0  0  0  0  0
    5.8268    3.4435   20.1266 H   0  0  0  0  0
    7.2094    3.7987   17.1308 H   0  0  0  0  0
    8.0692    5.3775   18.1726 H   0  0  0  0  0
    9.6246    2.9660   18.9715 H   0  0  0  0  0
    8.5872    3.1307   15.2970 H   0  0  0  0  0
   12.7515    4.9138   13.8840 H   0  0  0  0  0
   14.2306    5.4880   14.6611 H   0  0  0  0  0
   13.5719    5.0050   19.1345 H   0  0  0  0  0
  1  2  1  0  0  0
  2  3  1  0  0  0
  2  6  1  0  0  0
  3  4  2  0  0  0
  3  5  1  0  0  0
  6  7  1  0  0  0
  7  8  1  0  0  0
  8  9  1  0  0  0
  8 10  1  0  0  0
 10 11  1  0  0  0
 11 12  1  0  0  0
 11 13  1  0  0  0
 12 17  1  0  0  0
 13 14  1  0  0  0
 13 15  1  0  0  0
 15 16  1  0  0  0
 15 17  1  0  0  0
 17 18  1  0  0  0
 18 19  4  0  0  0
 18 27  4  0  0  0
 19 20  4  0  0  0
 20 21  4  0  0  0
 21 22  4  0  0  0
 21 27  4  0  0  0
 22 23  1  0  0  0
 22 24  4  0  0  0
 24 25  4  0  0  0
 25 26  4  0  0  0
 26 27  4  0  0  0
  1 28  1  0  0  0
  1 29  1  0  0  0
  1 30  1  0  0  0
  2 31  1  0  0  0
  5 32  1  0  0  0
  6 33  1  0  0  0
  6 34  1  0  0  0
  7 35  1  0  0  0
  7 36  1  0  0  0
  9 37  1  0  0  0
  9 38  1  0  0  0
  9 39  1  0  0  0
 10 40  1  0  0  0
 10 41  1  0  0  0
 11 42  1  0  0  0
 13 43  1  0  0  0
 14 44  1  0  0  0
 15 45  1  0  0  0
 16 46  1  0  0  0
 17 47  1  0  0  0
 19 48  1  0  0  0
 23 49  1  0  0  0
 23 50  1  0  0  0
 25 51  1  0  0  0
M  END
$$$$
