3wtn_ligand
  -I-interpret- 

 23 24  0  0  0  0  0  0  0  0999 V2000
    1.5070   22.8980   16.8610 N   0  0  0  0  0
    2.3290   22.4100   14.6810 N   0  0  0  0  0
    2.1540   23.2440   15.8200 C   0  0  0  0  0
    2.7860   24.4820   15.6310 N   0  0  0  0  0
    3.4210   24.5100   14.3190 C   0  0  0  0  0
    3.1210   23.1470   13.6850 C   0  0  0  0  0
    4.7040   17.8120   14.1240 C   0  0  0  0  0
    5.8620   16.5330   13.9870 Cl  0  0  0  0  0
    5.0540   18.9700   14.7290 N   0  0  0  0  0
    4.1850   19.9930   14.8560 C   0  0  0  0  0
    2.8450   19.8910   14.3470 C   0  0  0  0  0
    2.4730   18.6750   13.7110 C   0  0  0  0  0
    3.4000   17.6200   13.5910 C   0  0  0  0  0
    1.8210   21.0350   14.4690 C   0  0  0  0  0
    1.0773   21.9743   16.9109 H   0  0  0  0  0
    1.4185   23.5446   17.6449 H   0  0  0  0  0
    3.9904   25.3294   13.8803 H   0  0  0  0  0
    3.4305   22.7968   12.7003 H   0  0  0  0  0
    4.5033   20.9101   15.3516 H   0  0  0  0  0
    1.4647   18.5579   13.3138 H   0  0  0  0  0
    3.1252   16.6844   13.1039 H   0  0  0  0  0
    1.3065   21.0637   13.5085 H   0  0  0  0  0
    1.2369   20.8040   15.3598 H   0  0  0  0  0
  3  1  1  0  0  0
  2  3  4  0  0  0
  2  6  4  0  0  0
 14  2  1  0  0  0
  3  4  4  0  0  0
  5  4  4  0  0  0
  6  5  4  0  0  0
  7  8  1  0  0  0
  9  7  4  0  0  0
  7 13  4  0  0  0
 10  9  4  0  0  0
 11 10  4  0  0  0
 11 12  4  0  0  0
 11 14  1  0  0  0
 12 13  4  0  0  0
  1 15  1  0  0  0
  1 16  1  0  0  0
  5 17  1  0  0  0
  6 18  1  0  0  0
 10 19  1  0  0  0
 12 20  1  0  0  0
 13 21  1  0  0  0
 14 22  1  0  0  0
 14 23  1  0  0  0
M  END
$$$$
