6oy1_ligand
  -I-interpret- 

 87 90  0  0  0  0  0  0  0  0999 V2000
   70.7890   57.5620   15.1240 C   0  0  0  0  0
   70.4840   57.8970   16.5890 C   0  0  0  0  0
   72.4470   58.4920   18.0820 C   0  0  0  0  0
   74.3280   59.4340   19.4640 C   0  0  0  0  0
   75.4120   59.7860   19.0370 C   0  0  0  0  0
   74.3810   61.6330   20.1140 C   0  0  0  0  0
   72.0530   61.8630   19.6440 C   0  0  0  0  0
   69.1120   58.5720   16.7050 C   0  0  0  0  0
   66.9720   51.2990   13.5180 C   0  0  0  0  0
   66.4800   52.7390   13.4170 C   0  0  0  0  0
   67.0890   53.7880   14.3350 C   0  0  0  0  0
   68.1450   53.3110   15.2940 C   0  0  0  0  0
   68.6590   51.8920   15.3930 C   0  0  0  0  0
   68.0630   50.8520   14.4700 C   0  0  0  0  0
   71.0800   54.2220   14.5050 C   0  0  0  0  0
   69.8220   56.4630   14.6220 C   0  0  0  0  0
   73.8940   60.5590   20.5530 C   0  0  0  0  0
   72.3160   60.7400   20.6230 C   0  0  0  0  0
   68.8820   59.0300   18.1630 C   0  0  0  0  0
   68.5000   58.0030   19.2210 C   0  0  0  0  0
   68.2830   58.4470   20.6660 C   0  0  0  0  0
   68.4280   59.9180   21.0390 C   0  0  0  0  0
   68.8020   60.9420   19.9770 C   0  0  0  0  0
   69.0250   60.5040   18.5310 C   0  0  0  0  0
   67.5770   49.7480   11.7730 C   0  0  0  0  0
   74.3960   54.2060   16.6300 C   0  0  0  0  0
   72.2760   53.6200   15.3390 C   0  0  0  0  0
   73.1590   54.7590   15.9110 C   0  0  0  0  0
   73.0680   52.6240   14.4360 C   0  0  0  0  0
   66.3780   50.2890   12.5590 C   0  0  0  0  0
   73.5470   53.3070   13.1380 C   0  0  0  0  0
   70.2060   55.1650   15.3030 N   0  0  0  0  0
   71.4920   58.8330   17.0270 N   0  0  0  0  0
   69.6030   53.8350   17.5210 O   0  0  0  0  0
   68.0800   55.5830   16.8460 O   0  0  0  0  0
   70.5990   58.6640   14.3280 O   0  0  0  0  0
   72.4310   57.4400   18.6550 O   0  0  0  0  0
   73.3580   59.5550   18.3280 O   0  0  0  0  0
   75.2770   61.3110   18.9610 O   0  0  0  0  0
   73.1450   62.5620   19.5770 O   0  0  0  0  0
   68.4360   50.8130   11.3920 O   0  0  0  0  0
   65.6230   50.9780   11.6450 O   0  0  0  0  0
   68.9730   54.5130   16.3780 S   0  0  0  0  0
   71.8248   57.2271   15.0690 H   0  0  0  0  0
   70.4815   56.9883   17.1909 H   0  0  0  0  0
   74.3505   58.4267   19.8799 H   0  0  0  0  0
   75.6521   59.3356   18.0739 H   0  0  0  0  0
   76.2388   59.4672   19.6718 H   0  0  0  0  0
   74.9430   62.1519   20.8906 H   0  0  0  0  0
   71.2168   62.4791   19.9747 H   0  0  0  0  0
   71.7829   61.4692   18.6642 H   0  0  0  0  0
   68.3342   57.8633   16.4208 H   0  0  0  0  0
   69.0768   59.4375   16.0434 H   0  0  0  0  0
   65.7058   53.0117   12.6998 H   0  0  0  0  0
   66.7762   54.8316   14.2996 H   0  0  0  0  0
   69.4367   51.6262   16.1090 H   0  0  0  0  0
   68.4062   49.8176   14.4891 H   0  0  0  0  0
   70.4548   53.3905   14.1796 H   0  0  0  0  0
   71.5083   54.7902   13.6793 H   0  0  0  0  0
   69.8950   56.3593   13.5394 H   0  0  0  0  0
   68.7917   56.7263   14.8611 H   0  0  0  0  0
   74.2393   60.2784   21.5481 H   0  0  0  0  0
   71.7765   59.8272   20.3705 H   0  0  0  0  0
   71.9631   60.9678   21.6288 H   0  0  0  0  0
   68.3819   56.9545   18.9476 H   0  0  0  0  0
   68.0248   57.7132   21.4295 H   0  0  0  0  0
   68.2635   60.2370   22.0682 H   0  0  0  0  0
   68.9111   61.9918   20.2494 H   0  0  0  0  0
   69.2842   61.2382   17.7682 H   0  0  0  0  0
   67.2170   49.2426   10.8769 H   0  0  0  0  0
   68.1307   49.0513   12.4024 H   0  0  0  0  0
   74.0800   53.5670   17.4546 H   0  0  0  0  0
   74.9939   53.6255   15.9274 H   0  0  0  0  0
   74.9900   55.0339   17.0172 H   0  0  0  0  0
   71.9045   53.0633   16.1993 H   0  0  0  0  0
   73.4924   55.3854   15.0836 H   0  0  0  0  0
   72.5673   55.3262   16.6296 H   0  0  0  0  0
   72.4102   51.7962   14.1711 H   0  0  0  0  0
   73.9407   52.2735   14.9870 H   0  0  0  0  0
   65.7934   49.5243   13.0705 H   0  0  0  0  0
   72.6839   53.6713   12.5808 H   0  0  0  0  0
   74.1990   54.1438   13.3885 H   0  0  0  0  0
   74.0953   52.5866   12.5309 H   0  0  0  0  0
   71.5397   59.7538   16.5908 H   0  0  0  0  0
   71.1859   59.3682   14.6130 H   0  0  0  0  0
   69.1820   50.4609   10.9010 H   0  0  0  0  0
   65.2332   50.3598   11.0226 H   0  0  0  0  0
  1  2  1  0  0  0
 16  1  1  0  0  0
  1 36  1  0  0  0
  2  8  1  0  0  0
  2 33  1  0  0  0
 33  3  1  0  0  0
  3 37  2  0  0  0
  3 38  1  0  0  0
  4  5  1  0  0  0
  4 17  1  0  0  0
 38  4  1  0  0  0
  5 39  1  0  0  0
 17  6  1  0  0  0
  6 39  1  0  0  0
  6 40  1  0  0  0
 18  7  1  0  0  0
  7 40  1  0  0  0
  8 19  1  0  0  0
 10  9  4  0  0  0
 14  9  4  0  0  0
  9 30  1  0  0  0
 11 10  4  0  0  0
 12 11  4  0  0  0
 12 13  4  0  0  0
 43 12  1  0  0  0
 13 14  4  0  0  0
 15 27  1  0  0  0
 32 15  1  0  0  0
 32 16  1  0  0  0
 17 18  1  0  0  0
 19 20  4  0  0  0
 19 24  4  0  0  0
 20 21  4  0  0  0
 21 22  4  0  0  0
 23 22  4  0  0  0
 24 23  4  0  0  0
 30 25  1  0  0  0
 25 41  1  0  0  0
 28 26  1  0  0  0
 27 28  1  0  0  0
 27 29  1  0  0  0
 29 31  1  0  0  0
 30 42  1  0  0  0
 32 43  1  0  0  0
 43 34  2  0  0  0
 43 35  2  0  0  0
  1 44  1  0  0  0
  2 45  1  0  0  0
  4 46  1  0  0  0
  5 47  1  0  0  0
  5 48  1  0  0  0
  6 49  1  0  0  0
  7 50  1  0  0  0
  7 51  1  0  0  0
  8 52  1  0  0  0
  8 53  1  0  0  0
 10 54  1  0  0  0
 11 55  1  0  0  0
 13 56  1  0  0  0
 14 57  1  0  0  0
 15 58  1  0  0  0
 15 59  1  0  0  0
 16 60  1  0  0  0
 16 61  1  0  0  0
 17 62  1  0  0  0
 18 63  1  0  0  0
 18 64  1  0  0  0
 20 65  1  0  0  0
 21 66  1  0  0  0
 22 67  1  0  0  0
 23 68  1  0  0  0
 24 69  1  0  0  0
 25 70  1  0  0  0
 25 71  1  0  0  0
 26 72  1  0  0  0
 26 73  1  0  0  0
 26 74  1  0  0  0
 27 75  1  0  0  0
 28 76  1  0  0  0
 28 77  1  0  0  0
 29 78  1  0  0  0
 29 79  1  0  0  0
 30 80  1  0  0  0
 31 81  1  0  0  0
 31 82  1  0  0  0
 31 83  1  0  0  0
 33 84  1  0  0  0
 36 85  1  0  0  0
 41 86  1  0  0  0
 42 87  1  0  0  0
M  END
$$$$
