4k6t_ligand
  -I-interpret- 

164169  0  0  0  0  0  0  0  0999 V2000
    5.4370  -25.7540   -1.3550 C   0  0  0  0  0
    5.6360  -26.3280    0.0530 C   0  0  0  0  0
    6.9900  -25.9370    0.6940 C   0  0  0  0  0
    7.0090  -24.4920    1.1870 C   0  0  0  0  0
    5.7560  -24.1810    2.0260 C   0  0  0  0  0
    4.4890  -24.5800    1.2610 C   0  0  0  0  0
    3.1760  -24.2960    2.0310 C   0  0  0  0  0
    1.9900  -24.7530    1.1830 C   0  0  0  0  0
    0.6560  -24.2000    1.6890 C   0  0  0  0  0
    5.7750  -22.2700    3.5850 C   0  0  0  0  0
    5.6330  -20.7810    3.7290 C   0  0  0  0  0
    5.6390  -22.7670    2.3490 N   0  0  0  0  0
    6.4120  -25.7520   -2.1350 O   0  0  0  0  0
    4.3130  -25.3210   -1.7320 O   0  0  0  0  0
    8.2200  -24.2360    1.9310 O   0  0  0  0  0
    4.5480  -25.9680    0.9240 O   0  0  0  0  0
    3.1870  -24.9380    3.3180 O   0  0  0  0  0
    2.1960  -24.3490   -0.1840 O   0  0  0  0  0
    0.5660  -22.7820    1.4700 O   0  0  0  0  0
    6.0220  -22.9710    4.5450 O   0  0  0  0  0
    6.7050  -33.3180    9.3060 C   0  0  0  0  0
    7.9600  -32.9930    8.4880 C   0  0  0  0  0
    8.1820  -31.4780    8.3740 C   0  0  0  0  0
    8.5630  -30.8500    9.7170 C   0  0  0  0  0
    9.7630  -31.5830   10.3240 C   0  0  0  0  0
    9.4680  -33.0780   10.3750 C   0  0  0  0  0
   10.6060  -33.9150   10.9690 C   0  0  0  0  0
   10.1730  -35.3870   11.1040 C   0  0  0  0  0
   10.9250  -36.1560   12.1990 C   0  0  0  0  0
   11.1110  -30.3890   11.9790 C   0  0  0  0  0
   11.2420  -29.9670   13.4110 C   0  0  0  0  0
   10.0330  -31.1030   11.6770 N   0  0  0  0  0
    5.6570  -32.6500    9.1350 O   0  0  0  0  0
    6.7330  -34.2480   10.1460 O   0  0  0  0  0
    8.8620  -29.4580    9.5320 O   0  0  0  0  0
    9.1460  -33.5680    9.0650 O   0  0  0  0  0
   11.7620  -33.7420   10.1350 O   0  0  0  0  0
    8.7740  -35.4540   11.4160 O   0  0  0  0  0
   10.5370  -35.7420   13.5290 O   0  0  0  0  0
   11.9490  -30.0870   11.1520 O   0  0  0  0  0
    5.3520  -27.7240   -0.0450 O   0  0  0  0  0
    4.3850  -28.5850   -0.7010 C   0  0  0  0  0
    5.1360  -29.6580   -1.5230 C   0  0  0  0  0
    5.3770  -30.9980   -0.8090 N   0  0  0  0  0
    6.3590  -31.8530   -1.1640 C   0  0  0  0  0
    4.7430  -31.5030    0.1530 N   0  0  0  0  0
    5.2760  -32.7000    0.4750 N   0  0  0  0  0
    6.2870  -32.9060   -0.3550 C   0  0  0  0  0
    7.2010  -34.1440   -0.3920 C   0  0  0  0  0
    7.9190  -34.4710    0.8780 N   0  3  0  0  0
    9.1460  -35.2960    0.6810 C   0  0  0  0  0
   10.0680  -34.2320   -0.0020 C   0  0  0  0  0
   11.1540  -34.3450   -0.7640 C   0  0  0  0  0
    9.8400  -32.9160    0.0970 N   0  0  0  0  0
   10.6710  -32.3040   -0.5080 N   0  0  0  0  0
   11.4920  -33.0630   -1.0450 N   0  0  0  0  0
   12.5390  -32.3770   -1.8370 C   0  0  0  0  0
   13.8920  -32.5540   -1.1920 C   0  0  0  0  0
   13.8460  -31.6900   -0.0090 O   0  0  0  0  0
    8.1990  -33.2700    1.7500 C   0  0  0  0  0
    7.9000  -33.9880    3.0460 C   0  0  0  0  0
    8.7890  -34.4090    3.9150 C   0  0  0  0  0
    6.7020  -34.3740    3.4250 N   0  0  0  0  0
    6.8320  -34.9480    4.4920 N   0  0  0  0  0
    8.0740  -35.0230    4.8350 N   0  0  0  0  0
    8.6840  -35.5810    6.0310 C   0  0  0  0  0
    7.6730  -35.2920    7.1680 C   0  0  0  0  0
    7.5870  -33.8470    7.3880 O   0  0  0  0  0
   16.0650  -32.2710    0.6880 C   0  0  0  0  0
   15.0180  -31.1690    0.6260 C   0  0  0  0  0
   14.8450  -30.4630    1.9790 C   0  0  0  0  0
   16.0080  -29.5120    2.2870 C   0  0  0  0  0
   16.2690  -28.5650    1.1020 C   0  0  0  0  0
   16.4930  -29.4050   -0.1600 C   0  0  0  0  0
   16.8610  -28.5900   -1.4090 C   0  0  0  0  0
   17.0620  -29.4880   -2.6340 C   0  0  0  0  0
   17.9040  -28.8090   -3.7210 C   0  0  0  0  0
   17.4460  -26.4220    1.5220 C   0  0  0  0  0
   18.7970  -25.7970    1.6980 C   0  0  0  0  0
   17.4570  -27.7440    1.3060 N   0  0  0  0  0
   16.8890  -32.3660   -0.2580 O   0  0  0  0  0
   16.0830  -33.0700    1.6470 O   0  0  0  0  0
   15.7210  -28.8000    3.5070 O   0  0  0  0  0
   15.3470  -30.2310   -0.4330 O   0  0  0  0  0
   15.8530  -27.6390   -1.7180 O   0  0  0  0  0
   17.7250  -30.6800   -2.2160 O   0  0  0  0  0
   19.2030  -28.4310   -3.2030 O   0  0  0  0  0
   16.4400  -25.7330    1.6090 O   0  0  0  0  0
    7.7644  -26.0430   -0.0657 H   0  0  0  0  0
    7.1553  -26.5873    1.5530 H   0  0  0  0  0
    6.9946  -23.8275    0.3231 H   0  0  0  0  0
    5.8605  -24.7526    2.9482 H   0  0  0  0  0
    4.4656  -23.9592    0.3654 H   0  0  0  0  0
    3.0845  -23.2251    2.2125 H   0  0  0  0  0
    1.9352  -25.8392    1.2562 H   0  0  0  0  0
    0.5825  -24.3926    2.7593 H   0  0  0  0  0
   -0.1525  -24.6886    1.1452 H   0  0  0  0  0
    4.8199  -20.5600    4.4205 H   0  0  0  0  0
    6.5633  -20.3642    4.1149 H   0  0  0  0  0
    5.4131  -20.3425    2.7556 H   0  0  0  0  0
    5.4417  -22.1159    1.5890 H   0  0  0  0  0
    3.6839  -25.3966   -1.0108 H   0  0  0  0  0
    8.9807  -24.4391    1.3817 H   0  0  0  0  0
    3.9429  -24.6284    3.8223 H   0  0  0  0  0
    1.4510  -24.6360   -0.7171 H   0  0  0  0  0
   -0.2784  -22.4620    1.7958 H   0  0  0  0  0
    7.2510  -31.0221    8.0371 H   0  0  0  0  0
    8.9993  -31.3056    7.6737 H   0  0  0  0  0
    7.7235  -30.9412   10.4062 H   0  0  0  0  0
   10.6375  -31.3916    9.7021 H   0  0  0  0  0
    8.6150  -33.1894   11.0444 H   0  0  0  0  0
   10.8562  -33.5843   11.9770 H   0  0  0  0  0
   10.4048  -35.8509   10.1453 H   0  0  0  0  0
   11.9899  -35.9560   12.0808 H   0  0  0  0  0
   10.6866  -37.2142   12.0922 H   0  0  0  0  0
   12.1631  -30.3761   13.8262 H   0  0  0  0  0
   11.2687  -28.8788   13.4668 H   0  0  0  0  0
   10.3892  -30.3403   13.9779 H   0  0  0  0  0
    9.3681  -31.3248   12.4180 H   0  0  0  0  0
    5.8098  -31.9840    8.4607 H   0  0  0  0  0
    9.1003  -29.0681   10.3763 H   0  0  0  0  0
   12.4902  -34.2584   10.4882 H   0  0  0  0  0
    8.5095  -36.3731   11.4990 H   0  0  0  0  0
   11.0315  -36.2484   14.1776 H   0  0  0  0  0
    3.7556  -27.9906   -1.3633 H   0  0  0  0  0
    3.7588  -29.0696    0.0481 H   0  0  0  0  0
    6.1202  -29.2447   -1.7436 H   0  0  0  0  0
    4.5103  -29.8776   -2.3881 H   0  0  0  0  0
    7.0803  -31.7069   -1.9680 H   0  0  0  0  0
    7.9723  -33.9314   -1.1322 H   0  0  0  0  0
    6.5534  -34.9948   -0.6038 H   0  0  0  0  0
    7.2535  -35.0521    1.3877 H   0  0  0  0  0
    8.9936  -36.2054    0.0997 H   0  0  0  0  0
    9.5528  -35.7306    1.5941 H   0  0  0  0  0
   11.6552  -35.2574   -1.0870 H   0  0  0  0  0
   12.3063  -31.3132   -1.8849 H   0  0  0  0  0
   12.5650  -32.8082   -2.8378 H   0  0  0  0  0
   14.7056  -32.2843   -1.8653 H   0  0  0  0  0
   14.0897  -33.5941   -0.9327 H   0  0  0  0  0
    7.6393  -32.3582    1.5417 H   0  0  0  0  0
    9.1764  -32.7973    1.6530 H   0  0  0  0  0
    9.8709  -34.2801    3.8827 H   0  0  0  0  0
    9.6580  -35.1355    6.2334 H   0  0  0  0  0
    8.8789  -36.6482    5.9250 H   0  0  0  0  0
    8.0065  -35.7800    8.0838 H   0  0  0  0  0
    6.6920  -35.6763    6.8886 H   0  0  0  0  0
   14.8134  -31.2246    2.7581 H   0  0  0  0  0
   13.9272  -29.8763    1.9412 H   0  0  0  0  0
   16.9259  -30.0818    2.4318 H   0  0  0  0  0
   15.4040  -27.9085    1.0077 H   0  0  0  0  0
   17.3601  -30.0273    0.0611 H   0  0  0  0  0
   17.7955  -28.0797   -1.1759 H   0  0  0  0  0
   16.0820  -29.7027   -3.0601 H   0  0  0  0  0
   17.3852  -27.9118   -4.0588 H   0  0  0  0  0
   18.0439  -29.5079   -4.5456 H   0  0  0  0  0
   18.9392  -25.0235    0.9433 H   0  0  0  0  0
   18.8642  -25.3537    2.6915 H   0  0  0  0  0
   19.5666  -26.5609    1.5867 H   0  0  0  0  0
   18.3635  -28.2111    1.2825 H   0  0  0  0  0
   16.7217  -31.6700   -0.8977 H   0  0  0  0  0
   16.4457  -28.2025    3.7056 H   0  0  0  0  0
   16.1092  -27.1457   -2.5007 H   0  0  0  0  0
   17.8580  -31.2535   -2.9743 H   0  0  0  0  0
   19.7129  -28.0086   -3.8981 H   0  0  0  0  0
  2  1  1  0  0  0
  1 13  2  0  0  0
  1 14  1  0  0  0
  2  3  1  0  0  0
  2 16  1  0  0  0
 41  2  1  0  0  0
  3  4  1  0  0  0
  4  5  1  0  0  0
  4 15  1  0  0  0
  6  5  1  0  0  0
  5 12  1  0  0  0
  6  7  1  0  0  0
 16  6  1  0  0  0
  7  8  1  0  0  0
  7 17  1  0  0  0
  8  9  1  0  0  0
  8 18  1  0  0  0
  9 19  1  0  0  0
 10 11  1  0  0  0
 12 10  1  0  0  0
 10 20  2  0  0  0
 22 21  1  0  0  0
 21 33  1  0  0  0
 21 34  2  0  0  0
 22 23  1  0  0  0
 22 36  1  0  0  0
 68 22  1  0  0  0
 23 24  1  0  0  0
 24 25  1  0  0  0
 24 35  1  0  0  0
 26 25  1  0  0  0
 25 32  1  0  0  0
 26 27  1  0  0  0
 36 26  1  0  0  0
 27 28  1  0  0  0
 27 37  1  0  0  0
 28 29  1  0  0  0
 28 38  1  0  0  0
 29 39  1  0  0  0
 30 31  1  0  0  0
 32 30  1  0  0  0
 30 40  2  0  0  0
 42 41  1  0  0  0
 43 42  1  0  0  0
 44 43  1  0  0  0
 45 44  4  0  0  0
 46 44  4  0  0  0
 48 45  4  0  0  0
 47 46  4  0  0  0
 48 47  4  0  0  0
 49 48  1  0  0  0
 50 49  1  0  0  0
 51 50  1  0  0  0
 50 60  1  0  0  0
 52 51  1  0  0  0
 53 52  4  0  0  0
 54 52  4  0  0  0
 56 53  4  0  0  0
 55 54  4  0  0  0
 56 55  4  0  0  0
 57 56  1  0  0  0
 58 57  1  0  0  0
 59 58  1  0  0  0
 70 59  1  0  0  0
 60 61  1  0  0  0
 61 62  4  0  0  0
 61 63  4  0  0  0
 62 65  4  0  0  0
 63 64  4  0  0  0
 64 65  4  0  0  0
 65 66  1  0  0  0
 66 67  1  0  0  0
 67 68  1  0  0  0
 70 69  1  0  0  0
 69 81  1  0  0  0
 69 82  2  0  0  0
 71 70  1  0  0  0
 84 70  1  0  0  0
 72 71  1  0  0  0
 73 72  1  0  0  0
 72 83  1  0  0  0
 73 74  1  0  0  0
 80 73  1  0  0  0
 74 75  1  0  0  0
 74 84  1  0  0  0
 75 76  1  0  0  0
 75 85  1  0  0  0
 76 77  1  0  0  0
 76 86  1  0  0  0
 77 87  1  0  0  0
 78 79  1  0  0  0
 78 80  1  0  0  0
 78 88  2  0  0  0
  3 89  1  0  0  0
  3 90  1  0  0  0
  4 91  1  0  0  0
  5 92  1  0  0  0
  6 93  1  0  0  0
  7 94  1  0  0  0
  8 95  1  0  0  0
  9 96  1  0  0  0
  9 97  1  0  0  0
 11 98  1  0  0  0
 11 99  1  0  0  0
 11100  1  0  0  0
 12101  1  0  0  0
 14102  1  0  0  0
 15103  1  0  0  0
 17104  1  0  0  0
 18105  1  0  0  0
 19106  1  0  0  0
 23107  1  0  0  0
 23108  1  0  0  0
 24109  1  0  0  0
 25110  1  0  0  0
 26111  1  0  0  0
 27112  1  0  0  0
 28113  1  0  0  0
 29114  1  0  0  0
 29115  1  0  0  0
 31116  1  0  0  0
 31117  1  0  0  0
 31118  1  0  0  0
 32119  1  0  0  0
 33120  1  0  0  0
 35121  1  0  0  0
 37122  1  0  0  0
 38123  1  0  0  0
 39124  1  0  0  0
 42125  1  0  0  0
 42126  1  0  0  0
 43127  1  0  0  0
 43128  1  0  0  0
 45129  1  0  0  0
 49130  1  0  0  0
 49131  1  0  0  0
 50132  1  0  0  0
 51133  1  0  0  0
 51134  1  0  0  0
 53135  1  0  0  0
 57136  1  0  0  0
 57137  1  0  0  0
 58138  1  0  0  0
 58139  1  0  0  0
 60140  1  0  0  0
 60141  1  0  0  0
 62142  1  0  0  0
 66143  1  0  0  0
 66144  1  0  0  0
 67145  1  0  0  0
 67146  1  0  0  0
 71147  1  0  0  0
 71148  1  0  0  0
 72149  1  0  0  0
 73150  1  0  0  0
 74151  1  0  0  0
 75152  1  0  0  0
 76153  1  0  0  0
 77154  1  0  0  0
 77155  1  0  0  0
 79156  1  0  0  0
 79157  1  0  0  0
 79158  1  0  0  0
 80159  1  0  0  0
 81160  1  0  0  0
 83161  1  0  0  0
 85162  1  0  0  0
 86163  1  0  0  0
 87164  1  0  0  0
M  END
$$$$
