### 
### Created by X-TOOL on Mon Sep 10 21:13:17 2018
### 

@<TRIPOS>MOLECULE
4k6t_ligand
  161   166     1     0     0
SMALL
GAST_HUCK


@<TRIPOS>ATOM
      1 C1          5.4370  -25.7540   -1.3550 C.2       1 SIA         0.1041
      2 C2          5.6360  -26.3280    0.0530 C.3       1 SIA         0.2205
      3 C3          6.9900  -25.9370    0.6940 C.3       1 SIA         0.0353
      4 C4          7.0090  -24.4920    1.1870 C.3       1 SIA         0.0850
      5 C5          5.7560  -24.1810    2.0260 C.3       1 SIA         0.0964
      6 C6          4.4890  -24.5800    1.2610 C.3       1 SIA         0.1143
      7 C7          3.1760  -24.2960    2.0310 C.3       1 SIA         0.1114
      8 C8          1.9900  -24.7530    1.1830 C.3       1 SIA         0.1065
      9 C9          0.6560  -24.2000    1.6890 C.3       1 SIA         0.0727
     10 C10         5.7750  -22.2700    3.5850 C.2       1 SIA         0.1733
     11 C11         5.6330  -20.7810    3.7290 C.3       1 SIA         0.0257
     12 N5          5.6390  -22.7670    2.3490 N.am      1 SIA        -0.2790
     13 O1A         6.4120  -25.7520   -2.1350 O.co2     1 SIA        -0.5426
     14 O1B         4.3130  -25.3210   -1.7320 O.co2     1 SIA        -0.5426
     15 O4          8.2200  -24.2360    1.9310 O.3       1 SIA        -0.3893
     16 O6          4.5480  -25.9680    0.9240 O.3       1 SIA        -0.3384
     17 O7          3.1870  -24.9380    3.3180 O.3       1 SIA        -0.3865
     18 O8          2.1960  -24.3490   -0.1840 O.3       1 SIA        -0.3869
     19 O9          0.5660  -22.7820    1.4700 O.3       1 SIA        -0.3924
     20 O10         6.0220  -22.9710    4.5450 O.2       1 SIA        -0.3974
     21 C1          6.7050  -33.3180    9.3060 C.2       1 SIA         0.1041
     22 C2          7.9600  -32.9930    8.4880 C.3       1 SIA         0.2205
     23 C3          8.1820  -31.4780    8.3740 C.3       1 SIA         0.0353
     24 C4          8.5630  -30.8500    9.7170 C.3       1 SIA         0.0850
     25 C5          9.7630  -31.5830   10.3240 C.3       1 SIA         0.0964
     26 C6          9.4680  -33.0780   10.3750 C.3       1 SIA         0.1143
     27 C7         10.6060  -33.9150   10.9690 C.3       1 SIA         0.1114
     28 C8         10.1730  -35.3870   11.1040 C.3       1 SIA         0.1065
     29 C9         10.9250  -36.1560   12.1990 C.3       1 SIA         0.0727
     30 C10        11.1110  -30.3890   11.9790 C.2       1 SIA         0.1733
     31 C11        11.2420  -29.9670   13.4110 C.3       1 SIA         0.0257
     32 N5         10.0330  -31.1030   11.6770 N.am      1 SIA        -0.2790
     33 O1A         5.6570  -32.6500    9.1350 O.co2     1 SIA        -0.5426
     34 O1B         6.7330  -34.2480   10.1460 O.co2     1 SIA        -0.5426
     35 O4          8.8620  -29.4580    9.5320 O.3       1 SIA        -0.3893
     36 O6          9.1460  -33.5680    9.0650 O.3       1 SIA        -0.3384
     37 O7         11.7620  -33.7420   10.1350 O.3       1 SIA        -0.3865
     38 O8          8.7740  -35.4540   11.4160 O.3       1 SIA        -0.3869
     39 O9         10.5370  -35.7420   13.5290 O.3       1 SIA        -0.3924
     40 O10        11.9490  -30.0870   11.1520 O.2       1 SIA        -0.3974
     41 OAA         5.3520  -27.7240   -0.0450 O.3       1 1P0        -0.3438
     42 CAG         4.3850  -28.5850   -0.7010 C.3       1 1P0         0.0801
     43 CAJ         5.1360  -29.6580   -1.5230 C.3       1 1P0         0.0987
     44 NAZ         5.3770  -30.9980   -0.8090 N.pl3     1 1P0        -0.1789
     45 CAD         6.3590  -31.8530   -1.1640 C.2       1 1P0         0.0745
     46 NAS         4.7430  -31.5030    0.1530 N.2       1 1P0        -0.1017
     47 NAP         5.2760  -32.7000    0.4750 N.2       1 1P0        -0.2212
     48 CAV         6.2870  -32.9060   -0.3550 C.2       1 1P0         0.0810
     49 CAM         7.2010  -34.1440   -0.3920 C.3       1 1P0         0.0053
     50 NAY         7.9190  -34.4710    0.8780 N.4       1 1P0         0.2614
     51 CAO         9.1460  -35.2960    0.6810 C.3       1 1P0         0.0053
     52 CAX        10.0680  -34.2320   -0.0020 C.2       1 1P0         0.0810
     53 CAF        11.1540  -34.3450   -0.7640 C.2       1 1P0         0.0745
     54 NAR         9.8400  -32.9160    0.0970 N.2       1 1P0        -0.2212
     55 NAU        10.6710  -32.3040   -0.5080 N.2       1 1P0        -0.1017
     56 NBB        11.4920  -33.0630   -1.0450 N.pl3     1 1P0        -0.1789
     57 CAL        12.5390  -32.3770   -1.8370 C.3       1 1P0         0.0987
     58 CAI        13.8920  -32.5540   -1.1920 C.3       1 1P0         0.0801
     59 OAC        13.8460  -31.6900   -0.0090 O.3       1 1P0        -0.3438
     60 CAN         8.1990  -33.2700    1.7500 C.3       1 1P0         0.0053
     61 CAW         7.9000  -33.9880    3.0460 C.2       1 1P0         0.0810
     62 CAE         8.7890  -34.4090    3.9150 C.2       1 1P0         0.0745
     63 NAQ         6.7020  -34.3740    3.4250 N.2       1 1P0        -0.2212
     64 NAT         6.8320  -34.9480    4.4920 N.2       1 1P0        -0.1017
     65 NBA         8.0740  -35.0230    4.8350 N.pl3     1 1P0        -0.1789
     66 CAK         8.6840  -35.5810    6.0310 C.3       1 1P0         0.0987
     67 CAH         7.6730  -35.2920    7.1680 C.3       1 1P0         0.0801
     68 OAB         7.5870  -33.8470    7.3880 O.3       1 1P0        -0.3438
     69 C1         16.0650  -32.2710    0.6880 C.2       1 SIA         0.1041
     70 C2         15.0180  -31.1690    0.6260 C.3       1 SIA         0.2205
     71 C3         14.8450  -30.4630    1.9790 C.3       1 SIA         0.0353
     72 C4         16.0080  -29.5120    2.2870 C.3       1 SIA         0.0850
     73 C5         16.2690  -28.5650    1.1020 C.3       1 SIA         0.0964
     74 C6         16.4930  -29.4050   -0.1600 C.3       1 SIA         0.1143
     75 C7         16.8610  -28.5900   -1.4090 C.3       1 SIA         0.1114
     76 C8         17.0620  -29.4880   -2.6340 C.3       1 SIA         0.1065
     77 C9         17.9040  -28.8090   -3.7210 C.3       1 SIA         0.0727
     78 C10        17.4460  -26.4220    1.5220 C.2       1 SIA         0.1733
     79 C11        18.7970  -25.7970    1.6980 C.3       1 SIA         0.0257
     80 N5         17.4570  -27.7440    1.3060 N.am      1 SIA        -0.2790
     81 O1A        16.8890  -32.3660   -0.2580 O.co2     1 SIA        -0.5426
     82 O1B        16.0830  -33.0700    1.6470 O.co2     1 SIA        -0.5426
     83 O4         15.7210  -28.8000    3.5070 O.3       1 SIA        -0.3893
     84 O6         15.3470  -30.2310   -0.4330 O.3       1 SIA        -0.3384
     85 O7         15.8530  -27.6390   -1.7180 O.3       1 SIA        -0.3865
     86 O8         17.7250  -30.6800   -2.2160 O.3       1 SIA        -0.3869
     87 O9         19.2030  -28.4310   -3.2030 O.3       1 SIA        -0.3924
     88 O10        16.4400  -25.7330    1.6090 O.2       1 SIA        -0.3974
     89 H1          7.7848  -26.0642   -0.0557 H         1 SIA         0.0336
     90 H2          7.1813  -26.6034    1.5480 H         1 SIA         0.0336
     91 H3          7.0015  -23.8295    0.3089 H         1 SIA         0.0618
     92 H4          5.8141  -24.7571    2.9613 H         1 SIA         0.0608
     93 H5          4.4639  -23.9948    0.3300 H         1 SIA         0.0646
     94 H6          3.0913  -23.2111    2.1915 H         1 SIA         0.0647
     95 H7          1.9422  -25.8512    1.2238 H         1 SIA         0.0643
     96 H8          0.5686  -24.4031    2.7665 H         1 SIA         0.0584
     97 H9         -0.1656  -24.6988    1.1540 H         1 SIA         0.0584
     98 H10         5.7650  -20.5005    4.7844 H         1 SIA         0.0467
     99 H11         4.6326  -20.4736    3.3903 H         1 SIA         0.0467
    100 H12         6.3974  -20.2789    3.1178 H         1 SIA         0.0467
    101 H13         5.4456  -22.1287    1.6039 H         1 SIA         0.1856
    102 H14         8.9728  -24.4370    1.3874 H         1 SIA         0.2099
    103 H15         3.9350  -24.6317    3.8170 H         1 SIA         0.2100
    104 H16         3.0250  -24.6945   -0.4936 H         1 SIA         0.2100
    105 H17         0.6370  -22.6012    0.5401 H         1 SIA         0.2095
    106 H18         7.2543  -31.0095    8.0137 H         1 SIA         0.0336
    107 H19         8.9912  -31.2912    7.6527 H         1 SIA         0.0336
    108 H20         7.7103  -30.9403   10.4060 H         1 SIA         0.0618
    109 H21        10.6482  -31.4060    9.6954 H         1 SIA         0.0608
    110 H22         8.5866  -33.2156   11.0186 H         1 SIA         0.0646
    111 H23        10.8422  -33.5368   11.9746 H         1 SIA         0.0647
    112 H24        10.3549  -35.8852   10.1403 H         1 SIA         0.0643
    113 H25        12.0040  -35.9817   12.0755 H         1 SIA         0.0584
    114 H26        10.7117  -37.2293   12.0869 H         1 SIA         0.0584
    115 H27        12.1671  -29.3858   13.5388 H         1 SIA         0.0467
    116 H28        11.2773  -30.8586   14.0543 H         1 SIA         0.0467
    117 H29        10.3778  -29.3468   13.6910 H         1 SIA         0.0467
    118 H30         9.3811  -31.3204   12.4035 H         1 SIA         0.1856
    119 H31         9.0704  -29.0657   10.3717 H         1 SIA         0.2099
    120 H32        12.4924  -34.2247   10.5039 H         1 SIA         0.2100
    121 H33         8.2802  -34.9851   10.7536 H         1 SIA         0.2100
    122 H34         9.6070  -35.8949   13.6484 H         1 SIA         0.2095
    123 H35         3.7522  -27.9844   -1.3709 H         1 SIA         0.0589
    124 H36         3.7555  -29.0753    0.0561 H         1 SIA         0.0589
    125 H37         6.1156  -29.2440   -1.8040 H         1 SIA         0.0671
    126 H38         4.5491  -29.8599   -2.4312 H         1 SIA         0.0671
    127 H39         7.0797  -31.7071   -1.9673 H         1 SIA         0.0900
    128 H40         7.9580  -33.9794   -1.1729 H         1 SIA         0.0932
    129 H41         6.5804  -35.0118   -0.6599 H         1 SIA         0.0932
    130 H42         7.2812  -35.0484    1.4032 H         1 SIA         0.2064
    131 H43         8.9591  -36.1585    0.0244 H         1 SIA         0.0932
    132 H44         9.5625  -35.6463    1.6369 H         1 SIA         0.0932
    133 H45        11.6548  -35.2566   -1.0868 H         1 SIA         0.0900
    134 H46        12.3037  -31.3041   -1.8955 H         1 SIA         0.0671
    135 H47        12.5631  -32.8030   -2.8509 H         1 SIA         0.0671
    136 H48        14.6937  -32.2367   -1.8751 H         1 SIA         0.0589
    137 H49        14.0511  -33.6031   -0.9021 H         1 SIA         0.0589
    138 H50         7.5170  -32.4290    1.5565 H         1 SIA         0.0932
    139 H51         9.2400  -32.9213    1.6813 H         1 SIA         0.0932
    140 H52         9.8699  -34.2802    3.8827 H         1 SIA         0.0900
    141 H53         9.6479  -35.0928    6.2373 H         1 SIA         0.0671
    142 H54         8.8385  -36.6641    5.9170 H         1 SIA         0.0671
    143 H55         8.0098  -35.7843    8.0922 H         1 SIA         0.0589
    144 H56         6.6830  -35.6796    6.8859 H         1 SIA         0.0589
    145 H57        14.7898  -31.2238    2.7715 H         1 SIA         0.0336
    146 H58        13.9095  -29.8846    1.9601 H         1 SIA         0.0336
    147 H59        16.9166  -30.1115    2.4452 H         1 SIA         0.0618
    148 H60        15.3953  -27.9106    0.9665 H         1 SIA         0.0608
    149 H61        17.3426  -30.0717    0.0492 H         1 SIA         0.0646
    150 H62        17.8010  -28.0567   -1.2044 H         1 SIA         0.0647
    151 H63        16.0778  -29.7418   -3.0546 H         1 SIA         0.0643
    152 H64        17.3800  -27.9083   -4.0733 H         1 SIA         0.0584
    153 H65        18.0395  -29.5064   -4.5608 H         1 SIA         0.0584
    154 H66        18.6817  -24.7165    1.8688 H         1 SIA         0.0467
    155 H67        19.3986  -25.9629    0.7922 H         1 SIA         0.0467
    156 H68        19.3022  -26.2529    2.5623 H         1 SIA         0.0467
    157 H69        18.3457  -28.2019    1.2829 H         1 SIA         0.1856
    158 H70        16.4599  -28.2464    3.7306 H         1 SIA         0.2099
    159 H71        16.1280  -27.1187   -2.4637 H         1 SIA         0.2100
    160 H72        17.2100  -31.1077   -1.5420 H         1 SIA         0.2100
    161 H73        19.0903  -27.8261   -2.4792 H         1 SIA         0.2095
@<TRIPOS>BOND
     1    2    1 1  
     2    1   13 ar 
     3    1   14 ar 
     4    2    3 1  
     5    2   16 1  
     6   41    2 1  
     7    3    4 1  
     8    4    5 1  
     9    4   15 1  
    10    6    5 1  
    11    5   12 1  
    12    6    7 1  
    13   16    6 1  
    14    7    8 1  
    15    7   17 1  
    16    8    9 1  
    17    8   18 1  
    18    9   19 1  
    19   10   11 1  
    20   12   10 am 
    21   10   20 2  
    22   22   21 1  
    23   21   33 ar 
    24   21   34 ar 
    25   22   23 1  
    26   22   36 1  
    27   68   22 1  
    28   23   24 1  
    29   24   25 1  
    30   24   35 1  
    31   26   25 1  
    32   25   32 1  
    33   26   27 1  
    34   36   26 1  
    35   27   28 1  
    36   27   37 1  
    37   28   29 1  
    38   28   38 1  
    39   29   39 1  
    40   30   31 1  
    41   32   30 am 
    42   30   40 2  
    43   42   41 1  
    44   43   42 1  
    45   44   43 1  
    46   45   44 1  
    47   46   44 1  
    48   48   45 2  
    49   47   46 2  
    50   48   47 1  
    51   49   48 1  
    52   50   49 1  
    53   51   50 1  
    54   50   60 1  
    55   52   51 1  
    56   53   52 2  
    57   54   52 1  
    58   56   53 1  
    59   55   54 2  
    60   56   55 1  
    61   57   56 1  
    62   58   57 1  
    63   59   58 1  
    64   70   59 1  
    65   60   61 1  
    66   61   62 2  
    67   61   63 1  
    68   62   65 1  
    69   63   64 2  
    70   64   65 1  
    71   65   66 1  
    72   66   67 1  
    73   67   68 1  
    74   70   69 1  
    75   69   81 ar 
    76   69   82 ar 
    77   71   70 1  
    78   84   70 1  
    79   72   71 1  
    80   73   72 1  
    81   72   83 1  
    82   73   74 1  
    83   80   73 1  
    84   74   75 1  
    85   74   84 1  
    86   75   76 1  
    87   75   85 1  
    88   76   77 1  
    89   76   86 1  
    90   77   87 1  
    91   78   79 1  
    92   78   80 am 
    93   78   88 2  
    94    3   89 1  
    95    3   90 1  
    96    4   91 1  
    97    5   92 1  
    98    6   93 1  
    99    7   94 1  
   100    8   95 1  
   101    9   96 1  
   102    9   97 1  
   103   11   98 1  
   104   11   99 1  
   105   11  100 1  
   106   12  101 1  
   107   15  102 1  
   108   17  103 1  
   109   18  104 1  
   110   19  105 1  
   111   23  106 1  
   112   23  107 1  
   113   24  108 1  
   114   25  109 1  
   115   26  110 1  
   116   27  111 1  
   117   28  112 1  
   118   29  113 1  
   119   29  114 1  
   120   31  115 1  
   121   31  116 1  
   122   31  117 1  
   123   32  118 1  
   124   35  119 1  
   125   37  120 1  
   126   38  121 1  
   127   39  122 1  
   128   42  123 1  
   129   42  124 1  
   130   43  125 1  
   131   43  126 1  
   132   45  127 1  
   133   49  128 1  
   134   49  129 1  
   135   50  130 1  
   136   51  131 1  
   137   51  132 1  
   138   53  133 1  
   139   57  134 1  
   140   57  135 1  
   141   58  136 1  
   142   58  137 1  
   143   60  138 1  
   144   60  139 1  
   145   62  140 1  
   146   66  141 1  
   147   66  142 1  
   148   67  143 1  
   149   67  144 1  
   150   71  145 1  
   151   71  146 1  
   152   72  147 1  
   153   73  148 1  
   154   74  149 1  
   155   75  150 1  
   156   76  151 1  
   157   77  152 1  
   158   77  153 1  
   159   79  154 1  
   160   79  155 1  
   161   79  156 1  
   162   80  157 1  
   163   83  158 1  
   164   85  159 1  
   165   86  160 1  
   166   87  161 1  
@<TRIPOS>SUBSTRUCTURE
     1 SIA         1

