3kig_ligand
  -I-interpret- 

 18 18  0  0  0  0  0  0  0  0999 V2000
   15.8080    1.4990   16.2230 N   0  0  0  0  0
   15.2820    2.9280   16.8670 S   0  0  0  0  0
   15.8590    3.0520   18.1970 O   0  0  0  0  0
   13.8550    3.0030   16.7950 O   0  0  0  0  0
   15.9590    4.2240   15.8500 C   0  0  0  0  0
   15.1460    5.1790   15.2430 C   0  0  0  0  0
   15.7450    6.1760   14.4620 C   0  0  0  0  0
   17.1350    6.1760   14.3050 C   0  0  0  0  0
   17.9370    5.2070   14.9250 C   0  0  0  0  0
   17.3450    4.2040   15.6990 C   0  0  0  0  0
   14.9940    7.2200   13.7900 C   0  0  0  0  0
   14.7920    8.1910   13.0770 C   0  0  0  0  0
   16.4274    0.8940   16.7621 H   0  0  0  0  0
   15.5131    1.2224   15.2866 H   0  0  0  0  0
   14.0642    5.1509   15.3734 H   0  0  0  0  0
   17.6036    6.9436   13.6892 H   0  0  0  0  0
   19.0199    5.2356   14.8038 H   0  0  0  0  0
   17.9494    3.4291   16.1705 H   0  0  0  0  0
  1  2  1  0  0  0
  2  3  2  0  0  0
  2  4  2  0  0  0
  2  5  1  0  0  0
  5  6  4  0  0  0
  5 10  4  0  0  0
  6  7  4  0  0  0
  7  8  4  0  0  0
  7 11  1  0  0  0
  8  9  4  0  0  0
  9 10  4  0  0  0
 11 12  3  0  0  0
  1 13  1  0  0  0
  1 14  1  0  0  0
  6 15  1  0  0  0
  8 16  1  0  0  0
  9 17  1  0  0  0
 10 18  1  0  0  0
M  END
$$$$
