3dog_ligand
  -I-interpret- 

 52 54  0  0  0  0  0  0  0  0999 V2000
  -33.6070  -17.9420  -35.2170 O   0  0  0  0  0
  -34.2530  -16.6810  -34.9680 C   0  0  0  0  0
  -34.7920  -16.5670  -33.5380 C   0  0  0  0  0
  -36.2790  -16.2500  -33.5680 C   0  0  0  0  0
  -36.6020  -15.2060  -32.5030 C   0  0  0  0  0
  -34.5710  -17.7550  -32.7310 N   0  0  0  0  0
  -34.1180  -17.6270  -31.4690 C   0  0  0  0  0
  -33.9410  -18.7270  -30.7090 N   0  0  0  0  0
  -33.4900  -18.6450  -29.4390 C   0  0  0  0  0
  -33.2090  -17.4470  -28.9460 N   0  0  0  0  0
  -32.7340  -17.1790  -27.6570 N   0  0  0  0  0
  -32.5930  -15.8270  -27.5670 C   0  0  0  0  0
  -32.9680  -15.3060  -28.7920 C   0  0  0  0  0
  -32.9700  -13.8590  -29.0910 C   0  0  0  0  0
  -32.2310  -13.5200  -30.3810 C   0  0  0  0  0
  -34.4000  -13.3540  -29.1270 C   0  0  0  0  0
  -33.3840  -16.3880  -29.6980 C   0  0  0  0  0
  -33.8310  -16.4100  -30.9650 N   0  0  0  0  0
  -33.3260  -19.7480  -28.6920 N   0  0  0  0  0
  -33.9150  -21.0080  -29.0920 C   0  0  0  0  0
  -32.8930  -21.7680  -29.8820 C   0  0  0  0  0
  -31.7590  -22.2440  -29.2490 C   0  0  0  0  0
  -30.8020  -22.9380  -29.9730 C   0  0  0  0  0
  -30.9800  -23.1490  -31.3360 C   0  0  0  0  0
  -32.1200  -22.6690  -31.9750 C   0  0  0  0  0
  -33.0800  -21.9720  -31.2400 C   0  0  0  0  0
  -33.2882  -17.9637  -36.1223 H   0  0  0  0  0
  -35.0971  -16.5957  -35.6523 H   0  0  0  0  0
  -33.5150  -15.8919  -35.1121 H   0  0  0  0  0
  -34.2315  -15.7589  -33.0680 H   0  0  0  0  0
  -36.8469  -17.1586  -33.3682 H   0  0  0  0  0
  -36.5462  -15.8599  -34.5501 H   0  0  0  0  0
  -36.3341  -15.5957  -31.5209 H   0  0  0  0  0
  -36.0335  -14.2976  -32.7023 H   0  0  0  0  0
  -37.6684  -14.9816  -32.5277 H   0  0  0  0  0
  -34.7578  -18.6801  -33.1178 H   0  0  0  0  0
  -32.2510  -15.2649  -26.6980 H   0  0  0  0  0
  -32.4249  -13.3528  -28.2944 H   0  0  0  0  0
  -31.1928  -13.8418  -30.2988 H   0  0  0  0  0
  -32.7068  -14.0335  -31.2165 H   0  0  0  0  0
  -32.2670  -12.4433  -30.5466 H   0  0  0  0  0
  -34.9528  -13.8870  -29.9006 H   0  0  0  0  0
  -34.8695  -13.5269  -28.1586 H   0  0  0  0  0
  -34.4016  -12.2866  -29.3476 H   0  0  0  0  0
  -32.7797  -19.6976  -27.8321 H   0  0  0  0  0
  -34.8041  -20.8323  -29.6975 H   0  0  0  0  0
  -34.2128  -21.5800  -28.2132 H   0  0  0  0  0
  -31.6180  -22.0735  -28.1817 H   0  0  0  0  0
  -29.9105  -23.3181  -29.4742 H   0  0  0  0  0
  -30.2252  -23.6914  -31.9054 H   0  0  0  0  0
  -32.2618  -22.8365  -33.0427 H   0  0  0  0  0
  -33.9740  -21.5893  -31.7324 H   0  0  0  0  0
  1  2  1  0  0  0
  2  3  1  0  0  0
  3  4  1  0  0  0
  3  6  1  0  0  0
  4  5  1  0  0  0
  6  7  1  0  0  0
  7  8  4  0  0  0
  7 18  4  0  0  0
  8  9  4  0  0  0
  9 10  4  0  0  0
  9 19  1  0  0  0
 10 11  4  0  0  0
 10 17  4  0  0  0
 11 12  4  0  0  0
 12 13  4  0  0  0
 13 14  1  0  0  0
 13 17  4  0  0  0
 14 15  1  0  0  0
 14 16  1  0  0  0
 17 18  4  0  0  0
 19 20  1  0  0  0
 20 21  1  0  0  0
 21 22  4  0  0  0
 21 26  4  0  0  0
 22 23  4  0  0  0
 23 24  4  0  0  0
 24 25  4  0  0  0
 25 26  4  0  0  0
  1 27  1  0  0  0
  2 28  1  0  0  0
  2 29  1  0  0  0
  3 30  1  0  0  0
  4 31  1  0  0  0
  4 32  1  0  0  0
  5 33  1  0  0  0
  5 34  1  0  0  0
  5 35  1  0  0  0
  6 36  1  0  0  0
 12 37  1  0  0  0
 14 38  1  0  0  0
 15 39  1  0  0  0
 15 40  1  0  0  0
 15 41  1  0  0  0
 16 42  1  0  0  0
 16 43  1  0  0  0
 16 44  1  0  0  0
 19 45  1  0  0  0
 20 46  1  0  0  0
 20 47  1  0  0  0
 22 48  1  0  0  0
 23 49  1  0  0  0
 24 50  1  0  0  0
 25 51  1  0  0  0
 26 52  1  0  0  0
M  END
$$$$
