4ju7_ligand
  -I-interpret- 

 58 60  0  0  0  0  0  0  0  0999 V2000
  -27.2340   48.8880   55.5040 C   0  0  0  0  0
  -27.5880   49.2040   54.0540 C   0  0  0  0  0
  -28.1340   50.6360   53.8950 C   0  0  0  0  0
  -27.1420   51.6860   54.4690 C   0  0  0  0  0
  -26.7380   51.3690   55.9290 C   0  0  0  0  0
  -26.2260   49.9220   56.0850 C   0  0  0  0  0
  -25.9450   49.6030   57.5810 C   0  0  0  0  0
  -26.8990   49.2700   58.3180 O   0  0  0  0  0
  -24.3890   49.3490   59.5600 C   0  0  0  0  0
  -24.5970   49.6890   58.0850 N   0  0  0  0  0
  -23.4470   50.0740   57.2700 C   0  0  0  0  0
  -22.7060   49.1500   56.4340 C   0  0  0  0  0
  -21.5960   49.6210   55.6800 C   0  0  0  0  0
  -21.2040   50.9750   55.7320 C   0  0  0  0  0
  -21.9260   51.8970   56.5490 C   0  0  0  0  0
  -23.0390   51.4440   57.3080 C   0  0  0  0  0
  -23.0600   47.7380   56.3260 C   0  0  0  0  0
  -21.9830   46.9280   56.3070 O   0  0  0  0  0
  -24.1860   47.2850   56.2410 O   0  0  0  0  0
  -20.1010   51.2930   54.9530 O   0  0  0  0  0
  -19.9600   52.5320   54.3570 C   0  0  0  0  0
  -18.9010   53.3990   54.7550 C   0  0  0  0  0
  -18.7540   54.6630   54.1360 C   0  0  0  0  0
  -19.6620   55.0680   53.1210 C   0  0  0  0  0
  -20.7230   54.2050   52.7190 C   0  0  0  0  0
  -20.8830   52.9260   53.3320 C   0  0  0  0  0
  -28.4060   50.9210   52.4200 C   0  0  0  0  0
  -23.4410   48.1850   59.8850 C   0  0  0  0  0
  -23.9420   50.5850   60.3930 C   0  0  0  0  0
  -26.7737   47.9006   55.5392 H   0  0  0  0  0
  -28.1472   48.9256   56.0979 H   0  0  0  0  0
  -28.3602   48.5059   53.7307 H   0  0  0  0  0
  -26.6825   49.1148   53.4538 H   0  0  0  0  0
  -29.0638   50.7127   54.4586 H   0  0  0  0  0
  -27.6323   52.6594   54.4559 H   0  0  0  0  0
  -26.2405   51.6722   53.8564 H   0  0  0  0  0
  -27.6184   51.4892   56.5603 H   0  0  0  0  0
  -25.9348   52.0478   56.2157 H   0  0  0  0  0
  -25.2981   49.8424   55.5186 H   0  0  0  0  0
  -25.3863   49.0128   59.8436 H   0  0  0  0  0
  -21.0396   48.9250   55.0522 H   0  0  0  0  0
  -21.6249   52.9438   56.5904 H   0  0  0  0  0
  -23.5897   52.1513   57.9282 H   0  0  0  0  0
  -21.1852   47.4564   56.3840 H   0  0  0  0  0
  -18.2055   53.0889   55.5349 H   0  0  0  0  0
  -17.9436   55.3264   54.4381 H   0  0  0  0  0
  -19.5468   56.0430   52.6476 H   0  0  0  0  0
  -21.4154   54.5234   51.9397 H   0  0  0  0  0
  -21.6912   52.2612   53.0271 H   0  0  0  0  0
  -28.8390   51.9160   52.3174 H   0  0  0  0  0
  -27.4703   50.8713   51.8631 H   0  0  0  0  0
  -29.1022   50.1784   52.0302 H   0  0  0  0  0
  -23.8184   47.2715   59.4254 H   0  0  0  0  0
  -22.4481   48.4067   59.4938 H   0  0  0  0  0
  -23.3861   48.0536   60.9657 H   0  0  0  0  0
  -23.0007   50.9668   59.9977 H   0  0  0  0  0
  -24.7056   51.3602   60.3288 H   0  0  0  0  0
  -23.8077   50.2907   61.4339 H   0  0  0  0  0
  1  2  1  0  0  0
  1  6  1  0  0  0
  2  3  1  0  0  0
  3  4  1  0  0  0
  3 27  1  0  0  0
  4  5  1  0  0  0
  5  6  1  0  0  0
  6  7  1  0  0  0
  7  8  2  0  0  0
  7 10  1  0  0  0
 10  9  1  0  0  0
  9 28  1  0  0  0
  9 29  1  0  0  0
 10 11  1  0  0  0
 11 12  4  0  0  0
 11 16  4  0  0  0
 12 13  4  0  0  0
 12 17  1  0  0  0
 13 14  4  0  0  0
 14 15  4  0  0  0
 14 20  1  0  0  0
 15 16  4  0  0  0
 17 18  1  0  0  0
 17 19  2  0  0  0
 20 21  1  0  0  0
 21 22  4  0  0  0
 21 26  4  0  0  0
 22 23  4  0  0  0
 23 24  4  0  0  0
 24 25  4  0  0  0
 25 26  4  0  0  0
  1 30  1  0  0  0
  1 31  1  0  0  0
  2 32  1  0  0  0
  2 33  1  0  0  0
  3 34  1  0  0  0
  4 35  1  0  0  0
  4 36  1  0  0  0
  5 37  1  0  0  0
  5 38  1  0  0  0
  6 39  1  0  0  0
  9 40  1  0  0  0
 13 41  1  0  0  0
 15 42  1  0  0  0
 16 43  1  0  0  0
 18 44  1  0  0  0
 22 45  1  0  0  0
 23 46  1  0  0  0
 24 47  1  0  0  0
 25 48  1  0  0  0
 26 49  1  0  0  0
 27 50  1  0  0  0
 27 51  1  0  0  0
 27 52  1  0  0  0
 28 53  1  0  0  0
 28 54  1  0  0  0
 28 55  1  0  0  0
 29 56  1  0  0  0
 29 57  1  0  0  0
 29 58  1  0  0  0
M  END
$$$$
