3rz3_ligand
  -I-interpret- 

 50 51  0  0  0  0  0  0  0  0999 V2000
   -3.8060  -38.0130  -22.0570 O   0  0  0  0  0
   -3.3550  -36.8190  -22.1160 C   0  0  0  0  0
   -3.9980  -35.7630  -23.1250 C   0  0  0  0  0
   -2.3860  -36.3830  -21.4260 O   0  0  0  0  0
   -4.3710  -36.3220  -24.5000 C   0  0  0  0  0
   -3.2460  -36.2250  -25.5640 C   0  0  0  0  0
   -2.3880  -34.9580  -25.5450 C   0  0  0  0  0
   -5.1580  -35.0460  -22.6270 O   0  0  0  0  0
   -5.5610  -35.6880  -24.9460 O   0  0  0  0  0
   -3.7740  -36.2110  -26.8920 N   0  0  0  0  0
   -3.8390  -37.2130  -27.7540 C   0  0  0  0  0
   -3.6230  -38.4010  -27.5590 O   0  0  0  0  0
   -4.3400  -36.7960  -29.1000 C   0  0  0  0  0
   -4.3360  -37.7690  -30.0280 O   0  0  0  0  0
   -5.1940  -37.0830  -30.8660 C   0  0  0  0  0
   -0.9740  -35.3790  -25.9690 C   0  0  0  0  0
   -0.1380  -35.8920  -24.9990 C   0  0  0  0  0
    1.1280  -36.2760  -25.3490 C   0  0  0  0  0
    1.5650  -36.1390  -26.6420 C   0  0  0  0  0
    0.7380  -35.6280  -27.6180 C   0  0  0  0  0
   -0.5450  -35.2570  -27.2930 C   0  0  0  0  0
    2.8280  -36.5880  -26.9230 C   0  0  0  0  0
    3.8810  -36.3650  -26.0580 C   0  0  0  0  0
    5.1430  -36.8540  -26.3550 C   0  0  0  0  0
    5.3500  -37.5990  -27.5120 C   0  0  0  0  0
    4.2830  -37.8120  -28.3690 C   0  0  0  0  0
    3.0200  -37.3250  -28.0740 C   0  0  0  0  0
    4.5240  -38.7120  -29.8010 Cl  0  0  0  0  0
    6.4610  -36.5710  -25.2850 Cl  0  0  0  0  0
   -4.5392  -38.1075  -22.6694 H   0  0  0  0  0
   -3.1641  -35.0682  -23.2252 H   0  0  0  0  0
   -4.5314  -37.3930  -24.3758 H   0  0  0  0  0
   -2.6456  -37.0968  -25.3042 H   0  0  0  0  0
   -2.3790  -34.5090  -24.5518 H   0  0  0  0  0
   -2.7899  -34.2056  -26.2236 H   0  0  0  0  0
   -4.9595  -34.6800  -21.7620 H   0  0  0  0  0
   -6.2364  -35.7646  -24.2681 H   0  0  0  0  0
   -4.1468  -35.3183  -27.2154 H   0  0  0  0  0
   -3.6715  -36.0133  -29.4585 H   0  0  0  0  0
   -5.3769  -36.4860  -28.9702 H   0  0  0  0  0
   -6.1358  -36.8998  -30.3487 H   0  0  0  0  0
   -4.7417  -36.1321  -31.1476 H   0  0  0  0  0
   -5.3790  -37.6778  -31.7604 H   0  0  0  0  0
   -0.4808  -35.9900  -23.9690 H   0  0  0  0  0
    1.7943  -36.6940  -24.5944 H   0  0  0  0  0
    1.0985  -35.5186  -28.6408 H   0  0  0  0  0
   -1.2191  -34.8725  -28.0584 H   0  0  0  0  0
    3.7189  -35.8025  -25.1386 H   0  0  0  0  0
    6.3345  -38.0077  -27.7398 H   0  0  0  0  0
    2.1845  -37.5223  -28.7456 H   0  0  0  0  0
  1  2  1  0  0  0
  2  3  1  0  0  0
  2  4  2  0  0  0
  3  5  1  0  0  0
  3  8  1  0  0  0
  5  6  1  0  0  0
  5  9  1  0  0  0
  6  7  1  0  0  0
  6 10  1  0  0  0
  7 16  1  0  0  0
 10 11  1  0  0  0
 11 12  2  0  0  0
 11 13  1  0  0  0
 13 14  1  0  0  0
 14 15  1  0  0  0
 16 17  4  0  0  0
 16 21  4  0  0  0
 17 18  4  0  0  0
 18 19  4  0  0  0
 19 20  4  0  0  0
 19 22  1  0  0  0
 20 21  4  0  0  0
 22 23  4  0  0  0
 22 27  4  0  0  0
 23 24  4  0  0  0
 24 25  4  0  0  0
 24 29  1  0  0  0
 25 26  4  0  0  0
 26 27  4  0  0  0
 26 28  1  0  0  0
  1 30  1  0  0  0
  3 31  1  0  0  0
  5 32  1  0  0  0
  6 33  1  0  0  0
  7 34  1  0  0  0
  7 35  1  0  0  0
  8 36  1  0  0  0
  9 37  1  0  0  0
 10 38  1  0  0  0
 13 39  1  0  0  0
 13 40  1  0  0  0
 15 41  1  0  0  0
 15 42  1  0  0  0
 15 43  1  0  0  0
 17 44  1  0  0  0
 18 45  1  0  0  0
 20 46  1  0  0  0
 21 47  1  0  0  0
 23 48  1  0  0  0
 25 49  1  0  0  0
 27 50  1  0  0  0
M  END
$$$$
