### 
### Created by X-TOOL on Mon Sep 10 21:13:14 2018
### 

@<TRIPOS>MOLECULE
3zke_ligand
  155   155     1     0     0
SMALL
GAST_HUCK


@<TRIPOS>ATOM
      1 N         -15.4650   14.5220   12.3890 N.4       1 VAL         0.2381
      2 CA        -14.6080   13.3300   12.5910 C.3       1 VAL         0.0673
      3 C         -14.4470   12.4800   11.3370 C.2       1 VAL         0.2268
      4 O         -15.4120   12.0970   10.7240 O.2       1 VAL        -0.3907
      5 CB        -15.1390   12.4270   13.7310 C.3       1 VAL         0.0139
      6 CG1       -14.1150   12.3560   14.8530 C.3       1 VAL        -0.0553
      7 CG2       -16.5140   12.8860   14.2080 C.3       1 VAL        -0.0553
      8 N         -13.2150   12.1950   10.9780 N.am      1 GLY        -0.2637
      9 CA        -12.9130   11.2110    9.9960 C.3       1 GLY         0.1202
     10 C         -13.4600    9.8030   10.3050 C.2       1 GLY         0.2007
     11 O         -13.3690    9.3070   11.4320 O.2       1 GLY        -0.3947
     12 N         -14.0220    9.1830    9.2700 N.am      1 MET        -0.2639
     13 CA        -14.6030    7.8490    9.3460 C.3       1 MET         0.1317
     14 C         -13.8610    6.9610    8.3810 C.2       1 MET         0.2040
     15 O         -13.5830    7.3720    7.2530 O.2       1 MET        -0.3944
     16 CB        -16.1100    7.8600    9.0300 C.3       1 MET        -0.0034
     17 CG        -16.9690    8.6100   10.0370 C.3       1 MET        -0.0024
     18 SD        -16.9700    7.8380   11.6580 S.3       1 MET        -0.1639
     19 CE        -18.3590    6.7190   11.5400 C.3       1 MET        -0.0181
     20 N         -13.5230    5.7540    8.8190 N.am      1 HIS        -0.2625
     21 CA        -12.7680    4.8130    7.9820 C.3       1 HIS         0.1369
     22 C         -13.3220    3.4440    8.0840 C.2       1 HIS         0.2054
     23 O         -13.6220    2.9640    9.1690 O.2       1 HIS        -0.3942
     24 CB        -11.3000    4.7880    8.4330 C.3       1 HIS         0.0145
     25 CG        -10.7050    6.1710    8.5900 C.2       1 HIS        -0.0027
     26 ND1       -10.1270    6.8380    7.5850 N.2       1 HIS        -0.3252
     27 CD2       -10.7130    7.0210    9.6450 C.2       1 HIS         0.0291
     28 CE1        -9.7310    8.0440    7.9900 C.2       1 HIS         0.0907
     29 NE2       -10.0780    8.1650    9.2530 N.pl3     1 HIS        -0.2752
     30 N         -13.4040    2.7520    6.9630 N.am      1 SER        -0.2615
     31 CA        -13.9260    1.3750    7.0030 C.3       1 SER         0.1539
     32 C         -12.8080    0.3400    7.0570 C.2       1 SER         0.2062
     33 O         -11.7570    0.4900    6.4430 O.2       1 SER        -0.3943
     34 CB        -14.8390    1.1050    5.8160 C.3       1 SER         0.0843
     35 OG        -15.9730    1.9190    5.8420 O.3       1 SER        -0.3903
     36 N         -13.0450   -0.7280    7.7830 N.am      1 LYS        -0.2637
     37 CA        -12.0830   -1.7920    7.8930 C.3       1 LYS         0.1310
     38 C         -12.7050   -3.1760    7.9490 C.2       1 LYS         0.2037
     39 O         -13.8670   -3.3320    8.3890 O.2       1 LYS        -0.3944
     40 CB        -11.2380   -1.5350    9.1410 C.3       1 LYS        -0.0122
     41 CG         -9.9100   -0.9790    8.7580 C.3       1 LYS        -0.0440
     42 CD         -9.3840   -0.1010    9.8040 C.3       1 LYS        -0.0124
     43 CE         -8.5890    0.9460    9.0600 C.3       1 LYS        -0.0354
     44 NZ         -8.4090    2.0060   10.0030 N.4       1 LYS         0.2185
     45 N         -11.9510   -4.1850    7.4800 N.am      1 GLY        -0.2664
     46 CA        -12.4450   -5.5200    7.4420 C.3       1 GLY         0.1201
     47 C         -11.5030   -6.3320    8.2830 C.2       1 GLY         0.2008
     48 O         -10.3270   -6.0320    8.3050 O.2       1 GLY        -0.3947
     49 N         -12.0250   -7.3240    9.0030 N.am      1 THR        -0.2616
     50 CA        -11.1680   -8.2300    9.7880 C.3       1 THR         0.1565
     51 C         -11.6460   -9.6310    9.5480 C.2       1 THR         0.2065
     52 O         -12.7750   -9.8310    9.1400 O.2       1 THR        -0.3943
     53 CB        -11.2360   -7.9500   11.3070 C.3       1 THR         0.0924
     54 OG1       -12.5640   -8.1930   11.7690 O.3       1 THR        -0.3874
     55 CG2       -10.8570   -6.4650   11.6360 C.3       1 THR        -0.0346
     56 N         -10.7720  -10.6050    9.7610 N.am      1 GLN        -0.2635
     57 CA        -11.1360  -12.0010    9.5410 C.3       1 GLN         0.1330
     58 C         -10.3330  -12.8890   10.5120 C.2       1 GLN         0.2041
     59 O          -9.1230  -12.8560   10.5290 O.2       1 GLN        -0.3944
     60 CB        -10.8270  -12.3910    8.0660 C.3       1 GLN         0.0045
     61 CG        -11.1160  -13.8650    7.7760 C.3       1 GLN         0.0412
     62 CD        -12.5830  -14.1660    8.0110 C.2       1 GLN         0.1737
     63 OE1       -13.4590  -13.5980    7.3530 O.2       1 GLN        -0.3973
     64 NE2       -12.8790  -15.0830    8.9570 N.am      1 GLN        -0.3009
     65 N         -11.0060  -13.6940   11.3220 N.am      1 THR        -0.2613
     66 CA        -10.2500  -14.6500   12.1810 C.3       1 THR         0.1564
     67 C          -9.6810  -15.7360   11.2740 C.2       1 THR         0.2059
     68 O         -10.2640  -16.0460   10.2360 O.2       1 THR        -0.3943
     69 CB        -11.1830  -15.3580   13.2170 C.3       1 THR         0.0924
     70 OG1       -12.3690  -15.8010   12.5360 O.3       1 THR        -0.3874
     71 CG2       -11.6650  -14.3460   14.3080 C.3       1 THR        -0.0346
     72 N          -8.5720  -16.3230   11.6760 N.am      1 ALA        -0.2697
     73 CA         -7.9440  -17.3930   10.8850 C.3       1 ALA         0.0916
     74 C          -8.2440  -18.7810   11.4270 C.2       1 ALA         0.0598
     75 O          -9.4329  -19.1379   11.6430 O.co2     1 ALA        -0.5666
     76 CB         -6.4620  -17.1970   10.8500 C.3       1 ALA        -0.0300
     77 O          -7.2981  -19.5795   11.6618 O.co2     1 ALA        -0.5666
     78 H1        -15.0886   15.0836   11.6414 H         1 VAL         0.2015
     79 H2        -15.4902   15.0655   13.2376 H         1 VAL         0.2015
     80 H3        -16.3991   14.2277   12.1506 H         1 VAL         0.2015
     81 H4        -13.6109   13.6936   12.8799 H         1 VAL         0.1101
     82 H5        -15.2577   11.4107   13.3273 H         1 VAL         0.0376
     83 H6        -14.4984   11.7133   15.6592 H         1 VAL         0.0236
     84 H7        -13.9311   13.3668   15.2461 H         1 VAL         0.0236
     85 H8        -13.1749   11.9366   14.4654 H         1 VAL         0.0236
     86 H9        -17.2069   12.9167   13.3542 H         1 VAL         0.0236
     87 H10       -16.4325   13.8899   14.6502 H         1 VAL         0.0236
     88 H11       -16.8939   12.1823   14.9633 H         1 VAL         0.0236
     89 H12       -12.4613   12.6887   11.4117 H         1 GLY         0.1882
     90 H13       -11.8189   11.1413    9.9060 H         1 GLY         0.0763
     91 H14       -13.3395   11.5414    9.0374 H         1 GLY         0.0763
     92 H15       -14.0469    9.6594    8.3911 H         1 MET         0.1883
     93 H16       -14.4678    7.4612   10.3665 H         1 MET         0.0800
     94 H17       -16.4591    6.8176    8.9922 H         1 MET         0.0320
     95 H18       -16.2494    8.3294    8.0450 H         1 MET         0.0320
     96 H19       -18.0027    8.6430    9.6623 H         1 MET         0.0378
     97 H20       -16.5818    9.6349   10.1356 H         1 MET         0.0378
     98 H21       -18.4714    6.1728   12.4882 H         1 MET         0.0340
     99 H22       -18.1849    6.0033   10.7231 H         1 MET         0.0340
    100 H23       -19.2754    7.2923   11.3363 H         1 MET         0.0340
    101 H24       -13.7895    5.4787    9.7427 H         1 HIS         0.1885
    102 H25       -12.8222    5.1450    6.9347 H         1 HIS         0.0817
    103 H26       -10.7126    4.2369    7.6838 H         1 HIS         0.0420
    104 H27       -11.2396    4.2687    9.4008 H         1 HIS         0.0420
    105 H28       -11.1461    6.8277   10.6253 H         1 HIS         0.0729
    106 H29        -9.2159    8.7907    7.3874 H         1 HIS         0.1199
    107 H30        -9.9002    8.9867    9.8481 H         1 HIS         0.2361
    108 H31       -13.1149    3.1580    6.0960 H         1 SER         0.1884
    109 H32       -14.5232    1.2717    7.9209 H         1 SER         0.0823
    110 H33       -15.1554    0.0518    5.8417 H         1 SER         0.0606
    111 H34       -14.2827    1.2982    4.8869 H         1 SER         0.0606
    112 H35       -16.4617    1.7539    6.6398 H         1 SER         0.2097
    113 H36       -13.9146   -0.8036    8.2709 H         1 LYS         0.1883
    114 H37       -11.4296   -1.7556    7.0088 H         1 LYS         0.0800
    115 H38       -11.0931   -2.4813    9.6828 H         1 LYS         0.0312
    116 H39       -11.7589   -0.8164    9.7908 H         1 LYS         0.0312
    117 H40       -10.0166   -0.4038    7.8265 H         1 LYS         0.0269
    118 H41        -9.2058   -1.8088    8.5981 H         1 LYS         0.0269
    119 H42        -8.7364   -0.6629   10.4931 H         1 LYS         0.0317
    120 H43       -10.2049    0.3642   10.3694 H         1 LYS         0.0317
    121 H44        -9.1443    1.3010    8.1793 H         1 LYS         0.0813
    122 H45        -7.6170    0.5411    8.7419 H         1 LYS         0.0813
    123 H46        -7.8810    2.7504    9.5750 H         1 LYS         0.1994
    124 H47        -7.9098    1.6592   10.8071 H         1 LYS         0.1994
    125 H48        -9.3093    2.3556   10.2915 H         1 LYS         0.1994
    126 H49       -11.0258   -3.9946    7.1516 H         1 GLY         0.1881
    127 H50       -12.4547   -5.8950    6.4080 H         1 GLY         0.0763
    128 H51       -13.4627   -5.5633    7.8573 H         1 GLY         0.0763
    129 H52       -13.0162   -7.4562    9.0109 H         1 THR         0.1884
    130 H53       -10.1266   -8.1239    9.4502 H         1 THR         0.0826
    131 H54       -10.5371   -8.6225   11.8258 H         1 THR         0.0639
    132 H55       -13.1673   -7.6197   11.3110 H         1 THR         0.2101
    133 H56       -10.9164   -6.3035   12.7225 H         1 THR         0.0257
    134 H57       -11.5564   -5.7864   11.1258 H         1 THR         0.0257
    135 H58        -9.8323   -6.2630   11.2908 H         1 THR         0.0257
    136 H59        -9.8503  -10.3798   10.0769 H         1 GLN         0.1883
    137 H60       -12.2110  -12.1340    9.7323 H         1 GLN         0.0801
    138 H61        -9.7637  -12.1939    7.8645 H         1 GLN         0.0337
    139 H62       -11.4471  -11.7726    7.4004 H         1 GLN         0.0337
    140 H63       -10.5050  -14.4929    8.4411 H         1 GLN         0.0504
    141 H64       -10.8629  -14.0858    6.7286 H         1 GLN         0.0504
    142 H65       -13.8329  -15.3147    9.1476 H         1 GLN         0.1814
    143 H66       -12.1443  -15.5304    9.4670 H         1 GLN         0.1814
    144 H67       -12.0049  -13.6607   11.3564 H         1 THR         0.1884
    145 H68        -9.4422  -14.1196   12.7065 H         1 THR         0.0826
    146 H69       -10.6563  -16.2045   13.6817 H         1 THR         0.0639
    147 H70       -12.1287  -16.4093   11.8470 H         1 THR         0.2101
    148 H71       -12.3188  -14.8639   15.0252 H         1 THR         0.0257
    149 H72       -12.2223  -13.5277   13.8285 H         1 THR         0.0257
    150 H73       -10.7930  -13.9348   14.8376 H         1 THR         0.0257
    151 H74        -8.1489  -16.0357   12.5354 H         1 ALA         0.1875
    152 H75        -8.3346  -17.3322    9.8585 H         1 ALA         0.0723
    153 H76        -5.9998  -18.0002   10.2573 H         1 ALA         0.0270
    154 H77        -6.0644  -17.2227   11.8753 H         1 ALA         0.0270
    155 H78        -6.2315  -16.2240   10.3916 H         1 ALA         0.0270
@<TRIPOS>BOND
     1    1    2 1  
     2    2    3 1  
     3    2    5 1  
     4    3    4 2  
     5    3    8 am 
     6    5    6 1  
     7    5    7 1  
     8    8    9 1  
     9    9   10 1  
    10   10   11 2  
    11   10   12 am 
    12   12   13 1  
    13   13   14 1  
    14   13   16 1  
    15   14   15 2  
    16   14   20 am 
    17   16   17 1  
    18   17   18 1  
    19   18   19 1  
    20   20   21 1  
    21   21   22 1  
    22   21   24 1  
    23   22   23 2  
    24   22   30 am 
    25   24   25 1  
    26   25   26 1  
    27   25   27 2  
    28   26   28 2  
    29   27   29 1  
    30   28   29 1  
    31   30   31 1  
    32   31   32 1  
    33   31   34 1  
    34   32   33 2  
    35   32   36 am 
    36   34   35 1  
    37   36   37 1  
    38   37   38 1  
    39   37   40 1  
    40   38   39 2  
    41   38   45 am 
    42   40   41 1  
    43   41   42 1  
    44   42   43 1  
    45   43   44 1  
    46   45   46 1  
    47   46   47 1  
    48   47   48 2  
    49   47   49 am 
    50   49   50 1  
    51   50   51 1  
    52   50   53 1  
    53   51   52 2  
    54   51   56 am 
    55   53   54 1  
    56   53   55 1  
    57   56   57 1  
    58   57   58 1  
    59   57   60 1  
    60   58   59 2  
    61   58   65 am 
    62   60   61 1  
    63   61   62 1  
    64   62   63 2  
    65   62   64 am 
    66   65   66 1  
    67   66   67 1  
    68   66   69 1  
    69   67   68 2  
    70   67   72 am 
    71   69   70 1  
    72   69   71 1  
    73   72   73 1  
    74   73   74 1  
    75   73   76 1  
    76   74   75 ar 
    77   74   77 ar 
    78    1   78 1  
    79    1   79 1  
    80    1   80 1  
    81    2   81 1  
    82    5   82 1  
    83    6   83 1  
    84    6   84 1  
    85    6   85 1  
    86    7   86 1  
    87    7   87 1  
    88    7   88 1  
    89    8   89 1  
    90    9   90 1  
    91    9   91 1  
    92   12   92 1  
    93   13   93 1  
    94   16   94 1  
    95   16   95 1  
    96   17   96 1  
    97   17   97 1  
    98   19   98 1  
    99   19   99 1  
   100   19  100 1  
   101   20  101 1  
   102   21  102 1  
   103   24  103 1  
   104   24  104 1  
   105   27  105 1  
   106   28  106 1  
   107   29  107 1  
   108   30  108 1  
   109   31  109 1  
   110   34  110 1  
   111   34  111 1  
   112   35  112 1  
   113   36  113 1  
   114   37  114 1  
   115   40  115 1  
   116   40  116 1  
   117   41  117 1  
   118   41  118 1  
   119   42  119 1  
   120   42  120 1  
   121   43  121 1  
   122   43  122 1  
   123   44  123 1  
   124   44  124 1  
   125   44  125 1  
   126   45  126 1  
   127   46  127 1  
   128   46  128 1  
   129   49  129 1  
   130   50  130 1  
   131   53  131 1  
   132   54  132 1  
   133   55  133 1  
   134   55  134 1  
   135   55  135 1  
   136   56  136 1  
   137   57  137 1  
   138   60  138 1  
   139   60  139 1  
   140   61  140 1  
   141   61  141 1  
   142   64  142 1  
   143   64  143 1  
   144   65  144 1  
   145   66  145 1  
   146   69  146 1  
   147   70  147 1  
   148   71  148 1  
   149   71  149 1  
   150   71  150 1  
   151   72  151 1  
   152   73  152 1  
   153   76  153 1  
   154   76  154 1  
   155   76  155 1  
@<TRIPOS>SUBSTRUCTURE
     1 VAL         1

