3zke_ligand
  -I-interpret- 

155155  0  0  0  0  0  0  0  0999 V2000
  -15.4650   14.5220   12.3890 N   0  3  0  0  0
  -14.6080   13.3300   12.5910 C   0  0  0  0  0
  -14.4470   12.4800   11.3370 C   0  0  0  0  0
  -15.4120   12.0970   10.7240 O   0  0  0  0  0
  -15.1390   12.4270   13.7310 C   0  0  0  0  0
  -14.1150   12.3560   14.8530 C   0  0  0  0  0
  -16.5140   12.8860   14.2080 C   0  0  0  0  0
  -13.2150   12.1950   10.9780 N   0  0  0  0  0
  -12.9130   11.2110    9.9960 C   0  0  0  0  0
  -13.4600    9.8030   10.3050 C   0  0  0  0  0
  -13.3690    9.3070   11.4320 O   0  0  0  0  0
  -14.0220    9.1830    9.2700 N   0  0  0  0  0
  -14.6030    7.8490    9.3460 C   0  0  0  0  0
  -13.8610    6.9610    8.3810 C   0  0  0  0  0
  -13.5830    7.3720    7.2530 O   0  0  0  0  0
  -16.1100    7.8600    9.0300 C   0  0  0  0  0
  -16.9690    8.6100   10.0370 C   0  0  0  0  0
  -16.9700    7.8380   11.6580 S   0  0  0  0  0
  -18.3590    6.7190   11.5400 C   0  0  0  0  0
  -13.5230    5.7540    8.8190 N   0  0  0  0  0
  -12.7680    4.8130    7.9820 C   0  0  0  0  0
  -13.3220    3.4440    8.0840 C   0  0  0  0  0
  -13.6220    2.9640    9.1690 O   0  0  0  0  0
  -11.3000    4.7880    8.4330 C   0  0  0  0  0
  -10.7050    6.1710    8.5900 C   0  0  0  0  0
  -10.1270    6.8380    7.5850 N   0  0  0  0  0
  -10.7130    7.0210    9.6450 C   0  0  0  0  0
   -9.7310    8.0440    7.9900 C   0  0  0  0  0
  -10.0780    8.1650    9.2530 N   0  0  0  0  0
  -13.4040    2.7520    6.9630 N   0  0  0  0  0
  -13.9260    1.3750    7.0030 C   0  0  0  0  0
  -12.8080    0.3400    7.0570 C   0  0  0  0  0
  -11.7570    0.4900    6.4430 O   0  0  0  0  0
  -14.8390    1.1050    5.8160 C   0  0  0  0  0
  -15.9730    1.9190    5.8420 O   0  0  0  0  0
  -13.0450   -0.7280    7.7830 N   0  0  0  0  0
  -12.0830   -1.7920    7.8930 C   0  0  0  0  0
  -12.7050   -3.1760    7.9490 C   0  0  0  0  0
  -13.8670   -3.3320    8.3890 O   0  0  0  0  0
  -11.2380   -1.5350    9.1410 C   0  0  0  0  0
   -9.9100   -0.9790    8.7580 C   0  0  0  0  0
   -9.3840   -0.1010    9.8040 C   0  0  0  0  0
   -8.5890    0.9460    9.0600 C   0  0  0  0  0
   -8.4090    2.0060   10.0030 N   0  3  0  0  0
  -11.9510   -4.1850    7.4800 N   0  0  0  0  0
  -12.4450   -5.5200    7.4420 C   0  0  0  0  0
  -11.5030   -6.3320    8.2830 C   0  0  0  0  0
  -10.3270   -6.0320    8.3050 O   0  0  0  0  0
  -12.0250   -7.3240    9.0030 N   0  0  0  0  0
  -11.1680   -8.2300    9.7880 C   0  0  0  0  0
  -11.6460   -9.6310    9.5480 C   0  0  0  0  0
  -12.7750   -9.8310    9.1400 O   0  0  0  0  0
  -11.2360   -7.9500   11.3070 C   0  0  0  0  0
  -12.5640   -8.1930   11.7690 O   0  0  0  0  0
  -10.8570   -6.4650   11.6360 C   0  0  0  0  0
  -10.7720  -10.6050    9.7610 N   0  0  0  0  0
  -11.1360  -12.0010    9.5410 C   0  0  0  0  0
  -10.3330  -12.8890   10.5120 C   0  0  0  0  0
   -9.1230  -12.8560   10.5290 O   0  0  0  0  0
  -10.8270  -12.3910    8.0660 C   0  0  0  0  0
  -11.1160  -13.8650    7.7760 C   0  0  0  0  0
  -12.5830  -14.1660    8.0110 C   0  0  0  0  0
  -13.4590  -13.5980    7.3530 O   0  0  0  0  0
  -12.8790  -15.0830    8.9570 N   0  0  0  0  0
  -11.0060  -13.6940   11.3220 N   0  0  0  0  0
  -10.2500  -14.6500   12.1810 C   0  0  0  0  0
   -9.6810  -15.7360   11.2740 C   0  0  0  0  0
  -10.2640  -16.0460   10.2360 O   0  0  0  0  0
  -11.1830  -15.3580   13.2170 C   0  0  0  0  0
  -12.3690  -15.8010   12.5360 O   0  0  0  0  0
  -11.6650  -14.3460   14.3080 C   0  0  0  0  0
   -8.5720  -16.3230   11.6760 N   0  0  0  0  0
   -7.9440  -17.3930   10.8850 C   0  0  0  0  0
   -8.2440  -18.7810   11.4270 C   0  0  0  0  0
   -9.4329  -19.1379   11.6430 O   0  0  0  0  0
   -6.4620  -17.1970   10.8500 C   0  0  0  0  0
   -7.2981  -19.5795   11.6618 O   0  0  0  0  0
  -15.0832   15.0895   11.6323 H   0  0  0  0  0
  -16.4099   14.2230   12.1479 H   0  0  0  0  0
  -15.4897   15.0711   13.2483 H   0  0  0  0  0
  -13.6313   13.7334   12.8582 H   0  0  0  0  0
  -15.2784   11.4148   13.3514 H   0  0  0  0  0
  -13.9989   13.3432   15.3002 H   0  0  0  0  0
  -14.4563   11.6505   15.6105 H   0  0  0  0  0
  -13.1585   12.0236   14.4497 H   0  0  0  0  0
  -16.8892   12.1880   14.9564 H   0  0  0  0  0
  -16.4318   13.8807   14.6460 H   0  0  0  0  0
  -17.1996   12.9160   13.3611 H   0  0  0  0  0
  -12.4462   12.6986   11.4204 H   0  0  0  0  0
  -11.8270   11.1273    9.9544 H   0  0  0  0  0
  -13.3809   11.5362    9.0668 H   0  0  0  0  0
  -14.0474    9.6689    8.3735 H   0  0  0  0  0
  -14.5038    7.4712   10.3636 H   0  0  0  0  0
  -16.4429    6.8221    9.0417 H   0  0  0  0  0
  -16.2285    8.3683    8.0731 H   0  0  0  0  0
  -17.9941    8.6120    9.6666 H   0  0  0  0  0
  -16.5587    9.6141   10.1448 H   0  0  0  0  0
  -19.2664    7.2882   11.3381 H   0  0  0  0  0
  -18.1853    6.0104   10.7302 H   0  0  0  0  0
  -18.4693    6.1784   12.4801 H   0  0  0  0  0
  -13.7948    5.4732    9.7612 H   0  0  0  0  0
  -12.8428    5.1462    6.9469 H   0  0  0  0  0
  -10.7266    4.2651    7.6675 H   0  0  0  0  0
  -11.2600    4.2973    9.4055 H   0  0  0  0  0
  -11.1465    6.8275   10.6262 H   0  0  0  0  0
   -9.2154    8.7913    7.3869 H   0  0  0  0  0
  -13.1092    3.1661    6.0787 H   0  0  0  0  0
  -14.5061    1.2818    7.9211 H   0  0  0  0  0
  -15.1615    0.0648    5.8601 H   0  0  0  0  0
  -14.2851    1.3163    4.9013 H   0  0  0  0  0
  -16.5243    1.7222    5.0811 H   0  0  0  0  0
  -13.9320   -0.8051    8.2807 H   0  0  0  0  0
  -11.4721   -1.7876    6.9903 H   0  0  0  0  0
  -11.0912   -2.4754    9.6722 H   0  0  0  0  0
  -11.7540   -0.8182    9.7797 H   0  0  0  0  0
  -10.0258   -0.3994    7.8422 H   0  0  0  0  0
   -9.2143   -1.8057    8.6145 H   0  0  0  0  0
   -8.7697   -0.6451   10.5214 H   0  0  0  0  0
  -10.1802    0.3415   10.4026 H   0  0  0  0  0
   -9.1050    1.2851    8.1617 H   0  0  0  0  0
   -7.6366    0.5545    8.7027 H   0  0  0  0  0
   -7.8746    2.7586    9.5689 H   0  0  0  0  0
   -9.3206    2.3589   10.2942 H   0  0  0  0  0
   -7.9038    1.6539   10.8161 H   0  0  0  0  0
  -11.0073   -3.9908    7.1451 H   0  0  0  0  0
  -12.4878   -5.8969    6.4201 H   0  0  0  0  0
  -13.4643   -5.5755    7.8242 H   0  0  0  0  0
  -13.0360   -7.4588    9.0110 H   0  0  0  0  0
  -10.1360   -8.0788    9.4714 H   0  0  0  0  0
  -10.5232   -8.6087   11.8031 H   0  0  0  0  0
  -12.6101   -8.0201   12.7122 H   0  0  0  0  0
   -9.8415   -6.2661   11.2934 H   0  0  0  0  0
  -11.5507   -5.7936   11.1298 H   0  0  0  0  0
  -10.9162   -6.3063   12.7128 H   0  0  0  0  0
   -9.8319  -10.3753   10.0832 H   0  0  0  0  0
  -12.2009  -12.1439    9.7244 H   0  0  0  0  0
   -9.7663  -12.2151    7.8871 H   0  0  0  0  0
  -11.4654  -11.7898    7.4187 H   0  0  0  0  0
  -10.5135  -14.4845    8.4403 H   0  0  0  0  0
  -10.8696  -14.0793    6.7361 H   0  0  0  0  0
  -13.8517  -15.3251    9.1459 H   0  0  0  0  0
  -12.1299  -15.5336    9.4826 H   0  0  0  0  0
  -12.0248  -13.6600   11.3571 H   0  0  0  0  0
   -9.4789  -14.0972   12.7175 H   0  0  0  0  0
  -10.6272  -16.1781   13.6716 H   0  0  0  0  0
  -12.9514  -16.2381   13.1615 H   0  0  0  0  0
  -10.8000  -13.9393   14.8319 H   0  0  0  0  0
  -12.2170  -13.5357   13.8316 H   0  0  0  0  0
  -12.3127  -14.8603   15.0180 H   0  0  0  0  0
   -8.1405  -16.0300   12.5525 H   0  0  0  0  0
   -8.3665  -17.3298    9.8822 H   0  0  0  0  0
  -10.0279  -18.4201   11.4143 H   0  0  0  0  0
   -6.2350  -16.2326   10.3956 H   0  0  0  0  0
   -6.0693  -17.2227   11.8665 H   0  0  0  0  0
   -6.0052  -17.9934   10.2625 H   0  0  0  0  0
  1  2  1  0  0  0
  2  3  1  0  0  0
  2  5  1  0  0  0
  3  4  2  0  0  0
  3  8  1  0  0  0
  5  6  1  0  0  0
  5  7  1  0  0  0
  8  9  1  0  0  0
  9 10  1  0  0  0
 10 11  2  0  0  0
 10 12  1  0  0  0
 12 13  1  0  0  0
 13 14  1  0  0  0
 13 16  1  0  0  0
 14 15  2  0  0  0
 14 20  1  0  0  0
 16 17  1  0  0  0
 17 18  1  0  0  0
 18 19  1  0  0  0
 20 21  1  0  0  0
 21 22  1  0  0  0
 21 24  1  0  0  0
 22 23  2  0  0  0
 22 30  1  0  0  0
 24 25  1  0  0  0
 25 26  4  0  0  0
 25 27  4  0  0  0
 26 28  4  0  0  0
 27 29  4  0  0  0
 28 29  4  0  0  0
 30 31  1  0  0  0
 31 32  1  0  0  0
 31 34  1  0  0  0
 32 33  2  0  0  0
 32 36  1  0  0  0
 34 35  1  0  0  0
 36 37  1  0  0  0
 37 38  1  0  0  0
 37 40  1  0  0  0
 38 39  2  0  0  0
 38 45  1  0  0  0
 40 41  1  0  0  0
 41 42  1  0  0  0
 42 43  1  0  0  0
 43 44  1  0  0  0
 45 46  1  0  0  0
 46 47  1  0  0  0
 47 48  2  0  0  0
 47 49  1  0  0  0
 49 50  1  0  0  0
 50 51  1  0  0  0
 50 53  1  0  0  0
 51 52  2  0  0  0
 51 56  1  0  0  0
 53 54  1  0  0  0
 53 55  1  0  0  0
 56 57  1  0  0  0
 57 58  1  0  0  0
 57 60  1  0  0  0
 58 59  2  0  0  0
 58 65  1  0  0  0
 60 61  1  0  0  0
 61 62  1  0  0  0
 62 63  2  0  0  0
 62 64  1  0  0  0
 65 66  1  0  0  0
 66 67  1  0  0  0
 66 69  1  0  0  0
 67 68  2  0  0  0
 67 72  1  0  0  0
 69 70  1  0  0  0
 69 71  1  0  0  0
 72 73  1  0  0  0
 73 74  1  0  0  0
 73 76  1  0  0  0
 74 75  1  0  0  0
 74 77  2  0  0  0
  1 78  1  0  0  0
  1 79  1  0  0  0
  1 80  1  0  0  0
  2 81  1  0  0  0
  5 82  1  0  0  0
  6 83  1  0  0  0
  6 84  1  0  0  0
  6 85  1  0  0  0
  7 86  1  0  0  0
  7 87  1  0  0  0
  7 88  1  0  0  0
  8 89  1  0  0  0
  9 90  1  0  0  0
  9 91  1  0  0  0
 12 92  1  0  0  0
 13 93  1  0  0  0
 16 94  1  0  0  0
 16 95  1  0  0  0
 17 96  1  0  0  0
 17 97  1  0  0  0
 19 98  1  0  0  0
 19 99  1  0  0  0
 19100  1  0  0  0
 20101  1  0  0  0
 21102  1  0  0  0
 24103  1  0  0  0
 24104  1  0  0  0
 27105  1  0  0  0
 28106  1  0  0  0
 30107  1  0  0  0
 31108  1  0  0  0
 34109  1  0  0  0
 34110  1  0  0  0
 35111  1  0  0  0
 36112  1  0  0  0
 37113  1  0  0  0
 40114  1  0  0  0
 40115  1  0  0  0
 41116  1  0  0  0
 41117  1  0  0  0
 42118  1  0  0  0
 42119  1  0  0  0
 43120  1  0  0  0
 43121  1  0  0  0
 44122  1  0  0  0
 44123  1  0  0  0
 44124  1  0  0  0
 45125  1  0  0  0
 46126  1  0  0  0
 46127  1  0  0  0
 49128  1  0  0  0
 50129  1  0  0  0
 53130  1  0  0  0
 54131  1  0  0  0
 55132  1  0  0  0
 55133  1  0  0  0
 55134  1  0  0  0
 56135  1  0  0  0
 57136  1  0  0  0
 60137  1  0  0  0
 60138  1  0  0  0
 61139  1  0  0  0
 61140  1  0  0  0
 64141  1  0  0  0
 64142  1  0  0  0
 65143  1  0  0  0
 66144  1  0  0  0
 69145  1  0  0  0
 70146  1  0  0  0
 71147  1  0  0  0
 71148  1  0  0  0
 71149  1  0  0  0
 72150  1  0  0  0
 73151  1  0  0  0
 75152  1  0  0  0
 76153  1  0  0  0
 76154  1  0  0  0
 76155  1  0  0  0
M  END
$$$$
