4arw_ligand
  -I-interpret- 

 44 45  0  0  0  0  0  0  0  0999 V2000
   37.7780    7.8440   12.3900 C   0  0  0  0  0
   38.6000    6.6560   11.8400 C   0  0  0  0  0
   37.9530    6.0190   10.6220 C   0  0  0  0  0
   38.8280    4.9440    9.9880 C   0  0  0  0  0
   38.0670    3.6980   10.0090 N   0  0  0  0  0
   37.0950    3.4440    9.0190 C   0  0  0  0  0
   36.8890    4.3580    8.0690 N   0  0  0  0  0
   38.3210    2.7720   11.0270 C   0  0  0  0  0
   39.1730    2.9960   11.8850 O   0  0  0  0  0
   37.6040    1.6060   11.0740 N   0  0  0  0  0
   36.6290    1.3410   10.1230 C   0  0  0  0  0
   36.0240    0.2750   10.2440 O   0  0  0  0  0
   36.3550    2.2530    9.0800 C   0  0  0  0  0
   35.4230    1.9550    8.1690 N   0  0  0  0  0
   35.7470    0.9150    7.1670 C   0  0  0  0  0
   33.8990    2.5790    8.2590 S   0  0  0  0  0
   33.9420    4.0020    8.4390 O   0  0  0  0  0
   33.0650    2.2200    7.0750 O   0  0  0  0  0
   33.1570    1.8500    9.6770 C   0  0  0  0  0
   33.4520    2.3140   10.9400 C   0  0  0  0  0
   32.8430    1.7320   12.0490 C   0  0  0  0  0
   31.9490    0.6780   11.9070 C   0  0  0  0  0
   31.6800    0.2120   10.6400 C   0  0  0  0  0
   32.2680    0.7990    9.5340 C   0  0  0  0  0
   37.6857    8.6084   11.6185 H   0  0  0  0  0
   36.7863    7.4954   12.6784 H   0  0  0  0  0
   38.2844    8.2629   13.2596 H   0  0  0  0  0
   38.6644    5.8996   12.6221 H   0  0  0  0  0
   39.5794    7.0318   11.5440 H   0  0  0  0  0
   37.7923    6.8012    9.8801 H   0  0  0  0  0
   37.0238    5.5485   10.9434 H   0  0  0  0  0
   39.7604    4.8330   10.5415 H   0  0  0  0  0
   39.0894    5.2163    8.9654 H   0  0  0  0  0
   36.1753    4.2019    7.3572 H   0  0  0  0  0
   37.7880    0.9277   11.8132 H   0  0  0  0  0
   35.5859    2.8919    8.6461 H   0  0  0  0  0
   35.1170    0.0415    7.3351 H   0  0  0  0  0
   35.5664    1.3076    6.1663 H   0  0  0  0  0
   36.7953    0.6327    7.2642 H   0  0  0  0  0
   34.1591    3.1332   11.0709 H   0  0  0  0  0
   33.0717    2.1099   13.0455 H   0  0  0  0  0
   31.4717    0.2304   12.7787 H   0  0  0  0  0
   30.9974   -0.6273   10.5070 H   0  0  0  0  0
   32.0281    0.4291    8.5372 H   0  0  0  0  0
  1  2  1  0  0  0
  2  3  1  0  0  0
  3  4  1  0  0  0
  4  5  1  0  0  0
  5  6  1  0  0  0
  5  8  1  0  0  0
  6  7  2  0  0  0
  6 13  1  0  0  0
  8  9  2  0  0  0
  8 10  1  0  0  0
 10 11  1  0  0  0
 11 12  2  0  0  0
 11 13  1  0  0  0
 13 14  1  0  0  0
 14 15  1  0  0  0
 14 16  1  0  0  0
 16 17  2  0  0  0
 16 18  2  0  0  0
 16 19  1  0  0  0
 19 20  4  0  0  0
 19 24  4  0  0  0
 20 21  4  0  0  0
 21 22  4  0  0  0
 22 23  4  0  0  0
 23 24  4  0  0  0
  1 25  1  0  0  0
  1 26  1  0  0  0
  1 27  1  0  0  0
  2 28  1  0  0  0
  2 29  1  0  0  0
  3 30  1  0  0  0
  3 31  1  0  0  0
  4 32  1  0  0  0
  4 33  1  0  0  0
  7 34  1  0  0  0
 10 35  1  0  0  0
 13 36  1  0  0  0
 15 37  1  0  0  0
 15 38  1  0  0  0
 15 39  1  0  0  0
 20 40  1  0  0  0
 21 41  1  0  0  0
 22 42  1  0  0  0
 23 43  1  0  0  0
 24 44  1  0  0  0
M  END
$$$$
