4psh_ligand
  -I-interpret- 

 27 26  0  0  0  0  0  0  0  0999 V2000
   19.1590   14.3200   81.2860 N   0  3  0  0  0
   19.2320   14.8310   79.9200 C   0  0  0  0  0
   18.5390   13.8740   78.9940 C   0  0  0  0  0
   18.2190   12.7170   79.3310 O   0  0  0  0  0
   20.6670   14.9650   79.3860 C   0  0  0  0  0
   21.7110   14.3210   80.2330 C   0  0  0  0  0
   22.6360   13.3000   79.5950 C   0  0  0  0  0
   23.7530   13.8430   78.8370 N   0  0  0  0  0
   24.9760   13.3060   78.7280 C   0  0  0  0  0
   25.3500   12.2110   79.3760 N   0  0  0  0  0
   25.8670   13.9180   77.9430 N   0  0  0  0  0
   18.2960   14.2600   77.8520 O   0  0  0  0  0
   18.1821   14.2577   81.5727 H   0  0  0  0  0
   19.5856   13.3943   81.3247 H   0  0  0  0  0
   19.6585   14.9523   81.9114 H   0  0  0  0  0
   18.7695   15.8175   79.9516 H   0  0  0  0  0
   18.4738   12.5690   80.2447 H   0  0  0  0  0
   20.8958   16.0303   79.3565 H   0  0  0  0  0
   20.6925   14.4656   78.4175 H   0  0  0  0  0
   21.1591   13.7685   80.9934 H   0  0  0  0  0
   22.3622   15.1356   80.5500 H   0  0  0  0  0
   22.0293   12.7354   78.8870 H   0  0  0  0  0
   23.0700   12.7248   80.4128 H   0  0  0  0  0
   23.5891   14.7184   78.3397 H   0  0  0  0  0
   24.6931   11.7348   79.9942 H   0  0  0  0  0
   26.8106   13.5414   77.8526 H   0  0  0  0  0
   25.6037   14.7618   77.4341 H   0  0  0  0  0
  1  2  1  0  0  0
  2  3  1  0  0  0
  2  5  1  0  0  0
  3  4  1  0  0  0
  3 12  2  0  0  0
  5  6  1  0  0  0
  6  7  1  0  0  0
  7  8  1  0  0  0
  8  9  1  0  0  0
  9 10  2  0  0  0
  9 11  1  0  0  0
  1 13  1  0  0  0
  1 14  1  0  0  0
  1 15  1  0  0  0
  2 16  1  0  0  0
  4 17  1  0  0  0
  5 18  1  0  0  0
  5 19  1  0  0  0
  6 20  1  0  0  0
  6 21  1  0  0  0
  7 22  1  0  0  0
  7 23  1  0  0  0
  8 24  1  0  0  0
 10 25  1  0  0  0
 11 26  1  0  0  0
 11 27  1  0  0  0
M  END
$$$$
