3wt7_ligand
  -I-interpret- 

 89 91  0  0  0  0  0  0  0  0999 V2000
    2.1660   -0.6100   59.2180 O   0  0  0  0  0
    2.6420    0.1330   58.1250 C   0  0  0  0  0
    2.8900   -0.9000   57.0220 C   0  0  0  0  0
    1.6270   -1.6020   56.5910 C   0  0  0  0  0
    1.5200    1.1490   57.7860 C   0  0  0  0  0
    1.8510    1.9070   56.5170 C   0  0  0  0  0
    4.0000    0.7880   58.4930 C   0  0  0  0  0
    3.8350    1.7930   59.6350 C   0  0  0  0  0
    4.6220    1.3220   60.8810 C   0  0  0  0  0
    4.0210    1.9570   62.1230 C   0  0  0  0  0
    4.7940    1.5040   63.3630 C   0  0  0  0  0
    4.2700    2.2260   64.5840 C   0  0  0  0  0
    4.1150    3.2310   59.1690 C   0  0  0  0  0
    2.9800    4.0850   59.6700 C   0  0  0  0  0
    5.5140    3.7460   59.5510 C   0  0  0  0  0
    6.6350    2.9210   58.8600 C   0  0  0  0  0
    7.7720    3.9010   58.5090 C   0  0  0  0  0
    5.8360    5.2000   59.1790 C   0  0  0  0  0
    7.3510    5.2190   59.2210 C   0  0  0  0  0
    5.3150    5.5060   57.7410 C   0  0  0  0  0
    5.3850    6.2630   60.1380 C   0  0  0  0  0
    5.7940    7.6450   59.6290 C   0  0  0  0  0
    7.2870    7.7650   59.3680 C   0  0  0  0  0
    7.8450    6.5080   58.6690 C   0  0  0  0  0
    8.7080    6.5390   57.6400 C   0  0  0  0  0
    9.1480    7.8080   57.0790 C   0  0  0  0  0
    9.7890    7.9100   55.8970 C   0  0  0  0  0
   10.1540    9.2750   55.3500 C   0  0  0  0  0
   10.1440    6.6520   55.1240 C   0  0  0  0  0
   11.5280    6.7300   54.4810 C   0  0  0  0  0
   11.7030    5.6130   53.5320 O   0  0  0  0  0
   11.6890    8.0620   53.8350 C   0  0  0  0  0
   11.9930    8.1260   52.5740 C   0  0  0  0  0
   11.5080    9.3130   54.6480 C   0  0  0  0  0
   12.5950    9.4290   55.5920 O   0  0  0  0  0
    1.3261   -1.0139   58.9875 H   0  0  0  0  0
    3.5747   -1.6519   57.4142 H   0  0  0  0  0
    3.2948   -0.3759   56.1562 H   0  0  0  0  0
    1.1918   -2.1210   57.4450 H   0  0  0  0  0
    0.9169   -0.8681   56.2098 H   0  0  0  0  0
    1.8625   -2.3225   55.8077 H   0  0  0  0  0
    1.4276    1.8596   58.6074 H   0  0  0  0  0
    0.5858    0.6069   57.6396 H   0  0  0  0  0
    2.7879    2.4474   56.6520 H   0  0  0  0  0
    1.9518    1.2033   55.6908 H   0  0  0  0  0
    1.0506    2.6139   56.2983 H   0  0  0  0  0
    4.3823    1.3138   57.6180 H   0  0  0  0  0
    4.6891    0.0064   58.8129 H   0  0  0  0  0
    2.7931    1.8267   59.9535 H   0  0  0  0  0
    5.6663    1.6200   60.7874 H   0  0  0  0  0
    4.5634    0.2365   60.9611 H   0  0  0  0  0
    2.9791    1.6505   62.2161 H   0  0  0  0  0
    4.0808    3.0420   62.0377 H   0  0  0  0  0
    5.8513    1.7350   63.2334 H   0  0  0  0  0
    4.6651    0.4299   63.4960 H   0  0  0  0  0
    4.3969    3.3005   64.4515 H   0  0  0  0  0
    3.2123    1.9970   64.7138 H   0  0  0  0  0
    4.8245    1.8991   65.4637 H   0  0  0  0  0
    4.1478    3.2726   58.0803 H   0  0  0  0  0
    2.0412    3.7203   59.2532 H   0  0  0  0  0
    2.9406    4.0328   60.7580 H   0  0  0  0  0
    3.1398    5.1177   59.3600 H   0  0  0  0  0
    5.4883    3.6512   60.6366 H   0  0  0  0  0
    6.2555    2.4356   57.9609 H   0  0  0  0  0
    6.9969    2.1348   59.5226 H   0  0  0  0  0
    7.8952    4.0289   57.4336 H   0  0  0  0  0
    8.7476    3.5428   58.8375 H   0  0  0  0  0
    7.8091    5.2104   60.2100 H   0  0  0  0  0
    5.7991    4.8361   57.0304 H   0  0  0  0  0
    4.2360    5.3554   57.7072 H   0  0  0  0  0
    5.5471    6.5395   57.4841 H   0  0  0  0  0
    5.8514    6.0886   61.1076 H   0  0  0  0  0
    4.2994    6.2238   60.2278 H   0  0  0  0  0
    5.5320    8.3724   60.3973 H   0  0  0  0  0
    5.2773    7.8171   58.6848 H   0  0  0  0  0
    7.7954    7.8807   60.3252 H   0  0  0  0  0
    7.4547    8.6234   58.7176 H   0  0  0  0  0
    9.0823    5.6049   57.2211 H   0  0  0  0  0
    8.9497    8.7202   57.6417 H   0  0  0  0  0
   10.2059    9.9613   56.1952 H   0  0  0  0  0
    9.3973    9.5435   54.6129 H   0  0  0  0  0
    9.4101    6.5287   54.3276 H   0  0  0  0  0
   10.1455    5.8167   55.8242 H   0  0  0  0  0
   12.3087    6.6303   55.2351 H   0  0  0  0  0
   12.5739    5.6680   53.1319 H   0  0  0  0  0
   12.1279    7.2100   51.9987 H   0  0  0  0  0
   12.1133    9.0957   52.0909 H   0  0  0  0  0
   11.5243   10.1903   54.0013 H   0  0  0  0  0
   13.4290    9.4500   55.1170 H   0  0  0  0  0
  1  2  1  0  0  0
  2  3  1  0  0  0
  2  5  1  0  0  0
  2  7  1  0  0  0
  3  4  1  0  0  0
  5  6  1  0  0  0
  7  8  1  0  0  0
  8  9  1  0  0  0
  8 13  1  0  0  0
  9 10  1  0  0  0
 10 11  1  0  0  0
 11 12  1  0  0  0
 13 14  1  0  0  0
 13 15  1  0  0  0
 15 16  1  0  0  0
 15 18  1  0  0  0
 16 17  1  0  0  0
 17 19  1  0  0  0
 18 19  1  0  0  0
 18 20  1  0  0  0
 18 21  1  0  0  0
 19 24  1  0  0  0
 21 22  1  0  0  0
 22 23  1  0  0  0
 23 24  1  0  0  0
 24 25  2  0  0  0
 25 26  1  0  0  0
 26 27  2  0  0  0
 27 28  1  0  0  0
 27 29  1  0  0  0
 28 34  1  0  0  0
 29 30  1  0  0  0
 30 31  1  0  0  0
 30 32  1  0  0  0
 32 33  2  0  0  0
 32 34  1  0  0  0
 34 35  1  0  0  0
  1 36  1  0  0  0
  3 37  1  0  0  0
  3 38  1  0  0  0
  4 39  1  0  0  0
  4 40  1  0  0  0
  4 41  1  0  0  0
  5 42  1  0  0  0
  5 43  1  0  0  0
  6 44  1  0  0  0
  6 45  1  0  0  0
  6 46  1  0  0  0
  7 47  1  0  0  0
  7 48  1  0  0  0
  8 49  1  0  0  0
  9 50  1  0  0  0
  9 51  1  0  0  0
 10 52  1  0  0  0
 10 53  1  0  0  0
 11 54  1  0  0  0
 11 55  1  0  0  0
 12 56  1  0  0  0
 12 57  1  0  0  0
 12 58  1  0  0  0
 13 59  1  0  0  0
 14 60  1  0  0  0
 14 61  1  0  0  0
 14 62  1  0  0  0
 15 63  1  0  0  0
 16 64  1  0  0  0
 16 65  1  0  0  0
 17 66  1  0  0  0
 17 67  1  0  0  0
 19 68  1  0  0  0
 20 69  1  0  0  0
 20 70  1  0  0  0
 20 71  1  0  0  0
 21 72  1  0  0  0
 21 73  1  0  0  0
 22 74  1  0  0  0
 22 75  1  0  0  0
 23 76  1  0  0  0
 23 77  1  0  0  0
 25 78  1  0  0  0
 26 79  1  0  0  0
 28 80  1  0  0  0
 28 81  1  0  0  0
 29 82  1  0  0  0
 29 83  1  0  0  0
 30 84  1  0  0  0
 31 85  1  0  0  0
 33 86  1  0  0  0
 33 87  1  0  0  0
 34 88  1  0  0  0
 35 89  1  0  0  0
M  END
$$$$
