1uye_ligand
  -I-interpret- 

 50 52  0  0  0  0  0  0  0  0999 V2000
    2.2560   13.9900   24.2570 Cl  0  0  0  0  0
    3.8690   13.2630   24.2860 C   0  0  0  0  0
    4.9460   13.9470   24.8770 C   0  0  0  0  0
    4.9810   15.2210   25.5140 O   0  0  0  0  0
    5.1590   16.5150   25.7010 C   0  0  0  0  0
    6.2210   13.4310   24.8810 C   0  0  0  0  0
    7.2220   14.2270   25.5350 O   0  0  0  0  0
    8.3290   14.8030   24.7850 C   0  0  0  0  0
    6.4930   12.2180   24.2920 C   0  0  0  0  0
    7.8040   11.7830   24.3480 O   0  0  0  0  0
    8.2840   10.6560   23.5810 C   0  0  0  0  0
    5.4480   11.5030   23.6890 C   0  0  0  0  0
    4.1290   12.0070   23.6840 C   0  0  0  0  0
    3.0450   11.1730   22.9810 C   0  0  0  0  0
    1.8530   10.8790   23.8830 C   0  0  0  0  0
    0.6050   11.3020   23.6430 N   0  0  0  0  0
   -0.1510   10.8810   24.6540 C   0  0  0  0  0
   -1.4770   10.9720   24.9820 C   0  0  0  0  0
   -2.4380   11.6520   24.1500 N   0  0  0  0  0
    0.6680   10.2330   25.5240 C   0  0  0  0  0
    0.2850    9.6600   26.6660 N   0  0  0  0  0
   -1.0230    9.7970   26.9490 C   0  0  0  0  0
   -1.8770   10.4420   26.1350 N   0  0  0  0  0
    1.9020   10.2070   25.0690 N   0  0  0  0  0
    3.0610    9.5780   25.7040 C   0  0  0  0  0
    3.0370    8.0610   25.4890 C   0  0  0  0  0
    3.1550    7.7060   24.0130 C   0  0  0  0  0
    4.5690    7.8510   23.4340 C   0  0  0  0  0
    5.6920    7.9600   23.0730 C   0  0  0  0  0
    6.2052   16.7656   25.5255 H   0  0  0  0  0
    4.5293   17.0712   25.0065 H   0  0  0  0  0
    4.8890   16.7734   26.7249 H   0  0  0  0  0
    8.9045   14.0038   24.3179 H   0  0  0  0  0
    7.9376   15.4683   24.0154 H   0  0  0  0  0
    8.9707   15.3666   25.4622 H   0  0  0  0  0
    7.7249    9.7631   23.8608 H   0  0  0  0  0
    8.1446   10.8554   22.5185 H   0  0  0  0  0
    9.3432   10.5024   23.7873 H   0  0  0  0  0
    5.6573   10.5432   23.2168 H   0  0  0  0  0
    3.4897   10.2205   22.6926 H   0  0  0  0  0
    2.6848   11.7447   22.1257 H   0  0  0  0  0
   -2.1390   12.0893   23.2784 H   0  0  0  0  0
   -3.4170   11.6958   24.4329 H   0  0  0  0  0
   -1.4058    9.3680   27.8751 H   0  0  0  0  0
    3.0321    9.7834   26.7741 H   0  0  0  0  0
    3.9702    9.9832   25.2598 H   0  0  0  0  0
    2.0893    7.6737   25.8631 H   0  0  0  0  0
    3.8832    7.6233   26.0186 H   0  0  0  0  0
    2.5142    8.3980   23.4665 H   0  0  0  0  0
    2.8761    6.6569   23.9141 H   0  0  0  0  0
  1  2  1  0  0  0
  2  3  4  0  0  0
  2 13  4  0  0  0
  3  4  1  0  0  0
  3  6  4  0  0  0
  4  5  1  0  0  0
  6  7  1  0  0  0
  6  9  4  0  0  0
  7  8  1  0  0  0
  9 10  1  0  0  0
  9 12  4  0  0  0
 10 11  1  0  0  0
 12 13  4  0  0  0
 13 14  1  0  0  0
 14 15  1  0  0  0
 15 16  4  0  0  0
 15 24  4  0  0  0
 16 17  4  0  0  0
 17 18  4  0  0  0
 17 20  4  0  0  0
 18 19  1  0  0  0
 18 23  4  0  0  0
 20 21  4  0  0  0
 20 24  4  0  0  0
 21 22  4  0  0  0
 22 23  4  0  0  0
 24 25  1  0  0  0
 25 26  1  0  0  0
 26 27  1  0  0  0
 27 28  1  0  0  0
 28 29  3  0  0  0
  5 30  1  0  0  0
  5 31  1  0  0  0
  5 32  1  0  0  0
  8 33  1  0  0  0
  8 34  1  0  0  0
  8 35  1  0  0  0
 11 36  1  0  0  0
 11 37  1  0  0  0
 11 38  1  0  0  0
 12 39  1  0  0  0
 14 40  1  0  0  0
 14 41  1  0  0  0
 19 42  1  0  0  0
 19 43  1  0  0  0
 22 44  1  0  0  0
 25 45  1  0  0  0
 25 46  1  0  0  0
 26 47  1  0  0  0
 26 48  1  0  0  0
 27 49  1  0  0  0
 27 50  1  0  0  0
M  END
$$$$
