3lvp_ligand
  -I-interpret- 

 38 41  0  0  0  0  0  0  0  0999 V2000
    1.4650   57.3500   16.7910 Cl  0  0  0  0  0
    2.6170   52.6810   12.7820 C   0  0  0  0  0
    2.8760   51.6660   11.8810 C   0  0  0  0  0
    2.8050   50.3280   12.3290 C   0  0  0  0  0
    2.4670   50.0280   13.6850 C   0  0  0  0  0
    2.2110   51.1220   14.5690 C   0  0  0  0  0
    2.2810   52.4260   14.1310 N   0  0  0  0  0
    2.7360   53.9290   12.1410 C   0  0  0  0  0
    3.0870   53.5760   10.8140 C   0  0  0  0  0
    3.1740   52.1930   10.6550 N   0  0  0  0  0
    2.1370   56.9050   14.1150 C   0  0  0  0  0
    2.4390   57.4250   12.8440 C   0  0  0  0  0
    2.6990   56.4140   11.9500 N   0  0  0  0  0
    2.5380   55.2900   12.7450 C   0  0  0  0  0
    2.1840   55.5020   14.1150 C   0  0  0  0  0
    1.8730   59.2820   14.8710 C   0  0  0  0  0
    2.1940   59.6820   13.5320 C   0  0  0  0  0
    2.4680   58.7870   12.5480 N   0  0  0  0  0
    1.8460   57.8830   15.1640 C   0  0  0  0  0
    3.5150   51.4620    9.4160 C   0  0  0  0  0
    1.8810   50.8380   15.9130 O   0  0  0  0  0
    1.3220   51.9500   16.6210 C   0  0  0  0  0
    2.3800   48.7270   14.1920 O   0  0  0  0  0
    1.5400   47.7920   13.4990 C   0  0  0  0  0
    3.0104   49.5151   11.6325 H   0  0  0  0  0
    3.2668   54.2965   10.0161 H   0  0  0  0  0
    2.0045   54.7877   14.9185 H   0  0  0  0  0
    1.6563   60.0217   15.6417 H   0  0  0  0  0
    2.2191   60.7456   13.2947 H   0  0  0  0  0
    4.4105   50.8636    9.5835 H   0  0  0  0  0
    2.6865   50.8093    9.1411 H   0  0  0  0  0
    3.6985   52.1761    8.6132 H   0  0  0  0  0
    2.0394   52.7705   16.6309 H   0  0  0  0  0
    0.4066   52.2720   16.1246 H   0  0  0  0  0
    1.0960   51.6509   17.6445 H   0  0  0  0  0
    0.5154   48.1637   13.4896 H   0  0  0  0  0
    1.8952   47.6760   12.4750 H   0  0  0  0  0
    1.5738   46.8287   14.0079 H   0  0  0  0  0
 19  1  1  0  0  0
  2  3  4  0  0  0
  2  7  4  0  0  0
  8  2  4  0  0  0
  3  4  4  0  0  0
 10  3  4  0  0  0
  4  5  4  0  0  0
  6  5  4  0  0  0
  5 23  1  0  0  0
  7  6  4  0  0  0
  6 21  1  0  0  0
  8  9  4  0  0  0
 14  8  1  0  0  0
  9 10  4  0  0  0
 10 20  1  0  0  0
 11 12  4  0  0  0
 11 15  4  0  0  0
 19 11  4  0  0  0
 12 13  4  0  0  0
 12 18  4  0  0  0
 14 13  4  0  0  0
 15 14  4  0  0  0
 16 17  4  0  0  0
 16 19  4  0  0  0
 17 18  4  0  0  0
 21 22  1  0  0  0
 23 24  1  0  0  0
  4 25  1  0  0  0
  9 26  1  0  0  0
 15 27  1  0  0  0
 16 28  1  0  0  0
 17 29  1  0  0  0
 20 30  1  0  0  0
 20 31  1  0  0  0
 20 32  1  0  0  0
 22 33  1  0  0  0
 22 34  1  0  0  0
 22 35  1  0  0  0
 24 36  1  0  0  0
 24 37  1  0  0  0
 24 38  1  0  0  0
M  END
$$$$
