7hvp_ligand
  -I-interpret- 

130131  0  0  0  0  0  0  0  0999 V2000
    1.8900    6.1930    5.0320 C   0  0  0  0  0
    1.9330    5.1170    4.3950 O   0  0  0  0  0
    2.4200    7.5110    4.5260 C   0  0  0  0  0
    1.0850    6.0030    6.1060 N   0  0  0  0  0
    1.7030    5.7550    7.3760 C   0  0  0  0  0
    2.5360    4.5050    7.5630 C   0  0  0  0  0
    2.5860    3.5320    6.7940 O   0  0  0  0  0
    0.7460    5.8670    8.5450 C   0  0  0  0  0
    0.1500    7.1780    8.4830 O   0  0  0  0  0
    3.1770    4.6710    8.7260 N   0  0  0  0  0
    4.0830    3.6220    9.2140 C   0  0  0  0  0
    3.5330    3.2510   10.5710 C   0  0  0  0  0
    3.1160    4.1120   11.3100 O   0  0  0  0  0
    5.4450    4.2020    8.9740 C   0  0  0  0  0
    6.2150    4.0280    7.6840 C   0  0  0  0  0
    5.4030    3.6960    6.4770 C   0  0  0  0  0
    6.9000    5.3890    7.4620 C   0  0  0  0  0
    3.5060    1.9680   10.8460 N   0  0  0  0  0
    2.9800    1.3330   12.0640 C   0  0  0  0  0
    3.8620    0.1310   12.4520 C   0  0  0  0  0
    3.8420   -0.9570   11.8670 O   0  0  0  0  0
    1.5090    0.9180   11.9080 C   0  0  0  0  0
    0.6970    2.0820   11.3510 C   0  0  0  0  0
    0.4850    2.0330   10.1290 O   0  0  0  0  0
    0.3730    3.0610   12.1970 N   0  0  0  0  0
    4.6270    0.4750   13.4820 N   0  0  0  0  0
    5.6090   -0.3730   14.1650 C   0  0  0  0  0
    5.0400   -1.0900   15.3970 C   0  0  0  0  0
    4.8670   -0.0360   16.3930 O   0  0  0  0  0
    6.8300    0.5450   14.3650 C   0  0  0  0  0
    7.4270    0.7800   12.9640 C   0  0  0  0  0
    7.8070   -0.3190   12.1930 C   0  0  0  0  0
    7.6290    2.0510   12.4430 C   0  0  0  0  0
    8.3210   -0.1260   10.9420 C   0  0  0  0  0
    8.1910    2.2740   11.2040 C   0  0  0  0  0
    8.5030    1.1740   10.4430 C   0  0  0  0  0
    3.6670   -1.7210   15.0170 C   0  0  0  0  0
    3.0130   -2.9590   15.6070 N   0  3  0  0  0
    4.0320   -3.6730   16.4450 C   0  0  0  0  0
    5.3640   -4.1290   15.8560 C   0  0  0  0  0
    5.7260   -4.0200   14.6580 O   0  0  0  0  0
    3.0600   -4.8450   16.8340 C   0  0  0  0  0
    2.4080   -5.2020   15.5400 C   0  0  0  0  0
    2.3930   -3.9340   14.6930 C   0  0  0  0  0
    6.1730   -4.6260   16.7760 N   0  0  0  0  0
    7.4640   -5.2520   16.6960 C   0  0  0  0  0
    7.1170   -6.5180   17.5770 C   0  0  0  0  0
    6.6910   -6.3260   18.7100 O   0  0  0  0  0
    8.8620   -4.7610   17.1550 C   0  0  0  0  0
    9.3560   -3.4290   16.5960 C   0  0  0  0  0
    9.8760   -5.9420   16.8790 C   0  0  0  0  0
    9.2870   -3.1030   15.1110 C   0  0  0  0  0
    7.2880   -7.6670   16.9590 N   0  0  0  0  0
    6.9170   -8.8700   17.7320 C   0  0  0  0  0
    7.8460  -10.0170   17.4840 C   0  0  0  0  0
    8.4950  -10.3760   16.3200 O   0  0  0  0  0
    5.3920   -9.0430   17.4230 C   0  0  0  0  0
    5.1440  -10.3010   16.6130 C   0  0  0  0  0
    4.6400   -8.8680   18.7170 C   0  0  0  0  0
    9.4200  -10.2930   19.4970 C   0  0  0  0  0
    8.3170  -10.8830   18.5900 O   0  0  0  0  0
    3.4877    7.4194    4.3268 H   0  0  0  0  0
    1.8996    7.7818    3.6073 H   0  0  0  0  0
    2.2544    8.2811    5.2794 H   0  0  0  0  0
    0.0697    6.0355    6.0135 H   0  0  0  0  0
    2.4254    6.5711    7.3625 H   0  0  0  0  0
    1.2743    5.7295    9.4884 H   0  0  0  0  0
   -0.0202    5.0937    8.4896 H   0  0  0  0  0
   -0.4649    7.2836    9.2127 H   0  0  0  0  0
    3.0373    5.5217    9.2711 H   0  0  0  0  0
    4.1662    2.6404    8.7476 H   0  0  0  0  0
    6.0646    3.6751    9.6996 H   0  0  0  0  0
    5.2603    5.2758    9.0037 H   0  0  0  0  0
    6.8839    3.1744    7.7941 H   0  0  0  0  0
    4.8741    2.7576    6.6434 H   0  0  0  0  0
    4.6824    4.4933    6.2949 H   0  0  0  0  0
    6.0614    3.5954    5.6142 H   0  0  0  0  0
    6.1413    6.1676    7.3828 H   0  0  0  0  0
    7.5576    5.6050    8.3041 H   0  0  0  0  0
    7.4844    5.3545    6.5425 H   0  0  0  0  0
    3.8918    1.3432   10.1380 H   0  0  0  0  0
    3.0124    2.0675   12.8687 H   0  0  0  0  0
    1.1102    0.6354   12.8823 H   0  0  0  0  0
    1.4447    0.0740   11.2213 H   0  0  0  0  0
   -0.1077    3.8929   11.8544 H   0  0  0  0  0
    0.6059    2.9778   13.1866 H   0  0  0  0  0
    4.5204    1.4265   13.8338 H   0  0  0  0  0
    5.9151   -1.2461   13.5887 H   0  0  0  0  0
    5.6812   -1.8892   15.7687 H   0  0  0  0  0
    4.5103   -0.4150   17.1997 H   0  0  0  0  0
    7.5608    0.0865   15.0312 H   0  0  0  0  0
    6.5407    1.4868   14.8314 H   0  0  0  0  0
    7.6941   -1.3287   12.5877 H   0  0  0  0  0
    7.3296    2.9118   13.0409 H   0  0  0  0  0
    8.5912   -0.9853   10.3282 H   0  0  0  0  0
    8.3805    3.2846   10.8422 H   0  0  0  0  0
    8.8979    1.3122    9.4365 H   0  0  0  0  0
    3.8633   -2.0528   13.9975 H   0  0  0  0  0
    2.9794   -0.9425   15.3474 H   0  0  0  0  0
    2.2181   -2.5864   16.1264 H   0  0  0  0  0
    4.4976   -3.0500   17.2087 H   0  0  0  0  0
    2.3394   -4.5535   17.5981 H   0  0  0  0  0
    3.5827   -5.6886   17.2848 H   0  0  0  0  0
    2.9547   -5.9993   15.0364 H   0  0  0  0  0
    1.3958   -5.5718   15.7039 H   0  0  0  0  0
    2.9203   -4.0379   13.7447 H   0  0  0  0  0
    1.3962   -3.6452   14.3596 H   0  0  0  0  0
    5.8107   -4.5505   17.7265 H   0  0  0  0  0
    7.7164   -5.1953   15.6371 H   0  0  0  0  0
    8.7813   -4.5189   18.2147 H   0  0  0  0  0
   10.4255   -3.4437   16.8059 H   0  0  0  0  0
    8.6886   -2.6968   17.0505 H   0  0  0  0  0
    9.5698   -6.8218   17.4449 H   0  0  0  0  0
    9.8783   -6.1759   15.8144 H   0  0  0  0  0
   10.8766   -5.6397   17.1880 H   0  0  0  0  0
    9.8712   -3.8342   14.5523 H   0  0  0  0  0
    8.2488   -3.1366   14.7808 H   0  0  0  0  0
    9.6918   -2.1055   14.9401 H   0  0  0  0  0
    7.6529   -7.7234   16.0082 H   0  0  0  0  0
    7.0416   -8.7938   18.8122 H   0  0  0  0  0
    4.9954   -8.2755   16.7584 H   0  0  0  0  0
    5.6884  -10.2381   15.6708 H   0  0  0  0  0
    5.4889  -11.1681   17.1762 H   0  0  0  0  0
    4.0771  -10.3977   16.4119 H   0  0  0  0  0
    4.9703   -9.6211   19.4324 H   0  0  0  0  0
    4.8358   -7.8735   19.1179 H   0  0  0  0  0
    3.5718   -8.9833   18.5334 H   0  0  0  0  0
   10.3006  -10.0668   18.8958 H   0  0  0  0  0
    9.0536   -9.3794   19.9651 H   0  0  0  0  0
    9.6812  -11.0181   20.2678 H   0  0  0  0  0
  1  2  2  0  0  0
  1  3  1  0  0  0
  5  4  1  0  0  0
  5  8  1  0  0  0
  6  5  1  0  0  0
  6  7  2  0  0  0
  8  9  1  0  0  0
  4  1  1  0  0  0
 11 10  1  0  0  0
 11 14  1  0  0  0
 12 11  1  0  0  0
 12 13  2  0  0  0
 14 15  1  0  0  0
 15 16  1  0  0  0
 15 17  1  0  0  0
 10  6  1  0  0  0
 19 18  1  0  0  0
 19 22  1  0  0  0
 20 19  1  0  0  0
 20 21  2  0  0  0
 22 23  1  0  0  0
 23 25  1  0  0  0
 23 24  2  0  0  0
 18 12  1  0  0  0
 27 26  1  0  0  0
 27 30  1  0  0  0
 28 27  1  0  0  0
 28 29  1  0  0  0
 30 31  1  0  0  0
 31 32  4  0  0  0
 31 33  4  0  0  0
 33 35  4  0  0  0
 35 36  4  0  0  0
 34 36  4  0  0  0
 32 34  4  0  0  0
 26 20  1  0  0  0
 40 39  1  0  0  0
 39 42  1  0  0  0
 39 38  1  0  0  0
 38 44  1  0  0  0
 44 43  1  0  0  0
 42 43  1  0  0  0
 40 41  2  0  0  0
 46 45  1  0  0  0
 46 49  1  0  0  0
 47 46  1  0  0  0
 47 48  2  0  0  0
 49 51  1  0  0  0
 49 50  1  0  0  0
 50 52  1  0  0  0
 45 40  1  0  0  0
 54 53  1  0  0  0
 54 57  1  0  0  0
 55 54  1  0  0  0
 55 56  2  0  0  0
 57 59  1  0  0  0
 57 58  1  0  0  0
 53 47  1  0  0  0
 37 28  1  0  0  0
 38 37  1  0  0  0
 61 60  1  0  0  0
 61 55  1  0  0  0
  3 62  1  0  0  0
  3 63  1  0  0  0
  3 64  1  0  0  0
  4 65  1  0  0  0
  5 66  1  0  0  0
  8 67  1  0  0  0
  8 68  1  0  0  0
  9 69  1  0  0  0
 10 70  1  0  0  0
 11 71  1  0  0  0
 14 72  1  0  0  0
 14 73  1  0  0  0
 15 74  1  0  0  0
 16 75  1  0  0  0
 16 76  1  0  0  0
 16 77  1  0  0  0
 17 78  1  0  0  0
 17 79  1  0  0  0
 17 80  1  0  0  0
 18 81  1  0  0  0
 19 82  1  0  0  0
 22 83  1  0  0  0
 22 84  1  0  0  0
 25 85  1  0  0  0
 25 86  1  0  0  0
 26 87  1  0  0  0
 27 88  1  0  0  0
 28 89  1  0  0  0
 29 90  1  0  0  0
 30 91  1  0  0  0
 30 92  1  0  0  0
 32 93  1  0  0  0
 33 94  1  0  0  0
 34 95  1  0  0  0
 35 96  1  0  0  0
 36 97  1  0  0  0
 37 98  1  0  0  0
 37 99  1  0  0  0
 38100  1  0  0  0
 39101  1  0  0  0
 42102  1  0  0  0
 42103  1  0  0  0
 43104  1  0  0  0
 43105  1  0  0  0
 44106  1  0  0  0
 44107  1  0  0  0
 45108  1  0  0  0
 46109  1  0  0  0
 49110  1  0  0  0
 50111  1  0  0  0
 50112  1  0  0  0
 51113  1  0  0  0
 51114  1  0  0  0
 51115  1  0  0  0
 52116  1  0  0  0
 52117  1  0  0  0
 52118  1  0  0  0
 53119  1  0  0  0
 54120  1  0  0  0
 57121  1  0  0  0
 58122  1  0  0  0
 58123  1  0  0  0
 58124  1  0  0  0
 59125  1  0  0  0
 59126  1  0  0  0
 59127  1  0  0  0
 60128  1  0  0  0
 60129  1  0  0  0
 60130  1  0  0  0
M  END
$$$$
