### 
### Created by X-TOOL on Mon Sep 10 21:12:44 2018
### 

@<TRIPOS>MOLECULE
7hvp_ligand
  130   131     1     0     0
SMALL
GAST_HUCK


@<TRIPOS>ATOM
      1 C           1.8900    6.1930    5.0320 C.2       1 ACE         0.1752
      2 O           1.9330    5.1170    4.3950 O.2       1 ACE        -0.3972
      3 CH3         2.4200    7.5110    4.5260 C.3       1 ACE         0.0258
      4 N           1.0850    6.0030    6.1060 N.am      1 SER        -0.2637
      5 CA          1.7030    5.7550    7.3760 C.3       1 SER         0.1538
      6 C           2.5360    4.5050    7.5630 C.2       1 SER         0.2062
      7 O           2.5860    3.5320    6.7940 O.2       1 SER        -0.3943
      8 CB          0.7460    5.8670    8.5450 C.3       1 SER         0.0843
      9 OG          0.1500    7.1780    8.4830 O.3       1 SER        -0.3903
     10 N           3.1770    4.6710    8.7260 N.am      1 LEU        -0.2636
     11 CA          4.0830    3.6220    9.2140 C.3       1 LEU         0.1312
     12 C           3.5330    3.2510   10.5710 C.2       1 LEU         0.2040
     13 O           3.1160    4.1120   11.3100 O.2       1 LEU        -0.3944
     14 CB          5.4450    4.2020    8.9740 C.3       1 LEU        -0.0101
     15 CG          6.2150    4.0280    7.6840 C.3       1 LEU        -0.0425
     16 CD1         5.4030    3.6960    6.4770 C.3       1 LEU        -0.0625
     17 CD2         6.9000    5.3890    7.4620 C.3       1 LEU        -0.0625
     18 N           3.5060    1.9680   10.8460 N.am      1 ASN        -0.2616
     19 CA          2.9800    1.3330   12.0640 C.3       1 ASN         0.1474
     20 C           3.8620    0.1310   12.4520 C.2       1 ASN         0.2045
     21 O           3.8420   -0.9570   11.8670 O.2       1 ASN        -0.3943
     22 CB          1.5090    0.9180   11.9080 C.3       1 ASN         0.0773
     23 CG          0.6970    2.0820   11.3510 C.2       1 ASN         0.1780
     24 OD1         0.4850    2.0330   10.1290 O.2       1 ASN        -0.3970
     25 ND2         0.3730    3.0610   12.1970 N.am      1 ASN        -0.3007
     26 N           4.6270    0.4750   13.4820 N.am      1 JG3        -0.2772
     27 CA          5.6090   -0.3730   14.1650 C.3       1 JG3         0.0823
     28 C           5.0400   -1.0900   15.3970 C.3       1 JG3         0.1194
     29 O           4.8670   -0.0360   16.3930 O.3       1 JG3        -0.3840
     30 CB          6.8300    0.5450   14.3650 C.3       1 JG3         0.0066
     31 CG          7.4270    0.7800   12.9640 C.ar      1 JG3        -0.0408
     32 CD1         7.8070   -0.3190   12.1930 C.ar      1 JG3        -0.0603
     33 CD2         7.6290    2.0510   12.4430 C.ar      1 JG3        -0.0603
     34 CE1         8.3210   -0.1260   10.9420 C.ar      1 JG3        -0.0686
     35 CE2         8.1910    2.2740   11.2040 C.ar      1 JG3        -0.0686
     36 CZ          8.5030    1.1740   10.4430 C.ar      1 JG3        -0.0687
     37 C           3.6670   -1.7210   15.0170 C.3       1 JG3        -0.0008
     38 N           3.0130   -2.9590   15.6070 N.4       1 JG3         0.2560
     39 CA          4.0320   -3.6730   16.4450 C.3       1 JG3         0.0689
     40 C           5.3640   -4.1290   15.8560 C.2       1 JG3         0.2269
     41 O           5.7260   -4.0200   14.6580 O.2       1 JG3        -0.3907
     42 CB          3.0600   -4.8450   16.8340 C.3       1 JG3         0.0128
     43 CG          2.4080   -5.2020   15.5400 C.3       1 JG3        -0.0052
     44 CD          2.3930   -3.9340   14.6930 C.3       1 JG3        -0.0294
     45 N           6.1730   -4.6260   16.7760 N.am      1 ILE        -0.2608
     46 CA          7.4640   -5.2520   16.6960 C.3       1 ILE         0.1336
     47 C           7.1170   -6.5180   17.5770 C.2       1 ILE         0.2043
     48 O           6.6910   -6.3260   18.7100 O.2       1 ILE        -0.3944
     49 CB          8.8620   -4.7610   17.1550 C.3       1 ILE        -0.0037
     50 CG1         9.3560   -3.4290   16.5960 C.3       1 ILE        -0.0491
     51 CG2         9.8760   -5.9420   16.8790 C.3       1 ILE        -0.0582
     52 CD1         9.2870   -3.1030   15.1110 C.3       1 ILE        -0.0648
     53 N           7.2880   -7.6670   16.9590 N.am      1 VME        -0.2621
     54 CA          6.9170   -8.8700   17.7320 C.3       1 VME         0.1445
     55 C           7.8460  -10.0170   17.4840 C.2       1 VME         0.2596
     56 O           8.4950  -10.3760   16.3200 O.2       1 VME        -0.3678
     57 CB          5.3920   -9.0430   17.4230 C.3       1 VME        -0.0049
     58 CG1         5.1440  -10.3010   16.6130 C.3       1 VME        -0.0583
     59 CG2         4.6400   -8.8680   18.7170 C.3       1 VME        -0.0583
     60 CM          9.4200  -10.2930   19.4970 C.3       1 VME         0.0658
     61 O           8.3170  -10.8830   18.5900 O.3       1 VME        -0.2784
     62 H1          2.2535    8.2890    5.2856 H         1 ACE         0.0467
     63 H2          1.8955    7.7855    3.5989 H         1 ACE         0.0467
     64 H3          3.4975    7.4199    4.3246 H         1 ACE         0.0467
     65 H4          0.0896    6.0348    6.0153 H         1 SER         0.1883
     66 H5          2.4151    6.5859    7.4878 H         1 SER         0.0823
     67 H6          1.2920    5.7456    9.4922 H         1 SER         0.0606
     68 H7         -0.0335    5.0946    8.4694 H         1 SER         0.0606
     69 H8         -0.4585    7.2825    9.2051 H         1 SER         0.2097
     70 H9          3.0401    5.5050    9.2605 H         1 LEU         0.1883
     71 H10         4.0101    2.7189    8.5902 H         1 LEU         0.0800
     72 H11         6.0894    3.7915    9.7654 H         1 LEU         0.0315
     73 H12         5.3376    5.2876    9.1149 H         1 LEU         0.0315
     74 H13         6.9665    3.2363    7.8197 H         1 LEU         0.0298
     75 H14         6.0664    3.5942    5.6055 H         1 LEU         0.0232
     76 H15         4.6754    4.5000    6.2920 H         1 LEU         0.0232
     77 H16         4.8687    2.7490    6.6436 H         1 LEU         0.0232
     78 H17         7.5023    5.6449    8.3462 H         1 LEU         0.0232
     79 H18         6.1348    6.1631    7.3031 H         1 LEU         0.0232
     80 H19         7.5524    5.3314    6.5782 H         1 LEU         0.0232
     81 H20         3.8842    1.3555   10.1519 H         1 ASN         0.1885
     82 H21         3.0328    2.0703   12.8786 H         1 ASN         0.0826
     83 H22         1.1056    0.6289   12.8897 H         1 ASN         0.0551
     84 H23         1.4423    0.0638   11.2181 H         1 ASN         0.0551
     85 H24        -0.1589    3.8443   11.8752 H         1 ASN         0.1814
     86 H25         0.6620    3.0117   13.1531 H         1 ASN         0.1814
     87 H26         4.5225    1.4078   13.8269 H         1 JG3         0.1857
     88 H27         5.9123   -1.1725   13.4731 H         1 JG3         0.0606
     89 H28         5.7271   -1.8676   15.7619 H         1 JG3         0.0672
     90 H29         4.2669    0.6197   16.0576 H         1 JG3         0.2101
     91 H30         7.5698    0.0585   15.0177 H         1 JG3         0.0449
     92 H31         6.5190    1.5008   14.8119 H         1 JG3         0.0449
     93 H32         7.6947   -1.3232   12.5855 H         1 JG3         0.0557
     94 H33         7.3312    2.9071   13.0376 H         1 JG3         0.0557
     95 H34         8.5897   -0.9805   10.3316 H         1 JG3         0.0599
     96 H35         8.3794    3.2790   10.8442 H         1 JG3         0.0599
     97 H36         8.8957    1.3114    9.4420 H         1 JG3         0.0559
     98 H37         3.7462   -1.9337   13.9407 H         1 JG3         0.0841
     99 H38         2.9356   -0.9155   15.1787 H         1 JG3         0.0841
    100 H39         2.2769   -2.6303   16.2121 H         1 JG3         0.2056
    101 H40         4.2843   -3.0589   17.3221 H         1 JG3         0.1100
    102 H41         2.3147   -4.5096   17.5702 H         1 JG3         0.0347
    103 H42         3.6189   -5.7003   17.2416 H         1 JG3         0.0347
    104 H43         2.9815   -5.9910   15.0315 H         1 JG3         0.0320
    105 H44         1.3803   -5.5519   15.7171 H         1 JG3         0.0320
    106 H45         2.9867   -4.0575   13.7752 H         1 JG3         0.0815
    107 H46         1.3664   -3.6400   14.4289 H         1 JG3         0.0815
    108 H47         5.8178   -4.5520   17.7079 H         1 ILE         0.1885
    109 H48         7.6039   -5.5260   15.6399 H         1 ILE         0.0803
    110 H49         8.8036   -4.6202   18.2444 H         1 ILE         0.0345
    111 H50        10.4158   -3.3499   16.8798 H         1 ILE         0.0267
    112 H51         8.7792   -2.6462   17.1103 H         1 ILE         0.0267
    113 H52         9.4748   -6.8757   17.3000 H         1 ILE         0.0235
    114 H53        10.8429   -5.7129   17.3507 H         1 ILE         0.0235
    115 H54        10.0158   -6.0593   15.7943 H         1 ILE         0.0235
    116 H55         9.6953   -2.0965   14.9372 H         1 ILE         0.0230
    117 H56         8.2396   -3.1365   14.7765 H         1 ILE         0.0230
    118 H57         9.8762   -3.8402   14.5460 H         1 ILE         0.0230
    119 H58         7.6458   -7.7223   16.0268 H         1 VME         0.1885
    120 H59         7.0091   -8.6419   18.8041 H         1 VME         0.0819
    121 H60         5.0856   -8.2088   16.7748 H         1 VME         0.0344
    122 H61         4.0675  -10.3997   16.4094 H         1 VME         0.0235
    123 H62         5.4916  -11.1769   17.1804 H         1 VME         0.0235
    124 H63         5.6929  -10.2388   15.6618 H         1 VME         0.0235
    125 H64         4.9277   -7.9136   19.1820 H         1 VME         0.0235
    126 H65         4.8847   -9.6962   19.3982 H         1 VME         0.0235
    127 H66         3.5587   -8.8663   18.5154 H         1 VME         0.0235
    128 H67         9.6845  -11.0239   20.2753 H         1 VME         0.0577
    129 H68         9.0514   -9.3709   19.9701 H         1 VME         0.0577
    130 H69        10.3093  -10.0643   18.8914 H         1 VME         0.0577
@<TRIPOS>BOND
     1    1    2 2  
     2    1    3 1  
     3    5    4 1  
     4    5    8 1  
     5    6    5 1  
     6    6    7 2  
     7    8    9 1  
     8    4    1 am 
     9   11   10 1  
    10   11   14 1  
    11   12   11 1  
    12   12   13 2  
    13   14   15 1  
    14   15   16 1  
    15   15   17 1  
    16   10    6 am 
    17   19   18 1  
    18   19   22 1  
    19   20   19 1  
    20   20   21 2  
    21   22   23 1  
    22   23   25 am 
    23   23   24 2  
    24   18   12 am 
    25   27   26 1  
    26   27   30 1  
    27   28   27 1  
    28   28   29 1  
    29   30   31 1  
    30   31   32 ar 
    31   31   33 ar 
    32   33   35 ar 
    33   35   36 ar 
    34   34   36 ar 
    35   32   34 ar 
    36   26   20 am 
    37   40   39 1  
    38   39   42 1  
    39   39   38 1  
    40   38   44 1  
    41   44   43 1  
    42   42   43 1  
    43   40   41 2  
    44   46   45 1  
    45   46   49 1  
    46   47   46 1  
    47   47   48 2  
    48   49   51 1  
    49   49   50 1  
    50   50   52 1  
    51   45   40 am 
    52   54   53 1  
    53   54   57 1  
    54   55   54 1  
    55   55   56 2  
    56   57   59 1  
    57   57   58 1  
    58   53   47 am 
    59   37   28 1  
    60   38   37 1  
    61   61   60 1  
    62   61   55 1  
    63    3   62 1  
    64    3   63 1  
    65    3   64 1  
    66    4   65 1  
    67    5   66 1  
    68    8   67 1  
    69    8   68 1  
    70    9   69 1  
    71   10   70 1  
    72   11   71 1  
    73   14   72 1  
    74   14   73 1  
    75   15   74 1  
    76   16   75 1  
    77   16   76 1  
    78   16   77 1  
    79   17   78 1  
    80   17   79 1  
    81   17   80 1  
    82   18   81 1  
    83   19   82 1  
    84   22   83 1  
    85   22   84 1  
    86   25   85 1  
    87   25   86 1  
    88   26   87 1  
    89   27   88 1  
    90   28   89 1  
    91   29   90 1  
    92   30   91 1  
    93   30   92 1  
    94   32   93 1  
    95   33   94 1  
    96   34   95 1  
    97   35   96 1  
    98   36   97 1  
    99   37   98 1  
   100   37   99 1  
   101   38  100 1  
   102   39  101 1  
   103   42  102 1  
   104   42  103 1  
   105   43  104 1  
   106   43  105 1  
   107   44  106 1  
   108   44  107 1  
   109   45  108 1  
   110   46  109 1  
   111   49  110 1  
   112   50  111 1  
   113   50  112 1  
   114   51  113 1  
   115   51  114 1  
   116   51  115 1  
   117   52  116 1  
   118   52  117 1  
   119   52  118 1  
   120   53  119 1  
   121   54  120 1  
   122   57  121 1  
   123   58  122 1  
   124   58  123 1  
   125   58  124 1  
   126   59  125 1  
   127   59  126 1  
   128   59  127 1  
   129   60  128 1  
   130   60  129 1  
   131   60  130 1  
@<TRIPOS>SUBSTRUCTURE
     1 ACE         1

