### 
### Created by X-TOOL on Mon Sep 10 21:13:10 2018
### 

@<TRIPOS>MOLECULE
3tpx_ligand
  204   207     1     0     0
SMALL
GAST_HUCK


@<TRIPOS>ATOM
      1 N          32.3650  -51.7970   -7.2690 N.4       1 DAL         0.2377
      2 CA         33.2460  -50.6150   -7.1090 C.3       1 DAL         0.0621
      3 CB         34.6740  -50.9390   -7.6240 C.3       1 DAL        -0.0040
      4 C          33.2750  -50.1210   -5.6610 C.2       1 DAL         0.2265
      5 O          33.6410  -48.9280   -5.4600 O.2       1 DAL        -0.3907
      6 N          32.8780  -50.9340   -4.6800 N.am      1 DTR        -0.2600
      7 CA         32.9550  -50.4840   -3.3060 C.3       1 DTR         0.1353
      8 CB         32.4530  -51.5170   -2.2800 C.3       1 DTR         0.0042
      9 CG         30.9140  -51.7180   -2.3280 C.2       1 DTR        -0.0418
     10 CD1        30.3240  -52.6750   -3.0520 C.2       1 DTR         0.0167
     11 NE1        28.9640  -52.5750   -2.8450 N.pl3     1 DTR        -0.2890
     12 CE2        28.6970  -51.5630   -2.0050 C.ar      1 DTR         0.0603
     13 CZ2        27.4860  -51.0840   -1.4800 C.ar      1 DTR        -0.0443
     14 CH2        27.4870  -49.9790   -0.6040 C.ar      1 DTR        -0.0768
     15 CZ3        28.7580  -49.3970   -0.2450 C.ar      1 DTR        -0.0792
     16 CE3        29.9570  -49.9130   -0.7480 C.ar      1 DTR        -0.0747
     17 CD2        29.9500  -50.9940   -1.6470 C.ar      1 DTR        -0.0214
     18 C          32.2030  -49.1590   -3.1670 C.2       1 DTR         0.2053
     19 O          32.5190  -48.3520   -2.3030 O.2       1 DTR        -0.3942
     20 N          31.0470  -49.0230   -4.0590 N.am      1 DTY        -0.2620
     21 CA         30.0430  -48.0080   -3.6590 C.3       1 DTY         0.1390
     22 C          30.2610  -46.7280   -4.4740 C.2       1 DTY         0.2057
     23 O          29.4060  -45.7890   -4.4950 O.2       1 DTY        -0.3942
     24 CB         28.6960  -48.6030   -3.9840 C.3       1 DTY         0.0163
     25 CG         28.6090  -49.1120   -5.4410 C.ar      1 DTY        -0.0493
     26 CD1        28.3300  -50.4590   -5.6430 C.ar      1 DTY        -0.0685
     27 CD2        28.8100  -48.2770   -6.5530 C.ar      1 DTY        -0.0685
     28 CE1        28.2480  -51.0050   -6.9320 C.ar      1 DTY        -0.0398
     29 CE2        28.7250  -48.8020   -7.8510 C.ar      1 DTY        -0.0398
     30 CZ         28.4390  -50.1600   -8.0330 C.ar      1 DTY         0.0805
     31 OH         28.3480  -50.6940   -9.2870 O.3       1 DTY        -0.3376
     32 N          31.4650  -46.5470   -5.1590 N.am      1 DAL        -0.2639
     33 CA         31.6290  -45.3970   -6.1080 C.3       1 DAL         0.1282
     34 CB         33.0890  -45.4550   -6.6950 C.3       1 DAL        -0.0244
     35 C          31.4850  -44.0860   -5.3920 C.2       1 DAL         0.2037
     36 O          30.5710  -43.2630   -5.7650 O.2       1 DAL        -0.3944
     37 N          32.1070  -43.9460   -4.1310 N.am      1 DSG        -0.2616
     38 CA         32.0810  -42.6880   -3.3960 C.3       1 DSG         0.1476
     39 C          30.6610  -42.5960   -2.7570 C.2       1 DSG         0.2064
     40 O          30.2140  -41.4540   -2.5280 O.2       1 DSG        -0.3942
     41 CB         33.1400  -42.6450   -2.3160 C.3       1 DSG         0.0773
     42 CG         33.0960  -41.3030   -1.5790 C.2       1 DSG         0.1780
     43 OD1        33.1050  -40.2500   -2.2340 O.2       1 DSG        -0.3970
     44 ND2        32.9190  -41.3600   -0.2330 N.am      1 DSG        -0.3007
     45 C          27.7480  -43.2140   -2.6760 C.2       1 TDF         0.2068
     46 N          30.1250  -43.7730   -2.3090 N.am      1 TDF        -0.2611
     47 O          26.9010  -42.4330   -2.2580 O.2       1 TDF        -0.3941
     48 CA         28.7730  -43.7530   -1.6560 C.3       1 TDF         0.1451
     49 CB         28.4640  -45.1850   -1.2400 C.3       1 TDF         0.0367
     50 CG         27.1360  -45.3840   -0.4850 C.ar      1 TDF        -0.0068
     51 CZ         24.7170  -45.8590    0.8700 C.ar      1 TDF         0.0385
     52 C13        23.4770  -46.0700    1.6480 C.3       1 TDF         0.3684
     53 F19        23.6750  -46.8700    2.7090 F         1 TDF        -0.2274
     54 F20        23.0290  -44.9810    2.1520 F         1 TDF        -0.2274
     55 F21        22.5080  -46.7010    0.9420 F         1 TDF        -0.2274
     56 CD1        26.1530  -46.2220   -1.0840 C.ar      1 TDF        -0.0280
     57 CD2        26.9390  -44.7980    0.7580 C.ar      1 TDF        -0.0280
     58 CE1        24.9200  -46.4520   -0.4090 C.ar      1 TDF        -0.0372
     59 CE2        25.7330  -45.0140    1.4710 C.ar      1 TDF        -0.0372
     60 N          27.7660  -43.6180   -3.9340 N.am      1 DGL        -0.2634
     61 CA         26.7420  -43.1660   -4.9360 C.3       1 DGL         0.1325
     62 C          27.0030  -41.7390   -5.2210 C.2       1 DGL         0.2040
     63 O          26.0660  -40.9070   -5.2990 O.2       1 DGL        -0.3944
     64 CB         26.8670  -43.9710   -6.2190 C.3       1 DGL        -0.0008
     65 CG         26.2300  -45.3450   -6.1160 C.3       1 DGL         0.0044
     66 CD         25.1940  -45.6800   -7.2160 C.2       1 DGL         0.0350
     67 OE1        25.5720  -46.5000   -8.1040 O.co2     1 DGL        -0.5690
     68 OE2        24.0360  -45.1870   -7.1120 O.co2     1 DGL        -0.5690
     69 N          28.2940  -41.2180   -5.1640 N.am      1 DLY        -0.2637
     70 CA         28.4850  -39.7760   -5.2980 C.3       1 DLY         0.1310
     71 C          27.9670  -39.0140   -4.1670 C.2       1 DLY         0.2039
     72 O          27.4580  -37.8600   -4.3130 O.2       1 DLY        -0.3944
     73 CB         30.0210  -39.5170   -5.4920 C.3       1 DLY        -0.0122
     74 CG         30.3790  -38.0380   -5.3870 C.3       1 DLY        -0.0440
     75 CD         31.2760  -37.7270   -4.1720 C.3       1 DLY        -0.0124
     76 CE         30.9660  -36.3480   -3.5700 C.3       1 DLY        -0.0354
     77 NZ         31.5170  -36.2200   -2.2020 N.4       1 DLY         0.2185
     78 N          27.9780  -39.6080   -2.8150 N.am      1 DLE        -0.2637
     79 CA         27.4030  -38.8470   -1.7410 C.3       1 DLE         0.1312
     80 CB         27.6870  -39.5900   -0.3870 C.3       1 DLE        -0.0101
     81 CG         29.2050  -39.7140   -0.0120 C.3       1 DLE        -0.0425
     82 CD1        29.7380  -38.3060   -0.0030 C.3       1 DLE        -0.0625
     83 CD2        29.3480  -40.4510    1.3270 C.3       1 DLE        -0.0625
     84 C          25.8480  -38.8440   -1.9100 C.2       1 DLE         0.2039
     85 O          25.2530  -37.8120   -1.5490 O.2       1 DLE        -0.3944
     86 N          25.2990  -39.9110   -2.3710 N.am      1 DLE        -0.2637
     87 CA         23.7850  -39.9670   -2.5070 C.3       1 DLE         0.1312
     88 CB         23.3700  -41.3290   -3.0250 C.3       1 DLE        -0.0101
     89 CG         23.2930  -42.3410   -1.8360 C.3       1 DLE        -0.0425
     90 CD1        22.0610  -42.1240   -0.9210 C.3       1 DLE        -0.0625
     91 CD2        23.3440  -43.7780   -2.3570 C.3       1 DLE        -0.0625
     92 C          23.3250  -38.9210   -3.5070 C.2       1 DLE         0.2033
     93 O          22.3110  -38.2420   -3.3030 O.2       1 DLE        -0.3944
     94 N          24.1330  -38.6880   -4.6070 N.am      1 DAR        -0.2695
     95 CA         23.7720  -37.6430   -5.6210 C.3       1 DAR         0.0945
     96 CB         24.6230  -37.9520   -6.8860 C.3       1 DAR        -0.0148
     97 CG         24.1720  -39.1630   -7.7000 C.3       1 DAR        -0.0162
     98 CD         24.7190  -39.1530   -9.1720 C.3       1 DAR         0.0627
     99 NE         26.1760  -38.8390   -9.1760 N.pl3     1 DAR        -0.2723
    100 CZ         27.1710  -39.7490   -9.1830 C.cat     1 DAR         0.2882
    101 NH1        28.4200  -39.2830   -9.1750 N.pl3     1 DAR        -0.2849
    102 NH2        26.9660  -41.0890   -9.2090 N.pl3     1 DAR        -0.2849
    103 C          23.9870  -36.2850   -5.0210 C.2       1 DAR         0.0601
    104 O          23.1870  -35.3710   -5.2930 O.co2     1 DAR        -0.5666
    105 OXT        24.9030  -35.9580   -4.2140 O.co2     1 DAR        -0.5666
    106 H          32.3722  -52.0954   -8.2444 H         1 DAL         0.2015
    107 H          32.7049  -52.5554   -6.6776 H         1 DAL         0.2015
    108 H          31.4140  -51.5504   -6.9947 H         1 DAL         0.2015
    109 H          32.8364  -49.8037   -7.7108 H         1 DAL         0.1095
    110 H          35.2887  -50.0402   -7.5762 H         1 DAL         0.0310
    111 H          35.1159  -51.7165   -7.0008 H         1 DAL         0.0310
    112 H          34.6166  -51.2871   -8.6553 H         1 DAL         0.0310
    113 H          32.5230  -51.8654   -4.8965 H         1 DTR         0.1886
    114 H          34.0106  -50.3440   -3.0733 H         1 DTR         0.0815
    115 H          32.7100  -51.1509   -1.2860 H         1 DTR         0.0397
    116 H          32.9210  -52.4732   -2.5141 H         1 DTR         0.0397
    117 H          30.8266  -53.4021   -3.6899 H         1 DTR         0.0795
    118 H          28.2627  -53.1823   -3.2690 H         1 DTR         0.2216
    119 H          26.5461  -51.5658   -1.7493 H         1 DTR         0.0541
    120 H          26.5544  -49.5759   -0.2092 H         1 DTR         0.0530
    121 H          28.7841  -48.5410    0.4294 H         1 DTR         0.0510
    122 H          30.9055  -49.4729   -0.4401 H         1 DTR         0.0540
    123 H          30.9405  -49.5900   -4.9002 H         1 DTY         0.1885
    124 H          30.1198  -47.7541   -2.6018 H         1 DTY         0.0821
    125 H          27.9445  -47.8241   -3.8546 H         1 DTY         0.0453
    126 H          28.5352  -49.4530   -3.3209 H         1 DTY         0.0453
    127 H          28.1714  -51.1053   -4.7797 H         1 DTY         0.0530
    128 H          29.0323  -47.2200   -6.4069 H         1 DTY         0.0530
    129 H          28.0399  -52.0654   -7.0745 H         1 DTY         0.0525
    130 H          28.8810  -48.1551   -8.7143 H         1 DTY         0.0525
    131 H          27.6496  -50.2494   -9.7730 H         1 DTY         0.2458
    132 H          32.2355  -47.1993   -5.0133 H         1 DAL         0.1883
    133 H          30.8680  -45.4709   -6.8849 H         1 DAL         0.0797
    134 H          33.8098  -45.3779   -5.8810 H         1 DAL         0.0277
    135 H          33.2311  -46.3999   -7.2195 H         1 DAL         0.0277
    136 H          33.2332  -44.6273   -7.3894 H         1 DAL         0.0277
    137 H          32.5878  -44.7481   -3.7237 H         1 DSG         0.1885
    138 H          32.2887  -41.8515   -4.0633 H         1 DSG         0.0826
    139 H          34.1210  -42.7660   -2.7754 H         1 DSG         0.0551
    140 H          32.9531  -43.4481   -1.6031 H         1 DSG         0.0551
    141 H          32.7826  -40.5013    0.3003 H         1 DSG         0.1814
    142 H          32.9226  -42.2615    0.2441 H         1 DSG         0.1814
    143 H          30.6356  -44.6494   -2.4169 H         1 TDF         0.1886
    144 H          28.7375  -43.1080   -0.7780 H         1 TDF         0.0833
    145 H          29.2578  -45.4882   -0.5573 H         1 TDF         0.0547
    146 H          28.3887  -45.7660   -2.1592 H         1 TDF         0.0547
    147 H          26.3428  -46.6844   -2.0526 H         1 TDF         0.0652
    148 H          27.7169  -44.1675    1.1886 H         1 TDF         0.0652
    149 H          24.1458  -47.0706   -0.8630 H         1 TDF         0.0836
    150 H          25.5723  -44.5565    2.4472 H         1 TDF         0.0836
    151 H          28.5003  -44.2587   -4.2351 H         1 DGL         0.1883
    152 H          25.7366  -43.3100   -4.5404 H         1 DGL         0.0801
    153 H          27.9285  -44.1098   -6.4238 H         1 DGL         0.0330
    154 H          26.3525  -43.4229   -7.0083 H         1 DGL         0.0330
    155 H          25.6952  -45.3699   -5.1665 H         1 DGL         0.0433
    156 H          27.0370  -46.0707   -6.2168 H         1 DGL         0.0433
    157 H          29.0950  -41.8352   -5.0305 H         1 DLY         0.1883
    158 H          27.9143  -39.4287   -6.1592 H         1 DLY         0.0800
    159 H          30.2978  -39.8611   -6.4885 H         1 DLY         0.0312
    160 H          30.5549  -40.0499   -4.7052 H         1 DLY         0.0312
    161 H          29.4518  -37.4769   -5.2705 H         1 DLY         0.0269
    162 H          30.9279  -37.7620   -6.2873 H         1 DLY         0.0269
    163 H          32.3143  -37.7298   -4.5038 H         1 DLY         0.0317
    164 H          31.0918  -38.4828   -3.4085 H         1 DLY         0.0317
    165 H          29.8839  -36.2273   -3.5201 H         1 DLY         0.0813
    166 H          31.4225  -35.5846   -4.2000 H         1 DLY         0.0813
    167 H          31.2944  -35.2958   -1.8322 H         1 DLY         0.1994
    168 H          31.1055  -36.9355   -1.6027 H         1 DLY         0.1994
    169 H          32.5294  -36.3408   -2.2318 H         1 DLY         0.1994
    170 H          28.3814  -40.5300   -2.6490 H         1 DLE         0.1883
    171 H          27.8187  -37.8394   -1.7475 H         1 DLE         0.0800
    172 H          27.3036  -40.6045   -0.4958 H         1 DLE         0.0315
    173 H          27.2127  -39.0050    0.4010 H         1 DLE         0.0315
    174 H          29.7827  -40.3067   -0.7212 H         1 DLE         0.0298
    175 H          29.6077  -37.8632   -0.9905 H         1 DLE         0.0232
    176 H          29.1933  -37.7174    0.7352 H         1 DLE         0.0232
    177 H          30.7975  -38.3216    0.2527 H         1 DLE         0.0232
    178 H          28.8272  -39.8928    2.1050 H         1 DLE         0.0232
    179 H          28.9138  -41.4470    1.2402 H         1 DLE         0.0232
    180 H          30.4041  -40.5347    1.5832 H         1 DLE         0.0232
    181 H          25.8716  -40.7103   -2.6423 H         1 DLE         0.1883
    182 H          23.3367  -39.7814   -1.5310 H         1 DLE         0.0800
    183 H          24.1032  -41.6790   -3.7516 H         1 DLE         0.0315
    184 H          22.3919  -41.2532   -3.5001 H         1 DLE         0.0315
    185 H          24.1657  -42.1545   -1.2101 H         1 DLE         0.0298
    186 H          22.0979  -41.1210   -0.4959 H         1 DLE         0.0232
    187 H          21.1496  -42.2379   -1.5079 H         1 DLE         0.0232
    188 H          22.0721  -42.8610   -0.1180 H         1 DLE         0.0232
    189 H          22.5014  -43.9504   -3.0267 H         1 DLE         0.0232
    190 H          24.2774  -43.9341   -2.8978 H         1 DLE         0.0232
    191 H          23.2894  -44.4700   -1.5166 H         1 DLE         0.0232
    192 H          24.9855  -39.2345   -4.7296 H         1 DAR         0.1875
    193 H          22.7230  -37.6543   -5.9170 H         1 DAR         0.0726
    194 H          25.6320  -38.1706   -6.5363 H         1 DAR         0.0307
    195 H          24.5322  -37.0856   -7.5411 H         1 DAR         0.0307
    196 H          23.0834  -39.1416   -7.7507 H         1 DAR         0.0301
    197 H          24.5591  -40.0556   -7.2085 H         1 DAR         0.0301
    198 H          24.1881  -38.3930   -9.7453 H         1 DAR         0.0689
    199 H          24.5640  -40.1357   -9.6175 H         1 DAR         0.0689
    200 H          26.4424  -37.8544   -9.1732 H         1 DAR         0.2642
    201 H          28.5890  -38.2772   -9.1641 H         1 DAR         0.2615
    202 H          29.2066  -39.9323   -9.1798 H         1 DAR         0.2615
    203 H          26.0157  -41.4594   -9.2246 H         1 DAR         0.2615
    204 H          27.7620  -41.7267   -9.2130 H         1 DAR         0.2615
@<TRIPOS>BOND
     1    2    1 1  
     2    2    3 1  
     3    4    2 1  
     4    4    5 2  
     5    6    4 am 
     6    7    6 1  
     7    7    8 1  
     8   18    7 1  
     9    8    9 1  
    10    9   10 2  
    11    9   17 1  
    12   10   11 1  
    13   12   11 1  
    14   12   13 ar 
    15   17   12 ar 
    16   13   14 ar 
    17   15   14 ar 
    18   16   15 ar 
    19   17   16 ar 
    20   18   19 2  
    21   20   18 am 
    22   21   20 1  
    23   22   21 1  
    24   21   24 1  
    25   22   23 2  
    26   32   22 am 
    27   24   25 1  
    28   25   26 ar 
    29   25   27 ar 
    30   26   28 ar 
    31   27   29 ar 
    32   28   30 ar 
    33   29   30 ar 
    34   30   31 1  
    35   33   32 1  
    36   33   34 1  
    37   35   33 1  
    38   35   36 2  
    39   37   35 am 
    40   38   37 1  
    41   39   38 1  
    42   38   41 1  
    43   39   40 2  
    44   46   39 am 
    45   41   42 1  
    46   42   43 2  
    47   42   44 am 
    48   45   47 2  
    49   48   45 1  
    50   45   60 am 
    51   48   46 1  
    52   49   48 1  
    53   50   49 1  
    54   56   50 ar 
    55   50   57 ar 
    56   51   52 1  
    57   58   51 ar 
    58   51   59 ar 
    59   52   53 1  
    60   52   54 1  
    61   52   55 1  
    62   56   58 ar 
    63   57   59 ar 
    64   60   61 1  
    65   61   62 1  
    66   61   64 1  
    67   62   63 2  
    68   62   69 am 
    69   64   65 1  
    70   65   66 1  
    71   66   67 ar 
    72   66   68 ar 
    73   69   70 1  
    74   70   71 1  
    75   70   73 1  
    76   71   72 2  
    77   71   78 am 
    78   73   74 1  
    79   74   75 1  
    80   75   76 1  
    81   76   77 1  
    82   78   79 1  
    83   79   80 1  
    84   79   84 1  
    85   80   81 1  
    86   81   82 1  
    87   81   83 1  
    88   84   85 2  
    89   84   86 am 
    90   86   87 1  
    91   87   88 1  
    92   87   92 1  
    93   88   89 1  
    94   89   90 1  
    95   89   91 1  
    96   92   93 2  
    97   92   94 am 
    98   94   95 1  
    99   95   96 1  
   100   95  103 1  
   101   96   97 1  
   102   97   98 1  
   103   98   99 1  
   104   99  100 ar 
   105  100  101 ar 
   106  100  102 ar 
   107  103  104 ar 
   108  103  105 ar 
   109    1  106 1  
   110    1  107 1  
   111    1  108 1  
   112    2  109 1  
   113    3  110 1  
   114    3  111 1  
   115    3  112 1  
   116    6  113 1  
   117    7  114 1  
   118    8  115 1  
   119    8  116 1  
   120   10  117 1  
   121   11  118 1  
   122   13  119 1  
   123   14  120 1  
   124   15  121 1  
   125   16  122 1  
   126   20  123 1  
   127   21  124 1  
   128   24  125 1  
   129   24  126 1  
   130   26  127 1  
   131   27  128 1  
   132   28  129 1  
   133   29  130 1  
   134   31  131 1  
   135   32  132 1  
   136   33  133 1  
   137   34  134 1  
   138   34  135 1  
   139   34  136 1  
   140   37  137 1  
   141   38  138 1  
   142   41  139 1  
   143   41  140 1  
   144   44  141 1  
   145   44  142 1  
   146   46  143 1  
   147   48  144 1  
   148   49  145 1  
   149   49  146 1  
   150   56  147 1  
   151   57  148 1  
   152   58  149 1  
   153   59  150 1  
   154   60  151 1  
   155   61  152 1  
   156   64  153 1  
   157   64  154 1  
   158   65  155 1  
   159   65  156 1  
   160   69  157 1  
   161   70  158 1  
   162   73  159 1  
   163   73  160 1  
   164   74  161 1  
   165   74  162 1  
   166   75  163 1  
   167   75  164 1  
   168   76  165 1  
   169   76  166 1  
   170   77  167 1  
   171   77  168 1  
   172   77  169 1  
   173   78  170 1  
   174   79  171 1  
   175   80  172 1  
   176   80  173 1  
   177   81  174 1  
   178   82  175 1  
   179   82  176 1  
   180   82  177 1  
   181   83  178 1  
   182   83  179 1  
   183   83  180 1  
   184   86  181 1  
   185   87  182 1  
   186   88  183 1  
   187   88  184 1  
   188   89  185 1  
   189   90  186 1  
   190   90  187 1  
   191   90  188 1  
   192   91  189 1  
   193   91  190 1  
   194   91  191 1  
   195   94  192 1  
   196   95  193 1  
   197   96  194 1  
   198   96  195 1  
   199   97  196 1  
   200   97  197 1  
   201   98  198 1  
   202   98  199 1  
   203   99  200 1  
   204  101  201 1  
   205  101  202 1  
   206  102  203 1  
   207  102  204 1  
@<TRIPOS>SUBSTRUCTURE
     1 DAL         1

