3tpx_ligand
  -I-interpret- 

204207  0  0  0  0  0  0  0  0999 V2000
   32.3650  -51.7970   -7.2690 N   0  3  0  0  0
   33.2460  -50.6150   -7.1090 C   0  0  0  0  0
   34.6740  -50.9390   -7.6240 C   0  0  0  0  0
   33.2750  -50.1210   -5.6610 C   0  0  0  0  0
   33.6410  -48.9280   -5.4600 O   0  0  0  0  0
   32.8780  -50.9340   -4.6800 N   0  0  0  0  0
   32.9550  -50.4840   -3.3060 C   0  0  0  0  0
   32.4530  -51.5170   -2.2800 C   0  0  0  0  0
   30.9140  -51.7180   -2.3280 C   0  0  0  0  0
   30.3240  -52.6750   -3.0520 C   0  0  0  0  0
   28.9640  -52.5750   -2.8450 N   0  0  0  0  0
   28.6970  -51.5630   -2.0050 C   0  0  0  0  0
   27.4860  -51.0840   -1.4800 C   0  0  0  0  0
   27.4870  -49.9790   -0.6040 C   0  0  0  0  0
   28.7580  -49.3970   -0.2450 C   0  0  0  0  0
   29.9570  -49.9130   -0.7480 C   0  0  0  0  0
   29.9500  -50.9940   -1.6470 C   0  0  0  0  0
   32.2030  -49.1590   -3.1670 C   0  0  0  0  0
   32.5190  -48.3520   -2.3030 O   0  0  0  0  0
   31.0470  -49.0230   -4.0590 N   0  0  0  0  0
   30.0430  -48.0080   -3.6590 C   0  0  0  0  0
   30.2610  -46.7280   -4.4740 C   0  0  0  0  0
   29.4060  -45.7890   -4.4950 O   0  0  0  0  0
   28.6960  -48.6030   -3.9840 C   0  0  0  0  0
   28.6090  -49.1120   -5.4410 C   0  0  0  0  0
   28.3300  -50.4590   -5.6430 C   0  0  0  0  0
   28.8100  -48.2770   -6.5530 C   0  0  0  0  0
   28.2480  -51.0050   -6.9320 C   0  0  0  0  0
   28.7250  -48.8020   -7.8510 C   0  0  0  0  0
   28.4390  -50.1600   -8.0330 C   0  0  0  0  0
   28.3480  -50.6940   -9.2870 O   0  0  0  0  0
   31.4650  -46.5470   -5.1590 N   0  0  0  0  0
   31.6290  -45.3970   -6.1080 C   0  0  0  0  0
   33.0890  -45.4550   -6.6950 C   0  0  0  0  0
   31.4850  -44.0860   -5.3920 C   0  0  0  0  0
   30.5710  -43.2630   -5.7650 O   0  0  0  0  0
   32.1070  -43.9460   -4.1310 N   0  0  0  0  0
   32.0810  -42.6880   -3.3960 C   0  0  0  0  0
   30.6610  -42.5960   -2.7570 C   0  0  0  0  0
   30.2140  -41.4540   -2.5280 O   0  0  0  0  0
   33.1400  -42.6450   -2.3160 C   0  0  0  0  0
   33.0960  -41.3030   -1.5790 C   0  0  0  0  0
   33.1050  -40.2500   -2.2340 O   0  0  0  0  0
   32.9190  -41.3600   -0.2330 N   0  0  0  0  0
   27.7480  -43.2140   -2.6760 C   0  0  0  0  0
   30.1250  -43.7730   -2.3090 N   0  0  0  0  0
   26.9010  -42.4330   -2.2580 O   0  0  0  0  0
   28.7730  -43.7530   -1.6560 C   0  0  0  0  0
   28.4640  -45.1850   -1.2400 C   0  0  0  0  0
   27.1360  -45.3840   -0.4850 C   0  0  0  0  0
   24.7170  -45.8590    0.8700 C   0  0  0  0  0
   23.4770  -46.0700    1.6480 C   0  0  0  0  0
   23.6750  -46.8700    2.7090 F   0  0  0  0  0
   23.0290  -44.9810    2.1520 F   0  0  0  0  0
   22.5080  -46.7010    0.9420 F   0  0  0  0  0
   26.1530  -46.2220   -1.0840 C   0  0  0  0  0
   26.9390  -44.7980    0.7580 C   0  0  0  0  0
   24.9200  -46.4520   -0.4090 C   0  0  0  0  0
   25.7330  -45.0140    1.4710 C   0  0  0  0  0
   27.7660  -43.6180   -3.9340 N   0  0  0  0  0
   26.7420  -43.1660   -4.9360 C   0  0  0  0  0
   27.0030  -41.7390   -5.2210 C   0  0  0  0  0
   26.0660  -40.9070   -5.2990 O   0  0  0  0  0
   26.8670  -43.9710   -6.2190 C   0  0  0  0  0
   26.2300  -45.3450   -6.1160 C   0  0  0  0  0
   25.1940  -45.6800   -7.2160 C   0  0  0  0  0
   25.5720  -46.5000   -8.1040 O   0  0  0  0  0
   24.0360  -45.1870   -7.1120 O   0  0  0  0  0
   28.2940  -41.2180   -5.1640 N   0  0  0  0  0
   28.4850  -39.7760   -5.2980 C   0  0  0  0  0
   27.9670  -39.0140   -4.1670 C   0  0  0  0  0
   27.4580  -37.8600   -4.3130 O   0  0  0  0  0
   30.0210  -39.5170   -5.4920 C   0  0  0  0  0
   30.3790  -38.0380   -5.3870 C   0  0  0  0  0
   31.2760  -37.7270   -4.1720 C   0  0  0  0  0
   30.9660  -36.3480   -3.5700 C   0  0  0  0  0
   31.5170  -36.2200   -2.2020 N   0  3  0  0  0
   27.9780  -39.6080   -2.8150 N   0  0  0  0  0
   27.4030  -38.8470   -1.7410 C   0  0  0  0  0
   27.6870  -39.5900   -0.3870 C   0  0  0  0  0
   29.2050  -39.7140   -0.0120 C   0  0  0  0  0
   29.7380  -38.3060   -0.0030 C   0  0  0  0  0
   29.3480  -40.4510    1.3270 C   0  0  0  0  0
   25.8480  -38.8440   -1.9100 C   0  0  0  0  0
   25.2530  -37.8120   -1.5490 O   0  0  0  0  0
   25.2990  -39.9110   -2.3710 N   0  0  0  0  0
   23.7850  -39.9670   -2.5070 C   0  0  0  0  0
   23.3700  -41.3290   -3.0250 C   0  0  0  0  0
   23.2930  -42.3410   -1.8360 C   0  0  0  0  0
   22.0610  -42.1240   -0.9210 C   0  0  0  0  0
   23.3440  -43.7780   -2.3570 C   0  0  0  0  0
   23.3250  -38.9210   -3.5070 C   0  0  0  0  0
   22.3110  -38.2420   -3.3030 O   0  0  0  0  0
   24.1330  -38.6880   -4.6070 N   0  0  0  0  0
   23.7720  -37.6430   -5.6210 C   0  0  0  0  0
   24.6230  -37.9520   -6.8860 C   0  0  0  0  0
   24.1720  -39.1630   -7.7000 C   0  0  0  0  0
   24.7190  -39.1530   -9.1720 C   0  0  0  0  0
   26.1760  -38.8390   -9.1760 N   0  0  0  0  0
   27.1710  -39.7490   -9.1830 C   0  0  0  0  0
   28.4200  -39.2830   -9.1750 N   0  0  0  0  0
   26.9660  -41.0890   -9.2090 N   0  0  0  0  0
   23.9870  -36.2850   -5.0210 C   0  0  0  0  0
   23.1870  -35.3710   -5.2930 O   0  0  0  0  0
   24.9030  -35.9580   -4.2140 O   0  0  0  0  0
   32.3722  -52.0954   -8.2444 H   0  0  0  0  0
   32.7049  -52.5554   -6.6776 H   0  0  0  0  0
   31.4140  -51.5504   -6.9947 H   0  0  0  0  0
   32.8364  -49.8037   -7.7108 H   0  0  0  0  0
   35.2887  -50.0402   -7.5762 H   0  0  0  0  0
   35.1159  -51.7165   -7.0008 H   0  0  0  0  0
   34.6166  -51.2871   -8.6553 H   0  0  0  0  0
   32.5230  -51.8654   -4.8965 H   0  0  0  0  0
   34.0106  -50.3440   -3.0733 H   0  0  0  0  0
   32.7100  -51.1509   -1.2860 H   0  0  0  0  0
   32.9210  -52.4732   -2.5141 H   0  0  0  0  0
   30.8266  -53.4021   -3.6899 H   0  0  0  0  0
   26.5461  -51.5658   -1.7493 H   0  0  0  0  0
   26.5544  -49.5759   -0.2092 H   0  0  0  0  0
   28.7841  -48.5410    0.4294 H   0  0  0  0  0
   30.9055  -49.4729   -0.4401 H   0  0  0  0  0
   30.9405  -49.5900   -4.9002 H   0  0  0  0  0
   30.1198  -47.7541   -2.6018 H   0  0  0  0  0
   27.9445  -47.8241   -3.8546 H   0  0  0  0  0
   28.5352  -49.4530   -3.3209 H   0  0  0  0  0
   28.1714  -51.1053   -4.7797 H   0  0  0  0  0
   29.0323  -47.2200   -6.4069 H   0  0  0  0  0
   28.0399  -52.0654   -7.0745 H   0  0  0  0  0
   28.8810  -48.1551   -8.7143 H   0  0  0  0  0
   28.4999  -50.0055   -9.9386 H   0  0  0  0  0
   32.2355  -47.1993   -5.0133 H   0  0  0  0  0
   30.8680  -45.4709   -6.8849 H   0  0  0  0  0
   33.8098  -45.3779   -5.8810 H   0  0  0  0  0
   33.2311  -46.3999   -7.2195 H   0  0  0  0  0
   33.2332  -44.6273   -7.3894 H   0  0  0  0  0
   32.5878  -44.7481   -3.7237 H   0  0  0  0  0
   32.2887  -41.8515   -4.0633 H   0  0  0  0  0
   34.1210  -42.7660   -2.7754 H   0  0  0  0  0
   32.9531  -43.4481   -1.6031 H   0  0  0  0  0
   32.7826  -40.5013    0.3003 H   0  0  0  0  0
   32.9226  -42.2615    0.2441 H   0  0  0  0  0
   30.6356  -44.6494   -2.4169 H   0  0  0  0  0
   28.7375  -43.1080   -0.7780 H   0  0  0  0  0
   29.2578  -45.4882   -0.5573 H   0  0  0  0  0
   28.3887  -45.7660   -2.1592 H   0  0  0  0  0
   26.3428  -46.6844   -2.0526 H   0  0  0  0  0
   27.7169  -44.1675    1.1886 H   0  0  0  0  0
   24.1458  -47.0706   -0.8630 H   0  0  0  0  0
   25.5723  -44.5565    2.4472 H   0  0  0  0  0
   28.5003  -44.2587   -4.2351 H   0  0  0  0  0
   25.7366  -43.3100   -4.5404 H   0  0  0  0  0
   27.9285  -44.1098   -6.4238 H   0  0  0  0  0
   26.3525  -43.4229   -7.0083 H   0  0  0  0  0
   25.6952  -45.3699   -5.1665 H   0  0  0  0  0
   27.0370  -46.0707   -6.2168 H   0  0  0  0  0
   26.4957  -46.7200   -7.9624 H   0  0  0  0  0
   29.0950  -41.8352   -5.0305 H   0  0  0  0  0
   27.9143  -39.4287   -6.1592 H   0  0  0  0  0
   30.2978  -39.8611   -6.4885 H   0  0  0  0  0
   30.5549  -40.0499   -4.7052 H   0  0  0  0  0
   29.4518  -37.4769   -5.2705 H   0  0  0  0  0
   30.9279  -37.7620   -6.2873 H   0  0  0  0  0
   32.3143  -37.7298   -4.5038 H   0  0  0  0  0
   31.0918  -38.4828   -3.4085 H   0  0  0  0  0
   29.8839  -36.2273   -3.5201 H   0  0  0  0  0
   31.4225  -35.5846   -4.2000 H   0  0  0  0  0
   31.2944  -35.2958   -1.8322 H   0  0  0  0  0
   31.1055  -36.9355   -1.6027 H   0  0  0  0  0
   32.5294  -36.3408   -2.2318 H   0  0  0  0  0
   28.3814  -40.5300   -2.6490 H   0  0  0  0  0
   27.8187  -37.8394   -1.7475 H   0  0  0  0  0
   27.3036  -40.6045   -0.4958 H   0  0  0  0  0
   27.2127  -39.0050    0.4010 H   0  0  0  0  0
   29.7827  -40.3067   -0.7212 H   0  0  0  0  0
   29.6077  -37.8632   -0.9905 H   0  0  0  0  0
   29.1933  -37.7174    0.7352 H   0  0  0  0  0
   30.7975  -38.3216    0.2527 H   0  0  0  0  0
   28.8272  -39.8928    2.1050 H   0  0  0  0  0
   28.9138  -41.4470    1.2402 H   0  0  0  0  0
   30.4041  -40.5347    1.5832 H   0  0  0  0  0
   25.8716  -40.7103   -2.6423 H   0  0  0  0  0
   23.3367  -39.7814   -1.5310 H   0  0  0  0  0
   24.1032  -41.6790   -3.7516 H   0  0  0  0  0
   22.3919  -41.2532   -3.5001 H   0  0  0  0  0
   24.1657  -42.1545   -1.2101 H   0  0  0  0  0
   22.0979  -41.1210   -0.4959 H   0  0  0  0  0
   21.1496  -42.2379   -1.5079 H   0  0  0  0  0
   22.0721  -42.8610   -0.1180 H   0  0  0  0  0
   22.5014  -43.9504   -3.0267 H   0  0  0  0  0
   24.2774  -43.9341   -2.8978 H   0  0  0  0  0
   23.2894  -44.4700   -1.5166 H   0  0  0  0  0
   24.9855  -39.2345   -4.7296 H   0  0  0  0  0
   22.7230  -37.6543   -5.9170 H   0  0  0  0  0
   25.6320  -38.1706   -6.5363 H   0  0  0  0  0
   24.5322  -37.0856   -7.5411 H   0  0  0  0  0
   23.0834  -39.1416   -7.7507 H   0  0  0  0  0
   24.5591  -40.0556   -7.2085 H   0  0  0  0  0
   24.1881  -38.3930   -9.7453 H   0  0  0  0  0
   24.5640  -40.1357   -9.6175 H   0  0  0  0  0
   26.4424  -37.8544   -9.1732 H   0  0  0  0  0
   28.5890  -38.2772   -9.1641 H   0  0  0  0  0
   27.7621  -41.7266   -9.2222 H   0  0  0  0  0
   26.0157  -41.4595   -9.2154 H   0  0  0  0  0
   25.4742  -36.7134   -4.0569 H   0  0  0  0  0
  2  1  1  0  0  0
  2  3  1  0  0  0
  4  2  1  0  0  0
  4  5  2  0  0  0
  6  4  1  0  0  0
  7  6  1  0  0  0
  7  8  1  0  0  0
 18  7  1  0  0  0
  8  9  1  0  0  0
  9 10  4  0  0  0
  9 17  4  0  0  0
 10 11  4  0  0  0
 12 11  4  0  0  0
 12 13  4  0  0  0
 17 12  4  0  0  0
 13 14  4  0  0  0
 15 14  4  0  0  0
 16 15  4  0  0  0
 17 16  4  0  0  0
 18 19  2  0  0  0
 20 18  1  0  0  0
 21 20  1  0  0  0
 22 21  1  0  0  0
 21 24  1  0  0  0
 22 23  2  0  0  0
 32 22  1  0  0  0
 24 25  1  0  0  0
 25 26  4  0  0  0
 25 27  4  0  0  0
 26 28  4  0  0  0
 27 29  4  0  0  0
 28 30  4  0  0  0
 29 30  4  0  0  0
 30 31  1  0  0  0
 33 32  1  0  0  0
 33 34  1  0  0  0
 35 33  1  0  0  0
 35 36  2  0  0  0
 37 35  1  0  0  0
 38 37  1  0  0  0
 39 38  1  0  0  0
 38 41  1  0  0  0
 39 40  2  0  0  0
 46 39  1  0  0  0
 41 42  1  0  0  0
 42 43  2  0  0  0
 42 44  1  0  0  0
 45 47  2  0  0  0
 48 45  1  0  0  0
 45 60  1  0  0  0
 48 46  1  0  0  0
 49 48  1  0  0  0
 50 49  1  0  0  0
 56 50  4  0  0  0
 50 57  4  0  0  0
 51 52  1  0  0  0
 58 51  4  0  0  0
 51 59  4  0  0  0
 52 53  1  0  0  0
 52 54  1  0  0  0
 52 55  1  0  0  0
 56 58  4  0  0  0
 57 59  4  0  0  0
 60 61  1  0  0  0
 61 62  1  0  0  0
 61 64  1  0  0  0
 62 63  2  0  0  0
 62 69  1  0  0  0
 64 65  1  0  0  0
 65 66  1  0  0  0
 66 67  1  0  0  0
 66 68  2  0  0  0
 69 70  1  0  0  0
 70 71  1  0  0  0
 70 73  1  0  0  0
 71 72  2  0  0  0
 71 78  1  0  0  0
 73 74  1  0  0  0
 74 75  1  0  0  0
 75 76  1  0  0  0
 76 77  1  0  0  0
 78 79  1  0  0  0
 79 80  1  0  0  0
 79 84  1  0  0  0
 80 81  1  0  0  0
 81 82  1  0  0  0
 81 83  1  0  0  0
 84 85  2  0  0  0
 84 86  1  0  0  0
 86 87  1  0  0  0
 87 88  1  0  0  0
 87 92  1  0  0  0
 88 89  1  0  0  0
 89 90  1  0  0  0
 89 91  1  0  0  0
 92 93  2  0  0  0
 92 94  1  0  0  0
 94 95  1  0  0  0
 95 96  1  0  0  0
 95103  1  0  0  0
 96 97  1  0  0  0
 97 98  1  0  0  0
 98 99  1  0  0  0
 99100  1  0  0  0
100101  2  0  0  0
100102  1  0  0  0
103104  2  0  0  0
103105  1  0  0  0
  1106  1  0  0  0
  1107  1  0  0  0
  1108  1  0  0  0
  2109  1  0  0  0
  3110  1  0  0  0
  3111  1  0  0  0
  3112  1  0  0  0
  6113  1  0  0  0
  7114  1  0  0  0
  8115  1  0  0  0
  8116  1  0  0  0
 10117  1  0  0  0
 13118  1  0  0  0
 14119  1  0  0  0
 15120  1  0  0  0
 16121  1  0  0  0
 20122  1  0  0  0
 21123  1  0  0  0
 24124  1  0  0  0
 24125  1  0  0  0
 26126  1  0  0  0
 27127  1  0  0  0
 28128  1  0  0  0
 29129  1  0  0  0
 31130  1  0  0  0
 32131  1  0  0  0
 33132  1  0  0  0
 34133  1  0  0  0
 34134  1  0  0  0
 34135  1  0  0  0
 37136  1  0  0  0
 38137  1  0  0  0
 41138  1  0  0  0
 41139  1  0  0  0
 44140  1  0  0  0
 44141  1  0  0  0
 46142  1  0  0  0
 48143  1  0  0  0
 49144  1  0  0  0
 49145  1  0  0  0
 56146  1  0  0  0
 57147  1  0  0  0
 58148  1  0  0  0
 59149  1  0  0  0
 60150  1  0  0  0
 61151  1  0  0  0
 64152  1  0  0  0
 64153  1  0  0  0
 65154  1  0  0  0
 65155  1  0  0  0
 67156  1  0  0  0
 69157  1  0  0  0
 70158  1  0  0  0
 73159  1  0  0  0
 73160  1  0  0  0
 74161  1  0  0  0
 74162  1  0  0  0
 75163  1  0  0  0
 75164  1  0  0  0
 76165  1  0  0  0
 76166  1  0  0  0
 77167  1  0  0  0
 77168  1  0  0  0
 77169  1  0  0  0
 78170  1  0  0  0
 79171  1  0  0  0
 80172  1  0  0  0
 80173  1  0  0  0
 81174  1  0  0  0
 82175  1  0  0  0
 82176  1  0  0  0
 82177  1  0  0  0
 83178  1  0  0  0
 83179  1  0  0  0
 83180  1  0  0  0
 86181  1  0  0  0
 87182  1  0  0  0
 88183  1  0  0  0
 88184  1  0  0  0
 89185  1  0  0  0
 90186  1  0  0  0
 90187  1  0  0  0
 90188  1  0  0  0
 91189  1  0  0  0
 91190  1  0  0  0
 91191  1  0  0  0
 94192  1  0  0  0
 95193  1  0  0  0
 96194  1  0  0  0
 96195  1  0  0  0
 97196  1  0  0  0
 97197  1  0  0  0
 98198  1  0  0  0
 98199  1  0  0  0
 99200  1  0  0  0
101201  1  0  0  0
102202  1  0  0  0
102203  1  0  0  0
105204  1  0  0  0
M  END
$$$$
