4gj8_ligand
  -I-interpret- 

 47 50  0  0  0  0  0  0  0  0999 V2000
    9.1300   21.8530   48.4480 C   0  0  0  0  0
   10.3500   22.2870   47.5950 C   0  0  0  0  0
    8.7730   20.4970   48.6270 C   0  0  0  0  0
    8.3100   22.8260   49.0560 C   0  0  0  0  0
   11.5440   21.3230   47.6850 C   0  0  0  0  0
    9.9010   22.3930   46.1170 C   0  0  0  0  0
    9.7280   19.2100   47.8990 S   0  0  0  0  0
    7.6330   20.1230   49.3730 C   0  0  0  0  0
    7.1680   22.4600   49.7910 C   0  0  0  0  0
   11.3500   19.9280   47.8210 C   0  0  0  0  0
   12.8450   21.8440   47.6000 C   0  0  0  0  0
   10.7110   23.4420   45.3220 C   0  0  0  0  0
    6.8140   21.1090   49.9440 C   0  0  0  0  0
   12.4480   19.0650   47.8860 C   0  0  0  0  0
   13.9430   20.9830   47.6840 C   0  0  0  0  0
   11.5810   22.7280   44.2490 C   0  0  0  0  0
    9.7650   24.3330   44.7120 O   0  0  0  0  0
   13.7520   19.5960   47.8230 C   0  0  0  0  0
   11.8170   23.5480   43.0350 N   0  3  0  0  0
   13.1790   24.0560   42.7780 C   0  0  0  0  0
   11.2810   23.1100   41.7390 C   0  0  0  0  0
   13.1270   24.5670   41.3210 C   0  0  0  0  0
   11.6570   24.3390   40.8910 C   0  0  0  0  0
   10.6923   23.2436   47.9896 H   0  0  0  0  0
    8.5658   23.8807   48.9545 H   0  0  0  0  0
    8.8549   22.6990   46.1059 H   0  0  0  0  0
   10.0597   21.4218   45.6483 H   0  0  0  0  0
    7.3897   19.0687   49.5050 H   0  0  0  0  0
    6.5504   23.2336   50.2473 H   0  0  0  0  0
   12.9982   22.9152   47.4691 H   0  0  0  0  0
   11.3850   24.0011   45.9711 H   0  0  0  0  0
    5.9171   20.8311   50.4976 H   0  0  0  0  0
   12.2968   17.9901   47.9846 H   0  0  0  0  0
   14.9538   21.3888   47.6415 H   0  0  0  0  0
   11.0462   21.8304   43.9386 H   0  0  0  0  0
   12.5523   22.5228   44.6990 H   0  0  0  0  0
    9.2423   24.7595   45.3950 H   0  0  0  0  0
   14.6138   18.9312   47.8820 H   0  0  0  0  0
   11.2251   24.2999   43.3883 H   0  0  0  0  0
   13.9373   23.2852   42.9158 H   0  0  0  0  0
   13.4631   24.8413   43.4785 H   0  0  0  0  0
   10.2195   22.8624   41.7419 H   0  0  0  0  0
   11.6787   22.1627   41.3749 H   0  0  0  0  0
   13.8307   24.0416   40.6754 H   0  0  0  0  0
   13.4214   25.6135   41.2413 H   0  0  0  0  0
   11.0124   25.2016   41.0601 H   0  0  0  0  0
   11.5330   24.1859   39.8189 H   0  0  0  0  0
  1  2  1  0  0  0
  1  3  4  0  0  0
  1  4  4  0  0  0
  2  5  1  0  0  0
  2  6  1  0  0  0
  3  7  1  0  0  0
  3  8  4  0  0  0
  4  9  4  0  0  0
  5 10  4  0  0  0
  5 11  4  0  0  0
  6 12  1  0  0  0
  7 10  1  0  0  0
  8 13  4  0  0  0
  9 13  4  0  0  0
 10 14  4  0  0  0
 11 15  4  0  0  0
 12 16  1  0  0  0
 12 17  1  0  0  0
 14 18  4  0  0  0
 15 18  4  0  0  0
 16 19  1  0  0  0
 19 20  1  0  0  0
 19 21  1  0  0  0
 20 22  1  0  0  0
 21 23  1  0  0  0
 22 23  1  0  0  0
  2 24  1  0  0  0
  4 25  1  0  0  0
  6 26  1  0  0  0
  6 27  1  0  0  0
  8 28  1  0  0  0
  9 29  1  0  0  0
 11 30  1  0  0  0
 12 31  1  0  0  0
 13 32  1  0  0  0
 14 33  1  0  0  0
 15 34  1  0  0  0
 16 35  1  0  0  0
 16 36  1  0  0  0
 17 37  1  0  0  0
 18 38  1  0  0  0
 19 39  1  0  0  0
 20 40  1  0  0  0
 20 41  1  0  0  0
 21 42  1  0  0  0
 21 43  1  0  0  0
 22 44  1  0  0  0
 22 45  1  0  0  0
 23 46  1  0  0  0
 23 47  1  0  0  0
M  END
$$$$
