5zgg_ligand
  -I-interpret- 

 30 31  0  0  0  0  0  0  0  0999 V2000
   36.8540   14.1190   49.7710 O   0  0  0  0  0
   37.0500   13.1150   48.8760 C   0  0  0  0  0
   35.9920   12.2300   48.6580 C   0  0  0  0  0
   36.1330   11.1870   47.7420 C   0  0  0  0  0
   37.3330   11.0390   47.0480 C   0  0  0  0  0
   38.3540   11.9780   47.2020 C   0  0  0  0  0
   38.2230   13.0390   48.1130 C   0  0  0  0  0
   39.3050   14.0780   48.2510 C   0  0  0  0  0
   39.5750   14.7250   49.3030 O   0  0  0  0  0
   40.0240   14.4240   47.0040 C   0  0  0  0  0
   39.3690   14.5830   45.6910 C   0  0  0  0  0
   39.9010   15.3270   44.5210 C   0  0  0  0  0
   41.1310   15.9980   44.5770 C   0  0  0  0  0
   41.6220   16.6310   43.4640 N   0  0  0  0  0
   40.9360   16.5850   42.2790 C   0  0  0  0  0
   39.6870   15.9660   42.2320 C   0  0  0  0  0
   39.1440   15.3560   43.3540 C   0  0  0  0  0
   37.6494   14.6534   49.8300 H   0  0  0  0  0
   35.0564   12.3540   49.2032 H   0  0  0  0  0
   35.3105   10.4927   47.5702 H   0  0  0  0  0
   37.4743   10.1871   46.3829 H   0  0  0  0  0
   39.2636   11.8869   46.6084 H   0  0  0  0  0
   40.6666   13.5573   46.8487 H   0  0  0  0  0
   40.3946   15.4280   47.2109 H   0  0  0  0  0
   38.4944   15.1790   45.9519 H   0  0  0  0  0
   39.3694   13.5584   45.3192 H   0  0  0  0  0
   41.6983   16.0165   45.5076 H   0  0  0  0  0
   41.3631   17.0288   41.3797 H   0  0  0  0  0
   39.1271   15.9613   41.2968 H   0  0  0  0  0
   38.1496   14.9108   43.3218 H   0  0  0  0  0
  1  2  1  0  0  0
  2  3  4  0  0  0
  2  7  4  0  0  0
  3  4  4  0  0  0
  4  5  4  0  0  0
  5  6  4  0  0  0
  6  7  4  0  0  0
  7  8  1  0  0  0
  8  9  2  0  0  0
  8 10  1  0  0  0
 10 11  1  0  0  0
 11 12  1  0  0  0
 12 13  4  0  0  0
 12 17  4  0  0  0
 13 14  4  0  0  0
 14 15  4  0  0  0
 15 16  4  0  0  0
 16 17  4  0  0  0
  1 18  1  0  0  0
  3 19  1  0  0  0
  4 20  1  0  0  0
  5 21  1  0  0  0
  6 22  1  0  0  0
 10 23  1  0  0  0
 10 24  1  0  0  0
 11 25  1  0  0  0
 11 26  1  0  0  0
 13 27  1  0  0  0
 15 28  1  0  0  0
 16 29  1  0  0  0
 17 30  1  0  0  0
M  END
$$$$
