5q10_ligand
  -I-interpret- 

 72 75  0  0  0  0  0  0  0  0999 V2000
   31.1850   30.6990   -2.1480 C   0  0  0  0  0
   32.4650   30.6600   -1.6370 C   0  0  0  0  0
   33.5480   30.3220   -2.4270 C   0  0  0  0  0
   33.3400   30.0160   -3.7640 C   0  0  0  0  0
   31.1290   30.2550   -8.1050 C   0  0  0  0  0
   29.5600   26.7250   -8.4430 C   0  0  0  0  0
   28.4480   25.1650  -10.0900 C   0  0  0  0  0
   29.9940   25.5420   -7.5830 C   0  0  0  0  0
   32.1730   29.6580  -10.3270 C   0  0  0  0  0
   33.4610   29.3160  -11.0540 C   0  0  0  0  0
   34.7120   30.9180   -9.5220 C   0  0  0  0  0
   30.8270   31.9260   -6.2700 C   0  0  0  0  0
   29.0020   33.5130   -6.0900 C   0  0  0  0  0
   31.8730   29.7050   -5.7710 C   0  0  0  0  0
   32.2530   28.6070   -6.1520 O   0  0  0  0  0
   32.0520   30.0480   -4.3150 C   0  0  0  0  0
   30.9800   30.3910   -3.4860 C   0  0  0  0  0
   32.7200   31.0450    0.0390 Cl  0  0  0  0  0
   31.2900   30.6260   -6.6620 N   0  0  0  0  0
   32.4340   29.9760   -8.8540 C   0  0  0  0  0
   34.4550   30.4670  -10.9860 C   0  0  0  0  0
   33.3940   31.1730   -8.7620 C   0  0  0  0  0
   30.0400   29.1490   -8.2690 C   0  0  0  0  0
   28.8610   29.4640   -8.3730 O   0  0  0  0  0
   30.4670   27.8700   -8.2900 N   0  0  0  0  0
   29.4530   26.3130   -9.9090 C   0  0  0  0  0
   28.8210   23.9530   -9.2340 C   0  0  0  0  0
   29.0050   24.3500   -7.7380 C   0  0  0  0  0
   29.4770   32.2560   -6.4560 C   0  0  0  0  0
   29.8800   34.4450   -5.5390 C   0  0  0  0  0
   31.2200   34.1190   -5.3580 C   0  0  0  0  0
   31.7000   32.8680   -5.7230 C   0  0  0  0  0
   27.6370   33.8740   -6.2630 N   0  0  0  0  0
   26.6080   33.1310   -6.7680 C   0  0  0  0  0
   26.7420   31.9760   -7.1630 O   0  0  0  0  0
   25.2830   33.8310   -6.8070 C   0  0  0  0  0
   30.3441   30.9685   -1.5090 H   0  0  0  0  0
   34.5525   30.2963   -2.0047 H   0  0  0  0  0
   34.1885   29.7475   -4.3934 H   0  0  0  0  0
   30.7652   31.1467   -8.6156 H   0  0  0  0  0
   28.5754   27.0395   -8.0969 H   0  0  0  0  0
   28.4538   24.8629  -11.1373 H   0  0  0  0  0
   27.4635   25.5161   -9.7810 H   0  0  0  0  0
   30.0062   25.8537   -6.5386 H   0  0  0  0  0
   30.9844   25.2197   -7.9044 H   0  0  0  0  0
   31.5042   28.7992  -10.3834 H   0  0  0  0  0
   31.7310   30.5358  -10.7985 H   0  0  0  0  0
   33.2278   29.1195  -12.1005 H   0  0  0  0  0
   33.9073   28.4428  -10.5782 H   0  0  0  0  0
   35.2802   31.8479   -9.5445 H   0  0  0  0  0
   35.2554   30.1244   -9.0092 H   0  0  0  0  0
   29.9702   30.4170   -3.8954 H   0  0  0  0  0
   32.8929   29.1095   -8.3779 H   0  0  0  0  0
   34.0415   31.3111  -11.5379 H   0  0  0  0  0
   35.3999   30.1306  -11.4127 H   0  0  0  0  0
   32.9042   32.0374   -9.2104 H   0  0  0  0  0
   33.6332   31.3376   -7.7114 H   0  0  0  0  0
   31.4664   27.6894   -8.1952 H   0  0  0  0  0
   30.4323   25.9756  -10.2485 H   0  0  0  0  0
   29.1103   27.1707  -10.4879 H   0  0  0  0  0
   29.7621   23.5448   -9.6026 H   0  0  0  0  0
   28.0170   23.2201   -9.3018 H   0  0  0  0  0
   28.0364   24.6502   -7.3383 H   0  0  0  0  0
   29.4098   23.4927   -7.2001 H   0  0  0  0  0
   28.7952   31.5244   -6.8896 H   0  0  0  0  0
   29.5159   35.4308   -5.2495 H   0  0  0  0  0
   31.9001   34.8527   -4.9254 H   0  0  0  0  0
   32.7528   32.6229   -5.5831 H   0  0  0  0  0
   27.3925   34.8196   -5.9689 H   0  0  0  0  0
   24.9301   33.8809   -7.8371 H   0  0  0  0  0
   24.5640   33.2791   -6.2016 H   0  0  0  0  0
   25.3949   34.8402   -6.4106 H   0  0  0  0  0
  1  2  4  0  0  0
 17  1  4  0  0  0
  3  2  4  0  0  0
  2 18  1  0  0  0
  4  3  4  0  0  0
 16  4  4  0  0  0
  5 19  1  0  0  0
  5 20  1  0  0  0
 23  5  1  0  0  0
  6  8  1  0  0  0
 25  6  1  0  0  0
  6 26  1  0  0  0
 26  7  1  0  0  0
  7 27  1  0  0  0
  8 28  1  0  0  0
  9 10  1  0  0  0
 20  9  1  0  0  0
 10 21  1  0  0  0
 11 21  1  0  0  0
 22 11  1  0  0  0
 19 12  1  0  0  0
 12 29  4  0  0  0
 12 32  4  0  0  0
 29 13  4  0  0  0
 13 30  4  0  0  0
 13 33  1  0  0  0
 14 15  2  0  0  0
 14 16  1  0  0  0
 19 14  1  0  0  0
 16 17  4  0  0  0
 20 22  1  0  0  0
 23 24  2  0  0  0
 23 25  1  0  0  0
 27 28  1  0  0  0
 30 31  4  0  0  0
 31 32  4  0  0  0
 33 34  1  0  0  0
 34 35  2  0  0  0
 34 36  1  0  0  0
  1 37  1  0  0  0
  3 38  1  0  0  0
  4 39  1  0  0  0
  5 40  1  0  0  0
  6 41  1  0  0  0
  7 42  1  0  0  0
  7 43  1  0  0  0
  8 44  1  0  0  0
  8 45  1  0  0  0
  9 46  1  0  0  0
  9 47  1  0  0  0
 10 48  1  0  0  0
 10 49  1  0  0  0
 11 50  1  0  0  0
 11 51  1  0  0  0
 17 52  1  0  0  0
 20 53  1  0  0  0
 21 54  1  0  0  0
 21 55  1  0  0  0
 22 56  1  0  0  0
 22 57  1  0  0  0
 25 58  1  0  0  0
 26 59  1  0  0  0
 26 60  1  0  0  0
 27 61  1  0  0  0
 27 62  1  0  0  0
 28 63  1  0  0  0
 28 64  1  0  0  0
 29 65  1  0  0  0
 30 66  1  0  0  0
 31 67  1  0  0  0
 32 68  1  0  0  0
 33 69  1  0  0  0
 36 70  1  0  0  0
 36 71  1  0  0  0
 36 72  1  0  0  0
M  END
$$$$
