4nms_ligand
  -I-interpret- 

118121  0  0  0  0  0  0  0  0999 V2000
   19.6480   26.5820   15.3230 N   0  3  0  0  0
   18.3180   26.9110   15.8200 C   0  0  0  0  0
   17.9760   26.0870   17.0580 C   0  0  0  0  0
   18.4620   24.9670   17.2170 O   0  0  0  0  0
   17.2570   26.6320   14.7580 C   0  0  0  0  0
   17.6010   27.0770   13.3680 C   0  0  0  0  0
   18.1970   28.2520   12.9940 C   0  0  0  0  0
   17.3570   26.3470   12.1620 C   0  0  0  0  0
   18.3380   28.2920   11.6240 N   0  0  0  0  0
   17.8350   27.1330   11.0920 C   0  0  0  0  0
   16.7870   25.1020   11.8830 C   0  0  0  0  0
   17.7550   26.7120    9.7640 C   0  0  0  0  0
   16.7110   24.6850   10.5640 C   0  0  0  0  0
   17.1940   25.4890    9.5220 C   0  0  0  0  0
   17.1040   26.6280   17.9220 N   0  0  0  0  0
   16.6460   25.8990   19.1070 C   0  0  0  0  0
   15.7820   24.6950   18.7360 C   0  0  0  0  0
   15.1450   24.6660   17.6740 O   0  0  0  0  0
   15.7920   26.9360   19.8420 C   0  0  0  0  0
   15.2750   27.8110   18.7530 C   0  0  0  0  0
   16.4250   27.9270   17.7850 C   0  0  0  0  0
   15.7560   23.7150   19.6280 N   0  0  0  0  0
   14.9470   22.5180   19.4270 C   0  0  0  0  0
   14.1470   22.2650   20.6830 C   0  0  0  0  0
   14.6730   22.3880   21.7860 O   0  0  0  0  0
   15.8230   21.2930   19.1470 C   0  0  0  0  0
   16.5980   21.5270   17.9630 O   0  0  0  0  0
   14.9560   20.0520   18.9370 C   0  0  0  0  0
   12.8670   21.9380   20.5240 N   0  0  0  0  0
   12.0270   21.6040   21.6670 C   0  0  0  0  0
   11.3870   20.2460   21.4170 C   0  0  0  0  0
   10.9490   19.9610   20.2980 O   0  0  0  0  0
   10.9240   22.6570   21.8650 C   0  0  0  0  0
   11.4810   23.9350   22.1480 O   0  0  0  0  0
   11.3350   19.4050   22.4470 N   0  0  0  0  0
   10.5560   18.1710   22.3690 C   0  0  0  0  0
    9.1630   18.4860   22.8550 C   0  0  0  0  0
    9.0020   19.1450   23.8920 O   0  0  0  0  0
   11.1510   17.0690   23.2540 C   0  0  0  0  0
   12.5620   16.6760   22.8840 C   0  0  0  0  0
   12.8680   15.2900   23.3980 C   0  0  0  0  0
   12.9070   15.2530   24.9220 C   0  0  0  0  0
   14.0800   16.0180   25.4340 N   0  0  0  0  0
   12.7810   17.8500   26.1630 O   0  0  0  0  0
   13.9170   17.3200   26.0740 C   0  0  0  0  0
   15.1120   18.1080   26.4600 C   0  0  0  0  0
   16.3650   17.7070   26.0290 C   0  0  0  0  0
   17.4820   18.4440   26.3850 C   0  0  0  0  0
   17.3430   19.5760   27.1740 C   0  0  0  0  0
   18.4170   20.2790   27.5130 F   0  0  0  0  0
   16.0880   19.9740   27.6060 C   0  0  0  0  0
   14.9680   19.2380   27.2510 C   0  0  0  0  0
    8.1660   18.0250   22.1030 N   0  0  0  0  0
    6.7720   18.2920   22.4280 C   0  0  0  0  0
    5.9180   17.0510   22.2140 C   0  0  0  0  0
    6.3660   16.0060   21.7100 O   0  0  0  0  0
    6.1900   19.4390   21.5650 C   0  0  0  0  0
    6.3150   19.0870   20.0770 C   0  0  0  0  0
    6.9030   20.7550   21.8720 C   0  0  0  0  0
    5.7160   20.1320   19.1400 C   0  0  0  0  0
    4.7430   17.0730   22.5670 O   0  0  0  0  0
   20.3384   26.7763   16.0483 H   0  0  0  0  0
   19.6822   25.5931   15.0755 H   0  0  0  0  0
   19.8510   27.1472   14.4986 H   0  0  0  0  0
   18.3252   27.9715   16.0719 H   0  0  0  0  0
   16.3693   27.1920   15.0520 H   0  0  0  0  0
   17.1373   25.5494   14.7163 H   0  0  0  0  0
   18.5130   29.0390   13.6788 H   0  0  0  0  0
   16.4094   24.4711   12.6877 H   0  0  0  0  0
   18.1259   27.3349    8.9501 H   0  0  0  0  0
   16.2685   23.7161   10.3327 H   0  0  0  0  0
   17.1205   25.1307    8.4952 H   0  0  0  0  0
   17.4758   25.5031   19.6925 H   0  0  0  0  0
   16.3644   27.4928   20.5839 H   0  0  0  0  0
   14.9900   26.4770   20.4202 H   0  0  0  0  0
   14.9557   28.7838   19.1270 H   0  0  0  0  0
   14.3846   27.3946   18.2820 H   0  0  0  0  0
   16.0999   28.1286   16.7643 H   0  0  0  0  0
   17.0788   28.7711   18.0044 H   0  0  0  0  0
   16.3158   23.8000   20.4764 H   0  0  0  0  0
   14.2952   22.6781   18.5681 H   0  0  0  0  0
   16.4790   21.1277   20.0016 H   0  0  0  0  0
   17.1480   20.7605   17.7853 H   0  0  0  0  0
   14.3644   19.8676   19.8338 H   0  0  0  0  0
   14.2912   20.2141   18.0886 H   0  0  0  0  0
   15.5962   19.1923   18.7394 H   0  0  0  0  0
   12.4669   21.9208   19.5859 H   0  0  0  0  0
   12.6427   21.5802   22.5661 H   0  0  0  0  0
   10.2999   22.3545   22.7059 H   0  0  0  0  0
   10.3395   22.7266   20.9476 H   0  0  0  0  0
   10.7729   24.5722   22.2669 H   0  0  0  0  0
   11.8456   19.6246   23.3023 H   0  0  0  0  0
   10.5585   17.8098   21.3406 H   0  0  0  0  0
   10.5267   16.1840   23.1308 H   0  0  0  0  0
   11.1801   17.4543   24.2732 H   0  0  0  0  0
   13.2590   17.3847   23.3313 H   0  0  0  0  0
   12.6621   16.6845   21.7986 H   0  0  0  0  0
   13.8459   14.9908   23.0209 H   0  0  0  0  0
   12.0831   14.6149   23.0569 H   0  0  0  0  0
   12.9907   14.2165   25.2487 H   0  0  0  0  0
   11.9937   15.7038   25.3103 H   0  0  0  0  0
   15.0154   15.6236   25.3351 H   0  0  0  0  0
   16.4719   16.8148   25.4120 H   0  0  0  0  0
   18.4703   18.1344   26.0451 H   0  0  0  0  0
   15.9814   20.8652   28.2245 H   0  0  0  0  0
   13.9795   19.5459   27.5918 H   0  0  0  0  0
    8.3847   17.4693   21.2761 H   0  0  0  0  0
    6.7488   18.5864   23.4772 H   0  0  0  0  0
    7.2903   16.1321   21.4834 H   0  0  0  0  0
    5.1345   19.5631   21.8070 H   0  0  0  0  0
    5.7680   18.1578   19.9173 H   0  0  0  0  0
    7.3787   19.0197   19.8488 H   0  0  0  0  0
    6.7703   21.0015   22.9254 H   0  0  0  0  0
    7.9657   20.6507   21.6530 H   0  0  0  0  0
    6.4799   21.5483   21.2558 H   0  0  0  0  0
    4.6538   20.2459   19.3564 H   0  0  0  0  0
    6.2228   21.0853   19.2896 H   0  0  0  0  0
    5.8451   19.8086   18.1071 H   0  0  0  0  0
  1  2  1  0  0  0
  2  3  1  0  0  0
  2  5  1  0  0  0
  3  4  2  0  0  0
  3 15  1  0  0  0
  5  6  1  0  0  0
  6  7  4  0  0  0
  6  8  4  0  0  0
  7  9  4  0  0  0
  8 10  4  0  0  0
  8 11  4  0  0  0
  9 10  4  0  0  0
 10 12  4  0  0  0
 11 13  4  0  0  0
 12 14  4  0  0  0
 13 14  4  0  0  0
 15 16  1  0  0  0
 15 21  1  0  0  0
 16 17  1  0  0  0
 16 19  1  0  0  0
 17 18  2  0  0  0
 17 22  1  0  0  0
 19 20  1  0  0  0
 20 21  1  0  0  0
 22 23  1  0  0  0
 23 24  1  0  0  0
 23 26  1  0  0  0
 24 25  2  0  0  0
 24 29  1  0  0  0
 26 27  1  0  0  0
 26 28  1  0  0  0
 29 30  1  0  0  0
 30 31  1  0  0  0
 30 33  1  0  0  0
 31 32  2  0  0  0
 31 35  1  0  0  0
 33 34  1  0  0  0
 35 36  1  0  0  0
 36 37  1  0  0  0
 36 39  1  0  0  0
 37 38  2  0  0  0
 37 53  1  0  0  0
 39 40  1  0  0  0
 40 41  1  0  0  0
 41 42  1  0  0  0
 42 43  1  0  0  0
 43 45  1  0  0  0
 45 44  2  0  0  0
 45 46  1  0  0  0
 46 47  4  0  0  0
 46 52  4  0  0  0
 47 48  4  0  0  0
 48 49  4  0  0  0
 49 50  1  0  0  0
 49 51  4  0  0  0
 51 52  4  0  0  0
 53 54  1  0  0  0
 54 55  1  0  0  0
 54 57  1  0  0  0
 55 56  1  0  0  0
 55 61  2  0  0  0
 57 58  1  0  0  0
 57 59  1  0  0  0
 58 60  1  0  0  0
  1 62  1  0  0  0
  1 63  1  0  0  0
  1 64  1  0  0  0
  2 65  1  0  0  0
  5 66  1  0  0  0
  5 67  1  0  0  0
  7 68  1  0  0  0
 11 69  1  0  0  0
 12 70  1  0  0  0
 13 71  1  0  0  0
 14 72  1  0  0  0
 16 73  1  0  0  0
 19 74  1  0  0  0
 19 75  1  0  0  0
 20 76  1  0  0  0
 20 77  1  0  0  0
 21 78  1  0  0  0
 21 79  1  0  0  0
 22 80  1  0  0  0
 23 81  1  0  0  0
 26 82  1  0  0  0
 27 83  1  0  0  0
 28 84  1  0  0  0
 28 85  1  0  0  0
 28 86  1  0  0  0
 29 87  1  0  0  0
 30 88  1  0  0  0
 33 89  1  0  0  0
 33 90  1  0  0  0
 34 91  1  0  0  0
 35 92  1  0  0  0
 36 93  1  0  0  0
 39 94  1  0  0  0
 39 95  1  0  0  0
 40 96  1  0  0  0
 40 97  1  0  0  0
 41 98  1  0  0  0
 41 99  1  0  0  0
 42100  1  0  0  0
 42101  1  0  0  0
 43102  1  0  0  0
 47103  1  0  0  0
 48104  1  0  0  0
 51105  1  0  0  0
 52106  1  0  0  0
 53107  1  0  0  0
 54108  1  0  0  0
 56109  1  0  0  0
 57110  1  0  0  0
 58111  1  0  0  0
 58112  1  0  0  0
 59113  1  0  0  0
 59114  1  0  0  0
 59115  1  0  0  0
 60116  1  0  0  0
 60117  1  0  0  0
 60118  1  0  0  0
M  END
$$$$
