### 
### Created by X-TOOL on Mon Sep 10 21:13:17 2018
### 

@<TRIPOS>MOLECULE
4nms_ligand
  118   121     1     0     0
SMALL
GAST_HUCK


@<TRIPOS>ATOM
      1 N          19.6480   26.5820   15.3230 N.4       1 TRP         0.2388
      2 CA         18.3180   26.9110   15.8200 C.3       1 TRP         0.0693
      3 C          17.9760   26.0870   17.0580 C.2       1 TRP         0.2305
      4 O          18.4620   24.9670   17.2170 O.2       1 TRP        -0.3904
      5 CB         17.2570   26.6320   14.7580 C.3       1 TRP         0.0245
      6 CG         17.6010   27.0770   13.3680 C.2       1 TRP        -0.0386
      7 CD1        18.1970   28.2520   12.9940 C.2       1 TRP         0.0168
      8 CD2        17.3570   26.3470   12.1620 C.ar      1 TRP        -0.0213
      9 NE1        18.3380   28.2920   11.6240 N.pl3     1 TRP        -0.2890
     10 CE2        17.8350   27.1330   11.0920 C.ar      1 TRP         0.0603
     11 CE3        16.7870   25.1020   11.8830 C.ar      1 TRP        -0.0747
     12 CZ2        17.7550   26.7120    9.7640 C.ar      1 TRP        -0.0443
     13 CZ3        16.7110   24.6850   10.5640 C.ar      1 TRP        -0.0792
     14 CH2        17.1940   25.4890    9.5220 C.ar      1 TRP        -0.0768
     15 N          17.1040   26.6280   17.9220 N.am      1 PRO        -0.2470
     16 CA         16.6460   25.8990   19.1070 C.3       1 PRO         0.1339
     17 C          15.7820   24.6950   18.7360 C.2       1 PRO         0.2042
     18 O          15.1450   24.6660   17.6740 O.2       1 PRO        -0.3944
     19 CB         15.7920   26.9360   19.8420 C.3       1 PRO        -0.0104
     20 CG         15.2750   27.8110   18.7530 C.3       1 PRO        -0.0281
     21 CD         16.4250   27.9270   17.7850 C.3       1 PRO         0.0371
     22 N          15.7560   23.7150   19.6280 N.am      1 THR        -0.2613
     23 CA         14.9470   22.5180   19.4270 C.3       1 THR         0.1565
     24 C          14.1470   22.2650   20.6830 C.2       1 THR         0.2065
     25 O          14.6730   22.3880   21.7860 O.2       1 THR        -0.3943
     26 CB         15.8230   21.2930   19.1470 C.3       1 THR         0.0924
     27 OG1        16.5980   21.5270   17.9630 O.3       1 THR        -0.3874
     28 CG2        14.9560   20.0520   18.9370 C.3       1 THR        -0.0346
     29 N          12.8670   21.9380   20.5240 N.am      1 SER        -0.2615
     30 CA         12.0270   21.6040   21.6670 C.3       1 SER         0.1539
     31 C          11.3870   20.2460   21.4170 C.2       1 SER         0.2062
     32 O          10.9490   19.9610   20.2980 O.2       1 SER        -0.3943
     33 CB         10.9240   22.6570   21.8650 C.3       1 SER         0.0843
     34 OG         11.4810   23.9350   22.1480 O.3       1 SER        -0.3903
     35 N          11.3350   19.4050   22.4470 N.am      1 2KK        -0.2637
     36 CA         10.5560   18.1710   22.3690 C.3       1 2KK         0.1309
     37 C           9.1630   18.4860   22.8550 C.2       1 2KK         0.2033
     38 O           9.0020   19.1450   23.8920 O.2       1 2KK        -0.3944
     39 CB         11.1510   17.0690   23.2540 C.3       1 2KK        -0.0123
     40 CG         12.5620   16.6760   22.8840 C.3       1 2KK        -0.0470
     41 CD         12.8680   15.2900   23.3980 C.3       1 2KK        -0.0326
     42 CE         12.9070   15.2530   24.9220 C.3       1 2KK         0.0303
     43 NZ         14.0800   16.0180   25.4340 N.am      1 2KK        -0.2867
     44 O01        12.7810   17.8500   26.1630 O.2       1 2KK        -0.3866
     45 C02        13.9170   17.3200   26.0740 C.2       1 2KK         0.2019
     46 C04        15.1120   18.1080   26.4600 C.ar      1 2KK         0.0457
     47 C05        16.3650   17.7070   26.0290 C.ar      1 2KK        -0.0437
     48 C06        17.4820   18.4440   26.3850 C.ar      1 2KK        -0.0223
     49 C07        17.3430   19.5760   27.1740 C.ar      1 2KK         0.1375
     50 F08        18.4170   20.2790   27.5130 F         1 2KK        -0.1794
     51 C09        16.0880   19.9740   27.6060 C.ar      1 2KK        -0.0223
     52 C10        14.9680   19.2380   27.2510 C.ar      1 2KK        -0.0437
     53 N           8.1660   18.0250   22.1030 N.am      1 ILE        -0.2692
     54 CA          6.7720   18.2920   22.4280 C.3       1 ILE         0.0969
     55 C           5.9180   17.0510   22.2140 C.2       1 ILE         0.0604
     56 O           6.3660   16.0060   21.7100 O.co2     1 ILE        -0.5666
     57 CB          6.1900   19.4390   21.5650 C.3       1 ILE        -0.0092
     58 CG1         6.3150   19.0870   20.0770 C.3       1 ILE        -0.0497
     59 CG2         6.9030   20.7550   21.8720 C.3       1 ILE        -0.0588
     60 CD1         5.7160   20.1320   19.1400 C.3       1 ILE        -0.0649
     61 OXT         4.7430   17.0730   22.5670 O.co2     1 ILE        -0.5666
     62 H          19.8489   27.1386   14.5070 H         1 TRP         0.2016
     63 H          19.6836   25.6044   15.0799 H         1 TRP         0.2016
     64 H          20.3314   26.7755   16.0383 H         1 TRP         0.2016
     65 H          18.2957   27.9794   16.0808 H         1 TRP         0.1114
     66 H          16.3326   27.1465   15.0593 H         1 TRP         0.0430
     67 H          17.0808   25.5465   14.7322 H         1 TRP         0.0430
     68 H          18.5127   29.0383   13.6781 H         1 TRP         0.0795
     69 H          18.7536   29.0665   11.0870 H         1 TRP         0.2216
     70 H          16.4115   24.4745   12.6832 H         1 TRP         0.0540
     71 H          18.1239   27.3315    8.9546 H         1 TRP         0.0541
     72 H          16.2709   23.7214   10.3339 H         1 TRP         0.0510
     73 H          17.1209   25.1327    8.5008 H         1 TRP         0.0530
     74 H          17.4973   25.5699   19.7210 H         1 PRO         0.0802
     75 H          16.4024   27.5137   20.5516 H         1 PRO         0.0313
     76 H          14.9645   26.4509   20.3804 H         1 PRO         0.0313
     77 H          14.9972   28.7997   19.1472 H         1 PRO         0.0287
     78 H          14.4019   27.3517   18.2664 H         1 PRO         0.0287
     79 H          16.0632   28.0778   16.7572 H         1 PRO         0.0524
     80 H          17.0942   28.7545   18.0632 H         1 PRO         0.0524
     81 H          16.3048   23.7983   20.4598 H         1 THR         0.1884
     82 H          14.2665   22.6782   18.5777 H         1 THR         0.0826
     83 H          16.4963   21.1258   20.0006 H         1 THR         0.0639
     84 H          17.1487   22.2903   18.0920 H         1 THR         0.2101
     85 H          15.6010   19.1836   18.7375 H         1 THR         0.0257
     86 H          14.2846   20.2143   18.0810 H         1 THR         0.0257
     87 H          14.3585   19.8648   19.8414 H         1 THR         0.0257
     88 H          12.4747   21.9212   19.6043 H         1 SER         0.1884
     89 H          12.6485   21.5581   22.5735 H         1 SER         0.0823
     90 H          10.2818   22.3512   22.7041 H         1 SER         0.0606
     91 H          10.3214   22.7230   20.9471 H         1 SER         0.0606
     92 H          11.9996   23.8843   22.9423 H         1 SER         0.2097
     93 H          11.8356   19.6203   23.2855 H         1 2KK         0.1883
     94 H          10.5234   17.8214   21.3266 H         1 2KK         0.0800
     95 H          10.5116   16.1777   23.1728 H         1 2KK         0.0312
     96 H          11.1532   17.4251   24.2947 H         1 2KK         0.0312
     97 H          13.2676   17.3928   23.3293 H         1 2KK         0.0268
     98 H          12.6678   16.6892   21.7892 H         1 2KK         0.0268
     99 H          13.8463   14.9724   23.0080 H         1 2KK         0.0285
    100 H          12.0898   14.5979   23.0439 H         1 2KK         0.0285
    101 H          12.9826   14.2079   25.2568 H         1 2KK         0.0519
    102 H          11.9831   15.6992   25.3185 H         1 2KK         0.0519
    103 H          14.9971   15.6313   25.3370 H         1 2KK         0.1843
    104 H          16.4713   16.8197   25.4154 H         1 2KK         0.0659
    105 H          18.4649   18.1361   26.0470 H         1 2KK         0.0616
    106 H          15.9820   20.8603   28.2211 H         1 2KK         0.0616
    107 H          13.9849   19.5442   27.5899 H         1 2KK         0.0659
    108 H           8.3804   17.4802   21.2923 H         1 ILE         0.1875
    109 H           6.7160   18.5843   23.4870 H         1 ILE         0.0729
    110 H           5.1238   19.5558   21.8090 H         1 ILE         0.0338
    111 H           5.7999   18.1307   19.9032 H         1 ILE         0.0267
    112 H           7.3826   18.9776   19.8358 H         1 ILE         0.0267
    113 H           6.8003   20.9866   22.9424 H         1 ILE         0.0234
    114 H           6.4529   21.5634   21.2771 H         1 ILE         0.0234
    115 H           7.9692   20.6624   21.6176 H         1 ILE         0.0234
    116 H           5.8457   19.8067   18.0972 H         1 ILE         0.0230
    117 H           6.2267   21.0947   19.2899 H         1 ILE         0.0230
    118 H           4.6439   20.2478   19.3573 H         1 ILE         0.0230
@<TRIPOS>BOND
     1    1    2 1  
     2    2    3 1  
     3    2    5 1  
     4    3    4 2  
     5    3   15 am 
     6    5    6 1  
     7    6    7 2  
     8    6    8 1  
     9    7    9 1  
    10    8   10 ar 
    11    8   11 ar 
    12    9   10 1  
    13   10   12 ar 
    14   11   13 ar 
    15   12   14 ar 
    16   13   14 ar 
    17   15   16 1  
    18   15   21 1  
    19   16   17 1  
    20   16   19 1  
    21   17   18 2  
    22   17   22 am 
    23   19   20 1  
    24   20   21 1  
    25   22   23 1  
    26   23   24 1  
    27   23   26 1  
    28   24   25 2  
    29   24   29 am 
    30   26   27 1  
    31   26   28 1  
    32   29   30 1  
    33   30   31 1  
    34   30   33 1  
    35   31   32 2  
    36   31   35 am 
    37   33   34 1  
    38   35   36 1  
    39   36   37 1  
    40   36   39 1  
    41   37   38 2  
    42   37   53 am 
    43   39   40 1  
    44   40   41 1  
    45   41   42 1  
    46   42   43 1  
    47   43   45 am 
    48   45   44 2  
    49   45   46 1  
    50   46   47 ar 
    51   46   52 ar 
    52   47   48 ar 
    53   48   49 ar 
    54   49   50 1  
    55   49   51 ar 
    56   51   52 ar 
    57   53   54 1  
    58   54   55 1  
    59   54   57 1  
    60   55   56 ar 
    61   55   61 ar 
    62   57   58 1  
    63   57   59 1  
    64   58   60 1  
    65    1   62 1  
    66    1   63 1  
    67    1   64 1  
    68    2   65 1  
    69    5   66 1  
    70    5   67 1  
    71    7   68 1  
    72    9   69 1  
    73   11   70 1  
    74   12   71 1  
    75   13   72 1  
    76   14   73 1  
    77   16   74 1  
    78   19   75 1  
    79   19   76 1  
    80   20   77 1  
    81   20   78 1  
    82   21   79 1  
    83   21   80 1  
    84   22   81 1  
    85   23   82 1  
    86   26   83 1  
    87   27   84 1  
    88   28   85 1  
    89   28   86 1  
    90   28   87 1  
    91   29   88 1  
    92   30   89 1  
    93   33   90 1  
    94   33   91 1  
    95   34   92 1  
    96   35   93 1  
    97   36   94 1  
    98   39   95 1  
    99   39   96 1  
   100   40   97 1  
   101   40   98 1  
   102   41   99 1  
   103   41  100 1  
   104   42  101 1  
   105   42  102 1  
   106   43  103 1  
   107   47  104 1  
   108   48  105 1  
   109   51  106 1  
   110   52  107 1  
   111   53  108 1  
   112   54  109 1  
   113   57  110 1  
   114   58  111 1  
   115   58  112 1  
   116   59  113 1  
   117   59  114 1  
   118   59  115 1  
   119   60  116 1  
   120   60  117 1  
   121   60  118 1  
@<TRIPOS>SUBSTRUCTURE
     1 TRP         1

