4cc5_ligand
  -I-interpret- 

 15 16  0  0  0  0  0  0  0  0999 V2000
   25.9270   21.1350    7.3410 Cl  0  0  0  0  0
   26.7510   20.1870    8.5410 C   0  0  0  0  0
   26.9060   18.8330    8.3370 C   0  0  0  0  0
   27.5310   18.0650    9.2310 N   0  0  0  0  0
   27.9820   18.7070   10.3110 C   0  0  0  0  0
   27.8180   20.0750   10.5000 C   0  0  0  0  0
   27.1860   20.8490    9.5990 N   0  0  0  0  0
   28.3190   20.7550   11.6920 C   0  0  0  0  0
   28.2970   22.0620   11.8930 N   0  0  0  0  0
   28.8590   22.2920   13.1330 N   0  0  0  0  0
   29.1950   21.1300   13.6280 C   0  0  0  0  0
   28.8750   20.1700   12.7660 N   0  0  0  0  0
   26.5103   18.3808    7.4276 H   0  0  0  0  0
   28.5018   18.1337   11.0786 H   0  0  0  0  0
   29.6654   20.9723   14.5986 H   0  0  0  0  0
  1  2  1  0  0  0
  2  3  4  0  0  0
  2  7  4  0  0  0
  3  4  4  0  0  0
  4  5  4  0  0  0
  5  6  4  0  0  0
  6  7  4  0  0  0
  6  8  1  0  0  0
  8  9  4  0  0  0
  8 12  4  0  0  0
  9 10  4  0  0  0
 10 11  4  0  0  0
 11 12  4  0  0  0
  3 13  1  0  0  0
  5 14  1  0  0  0
 11 15  1  0  0  0
M  END
$$$$
