2erz_ligand
  -I-interpret- 

 39 41  0  0  0  0  0  0  0  0999 V2000
    3.2140   10.1010    5.0010 O   0  0  0  0  0
    3.9290   10.0530    4.0080 C   0  0  0  0  0
    3.4180    9.8960    2.6910 N   0  0  0  0  0
    4.1710    9.7230    1.5130 C   0  0  0  0  0
    5.6280    9.6860    1.6100 C   0  0  0  0  0
    6.2700    9.8290    2.9300 C   0  0  0  0  0
    7.7840    9.7510    3.1200 C   0  0  0  0  0
    8.3480    9.8820    4.4760 C   0  0  0  0  0
    7.4880   10.0900    5.6350 C   0  0  0  0  0
    6.0260   10.1620    5.4880 C   0  0  0  0  0
    5.4050   10.0290    4.1800 C   0  0  0  0  0
    8.9840    9.4800    1.7980 S   0  0  0  0  0
    8.6930    8.2590    1.0890 O   0  0  0  0  0
    9.0520   10.6840    1.0040 O   0  0  0  0  0
   10.6270    9.1530    2.4630 N   0  0  0  0  0
   11.5000   10.1780    3.1110 C   0  0  0  0  0
   12.7050   10.4750    2.2230 C   0  0  0  0  0
   13.7050    9.3150    2.2280 C   0  0  0  0  0
   13.1750    8.1110    1.5490 N   0  3  0  0  0
   12.4060    7.2950    2.5170 C   0  0  0  0  0
   10.9790    7.7520    2.8260 C   0  0  0  0  0
    2.4033    9.9100    2.5884 H   0  0  0  0  0
    3.6758    9.6187    0.5476 H   0  0  0  0  0
    6.2354    9.5539    0.7146 H   0  0  0  0  0
    9.4275    9.8223    4.6146 H   0  0  0  0  0
    7.9345   10.1936    6.6239 H   0  0  0  0  0
    5.4021   10.3166    6.3683 H   0  0  0  0  0
   11.8477    9.7971    4.0713 H   0  0  0  0  0
   10.9284   11.0944    3.2577 H   0  0  0  0  0
   13.2056   11.3642    2.6062 H   0  0  0  0  0
   12.3534   10.6235    1.2020 H   0  0  0  0  0
   13.9131    9.0533    3.2654 H   0  0  0  0  0
   14.5988    9.6376    1.6941 H   0  0  0  0  0
   13.9503    7.5599    1.1807 H   0  0  0  0  0
   12.5641    8.3944    0.7829 H   0  0  0  0  0
   12.9504    7.3573    3.4593 H   0  0  0  0  0
   12.3124    6.3067    2.0669 H   0  0  0  0  0
   10.3258    7.1157    2.2288 H   0  0  0  0  0
   10.8731    7.6886    3.9090 H   0  0  0  0  0
  1  2  2  0  0  0
  2  3  1  0  0  0
  2 11  1  0  0  0
  3  4  1  0  0  0
  4  5  2  0  0  0
  5  6  1  0  0  0
  6  7  4  0  0  0
  6 11  4  0  0  0
  7  8  4  0  0  0
  7 12  1  0  0  0
  8  9  4  0  0  0
  9 10  4  0  0  0
 10 11  4  0  0  0
 12 13  2  0  0  0
 12 14  2  0  0  0
 12 15  1  0  0  0
 15 16  1  0  0  0
 15 21  1  0  0  0
 16 17  1  0  0  0
 17 18  1  0  0  0
 18 19  1  0  0  0
 19 20  1  0  0  0
 20 21  1  0  0  0
  3 22  1  0  0  0
  4 23  1  0  0  0
  5 24  1  0  0  0
  8 25  1  0  0  0
  9 26  1  0  0  0
 10 27  1  0  0  0
 16 28  1  0  0  0
 16 29  1  0  0  0
 17 30  1  0  0  0
 17 31  1  0  0  0
 18 32  1  0  0  0
 18 33  1  0  0  0
 19 34  1  0  0  0
 19 35  1  0  0  0
 20 36  1  0  0  0
 20 37  1  0  0  0
 21 38  1  0  0  0
 21 39  1  0  0  0
M  END
$$$$
