5mo0_ligand
  -I-interpret- 

 17 17  0  0  0  0  0  0  0  0999 V2000
   -1.8380  -14.8810  -17.1570 C   0  0  0  0  0
   -1.9930  -13.5000  -17.1510 C   0  0  0  0  0
   -1.6700  -12.7600  -16.0280 C   0  0  0  0  0
   -1.1890  -13.3870  -14.8980 C   0  0  0  0  0
   -1.0180  -14.7550  -14.8960 C   0  0  0  0  0
   -1.3480  -15.5030  -16.0110 C   0  0  0  0  0
   -2.1870  -15.6740  -18.3500 C   0  0  0  0  0
   -1.7870  -16.9180  -18.4460 N   0  0  0  0  0
   -2.9020  -15.1410  -19.3070 N   0  0  0  0  0
   -2.3726  -12.9954  -18.0394 H   0  0  0  0  0
   -1.7961  -11.6774  -16.0363 H   0  0  0  0  0
   -0.9450  -12.8036  -14.0102 H   0  0  0  0  0
   -0.6202  -15.2499  -14.0100 H   0  0  0  0  0
   -1.2240  -16.5858  -15.9932 H   0  0  0  0  0
   -2.0331  -17.4709  -19.2670 H   0  0  0  0  0
   -1.2295  -17.3335  -17.6997 H   0  0  0  0  0
   -3.1482  -15.6938  -20.1281 H   0  0  0  0  0
  1  2  4  0  0  0
  1  6  4  0  0  0
  1  7  1  0  0  0
  2  3  4  0  0  0
  3  4  4  0  0  0
  4  5  4  0  0  0
  5  6  4  0  0  0
  7  8  1  0  0  0
  7  9  2  0  0  0
  2 10  1  0  0  0
  3 11  1  0  0  0
  4 12  1  0  0  0
  5 13  1  0  0  0
  6 14  1  0  0  0
  8 15  1  0  0  0
  8 16  1  0  0  0
  9 17  1  0  0  0
M  END
$$$$
