966c_ligand
  -I-interpret- 

 48 50  0  0  0  0  0  0  0  0999 V2000
    6.7140   -7.7550   42.3250 C   0  0  0  0  0
    5.3340   -7.8810   42.2350 C   0  0  0  0  0
    4.7190   -7.7530   41.0000 C   0  0  0  0  0
    5.4650   -7.5420   39.8360 C   0  0  0  0  0
    6.8450   -7.4470   39.9210 C   0  0  0  0  0
    7.4640   -7.5190   41.1630 C   0  0  0  0  0
    7.5780   -7.3090   38.7820 O   0  0  0  0  0
    8.1470   -8.4410   38.1950 C   0  0  0  0  0
    8.1560   -9.7450   38.7750 C   0  0  0  0  0
    8.7360  -10.8210   38.0880 C   0  0  0  0  0
    9.2480  -10.6020   36.8260 C   0  0  0  0  0
    9.3280   -9.3170   36.2600 C   0  0  0  0  0
    8.7630   -8.2400   36.9520 C   0  0  0  0  0
    9.7950  -12.0130   35.8710 S   0  0  0  0  0
   11.5470  -12.1890   36.1860 C   0  0  0  0  0
    9.5630  -11.7280   34.4700 O   0  0  0  0  0
    9.1070  -13.1280   36.4170 O   0  0  0  0  0
   12.3670  -11.0400   35.4610 C   0  0  0  0  0
   12.6400   -9.6860   36.2030 C   0  0  0  0  0
   12.9450   -9.6110   37.3810 O   0  0  0  0  0
   12.5200   -8.5850   35.4500 N   0  0  0  0  0
   12.6700   -7.2650   35.9480 O   0  0  0  0  0
   11.8130  -13.5790   35.5150 C   0  0  0  0  0
   13.2860  -14.0460   35.7420 C   0  0  0  0  0
   13.6120  -13.9490   37.1330 O   0  0  0  0  0
   13.3480  -12.7440   37.8640 C   0  0  0  0  0
   11.8640  -12.3560   37.7120 C   0  0  0  0  0
    7.2110   -7.8388   43.2915 H   0  0  0  0  0
    4.7402   -8.0787   43.1274 H   0  0  0  0  0
    3.6329   -7.8180   40.9344 H   0  0  0  0  0
    4.9658   -7.4531   38.8711 H   0  0  0  0  0
    8.5440   -7.3907   41.2353 H   0  0  0  0  0
    7.7099   -9.9052   39.7566 H   0  0  0  0  0
    8.7814  -11.8108   38.5422 H   0  0  0  0  0
    9.8210   -9.1629   35.3001 H   0  0  0  0  0
    8.8021   -7.2391   36.5221 H   0  0  0  0  0
   11.7510  -10.7631   34.6055 H   0  0  0  0  0
   13.3565  -11.4689   35.3027 H   0  0  0  0  0
   12.3081   -8.7025   34.4592 H   0  0  0  0  0
   12.5416   -6.6378   35.2327 H   0  0  0  0  0
   11.6399  -13.4856   34.4429 H   0  0  0  0  0
   11.1432  -14.3138   35.9617 H   0  0  0  0  0
   13.9599  -13.4109   35.1670 H   0  0  0  0  0
   13.3920  -15.0809   35.4166 H   0  0  0  0  0
   13.9725  -11.9409   37.4728 H   0  0  0  0  0
   13.5722  -12.9055   38.9184 H   0  0  0  0  0
   11.2307  -13.1327   38.1406 H   0  0  0  0  0
   11.6683  -11.4210   38.2370 H   0  0  0  0  0
  1  6  4  0  0  0
  1  2  4  0  0  0
  2  3  4  0  0  0
  3  4  4  0  0  0
  4  5  4  0  0  0
  5  7  1  0  0  0
  5  6  4  0  0  0
  7  8  1  0  0  0
  8 13  4  0  0  0
  8  9  4  0  0  0
  9 10  4  0  0  0
 10 11  4  0  0  0
 11 14  1  0  0  0
 11 12  4  0  0  0
 12 13  4  0  0  0
 14 17  2  0  0  0
 14 16  2  0  0  0
 14 15  1  0  0  0
 15 27  1  0  0  0
 15 23  1  0  0  0
 15 18  1  0  0  0
 18 19  1  0  0  0
 19 21  1  0  0  0
 19 20  2  0  0  0
 21 22  1  0  0  0
 23 24  1  0  0  0
 24 25  1  0  0  0
 25 26  1  0  0  0
 26 27  1  0  0  0
  1 28  1  0  0  0
  2 29  1  0  0  0
  3 30  1  0  0  0
  4 31  1  0  0  0
  6 32  1  0  0  0
  9 33  1  0  0  0
 10 34  1  0  0  0
 12 35  1  0  0  0
 13 36  1  0  0  0
 18 37  1  0  0  0
 18 38  1  0  0  0
 21 39  1  0  0  0
 22 40  1  0  0  0
 23 41  1  0  0  0
 23 42  1  0  0  0
 24 43  1  0  0  0
 24 44  1  0  0  0
 26 45  1  0  0  0
 26 46  1  0  0  0
 27 47  1  0  0  0
 27 48  1  0  0  0
M  END
$$$$
