1ela_ligand
  -I-interpret- 

 64 65  0  0  0  0  0  0  0  0999 V2000
   41.0260   23.4570   37.5520 C   0  0  0  0  0
   40.5080   23.4910   36.4290 O   0  0  0  0  0
   41.3570   24.7770   38.3540 C   0  0  0  0  0
   40.3210   25.6100   38.3690 F   0  0  0  0  0
   41.6550   24.6140   39.6510 F   0  0  0  0  0
   42.3640   25.4820   37.8480 F   0  0  0  0  0
   41.3550   22.2730   38.1070 N   0  0  0  0  0
   40.9500   20.9670   37.6240 C   0  0  0  0  0
   39.4240   20.9590   37.3850 C   0  0  0  0  0
   38.7000   21.3740   38.2770 O   0  0  0  0  0
   41.4240   19.9850   38.7160 C   0  0  0  0  0
   40.6820   18.6700   38.8800 C   0  0  0  0  0
   41.5880   17.4430   38.7380 C   0  0  0  0  0
   40.6760   16.2380   38.4700 C   0  0  0  0  0
   41.4070   14.9900   38.4870 N   0  3  0  0  0
   38.8360   20.5900   36.2350 N   0  0  0  0  0
   37.3820   20.3770   36.1140 C   0  0  0  0  0
   36.9250   19.0660   36.7880 C   0  0  0  0  0
   36.9440   17.9560   36.2220 O   0  0  0  0  0
   37.1460   20.4590   34.6080 C   0  0  0  0  0
   38.4480   19.9870   33.9860 C   0  0  0  0  0
   39.5430   20.4350   34.9620 C   0  0  0  0  0
   36.5850   19.3630   38.0670 N   0  0  0  0  0
   36.2230   18.4440   39.0040 C   0  0  0  0  0
   36.6700   17.1060   38.9640 C   0  0  0  0  0
   36.3750   16.2270   40.0160 C   0  0  0  0  0
   35.6300   16.6700   41.1260 C   0  0  0  0  0
   35.1810   17.9950   41.1620 C   0  0  0  0  0
   35.4700   18.8690   40.1080 C   0  0  0  0  0
   35.3340   15.7380   42.3120 C   0  0  0  0  0
   36.1110   14.4050   42.2320 C   0  0  0  0  0
   33.8640   15.4850   42.2850 C   0  0  0  0  0
   41.9413   22.2982   38.9413 H   0  0  0  0  0
   41.3848   20.6865   36.6646 H   0  0  0  0  0
   41.2777   20.5140   39.6577 H   0  0  0  0  0
   42.4376   19.7062   38.4279 H   0  0  0  0  0
   39.9282   18.6163   38.0945 H   0  0  0  0  0
   40.2586   18.6531   39.8843 H   0  0  0  0  0
   42.1727   17.2891   39.6450 H   0  0  0  0  0
   42.2957   17.5796   37.9203 H   0  0  0  0  0
   40.2326   16.3596   37.4817 H   0  0  0  0  0
   39.9208   16.2011   39.2551 H   0  0  0  0  0
   40.7648   14.2187   38.3052 H   0  0  0  0  0
   42.1286   15.0102   37.7664 H   0  0  0  0  0
   41.8412   14.8641   39.4013 H   0  0  0  0  0
   36.7767   21.1133   36.6428 H   0  0  0  0  0
   36.8879   21.4697   34.2919 H   0  0  0  0  0
   36.3008   19.8457   34.2954 H   0  0  0  0  0
   38.4562   18.9069   33.8394 H   0  0  0  0  0
   38.5964   20.4098   32.9924 H   0  0  0  0  0
   40.3601   19.7165   35.0265 H   0  0  0  0  0
   40.0303   21.3565   34.6436 H   0  0  0  0  0
   36.6017   20.3438   38.3465 H   0  0  0  0  0
   37.2483   16.7536   38.1099 H   0  0  0  0  0
   36.7242   15.1953   39.9744 H   0  0  0  0  0
   34.6029   18.3482   42.0159 H   0  0  0  0  0
   35.1044   19.8952   40.1457 H   0  0  0  0  0
   35.6542   16.2087   43.2415 H   0  0  0  0  0
   35.8358   13.8798   41.3174 H   0  0  0  0  0
   37.1816   14.6097   42.2268 H   0  0  0  0  0
   35.8619   13.7883   43.0956 H   0  0  0  0  0
   33.3319   16.4309   42.3864 H   0  0  0  0  0
   33.5949   15.0148   41.3392 H   0  0  0  0  0
   33.5950   14.8251   43.1098 H   0  0  0  0  0
  7  8  1  0  0  0
  8 11  1  0  0  0
  8  9  1  0  0  0
  9 10  2  0  0  0
 11 12  1  0  0  0
 12 13  1  0  0  0
 13 14  1  0  0  0
 14 15  1  0  0  0
 17 18  1  0  0  0
 17 20  1  0  0  0
 16 17  1  0  0  0
 16 22  1  0  0  0
 22 21  1  0  0  0
 21 20  1  0  0  0
 18 19  2  0  0  0
  9 16  1  0  0  0
  1  2  2  0  0  0
  1  3  1  0  0  0
  7  1  1  0  0  0
  3  4  1  0  0  0
  3  5  1  0  0  0
  3  6  1  0  0  0
 18 23  1  0  0  0
 23 24  1  0  0  0
 24 25  4  0  0  0
 24 29  4  0  0  0
 25 26  4  0  0  0
 26 27  4  0  0  0
 27 28  4  0  0  0
 27 30  1  0  0  0
 28 29  4  0  0  0
 30 31  1  0  0  0
 30 32  1  0  0  0
  7 33  1  0  0  0
  8 34  1  0  0  0
 11 35  1  0  0  0
 11 36  1  0  0  0
 12 37  1  0  0  0
 12 38  1  0  0  0
 13 39  1  0  0  0
 13 40  1  0  0  0
 14 41  1  0  0  0
 14 42  1  0  0  0
 15 43  1  0  0  0
 15 44  1  0  0  0
 15 45  1  0  0  0
 17 46  1  0  0  0
 20 47  1  0  0  0
 20 48  1  0  0  0
 21 49  1  0  0  0
 21 50  1  0  0  0
 22 51  1  0  0  0
 22 52  1  0  0  0
 23 53  1  0  0  0
 25 54  1  0  0  0
 26 55  1  0  0  0
 28 56  1  0  0  0
 29 57  1  0  0  0
 30 58  1  0  0  0
 31 59  1  0  0  0
 31 60  1  0  0  0
 31 61  1  0  0  0
 32 62  1  0  0  0
 32 63  1  0  0  0
 32 64  1  0  0  0
M  END
$$$$
