4nnn_ligand
  -I-interpret- 

 77 77  0  0  0  0  0  0  0  0999 V2000
   58.8420 -134.6280   34.9210 C   0  0  0  0  0
   58.7360 -135.8420   35.1050 O   0  0  0  0  0
   57.8130 -133.9160   34.3600 O   0  0  0  0  0
   56.7520 -134.6630   33.7800 C   0  0  0  0  0
   55.6330 -134.4450   34.6010 C   0  0  0  0  0
   54.7010 -133.4510   34.2890 C   0  0  0  0  0
   53.5900 -133.2410   35.1030 C   0  0  0  0  0
   53.3990 -134.0250   36.2370 C   0  0  0  0  0
   54.3220 -135.0180   36.5540 C   0  0  0  0  0
   55.4330 -135.2280   35.7390 C   0  0  0  0  0
   59.9790 -133.9940   35.2790 N   0  0  0  0  0
   61.1080 -134.6970   35.9240 C   0  0  0  0  0
   60.7360 -134.9020   37.3970 C   0  0  0  0  0
   60.2690 -133.9730   38.0530 O   0  0  0  0  0
   62.4090 -133.9210   35.8590 C   0  0  0  0  0
   62.7140 -133.5480   34.3900 C   0  0  0  0  0
   64.0650 -132.8690   34.3300 C   0  0  0  0  0
   62.7750 -134.7460   33.4590 C   0  0  0  0  0
   60.9540 -136.1380   37.8760 N   0  0  0  0  0
   60.6260 -136.5230   39.2610 C   0  0  0  0  0
   61.8870 -136.5110   40.1380 C   0  0  0  0  0
   62.8960 -137.1140   39.7770 O   0  0  0  0  0
   60.0380 -137.9520   39.2260 C   0  0  0  0  0
   58.7040 -138.0980   39.9850 C   0  0  0  0  0
   57.6840 -137.0300   39.5600 C   0  0  0  0  0
   58.9480 -138.0360   41.4980 C   0  0  0  0  0
   61.7900 -135.8270   41.2970 N   0  0  0  0  0
   62.9000 -135.7770   42.2660 C   0  0  0  0  0
   62.6940 -136.9440   43.2510 C   0  0  0  0  0
   62.9330 -134.4360   43.0300 C   0  0  0  0  0
   63.1240 -133.2260   42.1070 C   0  0  0  0  0
   63.1670 -131.9560   42.9630 C   0  0  0  0  0
   64.4220 -133.3340   41.3000 C   0  0  0  0  0
   61.5410 -136.6840   44.0670 O   0  0  0  0  0
   56.9999 -135.7229   33.7227 H   0  0  0  0  0
   56.5586 -134.3451   32.7555 H   0  0  0  0  0
   54.8447 -132.8350   33.4013 H   0  0  0  0  0
   52.8700 -132.4623   34.8516 H   0  0  0  0  0
   52.5300 -133.8622   36.8746 H   0  0  0  0  0
   54.1753 -135.6329   37.4420 H   0  0  0  0  0
   56.1503 -136.0088   35.9920 H   0  0  0  0  0
   60.0619 -132.9937   35.0978 H   0  0  0  0  0
   61.2712 -135.6356   35.3944 H   0  0  0  0  0
   63.2185 -134.5353   36.2534 H   0  0  0  0  0
   62.3198 -133.0118   36.4536 H   0  0  0  0  0
   61.8989 -132.9037   34.0605 H   0  0  0  0  0
   64.0453 -131.9686   34.9440 H   0  0  0  0  0
   64.8292 -133.5496   34.7053 H   0  0  0  0  0
   64.2902 -132.6015   33.2976 H   0  0  0  0  0
   63.5600 -135.4245   33.7930 H   0  0  0  0  0
   61.8158 -135.2636   33.4717 H   0  0  0  0  0
   62.9928 -134.4068   32.4463 H   0  0  0  0  0
   61.3627 -136.8380   37.2569 H   0  0  0  0  0
   59.9113 -135.8162   39.6825 H   0  0  0  0  0
   60.7594 -138.6111   39.7090 H   0  0  0  0  0
   59.8451 -138.1975   38.1817 H   0  0  0  0  0
   58.2817 -139.0700   39.7302 H   0  0  0  0  0
   58.0892 -136.0396   39.7673 H   0  0  0  0  0
   57.4830 -137.1256   38.4930 H   0  0  0  0  0
   56.7590 -137.1699   40.1193 H   0  0  0  0  0
   59.6168 -138.8456   41.7904 H   0  0  0  0  0
   59.4018 -137.0782   41.7526 H   0  0  0  0  0
   57.9982 -138.1403   42.0225 H   0  0  0  0  0
   60.9245 -135.3306   41.5087 H   0  0  0  0  0
   63.8517 -135.8622   41.7415 H   0  0  0  0  0
   63.5741 -137.0427   43.8865 H   0  0  0  0  0
   62.5433 -137.8681   42.6930 H   0  0  0  0  0
   63.7781 -134.4660   43.7178 H   0  0  0  0  0
   61.9755 -134.3190   43.5376 H   0  0  0  0  0
   62.2915 -133.1922   41.4042 H   0  0  0  0  0
   62.2311 -131.8583   43.5131 H   0  0  0  0  0
   63.9978 -132.0209   43.6656 H   0  0  0  0  0
   63.3026 -131.0885   42.3171 H   0  0  0  0  0
   65.2699 -133.3846   41.9831 H   0  0  0  0  0
   64.3933 -134.2349   40.6871 H   0  0  0  0  0
   64.5229 -132.4591   40.6578 H   0  0  0  0  0
   61.4137 -137.4116   44.6802 H   0  0  0  0  0
  1  2  2  0  0  0
  1  3  1  0  0  0
  1 11  1  0  0  0
  3  4  1  0  0  0
  4  5  1  0  0  0
  5  6  4  0  0  0
  5 10  4  0  0  0
  6  7  4  0  0  0
  7  8  4  0  0  0
  8  9  4  0  0  0
  9 10  4  0  0  0
 11 12  1  0  0  0
 12 13  1  0  0  0
 12 15  1  0  0  0
 13 14  2  0  0  0
 13 19  1  0  0  0
 15 16  1  0  0  0
 16 17  1  0  0  0
 16 18  1  0  0  0
 19 20  1  0  0  0
 20 21  1  0  0  0
 20 23  1  0  0  0
 21 22  2  0  0  0
 21 27  1  0  0  0
 23 24  1  0  0  0
 24 25  1  0  0  0
 24 26  1  0  0  0
 27 28  1  0  0  0
 28 29  1  0  0  0
 28 30  1  0  0  0
 29 34  1  0  0  0
 30 31  1  0  0  0
 31 32  1  0  0  0
 31 33  1  0  0  0
  4 35  1  0  0  0
  4 36  1  0  0  0
  6 37  1  0  0  0
  7 38  1  0  0  0
  8 39  1  0  0  0
  9 40  1  0  0  0
 10 41  1  0  0  0
 11 42  1  0  0  0
 12 43  1  0  0  0
 15 44  1  0  0  0
 15 45  1  0  0  0
 16 46  1  0  0  0
 17 47  1  0  0  0
 17 48  1  0  0  0
 17 49  1  0  0  0
 18 50  1  0  0  0
 18 51  1  0  0  0
 18 52  1  0  0  0
 19 53  1  0  0  0
 20 54  1  0  0  0
 23 55  1  0  0  0
 23 56  1  0  0  0
 24 57  1  0  0  0
 25 58  1  0  0  0
 25 59  1  0  0  0
 25 60  1  0  0  0
 26 61  1  0  0  0
 26 62  1  0  0  0
 26 63  1  0  0  0
 27 64  1  0  0  0
 28 65  1  0  0  0
 29 66  1  0  0  0
 29 67  1  0  0  0
 30 68  1  0  0  0
 30 69  1  0  0  0
 31 70  1  0  0  0
 32 71  1  0  0  0
 32 72  1  0  0  0
 32 73  1  0  0  0
 33 74  1  0  0  0
 33 75  1  0  0  0
 33 76  1  0  0  0
 34 77  1  0  0  0
M  END
$$$$
