5e90_ligand
  -I-interpret- 

 55 58  0  0  0  0  0  0  0  0999 V2000
   -1.9910    6.7580    4.7900 C   0  0  0  0  0
    3.7830    8.5130    7.4410 C   0  0  0  0  0
   -4.1230    5.4610    4.4210 C   0  0  0  0  0
   -0.9750    5.9640    2.3540 C   0  0  0  0  0
   -2.2850    5.6450    2.7090 C   0  0  0  0  0
    5.0360    9.0810    7.7350 C   0  0  0  0  0
    4.5220    9.2820    9.9640 C   0  0  0  0  0
    3.2750    8.7010    9.8040 C   0  0  0  0  0
    2.8980    8.2970    8.5160 C   0  0  0  0  0
   -5.2900    6.3740    4.1140 C   0  0  0  0  0
   -0.1430    6.6830    3.2210 C   0  0  0  0  0
   -0.7020    7.1160    4.4250 C   0  0  0  0  0
    0.5360    7.8830    9.1470 C   0  0  0  0  0
    1.8970    6.6370    1.6840 C   0  0  0  0  0
    1.3040    6.8870    2.9370 C   0  0  0  0  0
    2.0620    7.3200    3.9670 N   0  0  0  0  0
    3.3860    7.5100    3.7770 C   0  0  0  0  0
    3.9760    7.2540    2.4900 C   0  0  0  0  0
    3.2040    6.8100    1.4700 N   0  0  0  0  0
    5.2640    7.4730    2.2310 N   0  0  0  0  0
    4.1480    7.9630    4.9960 C   0  0  0  0  0
    5.3560    8.1400    4.9470 O   0  0  0  0  0
    3.4120    8.1010    6.1260 N   0  0  0  0  0
   -2.7930    5.9960    3.9460 C   0  0  0  0  0
    5.3990    9.4620    8.9650 N   0  0  0  0  0
   -6.4920    5.8300    4.6250 O   0  0  0  0  0
    1.6880    7.5850    8.2920 N   0  0  0  0  0
   -0.7190    7.3980    8.4680 C   0  0  0  0  0
   -0.6480    5.9890    8.1930 O   0  0  0  0  0
    0.5250    5.6410    7.4020 C   0  0  0  0  0
    1.8020    6.1450    8.0320 C   0  0  0  0  0
   -2.3829    7.0792    5.7551 H   0  0  0  0  0
   -4.3001    4.5194    3.9013 H   0  0  0  0  0
   -4.0652    5.3588    5.5047 H   0  0  0  0  0
   -0.5915    5.6480    1.3839 H   0  0  0  0  0
   -2.9182    5.1108    2.0006 H   0  0  0  0  0
    5.7467    9.2175    6.9199 H   0  0  0  0  0
    4.8082    9.6131   10.9623 H   0  0  0  0  0
    2.6070    8.5621   10.6541 H   0  0  0  0  0
   -5.3811    6.4813    3.0331 H   0  0  0  0  0
   -5.1136    7.3434    4.5801 H   0  0  0  0  0
   -0.1139    7.7476    5.0908 H   0  0  0  0  0
    0.4711    8.9582    9.3139 H   0  0  0  0  0
    0.6516    7.3803   10.1072 H   0  0  0  0  0
    1.2692    6.2913    0.8628 H   0  0  0  0  0
    5.8762    7.8373    2.9610 H   0  0  0  0  0
    5.6381    7.2764    1.3027 H   0  0  0  0  0
    2.4242    7.8711    6.0179 H   0  0  0  0  0
   -7.2210    6.4207    4.4219 H   0  0  0  0  0
   -0.8334    7.9319    7.5246 H   0  0  0  0  0
   -1.5661    7.5819    9.1288 H   0  0  0  0  0
    0.4236    6.1035    6.4202 H   0  0  0  0  0
    0.5825    4.5544    7.3374 H   0  0  0  0  0
    1.9740    5.6199    8.9716 H   0  0  0  0  0
    2.6361    5.9644    7.3540 H   0  0  0  0  0
 12  1  4  0  0  0
  1 24  4  0  0  0
  2  6  4  0  0  0
  2  9  4  0  0  0
 23  2  1  0  0  0
  3 10  1  0  0  0
 24  3  1  0  0  0
  4  5  4  0  0  0
 11  4  4  0  0  0
  5 24  4  0  0  0
  6 25  4  0  0  0
  8  7  4  0  0  0
 25  7  4  0  0  0
  9  8  4  0  0  0
  9 27  1  0  0  0
 10 26  1  0  0  0
 11 12  4  0  0  0
 15 11  1  0  0  0
 27 13  1  0  0  0
 13 28  1  0  0  0
 15 14  4  0  0  0
 19 14  4  0  0  0
 16 15  4  0  0  0
 17 16  4  0  0  0
 17 18  4  0  0  0
 21 17  1  0  0  0
 18 19  4  0  0  0
 18 20  1  0  0  0
 21 22  2  0  0  0
 21 23  1  0  0  0
 27 31  1  0  0  0
 28 29  1  0  0  0
 29 30  1  0  0  0
 30 31  1  0  0  0
  1 32  1  0  0  0
  3 33  1  0  0  0
  3 34  1  0  0  0
  4 35  1  0  0  0
  5 36  1  0  0  0
  6 37  1  0  0  0
  7 38  1  0  0  0
  8 39  1  0  0  0
 10 40  1  0  0  0
 10 41  1  0  0  0
 12 42  1  0  0  0
 13 43  1  0  0  0
 13 44  1  0  0  0
 14 45  1  0  0  0
 20 46  1  0  0  0
 20 47  1  0  0  0
 23 48  1  0  0  0
 26 49  1  0  0  0
 28 50  1  0  0  0
 28 51  1  0  0  0
 30 52  1  0  0  0
 30 53  1  0  0  0
 31 54  1  0  0  0
 31 55  1  0  0  0
M  END
$$$$
