3ip5_ligand
  -I-interpret- 

 14 13  0  0  0  0  0  0  0  0999 V2000
  -23.7060   16.0110   13.5480 N   0  3  0  0  0
  -24.0870   17.4200   13.5480 C   0  0  0  0  0
  -23.3220   18.1620   12.4720 C   0  0  0  0  0
  -23.4840   19.3790   12.3050 O   0  0  0  0  0
  -23.8520   18.0400   14.9170 C   0  0  0  0  0
  -22.5380   17.5300   11.7480 O   0  0  0  0  0
  -23.8712   15.6154   12.6225 H   0  0  0  0  0
  -22.7170   15.9275   13.7832 H   0  0  0  0  0
  -24.2645   15.5090   14.2383 H   0  0  0  0  0
  -25.1519   17.4984   13.3288 H   0  0  0  0  0
  -22.7890   18.0000   15.1549 H   0  0  0  0  0
  -24.1844   19.0780   14.9062 H   0  0  0  0  0
  -24.4147   17.4847   15.6674 H   0  0  0  0  0
  -22.5337   16.6070   12.0120 H   0  0  0  0  0
  1  2  1  0  0  0
  2  3  1  0  0  0
  2  5  1  0  0  0
  3  4  2  0  0  0
  3  6  1  0  0  0
  1  7  1  0  0  0
  1  8  1  0  0  0
  1  9  1  0  0  0
  2 10  1  0  0  0
  5 11  1  0  0  0
  5 12  1  0  0  0
  5 13  1  0  0  0
  6 14  1  0  0  0
M  END
$$$$
