### 
### Created by X-TOOL on Mon Sep 10 21:12:57 2018
### 

@<TRIPOS>MOLECULE
2pjc_ligand
   80    82     1     0     0
SMALL
GAST_HUCK


@<TRIPOS>ATOM
      1 C49        38.6540   18.7540   62.5460 C.ar      1 343        -0.0578
      2 C50        39.2400   19.1450   61.3150 C.ar      1 343        -0.0685
      3 C51        38.4780   19.8840   60.3730 C.ar      1 343        -0.0687
      4 C52        37.1320   20.2310   60.6670 C.ar      1 343        -0.0685
      5 C53        36.5450   19.8390   61.8990 C.ar      1 343        -0.0578
      6 C48        37.3040   19.0980   62.8380 C.ar      1 343        -0.0130
      7 C47        36.7170   18.6490   64.0210 C.3       1 343         0.1113
      8 O46        36.6480   17.2210   64.2190 O.3       1 343        -0.2505
      9 C44        36.3140   16.7610   65.4760 C.2       1 343         0.3240
     10 O45        35.8750   17.5300   66.3410 O.2       1 343        -0.3773
     11 N43        36.4250   15.4380   65.6820 N.am      1 343        -0.2395
     12 C34        36.8610   14.4960   64.6090 C.3       1 343         0.1408
     13 C35        37.2080   13.1160   65.1980 C.3       1 343         0.0163
     14 C36        38.2660   13.1990   66.3110 C.ar      1 343        -0.0493
     15 C37        39.6440   13.2870   65.9880 C.ar      1 343        -0.0685
     16 C38        40.6120   13.3450   67.0260 C.ar      1 343        -0.0398
     17 C41        40.2000   13.3150   68.3870 C.ar      1 343         0.0805
     18 O42        41.1260   13.3630   69.3840 O.3       1 343        -0.3376
     19 C40        38.8220   13.2280   68.7090 C.ar      1 343        -0.0398
     20 C39        37.8570   13.1710   67.6720 C.ar      1 343        -0.0685
     21 C32        35.7070   14.3360   63.6040 C.2       1 343         0.2049
     22 O33        34.5440   14.2470   64.0040 O.2       1 343        -0.3943
     23 N31        36.0590   14.3730   62.3130 N.am      1 343        -0.2638
     24 C27        35.0540   14.2310   61.2460 C.3       1 343         0.1335
     25 C28        35.0520   15.4360   60.2750 C.3       1 343        -0.0051
     26 C30        36.4460   15.7650   59.7360 C.3       1 343        -0.0590
     27 C29        34.4410   16.6630   60.9650 C.3       1 343        -0.0590
     28 P24        35.2150   12.6100   60.4240 P.3       1 343         0.1521
     29 O25        34.1780   12.5100   59.3670 O.co2     1 343        -0.6186
     30 O26        35.2020   11.5980   61.5000 O.co2     1 343        -0.6186
     31 O23        36.6570   12.5710   59.7280 O.3       1 343        -0.2435
     32 C1         37.1060   11.2820   59.2760 C.3       1 343         0.2349
     33 C2         37.7510   10.4920   60.4550 C.2       1 343         0.3908
     34 O14        37.5080    9.2660   60.5130 O.co2     1 343        -0.2562
     35 O13        38.4380   11.1350   61.2760 O.co2     1 343        -0.2562
     36 C3         38.0760   11.3860   58.0600 C.ar      1 343         0.0004
     37 C8         38.7480   10.2240   57.6390 C.ar      1 343        -0.0331
     38 C4         38.2960   12.6110   57.3670 C.ar      1 343        -0.0664
     39 C5         39.1980   12.6460   56.2620 C.ar      1 343        -0.0769
     40 C6         39.8770   11.4570   55.8510 C.ar      1 343        -0.0455
     41 C7         39.6450   10.2420   56.5470 C.ar      1 343         0.0445
     42 N9         40.2290    9.0850   56.1750 N.pl3     1 343        -0.3025
     43 C10        41.0720    8.4010   56.9830 C.cat     1 343         0.1283
     44 N12        41.4540    8.8930   58.1670 N.pl3     1 343        -0.3577
     45 N11        41.5820    7.2480   56.5740 N.pl3     1 343        -0.3577
     46 H1         39.2361   18.1913   63.2668 H         1 343         0.0557
     47 H2         40.2676   18.8800   61.0942 H         1 343         0.0599
     48 H3         38.9223   20.1833   59.4306 H         1 343         0.0559
     49 H4         36.5510   20.7972   59.9480 H         1 343         0.0599
     50 H5         35.5181   20.1062   62.1206 H         1 343         0.0557
     51 H6         35.6883   19.0376   64.0490 H         1 343         0.0776
     52 H7         37.2919   19.0723   64.8579 H         1 343         0.0776
     53 H8         36.2078   15.0711   66.5865 H         1 343         0.1901
     54 H9         37.7450   14.9064   64.0989 H         1 343         0.0820
     55 H10        37.5942   12.4754   64.3915 H         1 343         0.0452
     56 H11        36.2927   12.6699   65.6142 H         1 343         0.0452
     57 H12        39.9581   13.3100   64.9508 H         1 343         0.0530
     58 H13        41.6657   13.4122   66.7806 H         1 343         0.0525
     59 H14        41.6239   14.1690   69.3137 H         1 343         0.2458
     60 H15        38.5069   13.2051   69.7460 H         1 343         0.0525
     61 H16        36.8033   13.1058   67.9179 H         1 343         0.0530
     62 H17        37.0205   14.4992   62.0690 H         1 343         0.1871
     63 H18        34.0692   14.2338   61.7360 H         1 343         0.0789
     64 H19        34.4165   15.1731   59.4165 H         1 343         0.0334
     65 H20        36.3818   16.6261   59.0545 H         1 343         0.0234
     66 H21        36.8433   14.8956   59.1918 H         1 343         0.0234
     67 H22        37.1149   16.0100   60.5742 H         1 343         0.0234
     68 H23        33.4407   16.4092   61.3459 H         1 343         0.0234
     69 H24        34.3595   17.4878   60.2417 H         1 343         0.0234
     70 H25        35.0847   16.9715   61.8020 H         1 343         0.0234
     71 H26        36.2210   10.7209   58.9415 H         1 343         0.1046
     72 H27        38.5736    9.2923   58.1649 H         1 343         0.0482
     73 H28        37.7805   13.5125   57.6778 H         1 343         0.0471
     74 H29        39.3688   13.5765   55.7328 H         1 343         0.0573
     75 H30        40.5645   11.4832   55.0133 H         1 343         0.0487
     76 H31        40.0254    8.7068   55.2388 H         1 343         0.1952
     77 H32        42.0965    8.3545   58.7654 H         1 343         0.1636
     78 H33        41.1056    9.8103   58.4802 H         1 343         0.1636
     79 H34        41.2999    6.8535   55.6653 H         1 343         0.1636
     80 H35        42.2605    6.7465   57.1648 H         1 343         0.1636
@<TRIPOS>BOND
     1    1    2 ar 
     2    1    6 ar 
     3    2    3 ar 
     4    3    4 ar 
     5    4    5 ar 
     6    5    6 ar 
     7    6    7 1  
     8    7    8 1  
     9    8    9 1  
    10    9   10 2  
    11    9   11 am 
    12   11   12 1  
    13   12   13 1  
    14   12   21 1  
    15   13   14 1  
    16   14   15 ar 
    17   14   20 ar 
    18   15   16 ar 
    19   16   17 ar 
    20   17   18 1  
    21   17   19 ar 
    22   19   20 ar 
    23   21   22 2  
    24   21   23 am 
    25   23   24 1  
    26   24   25 1  
    27   24   28 1  
    28   25   26 1  
    29   25   27 1  
    30   28   29 ar 
    31   28   30 ar 
    32   28   31 1  
    33   31   32 1  
    34   32   33 1  
    35   32   36 1  
    36   33   34 ar 
    37   33   35 ar 
    38   36   37 ar 
    39   36   38 ar 
    40   37   41 ar 
    41   38   39 ar 
    42   39   40 ar 
    43   40   41 ar 
    44   41   42 1  
    45   42   43 ar 
    46   43   44 ar 
    47   43   45 ar 
    48    1   46 1  
    49    2   47 1  
    50    3   48 1  
    51    4   49 1  
    52    5   50 1  
    53    7   51 1  
    54    7   52 1  
    55   11   53 1  
    56   12   54 1  
    57   13   55 1  
    58   13   56 1  
    59   15   57 1  
    60   16   58 1  
    61   18   59 1  
    62   19   60 1  
    63   20   61 1  
    64   23   62 1  
    65   24   63 1  
    66   25   64 1  
    67   26   65 1  
    68   26   66 1  
    69   26   67 1  
    70   27   68 1  
    71   27   69 1  
    72   27   70 1  
    73   32   71 1  
    74   37   72 1  
    75   38   73 1  
    76   39   74 1  
    77   40   75 1  
    78   42   76 1  
    79   44   77 1  
    80   44   78 1  
    81   45   79 1  
    82   45   80 1  
@<TRIPOS>SUBSTRUCTURE
     1 343         1

