### 
### Created by X-TOOL on Mon Sep 10 21:12:50 2018
### 

@<TRIPOS>MOLECULE
1n0t_ligand
   38    38     1     0     0
SMALL
GAST_HUCK


@<TRIPOS>ATOM
      1 N           8.0150   32.9430   -2.9770 N.4       1 AT1         0.2349
      2 C           6.8140   30.7370   -2.6580 C.3       1 AT1         0.0583
      3 O           8.4400   32.1850   -5.4490 O.co2     1 AT1        -0.5641
      4 C1          8.0960   31.4250   -3.1610 C.3       1 AT1         0.0429
      5 C2          8.3520   31.1560   -4.6900 C.2       1 AT1         0.0877
      6 O1          8.4580   29.9620   -5.0600 O.co2     1 AT1        -0.5641
      7 O2          6.2840   30.7320    1.0260 O.3       1 AT1        -0.1588
      8 O3          8.3920   28.9040   -1.0120 O.3       1 AT1        -0.2854
      9 N1          7.2870   29.7450    0.8810 N.2       1 AT1        -0.0623
     10 C3          4.8570   32.3230   -0.0980 C.3       1 AT1        -0.0364
     11 C4          9.1760   27.9820   -0.1920 C.3       1 AT1         0.1385
     12 C5          7.5080   29.7090   -0.4080 C.2       1 AT1         0.2368
     13 C6          6.7050   30.6280   -1.1620 C.2       1 AT1         0.0787
     14 C7          5.9460   31.2470   -0.1910 C.2       1 AT1         0.1218
     15 C9          3.5040   31.5980    0.0510 C.3       1 AT1        -0.0985
     16 C10         5.0920   33.2060    1.1300 C.3       1 AT1        -0.0985
     17 C11         4.7750   33.2270   -1.3290 C.3       1 AT1        -0.0985
     18 P          10.8860   28.5520   -0.1840 P.3       1 AT1         0.0891
     19 O4         10.9570   29.9690    0.2740 O.co2     1 AT1        -0.5605
     20 O5         11.6020   27.5460    0.6740 O.co2     1 AT1        -0.5605
     21 O6         11.3900   28.3560   -1.6550 O.co2     1 AT1        -0.5605
     22 H1          7.8509   33.1554   -2.0054 H         1 AT1         0.2012
     23 H2          7.2583   33.3090   -3.5333 H         1 AT1         0.2012
     24 H3          8.8824   33.3639   -3.2711 H         1 AT1         0.2012
     25 H4          5.9505   31.3121   -3.0235 H         1 AT1         0.0584
     26 H5          6.7826   29.7212   -3.0788 H         1 AT1         0.0584
     27 H6          8.9458   31.0350   -2.5816 H         1 AT1         0.1060
     28 H7          8.7824   27.9702    0.8351 H         1 AT1         0.0800
     29 H8          9.1230   26.9687   -0.6167 H         1 AT1         0.0800
     30 H9          2.6957   32.3408    0.1209 H         1 AT1         0.0081
     31 H10         3.5162   30.9826    0.9626 H         1 AT1         0.0081
     32 H11         3.3349   30.9536   -0.8243 H         1 AT1         0.0081
     33 H12         6.0562   33.7257    1.0288 H         1 AT1         0.0081
     34 H13         5.1060   32.5801    2.0344 H         1 AT1         0.0081
     35 H14         4.2828   33.9468    1.2092 H         1 AT1         0.0081
     36 H15         5.7299   33.7574   -1.4586 H         1 AT1         0.0081
     37 H16         3.9648   33.9585   -1.1934 H         1 AT1         0.0081
     38 H17         4.5714   32.6153   -2.2203 H         1 AT1         0.0081
@<TRIPOS>BOND
     1    4    1 1  
     2    4    5 1  
     3    5    6 ar 
     4    7    9 1  
     5   14    7 1  
     6   12    9 2  
     7   13   12 1  
     8   13   14 2  
     9   18   19 ar 
    10   18   20 ar 
    11   18   21 ar 
    12   11   18 1  
    13   10   17 1  
    14   10   16 1  
    15   10   15 1  
    16   14   10 1  
    17    2   13 1  
    18   12    8 1  
    19    8   11 1  
    20    5    3 ar 
    21    4    2 1  
    22    1   22 1  
    23    1   23 1  
    24    1   24 1  
    25    2   25 1  
    26    2   26 1  
    27    4   27 1  
    28   11   28 1  
    29   11   29 1  
    30   15   30 1  
    31   15   31 1  
    32   15   32 1  
    33   16   33 1  
    34   16   34 1  
    35   16   35 1  
    36   17   36 1  
    37   17   37 1  
    38   17   38 1  
@<TRIPOS>SUBSTRUCTURE
     1 AT1         1

