1n0t_ligand
  -I-interpret- 

 41 41  0  0  0  0  0  0  0  0999 V2000
    8.0150   32.9430   -2.9770 N   0  3  0  0  0
    6.8140   30.7370   -2.6580 C   0  0  0  0  0
    8.4400   32.1850   -5.4490 O   0  0  0  0  0
    8.0960   31.4250   -3.1610 C   0  0  0  0  0
    8.3520   31.1560   -4.6900 C   0  0  0  0  0
    8.4580   29.9620   -5.0600 O   0  0  0  0  0
    6.2840   30.7320    1.0260 O   0  0  0  0  0
    8.3920   28.9040   -1.0120 O   0  0  0  0  0
    7.2870   29.7450    0.8810 N   0  0  0  0  0
    4.8570   32.3230   -0.0980 C   0  0  0  0  0
    9.1760   27.9820   -0.1920 C   0  0  0  0  0
    7.5080   29.7090   -0.4080 C   0  0  0  0  0
    6.7050   30.6280   -1.1620 C   0  0  0  0  0
    5.9460   31.2470   -0.1910 C   0  0  0  0  0
    3.5040   31.5980    0.0510 C   0  0  0  0  0
    5.0920   33.2060    1.1300 C   0  0  0  0  0
    4.7750   33.2270   -1.3290 C   0  0  0  0  0
   10.8860   28.5520   -0.1840 P   0  0  0  0  0
   10.9570   29.9690    0.2740 O   0  0  0  0  0
   11.6020   27.5460    0.6740 O   0  0  0  0  0
   11.3900   28.3560   -1.6550 O   0  0  0  0  0
    8.8754   33.3720   -3.3178 H   0  0  0  0  0
    7.2207   33.3062   -3.5039 H   0  0  0  0  0
    7.8951   33.1584   -1.9872 H   0  0  0  0  0
    5.9745   31.3458   -2.9938 H   0  0  0  0  0
    6.8248   29.7201   -3.0503 H   0  0  0  0  0
    8.3230   32.9798   -4.9235 H   0  0  0  0  0
    8.9098   31.0046   -2.5702 H   0  0  0  0  0
    8.7839   27.9581    0.8247 H   0  0  0  0  0
    9.1186   26.9738   -0.6022 H   0  0  0  0  0
    2.7104   32.3346    0.1761 H   0  0  0  0  0
    3.3118   31.0030   -0.8418 H   0  0  0  0  0
    3.5369   30.9457    0.9237 H   0  0  0  0  0
    6.0244   33.7570    1.0067 H   0  0  0  0  0
    4.2648   33.9080    1.2348 H   0  0  0  0  0
    5.1536   32.5796    2.0199 H   0  0  0  0  0
    3.9498   33.9289   -1.2084 H   0  0  0  0  0
    5.7094   33.7778   -1.4366 H   0  0  0  0  0
    4.6076   32.6163   -2.2162 H   0  0  0  0  0
   11.4958   26.6705    0.2948 H   0  0  0  0  0
   11.3216   27.4289   -1.8946 H   0  0  0  0  0
  4  1  1  0  0  0
  4  5  1  0  0  0
  5  6  2  0  0  0
  7  9  4  0  0  0
 14  7  4  0  0  0
 12  9  4  0  0  0
 13 12  4  0  0  0
 13 14  4  0  0  0
 18 19  2  0  0  0
 18 20  1  0  0  0
 18 21  1  0  0  0
 11 18  1  0  0  0
 10 17  1  0  0  0
 10 16  1  0  0  0
 10 15  1  0  0  0
 14 10  1  0  0  0
  2 13  1  0  0  0
 12  8  1  0  0  0
  8 11  1  0  0  0
  5  3  1  0  0  0
  4  2  1  0  0  0
  1 22  1  0  0  0
  1 23  1  0  0  0
  1 24  1  0  0  0
  2 25  1  0  0  0
  2 26  1  0  0  0
  3 27  1  0  0  0
  4 28  1  0  0  0
 11 29  1  0  0  0
 11 30  1  0  0  0
 15 31  1  0  0  0
 15 32  1  0  0  0
 15 33  1  0  0  0
 16 34  1  0  0  0
 16 35  1  0  0  0
 16 36  1  0  0  0
 17 37  1  0  0  0
 17 38  1  0  0  0
 17 39  1  0  0  0
 20 40  1  0  0  0
 21 41  1  0  0  0
M  END
$$$$
