1g9r_ligand
  -I-interpret- 

 59 61  0  0  0  0  0  0  0  0999 V2000
   27.1630   44.4560   57.5030 N   0  0  0  0  0
   27.5340   43.7960   56.3230 C   0  0  0  0  0
   26.6600   44.0740   55.2470 N   0  0  0  0  0
   25.5010   44.9260   55.2740 C   0  0  0  0  0
   25.2030   45.5630   56.5200 C   0  0  0  0  0
   25.9940   45.3320   57.5600 C   0  0  0  0  0
   28.5080   43.0600   56.2490 O   0  0  0  0  0
   24.8430   45.0630   54.2610 O   0  0  0  0  0
   27.8490   44.3980   58.8810 C   0  0  0  0  0
   29.1310   45.2080   58.7930 C   0  0  0  0  0
   30.2360   44.4440   59.2660 O   0  0  0  0  0
   28.8440   46.4400   59.6380 C   0  0  0  0  0
   28.0680   45.8110   60.7880 C   0  0  0  0  0
   27.2480   44.7610   60.1030 O   0  0  0  0  0
   29.9230   47.2210   60.1170 O   0  0  0  0  0
   26.7540   46.2280   61.3700 C   0  0  0  0  0
   26.1960   47.5730   61.0630 O   0  0  0  0  0
   26.6690   49.0830   60.7750 P   0  0  0  0  0
   28.1310   49.3020   60.7700 O   0  0  0  0  0
   25.9930   49.6170   59.5510 O   0  0  0  0  0
   25.9380   49.2600   62.1840 O   0  0  0  0  0
   25.6800   50.4760   63.1700 P   0  0  0  0  0
   27.0200   51.0960   63.2630 O   0  0  0  0  0
   24.7090   51.3580   62.5300 O   0  0  0  0  0
   25.2160   49.9670   64.5840 O   0  0  0  0  0
   25.5920   49.8060   66.1370 C   0  0  0  0  0
   27.0680   49.2640   66.1080 C   0  0  0  0  0
   27.3880   48.0340   65.1120 C   0  0  0  0  0
   26.3550   46.8930   65.3890 C   0  0  0  0  0
   24.9230   47.5850   65.3610 C   0  0  0  0  0
   23.9020   46.5550   65.8390 C   0  0  0  0  0
   27.9950   50.2870   65.8600 F   0  0  0  0  0
   28.6640   47.5300   65.3880 O   0  0  0  0  0
   26.6420   46.3020   66.6940 O   0  0  0  0  0
   24.7110   48.6960   66.3740 O   0  0  0  0  0
   23.6600   45.3090   65.2480 O   0  0  0  0  0
   26.8738   43.6228   54.3575 H   0  0  0  0  0
   24.3425   46.2255   56.6132 H   0  0  0  0  0
   25.7601   45.8207   58.5058 H   0  0  0  0  0
   27.8854   43.3144   58.9927 H   0  0  0  0  0
   29.4071   45.4874   57.7762 H   0  0  0  0  0
   31.0370   44.9695   59.2037 H   0  0  0  0  0
   28.3462   47.1966   59.0315 H   0  0  0  0  0
   28.8787   45.8192   61.5166 H   0  0  0  0  0
   29.5810   47.9571   60.6296 H   0  0  0  0  0
   26.9260   46.2440   62.4462 H   0  0  0  0  0
   26.0336   45.5306   60.9426 H   0  0  0  0  0
   25.0498   49.4478   59.6082 H   0  0  0  0  0
   27.6255   50.4845   63.6885 H   0  0  0  0  0
   25.5161   50.6522   66.8198 H   0  0  0  0  0
   27.1712   48.8586   67.1145 H   0  0  0  0  0
   27.3326   48.3760   64.0785 H   0  0  0  0  0
   26.4006   46.0911   64.6521 H   0  0  0  0  0
   24.8294   47.9696   64.3454 H   0  0  0  0  0
   22.9589   47.0742   65.6681 H   0  0  0  0  0
   24.3047   46.2706   66.8112 H   0  0  0  0  0
   28.8531   46.7989   64.7953 H   0  0  0  0  0
   26.0117   45.6001   66.8717 H   0  0  0  0  0
   22.9718   44.8523   65.7372 H   0  0  0  0  0
  1  2  1  0  0  0
  1  6  1  0  0  0
  1  9  1  0  0  0
  2  3  1  0  0  0
  2  7  2  0  0  0
  3  4  1  0  0  0
  4  5  1  0  0  0
  4  8  2  0  0  0
  5  6  2  0  0  0
  9 10  1  0  0  0
  9 14  1  0  0  0
 10 11  1  0  0  0
 10 12  1  0  0  0
 12 13  1  0  0  0
 12 15  1  0  0  0
 13 14  1  0  0  0
 13 16  1  0  0  0
 16 17  1  0  0  0
 17 18  1  0  0  0
 18 19  2  0  0  0
 18 20  1  0  0  0
 18 21  1  0  0  0
 21 22  1  0  0  0
 22 23  1  0  0  0
 22 24  2  0  0  0
 22 25  1  0  0  0
 25 26  1  0  0  0
 26 27  1  0  0  0
 26 35  1  0  0  0
 27 28  1  0  0  0
 27 32  1  0  0  0
 28 29  1  0  0  0
 28 33  1  0  0  0
 29 30  1  0  0  0
 29 34  1  0  0  0
 30 31  1  0  0  0
 30 35  1  0  0  0
 31 36  1  0  0  0
  3 37  1  0  0  0
  5 38  1  0  0  0
  6 39  1  0  0  0
  9 40  1  0  0  0
 10 41  1  0  0  0
 11 42  1  0  0  0
 12 43  1  0  0  0
 13 44  1  0  0  0
 15 45  1  0  0  0
 16 46  1  0  0  0
 16 47  1  0  0  0
 20 48  1  0  0  0
 23 49  1  0  0  0
 26 50  1  0  0  0
 27 51  1  0  0  0
 28 52  1  0  0  0
 29 53  1  0  0  0
 30 54  1  0  0  0
 31 55  1  0  0  0
 31 56  1  0  0  0
 33 57  1  0  0  0
 34 58  1  0  0  0
 36 59  1  0  0  0
M  END
$$$$
