1htf_ligand
  -I-interpret- 

 80 83  0  0  0  0  0  0  0  0999 V2000
   18.5650    4.3310    1.2190 C   0  0  0  0  0
   18.4580    3.2440    2.2930 C   0  0  0  0  0
   17.5490    5.1160    3.5890 C   0  0  0  0  0
   18.4590    5.3740    4.7890 C   0  0  0  0  0
   18.4600    6.8680    5.1520 C   0  0  0  0  0
   17.4080    4.3540    0.2220 C   0  0  0  0  0
   19.9170    4.3570    0.5260 C   0  0  0  0  0
   18.2080    1.8540    1.7090 C   0  0  0  0  0
   19.2390    0.0440    0.4170 C   0  0  0  0  0
   19.6500    8.7030    6.2390 C   0  0  0  0  0
   20.3880    0.0370   -0.5970 C   0  0  0  0  0
   18.8590    3.4980    6.2450 C   0  0  0  0  0
   18.2710    2.4920    7.2150 C   0  0  0  0  0
   17.6780    0.9130    5.3720 C   0  0  0  0  0
   18.3280    1.1290    6.5770 C   0  0  0  0  0
   19.0210    0.0980    7.1770 C   0  0  0  0  0
   19.0570   -1.1300    6.5620 C   0  0  0  0  0
   18.4150   -1.3290    5.3570 C   0  0  0  0  0
   17.7190   -0.3100    4.7600 C   0  0  0  0  0
   19.1970   -1.2060    1.3200 C   0  0  0  0  0
   18.2030   -4.8560   -0.7260 C   0  0  0  0  0
   19.5250   -4.4950   -0.5790 C   0  0  0  0  0
   19.8590   -3.3270    0.0720 C   0  0  0  0  0
   18.8680   -2.5060    0.5820 C   0  0  0  0  0
   17.5550   -2.8900    0.4210 C   0  0  0  0  0
   17.2110   -4.0550   -0.2240 C   0  0  0  0  0
   19.4510    9.8560    9.8350 C   0  0  0  0  0
   18.0980    9.7760   10.0850 C   0  0  0  0  0
   17.2430    9.3340    9.0970 C   0  0  0  0  0
   17.7420    8.9760    7.8590 C   0  0  0  0  0
   19.0980    9.0560    7.6010 C   0  0  0  0  0
   19.9470    9.4960    8.5990 C   0  0  0  0  0
   17.4500    3.7180    3.2440 N   0  3  0  0  0
   19.2830    1.2850    1.1750 N   0  0  0  0  0
   18.0550    4.4920    5.8910 N   0  0  0  0  0
   19.5100    7.3020    5.8370 N   0  0  0  0  0
   17.1220    1.3050    1.7020 O   0  0  0  0  0
   17.5570    7.6270    4.8440 O   0  0  0  0  0
   20.0010    3.3940    5.8350 O   0  0  0  0  0
   21.6500   -0.0540    0.0440 O   0  0  0  0  0
   18.3550    5.8670    2.1630 S   0  0  0  0  0
   19.4021    3.0946    2.8169 H   0  0  0  0  0
   16.5613    5.5043    3.8374 H   0  0  0  0  0
   19.4947    5.1334    4.5493 H   0  0  0  0  0
   16.4630    4.3789    0.7646 H   0  0  0  0  0
   17.4903    5.2398   -0.4078 H   0  0  0  0  0
   17.4480    3.4596   -0.3998 H   0  0  0  0  0
   19.9620    5.2124   -0.1480 H   0  0  0  0  0
   20.7056    4.4402    1.2738 H   0  0  0  0  0
   20.0499    3.4369   -0.0432 H   0  0  0  0  0
   18.3014   -0.0035   -0.1369 H   0  0  0  0  0
   19.0821    9.2885    5.5160 H   0  0  0  0  0
   20.7202    8.9058    6.2790 H   0  0  0  0  0
   20.3549    0.9690   -1.1612 H   0  0  0  0  0
   20.2685   -0.8301   -1.2466 H   0  0  0  0  0
   17.2381    2.7541    7.4444 H   0  0  0  0  0
   18.8399    2.4932    8.1448 H   0  0  0  0  0
   17.1263    1.7291    4.9053 H   0  0  0  0  0
   19.5331    0.2556    8.1262 H   0  0  0  0  0
   19.5969   -1.9534    7.0296 H   0  0  0  0  0
   18.4617   -2.3056    4.8752 H   0  0  0  0  0
   17.2060   -0.4717    3.8120 H   0  0  0  0  0
   18.4070   -1.0451    2.0536 H   0  0  0  0  0
   20.1916   -1.3244    1.7500 H   0  0  0  0  0
   17.9460   -5.7807   -1.2427 H   0  0  0  0  0
   20.3101   -5.1363   -0.9795 H   0  0  0  0  0
   20.9068   -3.0489    0.1856 H   0  0  0  0  0
   16.7651   -2.2515    0.8166 H   0  0  0  0  0
   16.1640   -4.3372   -0.3343 H   0  0  0  0  0
   20.1294   10.2038   10.6141 H   0  0  0  0  0
   17.7047   10.0612   11.0607 H   0  0  0  0  0
   16.1728    9.2670    9.2929 H   0  0  0  0  0
   17.0623    8.6284    7.0810 H   0  0  0  0  0
   21.0182    9.5591    8.4077 H   0  0  0  0  0
   17.5870    3.1908    4.1064 H   0  0  0  0  0
   16.5410    3.5873    2.8001 H   0  0  0  0  0
   20.1860    1.7418    1.3030 H   0  0  0  0  0
   17.1705    4.6411    6.3765 H   0  0  0  0  0
   20.2424    6.6392    6.0915 H   0  0  0  0  0
   22.3448   -0.0559   -0.6185 H   0  0  0  0  0
  1  2  1  0  0  0
  1  6  1  0  0  0
  1  7  1  0  0  0
 41  1  1  0  0  0
  2  8  1  0  0  0
 33  2  1  0  0  0
  4  3  1  0  0  0
  3 33  1  0  0  0
  3 41  1  0  0  0
  5  4  1  0  0  0
  4 35  1  0  0  0
 36  5  1  0  0  0
  5 38  2  0  0  0
  8 34  1  0  0  0
  8 37  2  0  0  0
  9 11  1  0  0  0
  9 20  1  0  0  0
 34  9  1  0  0  0
 11 40  1  0  0  0
 12 13  1  0  0  0
 35 12  1  0  0  0
 12 39  2  0  0  0
 13 15  1  0  0  0
 15 16  4  0  0  0
 16 17  4  0  0  0
 17 18  4  0  0  0
 18 19  4  0  0  0
 20 24  1  0  0  0
 22 21  4  0  0  0
 23 22  4  0  0  0
 24 23  4  0  0  0
 24 25  4  0  0  0
 25 26  4  0  0  0
 26 21  4  0  0  0
 27 28  4  0  0  0
 32 27  4  0  0  0
 29 28  4  0  0  0
 30 29  4  0  0  0
 31 30  4  0  0  0
 31 32  4  0  0  0
 10 36  1  0  0  0
 10 31  1  0  0  0
 19 14  4  0  0  0
 15 14  4  0  0  0
  2 42  1  0  0  0
  3 43  1  0  0  0
  4 44  1  0  0  0
  6 45  1  0  0  0
  6 46  1  0  0  0
  6 47  1  0  0  0
  7 48  1  0  0  0
  7 49  1  0  0  0
  7 50  1  0  0  0
  9 51  1  0  0  0
 10 52  1  0  0  0
 10 53  1  0  0  0
 11 54  1  0  0  0
 11 55  1  0  0  0
 13 56  1  0  0  0
 13 57  1  0  0  0
 14 58  1  0  0  0
 16 59  1  0  0  0
 17 60  1  0  0  0
 18 61  1  0  0  0
 19 62  1  0  0  0
 20 63  1  0  0  0
 20 64  1  0  0  0
 21 65  1  0  0  0
 22 66  1  0  0  0
 23 67  1  0  0  0
 25 68  1  0  0  0
 26 69  1  0  0  0
 27 70  1  0  0  0
 28 71  1  0  0  0
 29 72  1  0  0  0
 30 73  1  0  0  0
 32 74  1  0  0  0
 33 75  1  0  0  0
 33 76  1  0  0  0
 34 77  1  0  0  0
 35 78  1  0  0  0
 36 79  1  0  0  0
 40 80  1  0  0  0
M  END
$$$$
