6r1w_ligand
  -I-interpret- 

 42 43  0  0  0  0  0  0  0  0999 V2000
   23.5300   19.4920   30.4070 C   0  0  0  0  0
   22.0210   19.5490   30.2110 C   0  0  0  0  0
   21.4040   20.8760   30.6380 C   0  0  0  0  0
   23.0890   12.0320   25.7440 C   0  0  0  0  0
   21.7940   21.1810   32.0710 C   0  0  0  0  0
   23.3000   21.3120   32.1860 C   0  0  0  0  0
   23.9700   20.0060   31.7800 C   0  0  0  0  0
   22.4940   14.4060   26.0090 C   0  0  0  0  0
   24.2350   12.2140   26.6680 C   0  0  0  0  0
   24.0860   13.3610   27.6460 C   0  0  0  0  0
   23.2340   15.6250   27.9490 N   0  0  0  0  0
   21.1130   22.4240   32.5630 N   0  3  0  0  0
   24.0580   18.0820   30.2230 C   0  0  0  0  0
   22.2710   13.1330   25.5660 N   0  0  0  0  0
   23.5970   14.6200   26.9570 C   0  0  0  0  0
   24.0510   16.5470   28.4040 C   0  0  0  0  0
   23.2970   17.3390   29.2390 O   0  0  0  0  0
   25.2190   16.6790   28.0860 O   0  0  0  0  0
   21.7820   15.3130   25.6150 O   0  0  0  0  0
   22.8430   10.9780   25.2100 O   0  0  0  0  0
   23.9491   20.1480   29.6441 H   0  0  0  0  0
   21.5798   18.7676   30.8298 H   0  0  0  0  0
   21.8232   19.4224   29.1466 H   0  0  0  0  0
   20.3184   20.8109   30.5643 H   0  0  0  0  0
   21.7680   21.6707   29.9868 H   0  0  0  0  0
   21.4665   20.3527   32.6993 H   0  0  0  0  0
   23.5617   21.5430   33.2186 H   0  0  0  0  0
   23.6416   22.1099   31.5267 H   0  0  0  0  0
   25.0431   20.1908   31.7311 H   0  0  0  0  0
   23.6898   19.2525   32.5161 H   0  0  0  0  0
   25.1066   12.4346   26.0518 H   0  0  0  0  0
   24.3128   11.3017   27.2595 H   0  0  0  0  0
   25.0610   13.5662   28.0881 H   0  0  0  0  0
   23.3554   13.0761   28.4030 H   0  0  0  0  0
   22.2817   15.6110   28.3140 H   0  0  0  0  0
   20.1027   22.3137   32.4765 H   0  0  0  0  0
   21.3567   22.5793   33.5412 H   0  0  0  0  0
   21.4182   23.2212   32.0046 H   0  0  0  0  0
   23.9786   17.5620   31.1777 H   0  0  0  0  0
   25.0893   18.1477   29.8764 H   0  0  0  0  0
   21.4067   12.9775   25.0472 H   0  0  0  0  0
   24.4321   14.9737   26.3524 H   0  0  0  0  0
  1  2  1  0  0  0
  1  7  1  0  0  0
 13  1  1  0  0  0
  2  3  1  0  0  0
  3  5  1  0  0  0
  9  4  1  0  0  0
 14  4  1  0  0  0
  4 20  2  0  0  0
  6  5  1  0  0  0
  5 12  1  0  0  0
  7  6  1  0  0  0
  8 14  1  0  0  0
 15  8  1  0  0  0
  8 19  2  0  0  0
 10  9  1  0  0  0
 15 10  1  0  0  0
 11 15  1  0  0  0
 16 11  1  0  0  0
 17 13  1  0  0  0
 16 17  1  0  0  0
 16 18  2  0  0  0
  1 21  1  0  0  0
  2 22  1  0  0  0
  2 23  1  0  0  0
  3 24  1  0  0  0
  3 25  1  0  0  0
  5 26  1  0  0  0
  6 27  1  0  0  0
  6 28  1  0  0  0
  7 29  1  0  0  0
  7 30  1  0  0  0
  9 31  1  0  0  0
  9 32  1  0  0  0
 10 33  1  0  0  0
 10 34  1  0  0  0
 11 35  1  0  0  0
 12 36  1  0  0  0
 12 37  1  0  0  0
 12 38  1  0  0  0
 13 39  1  0  0  0
 13 40  1  0  0  0
 14 41  1  0  0  0
 15 42  1  0  0  0
M  END
$$$$
