6pge_ligand
  -I-interpret- 

 27 27  0  0  0  0  0  0  0  0999 V2000
    4.9180   -4.2480  100.7040 C   0  0  0  0  0
    5.1320   -4.2130  102.0700 C   0  0  0  0  0
    3.1430   -5.1970  101.6500 C   0  0  0  0  0
    0.3470   -7.7570  101.3880 C   0  0  0  0  0
   -2.8390   -8.4340   99.9140 C   0  0  0  0  0
    6.2370   -3.6990  102.9160 C   0  0  0  0  0
    1.8260   -5.8670  101.8690 C   0  0  0  0  0
    1.4350   -6.8800  100.8400 C   0  0  0  0  0
   -1.7130   -8.5800  100.9080 C   0  0  0  0  0
    3.6870   -4.8640  100.4880 N   0  0  0  0  0
    3.9930   -4.8230  102.5960 N   0  0  0  0  0
    0.4810   -8.6360  102.2300 O   0  0  0  0  0
    7.3980   -3.3440  102.1720 O   0  0  0  0  0
   -0.8300   -7.4410  100.8060 O   0  0  0  0  0
    5.5898   -3.8638   99.9364 H   0  0  0  0  0
   -3.3954   -7.5217  100.1287 H   0  0  0  0  0
   -2.4276   -8.3815   98.9060 H   0  0  0  0  0
   -3.5044   -9.2938   99.9919 H   0  0  0  0  0
    6.5190   -4.4929  103.6075 H   0  0  0  0  0
    5.8781   -2.7992  103.4156 H   0  0  0  0  0
    1.0704   -5.0822  101.8325 H   0  0  0  0  0
    1.9055   -6.4026  102.8150 H   0  0  0  0  0
    1.0746   -6.3697   99.9468 H   0  0  0  0  0
    2.3006   -7.4916  100.5855 H   0  0  0  0  0
   -1.1557   -9.4921  100.6944 H   0  0  0  0  0
   -2.1231   -8.6327  101.9165 H   0  0  0  0  0
    8.0742   -3.0202  102.7715 H   0  0  0  0  0
  2  1  4  0  0  0
 10  1  4  0  0  0
  2  6  1  0  0  0
 11  2  4  0  0  0
  7  3  1  0  0  0
  3 10  4  0  0  0
  3 11  4  0  0  0
  4  8  1  0  0  0
  4 12  2  0  0  0
 14  4  1  0  0  0
  9  5  1  0  0  0
  6 13  1  0  0  0
  8  7  1  0  0  0
  9 14  1  0  0  0
  1 15  1  0  0  0
  5 16  1  0  0  0
  5 17  1  0  0  0
  5 18  1  0  0  0
  6 19  1  0  0  0
  6 20  1  0  0  0
  7 21  1  0  0  0
  7 22  1  0  0  0
  8 23  1  0  0  0
  8 24  1  0  0  0
  9 25  1  0  0  0
  9 26  1  0  0  0
 13 27  1  0  0  0
M  END
$$$$
