5ni0_ligand
  -I-interpret- 

 41 41  0  0  0  0  0  0  0  0999 V2000
   -8.0860   10.9560  -20.4120 C   0  0  0  0  0
   -8.9610   10.3700  -21.4380 C   0  0  0  0  0
   -8.5700    9.4400  -22.1630 O   0  0  0  0  0
  -10.5540   11.2190  -21.4680 S   0  0  0  0  0
  -11.1100   11.6420  -19.8250 C   0  0  0  0  0
  -12.3250   10.8620  -19.4360 C   0  0  0  0  0
  -13.3210   12.0320  -18.4330 P   0  0  0  0  0
  -14.4950   11.1720  -17.7750 O   0  0  0  0  0
  -14.0410   12.9420  -19.5590 O   0  0  0  0  0
  -12.5210   12.8280  -17.4770 O   0  0  0  0  0
  -11.9050    9.6040  -18.6840 C   0  0  0  0  0
  -10.9650    8.8180  -19.5820 C   0  0  0  0  0
  -10.5350    7.4630  -19.0840 C   0  0  0  0  0
  -10.1230    6.7050  -20.3660 C   0  0  0  0  0
   -9.2060    5.6900  -20.1580 C   0  0  0  0  0
   -9.3500    4.5180  -20.8920 C   0  0  0  0  0
   -8.4500    3.4770  -20.7020 C   0  0  0  0  0
   -7.4070    3.6350  -19.7960 C   0  0  0  0  0
   -7.2470    4.8110  -19.0790 C   0  0  0  0  0
   -8.1480    5.8440  -19.2680 C   0  0  0  0  0
   -7.7977   10.1843  -19.6983 H   0  0  0  0  0
   -7.1942   11.3647  -20.8872 H   0  0  0  0  0
   -8.6197   11.7519  -19.8926 H   0  0  0  0  0
  -11.3624   12.7023  -19.8096 H   0  0  0  0  0
  -10.3114   11.4086  -19.1209 H   0  0  0  0  0
  -12.9143   10.5008  -20.2788 H   0  0  0  0  0
  -14.9604   10.6894  -18.4621 H   0  0  0  0  0
  -14.5446   12.3781  -20.1506 H   0  0  0  0  0
  -12.7794    9.0033  -18.4335 H   0  0  0  0  0
  -11.4048    9.8693  -17.7526 H   0  0  0  0  0
  -10.0552    9.4131  -19.6607 H   0  0  0  0  0
  -11.5115    8.6395  -20.5080 H   0  0  0  0  0
  -11.3296    6.9522  -18.5401 H   0  0  0  0  0
   -9.7199    7.5280  -18.3632 H   0  0  0  0  0
   -9.6531    7.4303  -21.0302 H   0  0  0  0  0
  -11.0247    6.2446  -20.7699 H   0  0  0  0  0
  -10.1629    4.4168  -21.6111 H   0  0  0  0  0
   -8.5603    2.5457  -21.2575 H   0  0  0  0  0
   -6.7011    2.8180  -19.6465 H   0  0  0  0  0
   -6.4218    4.9203  -18.3753 H   0  0  0  0  0
   -8.0288    6.7784  -18.7195 H   0  0  0  0  0
  1  2  1  0  0  0
  2  3  2  0  0  0
  2  4  1  0  0  0
  4  5  1  0  0  0
  5  6  1  0  0  0
  6  7  1  0  0  0
  6 11  1  0  0  0
  7  8  1  0  0  0
  7  9  1  0  0  0
  7 10  2  0  0  0
 11 12  1  0  0  0
 12 13  1  0  0  0
 13 14  1  0  0  0
 14 15  1  0  0  0
 15 16  4  0  0  0
 15 20  4  0  0  0
 16 17  4  0  0  0
 17 18  4  0  0  0
 18 19  4  0  0  0
 19 20  4  0  0  0
  1 21  1  0  0  0
  1 22  1  0  0  0
  1 23  1  0  0  0
  5 24  1  0  0  0
  5 25  1  0  0  0
  6 26  1  0  0  0
  8 27  1  0  0  0
  9 28  1  0  0  0
 11 29  1  0  0  0
 11 30  1  0  0  0
 12 31  1  0  0  0
 12 32  1  0  0  0
 13 33  1  0  0  0
 13 34  1  0  0  0
 14 35  1  0  0  0
 14 36  1  0  0  0
 16 37  1  0  0  0
 17 38  1  0  0  0
 18 39  1  0  0  0
 19 40  1  0  0  0
 20 41  1  0  0  0
M  END
$$$$
