### 
### Created by X-TOOL on Mon Sep 10 21:13:31 2018
### 

@<TRIPOS>MOLECULE
5ni0_ligand
   39    39     1     0     0
SMALL
GAST_HUCK


@<TRIPOS>ATOM
      1 CAA        -8.0860   10.9560  -20.4120 C.3       1 8XW         0.0201
      2 CAB        -8.9610   10.3700  -21.4380 C.2       1 8XW         0.1611
      3 OAC        -8.5700    9.4400  -22.1630 O.2       1 8XW        -0.3794
      4 SAD       -10.5540   11.2190  -21.4680 S.3       1 8XW        -0.0488
      5 CAE       -11.1100   11.6420  -19.8250 C.3       1 8XW         0.0312
      6 CAF       -12.3250   10.8620  -19.4360 C.3       1 8XW         0.0422
      7 PAQ       -13.3210   12.0320  -18.4330 P.3       1 8XW         0.0618
      8 OAS       -14.4950   11.1720  -17.7750 O.co2     1 8XW        -0.5620
      9 OAT       -14.0410   12.9420  -19.5590 O.co2     1 8XW        -0.5620
     10 OAR       -12.5210   12.8280  -17.4770 O.co2     1 8XW        -0.5620
     11 CAG       -11.9050    9.6040  -18.6840 C.3       1 8XW        -0.0341
     12 CAH       -10.9650    8.8180  -19.5820 C.3       1 8XW        -0.0497
     13 CAI       -10.5350    7.4630  -19.0840 C.3       1 8XW        -0.0432
     14 CAJ       -10.1230    6.7050  -20.3660 C.3       1 8XW        -0.0192
     15 CAK        -9.2060    5.6900  -20.1580 C.ar      1 8XW        -0.0430
     16 CAL        -9.3500    4.5180  -20.8920 C.ar      1 8XW        -0.0603
     17 CAM        -8.4500    3.4770  -20.7020 C.ar      1 8XW        -0.0686
     18 CAN        -7.4070    3.6350  -19.7960 C.ar      1 8XW        -0.0687
     19 CAO        -7.2470    4.8110  -19.0790 C.ar      1 8XW        -0.0686
     20 CAP        -8.1480    5.8440  -19.2680 C.ar      1 8XW        -0.0603
     21 H1         -7.1213   10.4275  -20.4075 H         1 8XW         0.0467
     22 H2         -8.5619   10.8587  -19.4251 H         1 8XW         0.0467
     23 H3         -7.9201   12.0201  -20.6358 H         1 8XW         0.0467
     24 H4        -11.3502   12.7150  -19.7948 H         1 8XW         0.0421
     25 H5        -10.3034   11.4265  -19.1088 H         1 8XW         0.0421
     26 H6        -12.8941   10.5640  -20.3289 H         1 8XW         0.0497
     27 H7        -12.7909    8.9966  -18.4467 H         1 8XW         0.0282
     28 H8        -11.3891    9.8796  -17.7524 H         1 8XW         0.0282
     29 H9        -10.0583    9.4234  -19.7279 H         1 8XW         0.0267
     30 H10       -11.4693    8.6739  -20.5489 H         1 8XW         0.0267
     31 H11       -11.3664    6.9509  -18.5776 H         1 8XW         0.0287
     32 H12        -9.6841    7.5528  -18.3927 H         1 8XW         0.0287
     33 H13        -9.6824    7.4287  -21.0675 H         1 8XW         0.0426
     34 H14       -11.0275    6.2658  -20.8122 H         1 8XW         0.0426
     35 H15       -10.1584    4.4173  -21.6071 H         1 8XW         0.0557
     36 H16        -8.5597    2.5508  -21.2545 H         1 8XW         0.0599
     37 H17        -6.7050    2.8225  -19.6473 H         1 8XW         0.0559
     38 H18        -6.4263    4.9197  -18.3792 H         1 8XW         0.0599
     39 H19        -8.0294    6.7732  -18.7226 H         1 8XW         0.0557
@<TRIPOS>BOND
     1    1    2 1  
     2    2    3 2  
     3    2    4 1  
     4    4    5 1  
     5    5    6 1  
     6    6    7 1  
     7    6   11 1  
     8    7    8 ar 
     9    7    9 ar 
    10    7   10 ar 
    11   11   12 1  
    12   12   13 1  
    13   13   14 1  
    14   14   15 1  
    15   15   16 ar 
    16   15   20 ar 
    17   16   17 ar 
    18   17   18 ar 
    19   18   19 ar 
    20   19   20 ar 
    21    1   21 1  
    22    1   22 1  
    23    1   23 1  
    24    5   24 1  
    25    5   25 1  
    26    6   26 1  
    27   11   27 1  
    28   11   28 1  
    29   12   29 1  
    30   12   30 1  
    31   13   31 1  
    32   13   32 1  
    33   14   33 1  
    34   14   34 1  
    35   16   35 1  
    36   17   36 1  
    37   18   37 1  
    38   19   38 1  
    39   20   39 1  
@<TRIPOS>SUBSTRUCTURE
     1 8XW         1

