3ggw_ligand
  -I-interpret- 

202205  0  0  0  0  0  0  0  0999 V2000
   33.1580  -15.2710   72.4120 N   0  3  0  0  0
   32.3760  -14.4160   71.4820 C   0  0  0  0  0
   31.9100  -13.1110   72.1210 C   0  0  0  0  0
   32.2600  -12.0360   71.6460 O   0  0  0  0  0
   31.1560  -15.1440   70.8950 C   0  0  0  0  0
   30.4280  -14.1780   70.0080 C   0  0  0  0  0
   30.9360  -13.8480   68.7570 C   0  0  0  0  0
   29.3470  -13.4770   70.4750 C   0  0  0  0  0
   30.3310  -12.8600   67.9750 C   0  0  0  0  0
   28.7260  -12.5170   69.7110 C   0  0  0  0  0
   29.2200  -12.2010   68.4700 C   0  0  0  0  0
   28.5690  -11.2280   67.7490 O   0  0  0  0  0
   31.1270  -13.2170   73.1930 N   0  0  0  0  0
   30.5200  -12.0380   73.8070 C   0  0  0  0  0
   31.5300  -11.0340   74.2940 C   0  0  0  0  0
   31.3580   -9.8260   74.1200 O   0  0  0  0  0
   29.5210  -12.4110   74.9100 C   0  0  0  0  0
   28.1110  -12.6550   74.3500 C   0  0  0  0  0
   27.1740  -13.3020   75.3600 C   0  0  0  0  0
   27.4780  -11.4040   73.7720 C   0  0  0  0  0
   32.6050  -11.5250   74.8750 N   0  0  0  0  0
   33.6650  -10.6510   75.3380 C   0  0  0  0  0
   34.1800   -9.8320   74.1590 C   0  0  0  0  0
   34.3450   -8.6150   74.2760 O   0  0  0  0  0
   34.8060  -11.4560   75.9700 C   0  0  0  0  0
   34.4110  -12.1410   77.2600 C   0  0  0  0  0
   33.6880  -13.4770   77.0870 C   0  0  0  0  0
   33.5550  -14.0330   75.9560 O   0  0  0  0  0
   33.2570  -13.9890   78.1340 O   0  0  0  0  0
   34.4180  -10.5010   73.0260 N   0  0  0  0  0
   34.9020   -9.8290   71.8000 C   0  0  0  0  0
   33.8810   -8.8260   71.2740 C   0  0  0  0  0
   34.2440   -7.7040   70.9130 O   0  0  0  0  0
   35.1970  -10.8490   70.6920 C   0  0  0  0  0
   36.4380  -11.7000   70.9610 C   0  0  0  0  0
   37.2330  -11.3910   71.8780 O   0  0  0  0  0
   36.6320  -12.6710   70.2060 O   0  0  0  0  0
   32.6100   -9.2430   71.2180 N   0  0  0  0  0
   31.5090   -8.3790   70.7650 C   0  0  0  0  0
   31.3900   -7.1530   71.6520 C   0  0  0  0  0
   31.2710   -6.0060   71.1700 O   0  0  0  0  0
   30.1620   -9.1230   70.7520 C   0  0  0  0  0
   29.0070   -8.2020   70.5210 C   0  0  0  0  0
   28.1930   -7.6570   71.4630 C   0  0  0  0  0
   28.5790   -7.6550   69.2570 C   0  0  0  0  0
   27.2980   -6.8030   70.8730 N   0  0  0  0  0
   27.5080   -6.7860   69.5230 C   0  0  0  0  0
   28.9890   -7.8370   67.9270 C   0  0  0  0  0
   26.8180   -6.0930   68.5100 C   0  0  0  0  0
   28.3060   -7.1340   66.9100 C   0  0  0  0  0
   27.2400   -6.2720   67.2220 C   0  0  0  0  0
   31.3930   -7.3880   72.9590 N   0  0  0  0  0
   31.1710   -6.2940   73.9030 C   0  0  0  0  0
   32.2880   -5.2680   73.8040 C   0  0  0  0  0
   32.0200   -4.0520   73.7430 O   0  0  0  0  0
   31.0060   -6.8380   75.3270 C   0  0  0  0  0
   29.6220   -7.4830   75.4460 C   0  0  0  0  0
   31.2230   -5.7070   76.3370 C   0  0  0  0  0
   29.4530   -8.3640   76.6300 C   0  0  0  0  0
   33.5240   -5.7480   73.7640 N   0  0  0  0  0
   34.6950   -4.8870   73.5700 C   0  0  0  0  0
   34.5280   -4.1030   72.2800 C   0  0  0  0  0
   34.5570   -2.8670   72.2680 O   0  0  0  0  0
   35.9770   -5.7250   73.5480 C   0  0  0  0  0
   37.3010   -4.9240   73.6650 C   0  0  0  0  0
   38.5180   -5.8720   73.7170 C   0  0  0  0  0
   39.8110   -5.2530   73.1370 C   0  0  0  0  0
   41.0070   -6.1120   73.4580 N   0  3  0  0  0
   34.3040   -4.8170   71.1870 N   0  0  0  0  0
   34.0870   -4.1740   69.8890 C   0  0  0  0  0
   32.9790   -3.1130   69.9250 C   0  0  0  0  0
   33.1800   -1.9760   69.4880 O   0  0  0  0  0
   33.7720   -5.2560   68.8500 C   0  0  0  0  0
   33.0490   -4.7740   67.6000 C   0  0  0  0  0
   33.6820   -3.9520   66.6770 C   0  0  0  0  0
   31.7440   -5.1620   67.3410 C   0  0  0  0  0
   33.0280   -3.5320   65.5440 C   0  0  0  0  0
   31.0780   -4.7460   66.1900 C   0  0  0  0  0
   31.7250   -3.9260   65.3060 C   0  0  0  0  0
   31.0610   -3.5280   64.1810 O   0  0  0  0  0
   31.8190   -3.4820   70.4550 N   0  0  0  0  0
   30.6110   -2.6560   70.4170 C   0  0  0  0  0
   30.7060   -1.4000   71.3050 C   0  0  0  0  0
   30.0430   -0.3820   71.0340 O   0  0  0  0  0
   29.4040   -3.5080   70.8310 C   0  0  0  0  0
   28.0900   -2.7690   70.7300 C   0  0  0  0  0
   27.6550   -2.3870   69.6500 O   0  0  0  0  0
   27.4360   -2.5750   71.8780 N   0  0  0  0  0
   31.5100   -1.4820   72.3610 N   0  0  0  0  0
   31.7260   -0.3300   73.2440 C   0  0  0  0  0
   32.6010    0.6980   72.5520 C   0  0  0  0  0
   32.3630    1.9100   72.6910 O   0  0  0  0  0
   32.3370   -0.7680   74.5820 C   0  0  0  0  0
   31.3000   -1.3770   75.5240 C   0  0  0  0  0
   30.0990   -1.3560   75.2350 O   0  0  0  0  0
   31.7590   -1.9070   76.6610 N   0  0  0  0  0
   33.5990    0.2140   71.8060 N   0  0  0  0  0
   34.4810    1.0720   71.0040 C   0  0  0  0  0
   33.6730    1.6930   69.8660 C   0  0  0  0  0
   34.1970    2.4770   69.0850 O   0  0  0  0  0
   35.6550    0.2630   70.4250 C   0  0  0  0  0
   36.5790   -0.3520   71.4860 C   0  0  0  0  0
   37.4480   -1.4970   70.9690 C   0  0  0  0  0
   37.2060   -2.0310   69.8910 O   0  0  0  0  0
   38.4590   -1.8890   71.7530 N   0  0  0  0  0
   33.9526  -14.7420   72.7714 H   0  0  0  0  0
   32.5623  -15.5610   73.1875 H   0  0  0  0  0
   33.4940  -16.0949   71.9133 H   0  0  0  0  0
   33.0718  -14.1805   70.6767 H   0  0  0  0  0
   30.5013  -15.4903   71.6947 H   0  0  0  0  0
   31.4746  -16.0158   70.3236 H   0  0  0  0  0
   31.8179  -14.3666   68.3808 H   0  0  0  0  0
   28.9703  -13.6855   71.4764 H   0  0  0  0  0
   30.7284  -12.6127   66.9906 H   0  0  0  0  0
   27.8410  -12.0067   70.0911 H   0  0  0  0  0
   27.8284  -10.8940   68.2604 H   0  0  0  0  0
   30.9477  -14.1381   73.5929 H   0  0  0  0  0
   29.9622  -11.5473   73.0094 H   0  0  0  0  0
   29.4687  -11.5831   75.6170 H   0  0  0  0  0
   29.8637  -13.3308   75.3838 H   0  0  0  0  0
   28.2569  -13.3610   73.5325 H   0  0  0  0  0
   27.5810  -14.2658   75.6658 H   0  0  0  0  0
   27.0775  -12.6540   76.2312 H   0  0  0  0  0
   26.1949  -13.4478   74.9038 H   0  0  0  0  0
   27.3989  -10.6454   74.5507 H   0  0  0  0  0
   28.0976  -11.0277   72.9580 H   0  0  0  0  0
   26.4842  -11.6429   73.3934 H   0  0  0  0  0
   32.6930  -12.5334   75.0009 H   0  0  0  0  0
   33.2694   -9.9847   76.1046 H   0  0  0  0  0
   35.6127  -10.7599   76.1999 H   0  0  0  0  0
   35.0953  -12.2310   75.2603 H   0  0  0  0  0
   33.7188  -11.4726   77.7721 H   0  0  0  0  0
   35.3341  -12.3504   77.8006 H   0  0  0  0  0
   33.9534  -13.4799   75.2800 H   0  0  0  0  0
   34.2606  -11.5086   73.0063 H   0  0  0  0  0
   35.8179   -9.3040   72.0713 H   0  0  0  0  0
   35.3752  -10.2914   69.7725 H   0  0  0  0  0
   34.3434  -11.5242   70.6327 H   0  0  0  0  0
   36.9018  -10.6174   72.3400 H   0  0  0  0  0
   32.3963  -10.1993   71.5011 H   0  0  0  0  0
   31.7458   -8.0754   69.7453 H   0  0  0  0  0
   30.0278   -9.5962   71.7247 H   0  0  0  0  0
   30.1841   -9.8481   69.9385 H   0  0  0  0  0
   28.2444   -7.8681   72.5311 H   0  0  0  0  0
   29.8153   -8.5053   67.6846 H   0  0  0  0  0
   25.9786   -5.4382   68.7440 H   0  0  0  0  0
   28.6090   -7.2613   65.8707 H   0  0  0  0  0
   26.7381   -5.7337   66.4180 H   0  0  0  0  0
   31.5506   -8.3344   73.3052 H   0  0  0  0  0
   30.2432   -5.7842   73.6435 H   0  0  0  0  0
   31.7510   -7.6031   75.5452 H   0  0  0  0  0
   29.4832   -8.1059   74.5624 H   0  0  0  0  0
   28.8998   -6.6727   75.5455 H   0  0  0  0  0
   32.2280   -5.3025   76.2172 H   0  0  0  0  0
   30.4898   -4.9197   76.1620 H   0  0  0  0  0
   31.1050   -6.0969   77.3480 H   0  0  0  0  0
   30.1790   -9.1758   76.5838 H   0  0  0  0  0
   29.6123   -7.7837   77.5388 H   0  0  0  0  0
   28.4442   -8.7768   76.6331 H   0  0  0  0  0
   33.6649   -6.7524   73.8721 H   0  0  0  0  0
   34.7763   -4.1855   74.4003 H   0  0  0  0  0
   36.0027   -6.2275   72.5811 H   0  0  0  0  0
   35.9336   -6.3814   74.4171 H   0  0  0  0  0
   37.2750   -4.3375   74.5834 H   0  0  0  0  0
   37.3976   -4.2784   72.7921 H   0  0  0  0  0
   38.2761   -6.7474   73.1142 H   0  0  0  0  0
   38.7079   -6.1024   74.7653 H   0  0  0  0  0
   39.9576   -4.2675   73.5790 H   0  0  0  0  0
   39.7108   -5.1809   72.0540 H   0  0  0  0  0
   41.8461   -5.6845   73.0662 H   0  0  0  0  0
   41.1053   -6.1913   74.4701 H   0  0  0  0  0
   40.8762   -7.0395   73.0542 H   0  0  0  0  0
   34.2822   -5.8348   71.2505 H   0  0  0  0  0
   34.9995   -3.6431   69.6176 H   0  0  0  0  0
   33.1075   -5.9697   69.3370 H   0  0  0  0  0
   34.7301   -5.6568   68.5192 H   0  0  0  0  0
   34.7102   -3.6361   66.8535 H   0  0  0  0  0
   31.2277   -5.8062   68.0527 H   0  0  0  0  0
   33.5388   -2.8857   64.8303 H   0  0  0  0  0
   30.0553   -5.0694   65.9963 H   0  0  0  0  0
   30.1744   -3.8962   64.1869 H   0  0  0  0  0
   31.7666   -4.3913   70.9141 H   0  0  0  0  0
   30.4935   -2.2987   69.3940 H   0  0  0  0  0
   29.5432   -3.7927   71.8739 H   0  0  0  0  0
   29.3553   -4.3617   70.1551 H   0  0  0  0  0
   26.5376   -2.0921   71.8778 H   0  0  0  0  0
   27.8349   -2.9097   72.7551 H   0  0  0  0  0
   31.9854   -2.3620   72.5610 H   0  0  0  0  0
   30.7609    0.1279   73.4609 H   0  0  0  0  0
   32.7558    0.1141   75.0664 H   0  0  0  0  0
   33.0920   -1.5266   74.3758 H   0  0  0  0  0
   31.1088   -2.3163   77.3319 H   0  0  0  0  0
   32.7597   -1.9024   76.8583 H   0  0  0  0  0
   33.7546   -0.7940   71.7932 H   0  0  0  0  0
   34.8888    1.8545   71.6439 H   0  0  0  0  0
   32.6203    1.4358   69.7482 H   0  0  0  0  0
   36.2584    0.9507   69.8325 H   0  0  0  0  0
   35.2272   -0.5612   69.8542 H   0  0  0  0  0
   35.9419   -0.7599   72.2708 H   0  0  0  0  0
   37.2519    0.4363   71.8233 H   0  0  0  0  0
   39.0620   -2.6582   71.4613 H   0  0  0  0  0
   38.6267   -1.4186   72.6424 H   0  0  0  0  0
  1  2  1  0  0  0
  2  3  1  0  0  0
  2  5  1  0  0  0
  3  4  2  0  0  0
  3 13  1  0  0  0
  5  6  1  0  0  0
  6  7  4  0  0  0
  6  8  4  0  0  0
  7  9  4  0  0  0
  8 10  4  0  0  0
  9 11  4  0  0  0
 10 11  4  0  0  0
 11 12  1  0  0  0
 13 14  1  0  0  0
 14 15  1  0  0  0
 14 17  1  0  0  0
 15 16  2  0  0  0
 15 21  1  0  0  0
 17 18  1  0  0  0
 18 19  1  0  0  0
 18 20  1  0  0  0
 21 22  1  0  0  0
 22 23  1  0  0  0
 22 25  1  0  0  0
 23 24  2  0  0  0
 23 30  1  0  0  0
 25 26  1  0  0  0
 26 27  1  0  0  0
 27 28  1  0  0  0
 27 29  2  0  0  0
 30 31  1  0  0  0
 31 32  1  0  0  0
 31 34  1  0  0  0
 32 33  2  0  0  0
 32 38  1  0  0  0
 34 35  1  0  0  0
 35 36  1  0  0  0
 35 37  2  0  0  0
 38 39  1  0  0  0
 39 40  1  0  0  0
 39 42  1  0  0  0
 40 41  2  0  0  0
 40 52  1  0  0  0
 42 43  1  0  0  0
 43 44  4  0  0  0
 43 45  4  0  0  0
 44 46  4  0  0  0
 45 47  4  0  0  0
 45 48  4  0  0  0
 46 47  4  0  0  0
 47 49  4  0  0  0
 48 50  4  0  0  0
 49 51  4  0  0  0
 50 51  4  0  0  0
 52 53  1  0  0  0
 53 54  1  0  0  0
 53 56  1  0  0  0
 54 55  2  0  0  0
 54 60  1  0  0  0
 56 57  1  0  0  0
 56 58  1  0  0  0
 57 59  1  0  0  0
 60 61  1  0  0  0
 61 62  1  0  0  0
 61 64  1  0  0  0
 62 63  2  0  0  0
 62 69  1  0  0  0
 64 65  1  0  0  0
 65 66  1  0  0  0
 66 67  1  0  0  0
 67 68  1  0  0  0
 69 70  1  0  0  0
 70 71  1  0  0  0
 70 73  1  0  0  0
 71 72  2  0  0  0
 71 81  1  0  0  0
 73 74  1  0  0  0
 74 75  4  0  0  0
 74 76  4  0  0  0
 75 77  4  0  0  0
 76 78  4  0  0  0
 77 79  4  0  0  0
 78 79  4  0  0  0
 79 80  1  0  0  0
 81 82  1  0  0  0
 82 83  1  0  0  0
 82 85  1  0  0  0
 83 84  2  0  0  0
 83 89  1  0  0  0
 85 86  1  0  0  0
 86 87  2  0  0  0
 86 88  1  0  0  0
 89 90  1  0  0  0
 90 91  1  0  0  0
 90 93  1  0  0  0
 91 92  2  0  0  0
 91 97  1  0  0  0
 93 94  1  0  0  0
 94 95  2  0  0  0
 94 96  1  0  0  0
 97 98  1  0  0  0
 98 99  1  0  0  0
 98101  1  0  0  0
 99100  2  0  0  0
101102  1  0  0  0
102103  1  0  0  0
103104  2  0  0  0
103105  1  0  0  0
  1106  1  0  0  0
  1107  1  0  0  0
  1108  1  0  0  0
  2109  1  0  0  0
  5110  1  0  0  0
  5111  1  0  0  0
  7112  1  0  0  0
  8113  1  0  0  0
  9114  1  0  0  0
 10115  1  0  0  0
 12116  1  0  0  0
 13117  1  0  0  0
 14118  1  0  0  0
 17119  1  0  0  0
 17120  1  0  0  0
 18121  1  0  0  0
 19122  1  0  0  0
 19123  1  0  0  0
 19124  1  0  0  0
 20125  1  0  0  0
 20126  1  0  0  0
 20127  1  0  0  0
 21128  1  0  0  0
 22129  1  0  0  0
 25130  1  0  0  0
 25131  1  0  0  0
 26132  1  0  0  0
 26133  1  0  0  0
 28134  1  0  0  0
 30135  1  0  0  0
 31136  1  0  0  0
 34137  1  0  0  0
 34138  1  0  0  0
 36139  1  0  0  0
 38140  1  0  0  0
 39141  1  0  0  0
 42142  1  0  0  0
 42143  1  0  0  0
 44144  1  0  0  0
 48145  1  0  0  0
 49146  1  0  0  0
 50147  1  0  0  0
 51148  1  0  0  0
 52149  1  0  0  0
 53150  1  0  0  0
 56151  1  0  0  0
 57152  1  0  0  0
 57153  1  0  0  0
 58154  1  0  0  0
 58155  1  0  0  0
 58156  1  0  0  0
 59157  1  0  0  0
 59158  1  0  0  0
 59159  1  0  0  0
 60160  1  0  0  0
 61161  1  0  0  0
 64162  1  0  0  0
 64163  1  0  0  0
 65164  1  0  0  0
 65165  1  0  0  0
 66166  1  0  0  0
 66167  1  0  0  0
 67168  1  0  0  0
 67169  1  0  0  0
 68170  1  0  0  0
 68171  1  0  0  0
 68172  1  0  0  0
 69173  1  0  0  0
 70174  1  0  0  0
 73175  1  0  0  0
 73176  1  0  0  0
 75177  1  0  0  0
 76178  1  0  0  0
 77179  1  0  0  0
 78180  1  0  0  0
 80181  1  0  0  0
 81182  1  0  0  0
 82183  1  0  0  0
 85184  1  0  0  0
 85185  1  0  0  0
 88186  1  0  0  0
 88187  1  0  0  0
 89188  1  0  0  0
 90189  1  0  0  0
 93190  1  0  0  0
 93191  1  0  0  0
 96192  1  0  0  0
 96193  1  0  0  0
 97194  1  0  0  0
 98195  1  0  0  0
 99196  1  0  0  0
101197  1  0  0  0
101198  1  0  0  0
102199  1  0  0  0
102200  1  0  0  0
105201  1  0  0  0
105202  1  0  0  0
M  END
$$$$
