### 
### Created by X-TOOL on Mon Sep 10 21:13:00 2018
### 

@<TRIPOS>MOLECULE
3ggw_ligand
  201   204     1     0     0
SMALL
GAST_HUCK


@<TRIPOS>ATOM
      1 N          33.1580  -15.2710   72.4120 N.4       1 TYR         0.2392
      2 CA         32.3760  -14.4160   71.4820 C.3       1 TYR         0.0730
      3 C          31.9100  -13.1110   72.1210 C.2       1 TYR         0.2286
      4 O          32.2600  -12.0360   71.6460 O.2       1 TYR        -0.3905
      5 CB         31.1560  -15.1440   70.8950 C.3       1 TYR         0.0365
      6 CG         30.4280  -14.1780   70.0080 C.ar      1 TYR        -0.0460
      7 CD1        30.9360  -13.8480   68.7570 C.ar      1 TYR        -0.0684
      8 CD2        29.3470  -13.4770   70.4750 C.ar      1 TYR        -0.0684
      9 CE1        30.3310  -12.8600   67.9750 C.ar      1 TYR        -0.0398
     10 CE2        28.7260  -12.5170   69.7110 C.ar      1 TYR        -0.0398
     11 CZ         29.2200  -12.2010   68.4700 C.ar      1 TYR         0.0805
     12 OH         28.5690  -11.2280   67.7490 O.3       1 TYR        -0.3376
     13 N          31.1270  -13.2170   73.1930 N.am      1 LEU        -0.2609
     14 CA         30.5200  -12.0380   73.8070 C.3       1 LEU         0.1313
     15 C          31.5300  -11.0340   74.2940 C.2       1 LEU         0.2039
     16 O          31.3580   -9.8260   74.1200 O.2       1 LEU        -0.3944
     17 CB         29.5210  -12.4110   74.9100 C.3       1 LEU        -0.0101
     18 CG         28.1110  -12.6550   74.3500 C.3       1 LEU        -0.0425
     19 CD1        27.1740  -13.3020   75.3600 C.3       1 LEU        -0.0625
     20 CD2        27.4780  -11.4040   73.7720 C.3       1 LEU        -0.0625
     21 N          32.6050  -11.5250   74.8750 N.am      1 GLU        -0.2636
     22 CA         33.6650  -10.6510   75.3380 C.3       1 GLU         0.1325
     23 C          34.1800   -9.8320   74.1590 C.2       1 GLU         0.2041
     24 O          34.3450   -8.6150   74.2760 O.2       1 GLU        -0.3944
     25 CB         34.8060  -11.4560   75.9700 C.3       1 GLU        -0.0008
     26 CG         34.4110  -12.1410   77.2600 C.3       1 GLU         0.0044
     27 CD         33.6880  -13.4770   77.0870 C.2       1 GLU         0.0350
     28 OE1        33.5550  -14.0330   75.9560 O.co2     1 GLU        -0.5690
     29 OE2        33.2570  -13.9890   78.1340 O.co2     1 GLU        -0.5690
     30 N          34.4180  -10.5010   73.0260 N.am      1 ASP        -0.2622
     31 CA         34.9020   -9.8290   71.8000 C.3       1 ASP         0.1423
     32 C          33.8810   -8.8260   71.2740 C.2       1 ASP         0.2057
     33 O          34.2440   -7.7040   70.9130 O.2       1 ASP        -0.3943
     34 CB         35.1970  -10.8490   70.6920 C.3       1 ASP         0.0406
     35 CG         36.4380  -11.7000   70.9610 C.2       1 ASP         0.0393
     36 OD1        37.2330  -11.3910   71.8780 O.co2     1 ASP        -0.5688
     37 OD2        36.6320  -12.6710   70.2060 O.co2     1 ASP        -0.5688
     38 N          32.6100   -9.2430   71.2180 N.am      1 TRP        -0.2626
     39 CA         31.5090   -8.3790   70.7650 C.3       1 TRP         0.1352
     40 C          31.3900   -7.1530   71.6520 C.2       1 TRP         0.2052
     41 O          31.2710   -6.0060   71.1700 O.2       1 TRP        -0.3942
     42 CB         30.1620   -9.1230   70.7520 C.3       1 TRP         0.0042
     43 CG         29.0070   -8.2020   70.5210 C.2       1 TRP        -0.0418
     44 CD1        28.1930   -7.6570   71.4630 C.2       1 TRP         0.0167
     45 CD2        28.5790   -7.6550   69.2570 C.ar      1 TRP        -0.0214
     46 NE1        27.2980   -6.8030   70.8730 N.pl3     1 TRP        -0.2890
     47 CE2        27.5080   -6.7860   69.5230 C.ar      1 TRP         0.0603
     48 CE3        28.9890   -7.8370   67.9270 C.ar      1 TRP        -0.0747
     49 CZ2        26.8180   -6.0930   68.5100 C.ar      1 TRP        -0.0443
     50 CZ3        28.3060   -7.1340   66.9100 C.ar      1 TRP        -0.0792
     51 CH2        27.2400   -6.2720   67.2220 C.ar      1 TRP        -0.0768
     52 N          31.3930   -7.3880   72.9590 N.am      1 ILE        -0.2634
     53 CA         31.1710   -6.2940   73.9030 C.3       1 ILE         0.1335
     54 C          32.2880   -5.2680   73.8040 C.2       1 ILE         0.2042
     55 O          32.0200   -4.0520   73.7430 O.2       1 ILE        -0.3944
     56 CB         31.0060   -6.8380   75.3270 C.3       1 ILE        -0.0037
     57 CG1        29.6220   -7.4830   75.4460 C.3       1 ILE        -0.0491
     58 CG2        31.2230   -5.7070   76.3370 C.3       1 ILE        -0.0582
     59 CD1        29.4530   -8.3640   76.6300 C.3       1 ILE        -0.0648
     60 N          33.5240   -5.7480   73.7640 N.am      1 LYS        -0.2637
     61 CA         34.6950   -4.8870   73.5700 C.3       1 LYS         0.1310
     62 C          34.5280   -4.1030   72.2800 C.2       1 LYS         0.2040
     63 O          34.5570   -2.8670   72.2680 O.2       1 LYS        -0.3944
     64 CB         35.9770   -5.7250   73.5480 C.3       1 LYS        -0.0122
     65 CG         37.3010   -4.9240   73.6650 C.3       1 LYS        -0.0440
     66 CD         38.5180   -5.8720   73.7170 C.3       1 LYS        -0.0124
     67 CE         39.8110   -5.2530   73.1370 C.3       1 LYS        -0.0354
     68 NZ         41.0070   -6.1120   73.4580 N.4       1 LYS         0.2185
     69 N          34.3040   -4.8170   71.1870 N.am      1 TYR        -0.2621
     70 CA         34.0870   -4.1740   69.8890 C.3       1 TYR         0.1390
     71 C          32.9790   -3.1130   69.9250 C.2       1 TYR         0.2059
     72 O          33.1800   -1.9760   69.4880 O.2       1 TYR        -0.3942
     73 CB         33.7720   -5.2560   68.8500 C.3       1 TYR         0.0163
     74 CG         33.0490   -4.7740   67.6000 C.ar      1 TYR        -0.0493
     75 CD1        33.6820   -3.9520   66.6770 C.ar      1 TYR        -0.0685
     76 CD2        31.7440   -5.1620   67.3410 C.ar      1 TYR        -0.0685
     77 CE1        33.0280   -3.5320   65.5440 C.ar      1 TYR        -0.0398
     78 CE2        31.0780   -4.7460   66.1900 C.ar      1 TYR        -0.0398
     79 CZ         31.7250   -3.9260   65.3060 C.ar      1 TYR         0.0805
     80 OH         31.0610   -3.5280   64.1810 O.3       1 TYR        -0.3376
     81 N          31.8190   -3.4820   70.4550 N.am      1 ASN        -0.2615
     82 CA         30.6110   -2.6560   70.4170 C.3       1 ASN         0.1476
     83 C          30.7060   -1.4000   71.3050 C.2       1 ASN         0.2064
     84 O          30.0430   -0.3820   71.0340 O.2       1 ASN        -0.3942
     85 CB         29.4040   -3.5080   70.8310 C.3       1 ASN         0.0773
     86 CG         28.0900   -2.7690   70.7300 C.2       1 ASN         0.1780
     87 OD1        27.6550   -2.3870   69.6500 O.2       1 ASN        -0.3970
     88 ND2        27.4360   -2.5750   71.8780 N.am      1 ASN        -0.3007
     89 N          31.5100   -1.4820   72.3610 N.am      1 ASN        -0.2615
     90 CA         31.7260   -0.3300   73.2440 C.3       1 ASN         0.1476
     91 C          32.6010    0.6980   72.5520 C.2       1 ASN         0.2063
     92 O          32.3630    1.9100   72.6910 O.2       1 ASN        -0.3942
     93 CB         32.3370   -0.7680   74.5820 C.3       1 ASN         0.0773
     94 CG         31.3000   -1.3770   75.5240 C.2       1 ASN         0.1780
     95 OD1        30.0990   -1.3560   75.2350 O.2       1 ASN        -0.3970
     96 ND2        31.7590   -1.9070   76.6610 N.am      1 ASN        -0.3007
     97 N          33.5990    0.2140   71.8060 N.am      1 GLN        -0.2647
     98 CA         34.4810    1.0720   71.0040 C.3       1 GLN         0.1148
     99 C          33.6730    1.6930   69.8660 C.2       1 GLN         0.1246
    100 O          34.1970    2.4770   69.0850 O.2       1 GLN        -0.3725
    101 CB         35.6550    0.2630   70.4250 C.3       1 GLN         0.0032
    102 CG         36.5790   -0.3520   71.4860 C.3       1 GLN         0.0413
    103 CD         37.4480   -1.4970   70.9690 C.2       1 GLN         0.1737
    104 OE1        37.2060   -2.0310   69.8910 O.2       1 GLN        -0.3973
    105 NE2        38.4590   -1.8890   71.7530 N.am      1 GLN        -0.3009
    106 H1         33.4378  -16.1151   71.9374 H         1 TYR         0.2017
    107 H2         32.5893  -15.5070   73.2101 H         1 TYR         0.2017
    108 H3         33.9775  -14.7710   72.7194 H         1 TYR         0.2017
    109 H4         33.0444  -14.1577   70.6474 H         1 TYR         0.1120
    110 H5         30.4936  -15.4785   71.7069 H         1 TYR         0.0486
    111 H6         31.4860  -16.0143   70.3088 H         1 TYR         0.0486
    112 H7         31.8130  -14.3637   68.3829 H         1 TYR         0.0530
    113 H8         28.9724  -13.6843   71.4709 H         1 TYR         0.0530
    114 H9         30.7262  -12.6140   66.9960 H         1 TYR         0.0525
    115 H10        27.8459  -12.0095   70.0890 H         1 TYR         0.0525
    116 H11        29.0081  -11.1060   66.9154 H         1 TYR         0.2458
    117 H12        30.9512  -14.1200   73.5850 H         1 LEU         0.1885
    118 H13        29.9429  -11.5394   73.0143 H         1 LEU         0.0800
    119 H14        29.4758  -11.5902   75.6409 H         1 LEU         0.0315
    120 H15        29.8686  -13.3276   75.4090 H         1 LEU         0.0315
    121 H16        28.2266  -13.3672   73.5197 H         1 LEU         0.0298
    122 H17        26.1854  -13.4497   74.9008 H         1 LEU         0.0232
    123 H18        27.0757  -12.6490   76.2397 H         1 LEU         0.0232
    124 H19        27.5836  -14.2749   75.6694 H         1 LEU         0.0232
    125 H20        28.1656  -10.9477   73.0447 H         1 LEU         0.0232
    126 H21        27.2737  -10.6885   74.5822 H         1 LEU         0.0232
    127 H22        26.5357  -11.6683   73.2699 H         1 LEU         0.0232
    128 H23        32.6913  -12.5136   74.9984 H         1 GLU         0.1883
    129 H24        33.2565   -9.9677   76.0971 H         1 GLU         0.0801
    130 H25        35.6418  -10.7722   76.1794 H         1 GLU         0.0330
    131 H26        35.1312  -12.2236   75.2524 H         1 GLU         0.0330
    132 H27        33.7471  -11.4634   77.8168 H         1 GLU         0.0433
    133 H28        35.3252  -12.3210   77.8446 H         1 GLU         0.0433
    134 H29        34.2637  -11.4888   73.0067 H         1 ASP         0.1884
    135 H30        35.8306   -9.2927   72.0451 H         1 ASP         0.0819
    136 H31        35.3464  -10.3043   69.7481 H         1 ASP         0.0478
    137 H32        34.3298  -11.5188   70.5955 H         1 ASP         0.0478
    138 H33        32.4005  -10.1806   71.4956 H         1 TRP         0.1884
    139 H34        31.7333   -8.0503   69.7395 H         1 TRP         0.0815
    140 H35        30.0257   -9.6249   71.7213 H         1 TRP         0.0397
    141 H36        30.1809   -9.8748   69.9492 H         1 TRP         0.0397
    142 H37        28.2443   -7.8679   72.5301 H         1 TRP         0.0795
    143 H38        26.5787   -6.2585   71.3701 H         1 TRP         0.2216
    144 H39        29.8107   -8.5016   67.6860 H         1 TRP         0.0540
    145 H40        25.9832   -5.4418   68.7427 H         1 TRP         0.0541
    146 H41        28.6073   -7.2606   65.8764 H         1 TRP         0.0510
    147 H42        26.7409   -5.7367   66.4224 H         1 TRP         0.0530
    148 H43        31.5475   -8.3159   73.2984 H         1 ILE         0.1883
    149 H44        30.2319   -5.7922   73.6268 H         1 ILE         0.0803
    150 H45        31.7671   -7.6115   75.5072 H         1 ILE         0.0345
    151 H46        29.4442   -8.0843   74.5422 H         1 ILE         0.0267
    152 H47        28.8726   -6.6800   75.5055 H         1 ILE         0.0267
    153 H48        32.2299   -5.2846   76.2037 H         1 ILE         0.0235
    154 H49        31.1240   -6.1034   77.3583 H         1 ILE         0.0235
    155 H50        30.4711   -4.9208   76.1743 H         1 ILE         0.0235
    156 H51        28.4352   -8.7812   76.6343 H         1 ILE         0.0230
    157 H52        29.6135   -7.7795   77.5479 H         1 ILE         0.0230
    158 H53        30.1851   -9.1837   76.5846 H         1 ILE         0.0230
    159 H54        33.6622   -6.7327   73.8700 H         1 LYS         0.1883
    160 H55        34.7575   -4.1775   74.4083 H         1 LYS         0.0800
    161 H56        36.0011   -6.2827   72.6002 H         1 LYS         0.0312
    162 H57        35.9337   -6.4327   74.3890 H         1 LYS         0.0312
    163 H58        37.2761   -4.3199   74.5840 H         1 LYS         0.0269
    164 H59        37.3986   -4.2609   72.7928 H         1 LYS         0.0269
    165 H60        38.2778   -6.7780   73.1413 H         1 LYS         0.0317
    166 H61        38.7030   -6.1430   74.7669 H         1 LYS         0.0317
    167 H62        39.9583   -4.2532   73.5712 H         1 LYS         0.0813
    168 H63        39.7113   -5.1674   72.0449 H         1 LYS         0.0813
    169 H64        41.8369   -5.6905   73.0712 H         1 LYS         0.1994
    170 H65        40.8789   -7.0289   73.0594 H         1 LYS         0.1994
    171 H66        41.1052   -6.1911   74.4581 H         1 LYS         0.1994
    172 H67        34.2826   -5.8148   71.2493 H         1 TYR         0.1885
    173 H68        35.0208   -3.6714   69.5970 H         1 TYR         0.0821
    174 H69        33.1419   -6.0170   69.3336 H         1 TYR         0.0453
    175 H70        34.7227   -5.7121   68.5368 H         1 TYR         0.0453
    176 H71        34.7045   -3.6379   66.8525 H         1 TYR         0.0530
    177 H72        31.2306   -5.8027   68.0488 H         1 TYR         0.0530
    178 H73        33.5360   -2.8892   64.8342 H         1 TYR         0.0525
    179 H74        30.0609   -5.0677   65.9974 H         1 TYR         0.0525
    180 H75        31.6260   -2.9668   63.6630 H         1 TYR         0.2458
    181 H76        31.7676   -4.3735   70.9051 H         1 ASN         0.1885
    182 H77        30.4626   -2.3216   69.3796 H         1 ASN         0.0826
    183 H78        29.5446   -3.8300   71.8734 H         1 ASN         0.0551
    184 H79        29.3591   -4.3915   70.1772 H         1 ASN         0.0551
    185 H80        26.5602   -2.0924   71.8791 H         1 ASN         0.1814
    186 H81        27.8221   -2.9124   72.7366 H         1 ASN         0.1814
    187 H82        31.9761   -2.3447   72.5571 H         1 ASN         0.1885
    188 H83        30.7499    0.1329   73.4512 H         1 ASN         0.0826
    189 H84        32.7851    0.1101   75.0701 H         1 ASN         0.0551
    190 H85        33.1184   -1.5168   74.3853 H         1 ASN         0.0551
    191 H86        31.1227   -2.3189   77.3133 H         1 ASN         0.1814
    192 H87        32.7389   -1.8919   76.8599 H         1 ASN         0.1814
    193 H88        33.7516   -0.7742   71.7934 H         1 GLN         0.1884
    194 H89        34.8812    1.8724   71.6437 H         1 GLN         0.0792
    195 H90        32.6213    1.4361   69.7483 H         1 GLN         0.1373
    196 H91        36.2553    0.9318   69.7906 H         1 GLN         0.0338
    197 H92        35.2432   -0.5521   69.8119 H         1 GLN         0.0338
    198 H93        35.9551   -0.7355   72.3068 H         1 GLN         0.0505
    199 H94        37.2413    0.4390   71.8675 H         1 GLN         0.0505
    200 H95        39.0581   -2.6346   71.4611 H         1 GLN         0.1814
    201 H96        38.6155   -1.4364   72.6309 H         1 GLN         0.1814
@<TRIPOS>BOND
     1    1    2 1  
     2    2    3 1  
     3    2    5 1  
     4    3    4 2  
     5    3   13 am 
     6    5    6 1  
     7    6    7 ar 
     8    6    8 ar 
     9    7    9 ar 
    10    8   10 ar 
    11    9   11 ar 
    12   10   11 ar 
    13   11   12 1  
    14   13   14 1  
    15   14   15 1  
    16   14   17 1  
    17   15   16 2  
    18   15   21 am 
    19   17   18 1  
    20   18   19 1  
    21   18   20 1  
    22   21   22 1  
    23   22   23 1  
    24   22   25 1  
    25   23   24 2  
    26   23   30 am 
    27   25   26 1  
    28   26   27 1  
    29   27   28 ar 
    30   27   29 ar 
    31   30   31 1  
    32   31   32 1  
    33   31   34 1  
    34   32   33 2  
    35   32   38 am 
    36   34   35 1  
    37   35   36 ar 
    38   35   37 ar 
    39   38   39 1  
    40   39   40 1  
    41   39   42 1  
    42   40   41 2  
    43   40   52 am 
    44   42   43 1  
    45   43   44 2  
    46   43   45 1  
    47   44   46 1  
    48   45   47 ar 
    49   45   48 ar 
    50   46   47 1  
    51   47   49 ar 
    52   48   50 ar 
    53   49   51 ar 
    54   50   51 ar 
    55   52   53 1  
    56   53   54 1  
    57   53   56 1  
    58   54   55 2  
    59   54   60 am 
    60   56   57 1  
    61   56   58 1  
    62   57   59 1  
    63   60   61 1  
    64   61   62 1  
    65   61   64 1  
    66   62   63 2  
    67   62   69 am 
    68   64   65 1  
    69   65   66 1  
    70   66   67 1  
    71   67   68 1  
    72   69   70 1  
    73   70   71 1  
    74   70   73 1  
    75   71   72 2  
    76   71   81 am 
    77   73   74 1  
    78   74   75 ar 
    79   74   76 ar 
    80   75   77 ar 
    81   76   78 ar 
    82   77   79 ar 
    83   78   79 ar 
    84   79   80 1  
    85   81   82 1  
    86   82   83 1  
    87   82   85 1  
    88   83   84 2  
    89   83   89 am 
    90   85   86 1  
    91   86   87 2  
    92   86   88 am 
    93   89   90 1  
    94   90   91 1  
    95   90   93 1  
    96   91   92 2  
    97   91   97 am 
    98   93   94 1  
    99   94   95 2  
   100   94   96 am 
   101   97   98 1  
   102   98   99 1  
   103   98  101 1  
   104   99  100 2  
   105  101  102 1  
   106  102  103 1  
   107  103  104 2  
   108  103  105 am 
   109    1  106 1  
   110    1  107 1  
   111    1  108 1  
   112    2  109 1  
   113    5  110 1  
   114    5  111 1  
   115    7  112 1  
   116    8  113 1  
   117    9  114 1  
   118   10  115 1  
   119   12  116 1  
   120   13  117 1  
   121   14  118 1  
   122   17  119 1  
   123   17  120 1  
   124   18  121 1  
   125   19  122 1  
   126   19  123 1  
   127   19  124 1  
   128   20  125 1  
   129   20  126 1  
   130   20  127 1  
   131   21  128 1  
   132   22  129 1  
   133   25  130 1  
   134   25  131 1  
   135   26  132 1  
   136   26  133 1  
   137   30  134 1  
   138   31  135 1  
   139   34  136 1  
   140   34  137 1  
   141   38  138 1  
   142   39  139 1  
   143   42  140 1  
   144   42  141 1  
   145   44  142 1  
   146   46  143 1  
   147   48  144 1  
   148   49  145 1  
   149   50  146 1  
   150   51  147 1  
   151   52  148 1  
   152   53  149 1  
   153   56  150 1  
   154   57  151 1  
   155   57  152 1  
   156   58  153 1  
   157   58  154 1  
   158   58  155 1  
   159   59  156 1  
   160   59  157 1  
   161   59  158 1  
   162   60  159 1  
   163   61  160 1  
   164   64  161 1  
   165   64  162 1  
   166   65  163 1  
   167   65  164 1  
   168   66  165 1  
   169   66  166 1  
   170   67  167 1  
   171   67  168 1  
   172   68  169 1  
   173   68  170 1  
   174   68  171 1  
   175   69  172 1  
   176   70  173 1  
   177   73  174 1  
   178   73  175 1  
   179   75  176 1  
   180   76  177 1  
   181   77  178 1  
   182   78  179 1  
   183   80  180 1  
   184   81  181 1  
   185   82  182 1  
   186   85  183 1  
   187   85  184 1  
   188   88  185 1  
   189   88  186 1  
   190   89  187 1  
   191   90  188 1  
   192   93  189 1  
   193   93  190 1  
   194   96  191 1  
   195   96  192 1  
   196   97  193 1  
   197   98  194 1  
   198   99  195 1  
   199  101  196 1  
   200  101  197 1  
   201  102  198 1  
   202  102  199 1  
   203  105  200 1  
   204  105  201 1  
@<TRIPOS>SUBSTRUCTURE
     1 TYR         1

