6gva_ligand
  -I-interpret- 

 55 58  0  0  0  0  0  0  0  0999 V2000
   19.2360   24.8590  -24.9400 C   0  0  0  0  0
   13.0400   30.1090  -22.1190 C   0  0  0  0  0
   17.1920   25.5210  -24.3780 C   0  0  0  0  0
   18.5400   25.6110  -24.0420 C   0  0  0  0  0
   13.9180   26.4700  -22.7800 C   0  0  0  0  0
   18.0280   26.9680  -22.2900 C   0  0  0  0  0
   16.9570   28.3230  -20.0960 C   0  0  0  0  0
   16.5400   27.1740  -19.2060 C   0  0  0  0  0
   16.2590   26.2010  -23.5840 C   0  0  0  0  0
   13.4580   27.8960  -22.9610 C   0  0  0  0  0
   13.4980   28.8170  -21.9280 C   0  0  0  0  0
   18.3880   24.2980  -25.7970 N   0  0  0  0  0
   17.1480   24.7050  -25.4480 N   0  0  0  0  0
   21.5390   25.8670  -24.7970 C   0  0  0  0  0
   18.9800   26.3480  -22.9930 N   0  0  0  0  0
   21.1140   23.4970  -24.0120 C   0  0  0  0  0
   20.7160   24.5970  -25.0010 C   0  0  0  0  0
   18.5270   27.9700  -20.9420 S   0  0  0  0  0
   17.2350   27.1590  -17.9060 N   0  3  0  0  0
   16.6970   26.9190  -22.5310 N   0  0  0  0  0
   14.9090   26.1250  -23.8000 N   0  0  0  0  0
   12.5310   30.5130  -23.3520 C   0  0  0  0  0
   12.5150   29.5840  -24.3900 C   0  0  0  0  0
   12.9610   28.2960  -24.1870 C   0  0  0  0  0
   12.1160   31.9180  -23.5840 C   0  0  0  0  0
   12.6460   32.8410  -22.7450 N   0  0  0  0  0
   12.3280   34.1310  -22.9370 C   0  0  0  0  0
   11.5230   34.5620  -23.9610 C   0  0  0  0  0
   11.0190   33.6230  -24.8320 C   0  0  0  0  0
   11.3260   32.2900  -24.6540 C   0  0  0  0  0
   13.0779   30.8203  -21.2939 H   0  0  0  0  0
   13.0607   25.8038  -22.8759 H   0  0  0  0  0
   14.3694   26.3633  -21.7936 H   0  0  0  0  0
   17.0891   29.2104  -19.4769 H   0  0  0  0  0
   16.1843   28.4756  -20.8495 H   0  0  0  0  0
   16.7918   26.2487  -19.7241 H   0  0  0  0  0
   15.4737   27.2821  -19.0075 H   0  0  0  0  0
   13.8936   28.5220  -20.9561 H   0  0  0  0  0
   21.3818   26.2417  -23.7856 H   0  0  0  0  0
   22.5954   25.6410  -24.9421 H   0  0  0  0  0
   21.2252   26.6216  -25.5183 H   0  0  0  0  0
   22.1665   23.2496  -24.1500 H   0  0  0  0  0
   20.9530   23.8503  -22.9935 H   0  0  0  0  0
   20.5047   22.6112  -24.1913 H   0  0  0  0  0
   20.9431   24.2439  -26.0069 H   0  0  0  0  0
   16.9096   26.3633  -17.3570 H   0  0  0  0  0
   18.2401   27.0790  -18.0601 H   0  0  0  0  0
   17.0345   28.0243  -17.4046 H   0  0  0  0  0
   14.5790   25.8137  -24.7136 H   0  0  0  0  0
   12.1461   29.8788  -25.3724 H   0  0  0  0  0
   12.9211   27.5800  -25.0079 H   0  0  0  0  0
   12.7289   34.8722  -22.2456 H   0  0  0  0  0
   11.2889   35.6197  -24.0815 H   0  0  0  0  0
   10.3798   33.9315  -25.6592 H   0  0  0  0  0
   10.9497   31.5396  -25.3492 H   0  0  0  0  0
  4  1  4  0  0  0
  1 12  4  0  0  0
  1 17  1  0  0  0
 11  2  4  0  0  0
  2 22  4  0  0  0
  3  4  4  0  0  0
  9  3  4  0  0  0
  3 13  4  0  0  0
  4 15  4  0  0  0
 10  5  1  0  0  0
  5 21  1  0  0  0
  6 15  4  0  0  0
  6 18  1  0  0  0
 20  6  4  0  0  0
  7  8  1  0  0  0
 18  7  1  0  0  0
  8 19  1  0  0  0
  9 20  4  0  0  0
 21  9  1  0  0  0
 10 11  4  0  0  0
 10 24  4  0  0  0
 12 13  4  0  0  0
 17 14  1  0  0  0
 17 16  1  0  0  0
 22 23  4  0  0  0
 22 25  1  0  0  0
 23 24  4  0  0  0
 25 26  4  0  0  0
 25 30  4  0  0  0
 26 27  4  0  0  0
 27 28  4  0  0  0
 28 29  4  0  0  0
 29 30  4  0  0  0
  2 31  1  0  0  0
  5 32  1  0  0  0
  5 33  1  0  0  0
  7 34  1  0  0  0
  7 35  1  0  0  0
  8 36  1  0  0  0
  8 37  1  0  0  0
 11 38  1  0  0  0
 14 39  1  0  0  0
 14 40  1  0  0  0
 14 41  1  0  0  0
 16 42  1  0  0  0
 16 43  1  0  0  0
 16 44  1  0  0  0
 17 45  1  0  0  0
 19 46  1  0  0  0
 19 47  1  0  0  0
 19 48  1  0  0  0
 21 49  1  0  0  0
 23 50  1  0  0  0
 24 51  1  0  0  0
 27 52  1  0  0  0
 28 53  1  0  0  0
 29 54  1  0  0  0
 30 55  1  0  0  0
M  END
$$$$
