4iic_ligand
  -I-interpret- 

 24 24  0  0  0  0  0  0  0  0999 V2000
   20.3370  -16.7790   25.9570 O   0  0  0  0  0
   20.7100  -17.7180   24.9440 C   0  0  0  0  0
   21.6480  -18.7310   25.5660 C   0  0  0  0  0
   22.8620  -18.1160   25.9920 O   0  0  0  0  0
   22.0650  -19.8000   24.4710 C   0  0  0  0  0
   20.8580  -20.4980   23.9020 N   0  3  0  0  0
   19.8930  -19.4770   23.3070 C   0  0  0  0  0
   19.4640  -18.5740   24.4220 C   0  0  0  0  0
   18.4140  -17.5870   23.7750 C   0  0  0  0  0
   18.9320  -16.8830   22.5630 O   0  0  0  0  0
   21.1131  -16.2895   26.2394 H   0  0  0  0  0
   21.1459  -17.1498   24.1223 H   0  0  0  0  0
   21.1267  -19.1801   26.4114 H   0  0  0  0  0
   22.6672  -17.4549   26.6603 H   0  0  0  0  0
   22.7082  -20.5448   24.9398 H   0  0  0  0  0
   22.5820  -19.2847   23.6616 H   0  0  0  0  0
   20.3856  -21.0101   24.6470 H   0  0  0  0  0
   21.1580  -21.1412   23.1694 H   0  0  0  0  0
   19.0315  -19.9755   22.8627 H   0  0  0  0  0
   20.3773  -18.9063   22.5146 H   0  0  0  0  0
   19.0576  -19.1387   25.2611 H   0  0  0  0  0
   18.1741  -16.8277   24.5193 H   0  0  0  0  0
   17.5515  -18.1788   23.4684 H   0  0  0  0  0
   18.2516  -16.3006   22.2173 H   0  0  0  0  0
  1  2  1  0  0  0
  2  3  1  0  0  0
  2  8  1  0  0  0
  3  4  1  0  0  0
  3  5  1  0  0  0
  5  6  1  0  0  0
  6  7  1  0  0  0
  7  8  1  0  0  0
  8  9  1  0  0  0
  9 10  1  0  0  0
  1 11  1  0  0  0
  2 12  1  0  0  0
  3 13  1  0  0  0
  4 14  1  0  0  0
  5 15  1  0  0  0
  5 16  1  0  0  0
  6 17  1  0  0  0
  6 18  1  0  0  0
  7 19  1  0  0  0
  7 20  1  0  0  0
  8 21  1  0  0  0
  9 22  1  0  0  0
  9 23  1  0  0  0
 10 24  1  0  0  0
M  END
$$$$
