4m2w_ligand
  -I-interpret- 

 36 37  0  0  0  0  0  0  0  0999 V2000
   15.2390    3.6180   15.7780 S   0  0  0  0  0
   16.2560    2.2600   15.9680 C   0  0  0  0  0
   17.5720    2.4470   15.3650 C   0  0  0  0  0
   17.5210    3.7620   14.7810 C   0  0  0  0  0
   18.7930    4.1790   14.0700 C   0  0  0  0  0
   18.8740    5.6860   13.9170 C   0  0  0  0  0
   17.6350    6.3130   13.3560 C   0  0  0  0  0
   16.1880    6.0670   14.3380 S   0  0  0  0  0
   16.3720    4.4570   14.9510 C   0  0  0  0  0
   15.6590    0.8920   16.9040 S   0  0  0  0  0
   16.1950    1.0650   18.2340 O   0  0  0  0  0
   14.1890    1.0170   16.8420 O   0  0  0  0  0
   16.2200   -0.4590   16.2660 N   0  0  0  0  0
   18.7910    3.4050   12.8490 N   0  3  0  0  0
   17.3970    5.6960   12.0240 C   0  0  0  0  0
   16.2330    6.9900   15.4640 O   0  0  0  0  0
   15.0130    6.1340   13.5070 O   0  0  0  0  0
   19.9950    3.4380   12.0770 C   0  0  0  0  0
   20.1230    2.3590   11.0510 C   0  0  0  0  0
   18.4074    1.7469   15.3583 H   0  0  0  0  0
   19.7076    3.9664   14.6235 H   0  0  0  0  0
   19.6849    5.8955   13.2194 H   0  0  0  0  0
   19.0231    6.1030   14.9130 H   0  0  0  0  0
   17.8033    7.3892   13.3173 H   0  0  0  0  0
   16.8596   -1.0478   16.7995 H   0  0  0  0  0
   15.9389   -0.7337   15.3248 H   0  0  0  0  0
   18.0632    3.8074   12.2583 H   0  0  0  0  0
   18.6589    2.4330   13.1286 H   0  0  0  0  0
   17.2022    4.6307   12.1480 H   0  0  0  0  0
   16.5366    6.1716   11.5532 H   0  0  0  0  0
   18.2783    5.8350   11.3979 H   0  0  0  0  0
   20.8194    3.3033   12.7772 H   0  0  0  0  0
   19.9945    4.3848   11.5370 H   0  0  0  0  0
   20.0956    1.3866   11.5428 H   0  0  0  0  0
   19.2976    2.4329   10.3430 H   0  0  0  0  0
   21.0689    2.4732   10.5215 H   0  0  0  0  0
  1  2  4  0  0  0
  1  9  4  0  0  0
  2  3  4  0  0  0
  2 10  1  0  0  0
  3  4  4  0  0  0
  4  5  1  0  0  0
  4  9  4  0  0  0
  5  6  1  0  0  0
  5 14  1  0  0  0
  6  7  1  0  0  0
  7  8  1  0  0  0
  7 15  1  0  0  0
  8  9  1  0  0  0
  8 16  2  0  0  0
  8 17  2  0  0  0
 10 11  2  0  0  0
 10 12  2  0  0  0
 10 13  1  0  0  0
 14 18  1  0  0  0
 18 19  1  0  0  0
  3 20  1  0  0  0
  5 21  1  0  0  0
  6 22  1  0  0  0
  6 23  1  0  0  0
  7 24  1  0  0  0
 13 25  1  0  0  0
 13 26  1  0  0  0
 14 27  1  0  0  0
 14 28  1  0  0  0
 15 29  1  0  0  0
 15 30  1  0  0  0
 15 31  1  0  0  0
 18 32  1  0  0  0
 18 33  1  0  0  0
 19 34  1  0  0  0
 19 35  1  0  0  0
 19 36  1  0  0  0
M  END
$$$$
