2p8n_ligand
  -I-interpret- 

 14 15  0  0  0  0  0  0  0  0999 V2000
  -23.2210   11.9740   -8.6430 N   0  0  0  0  0
  -23.9430   12.3660   -7.5400 C   0  0  0  0  0
  -24.2420   11.3970   -6.7270 N   0  0  0  0  0
  -23.6880   10.2970   -7.3000 C   0  0  0  0  0
  -23.6690    8.9490   -6.9250 C   0  0  0  0  0
  -24.2520    8.5300   -5.7940 N   0  0  0  0  0
  -23.0060    8.1060   -7.7700 N   0  0  0  0  0
  -22.4380    8.5840   -8.8910 C   0  0  0  0  0
  -22.3920    9.8150   -9.3550 N   0  0  0  0  0
  -23.0610   10.6250   -8.4930 C   0  0  0  0  0
  -24.2389   13.4000   -7.3629 H   0  0  0  0  0
  -24.7231    9.1990   -5.1849 H   0  0  0  0  0
  -24.2248    7.5420   -5.5419 H   0  0  0  0  0
  -21.9394    7.8382   -9.5102 H   0  0  0  0  0
  1  2  4  0  0  0
  1 10  4  0  0  0
  2  3  4  0  0  0
  3  4  4  0  0  0
  4  5  4  0  0  0
  4 10  4  0  0  0
  5  6  1  0  0  0
  5  7  4  0  0  0
  7  8  4  0  0  0
  8  9  4  0  0  0
  9 10  4  0  0  0
  2 11  1  0  0  0
  6 12  1  0  0  0
  6 13  1  0  0  0
  8 14  1  0  0  0
M  END
$$$$
