### 
### Created by X-TOOL on Mon Sep 10 21:13:33 2018
### 

@<TRIPOS>MOLECULE
5uv1_ligand
   36    35     1     0     0
SMALL
GAST_HUCK


@<TRIPOS>ATOM
      1 C1         -8.3960   11.8000  -20.1670 C.3       1 0FV         0.1264
      2 O1         -7.9310   11.4710  -21.4740 O.3       1 0FV        -0.2376
      3 C2         -7.4240   12.7580  -19.5260 C.2       1 0FV         0.1124
      4 F2         -6.2740   12.3010  -19.0750 F         1 0FV        -0.2150
      5 C3         -7.7430   14.0500  -19.4360 C.2       1 0FV        -0.0527
      6 C4         -9.0610   14.5310  -19.9720 C.3       1 0FV        -0.0437
      7 C5         -6.7940   15.0470  -18.8090 C.3       1 0FV        -0.0288
      8 C6         -6.5560   14.7410  -17.3350 C.3       1 0FV        -0.0405
      9 C7         -7.6290   15.3520  -16.4650 C.2       1 0FV        -0.1076
     10 C8         -8.4600   14.5770  -15.7540 C.2       1 0FV        -0.0870
     11 C9         -9.5130   15.2070  -14.8920 C.3       1 0FV        -0.0406
     12 C10        -8.3420   13.0820  -15.8200 C.3       1 0FV        -0.0406
     13 PA         -9.0030   11.1540  -22.6290 P.3       1 0FV         0.3289
     14 O1A        -8.4580   10.0870  -23.5490 O.co2     1 0FV        -0.5555
     15 O2A        -9.2980   12.4230  -23.3920 O.co2     1 0FV        -0.5555
     16 O3A       -10.3460   10.6240  -21.9150 O.3       1 0FV        -0.1547
     17 PB        -11.4740    9.8160  -22.7280 P.3       1 0FV         0.2070
     18 O1B       -10.8540    8.5640  -23.3020 O.co2     1 0FV        -0.5891
     19 O2B       -12.5840    9.4520  -21.7710 O.co2     1 0FV        -0.5891
     20 O3B       -12.0040   10.6940  -23.8380 O.co2     1 0FV        -0.5891
     21 H1         -8.4669   10.8855  -19.5598 H         1 0FV         0.0731
     22 H2         -9.3872   12.2719  -20.2363 H         1 0FV         0.0731
     23 H3         -9.1485   15.6156  -19.8108 H         1 0FV         0.0350
     24 H4         -9.8798   14.0154  -19.4489 H         1 0FV         0.0350
     25 H5         -9.1200   14.3144  -21.0488 H         1 0FV         0.0350
     26 H6         -7.2238   16.0555  -18.8998 H         1 0FV         0.0400
     27 H7         -5.8324   15.0089  -19.3417 H         1 0FV         0.0400
     28 H8         -5.5788   15.1494  -17.0379 H         1 0FV         0.0358
     29 H9         -6.5567   13.6505  -17.1912 H         1 0FV         0.0358
     30 H10        -7.7287   16.4353  -16.4148 H         1 0FV         0.0243
     31 H11       -10.0941   14.4201  -14.3889 H         1 0FV         0.0375
     32 H12       -10.1835   15.8148  -15.5173 H         1 0FV         0.0375
     33 H13        -9.0339   15.8481  -14.1374 H         1 0FV         0.0375
     34 H14        -7.5198   12.8087  -16.4977 H         1 0FV         0.0375
     35 H15        -9.2839   12.6561  -16.1959 H         1 0FV         0.0375
     36 H16        -8.1357   12.6857  -14.8148 H         1 0FV         0.0375
@<TRIPOS>BOND
     1    1    2 1  
     2    1    3 1  
     3    2   13 1  
     4    3    4 1  
     5    3    5 2  
     6    5    6 1  
     7    5    7 1  
     8    7    8 1  
     9    8    9 1  
    10    9   10 2  
    11   10   11 1  
    12   10   12 1  
    13   13   14 ar 
    14   13   15 ar 
    15   13   16 1  
    16   16   17 1  
    17   17   18 ar 
    18   17   19 ar 
    19   17   20 ar 
    20    1   21 1  
    21    1   22 1  
    22    6   23 1  
    23    6   24 1  
    24    6   25 1  
    25    7   26 1  
    26    7   27 1  
    27    8   28 1  
    28    8   29 1  
    29    9   30 1  
    30   11   31 1  
    31   11   32 1  
    32   11   33 1  
    33   12   34 1  
    34   12   35 1  
    35   12   36 1  
@<TRIPOS>SUBSTRUCTURE
     1 0FV         1

