5uv1_ligand
  -I-interpret- 

 39 38  0  0  0  0  0  0  0  0999 V2000
   -8.3960   11.8000  -20.1670 C   0  0  0  0  0
   -7.9310   11.4710  -21.4740 O   0  0  0  0  0
   -7.4240   12.7580  -19.5260 C   0  0  0  0  0
   -6.2740   12.3010  -19.0750 F   0  0  0  0  0
   -7.7430   14.0500  -19.4360 C   0  0  0  0  0
   -9.0610   14.5310  -19.9720 C   0  0  0  0  0
   -6.7940   15.0470  -18.8090 C   0  0  0  0  0
   -6.5560   14.7410  -17.3350 C   0  0  0  0  0
   -7.6290   15.3520  -16.4650 C   0  0  0  0  0
   -8.4600   14.5770  -15.7540 C   0  0  0  0  0
   -9.5130   15.2070  -14.8920 C   0  0  0  0  0
   -8.3420   13.0820  -15.8200 C   0  0  0  0  0
   -9.0030   11.1540  -22.6290 P   0  0  0  0  0
   -8.4580   10.0870  -23.5490 O   0  0  0  0  0
   -9.2980   12.4230  -23.3920 O   0  0  0  0  0
  -10.3460   10.6240  -21.9150 O   0  0  0  0  0
  -11.4740    9.8160  -22.7280 P   0  0  0  0  0
  -10.8540    8.5640  -23.3020 O   0  0  0  0  0
  -12.5840    9.4520  -21.7710 O   0  0  0  0  0
  -12.0040   10.6940  -23.8380 O   0  0  0  0  0
   -8.4703   10.8945  -19.5649 H   0  0  0  0  0
   -9.3798   12.2645  -20.2333 H   0  0  0  0  0
   -9.1182   14.3158  -21.0390 H   0  0  0  0  0
   -9.8714   14.0193  -19.4529 H   0  0  0  0  0
   -9.1465   15.6058  -19.8117 H   0  0  0  0  0
   -7.2351   16.0406  -18.8885 H   0  0  0  0  0
   -5.8392   14.9907  -19.3318 H   0  0  0  0  0
   -5.5936   15.1625  -17.0450 H   0  0  0  0  0
   -6.5739   13.6597  -17.1987 H   0  0  0  0  0
   -7.7288   16.4363  -16.4148 H   0  0  0  0  0
   -9.0370   15.8420  -14.1448 H   0  0  0  0  0
  -10.1766   15.8090  -15.5128 H   0  0  0  0  0
  -10.0881   14.4263  -14.3941 H   0  0  0  0  0
   -8.4918   12.7520  -16.8480 H   0  0  0  0  0
   -7.3503   12.7818  -15.4815 H   0  0  0  0  0
   -9.0985   12.6304  -15.1782 H   0  0  0  0  0
   -8.2782    9.2912  -23.0431 H   0  0  0  0  0
  -10.1502    8.8059  -23.9085 H   0  0  0  0  0
  -11.2882   10.9169  -24.4376 H   0  0  0  0  0
  1  2  1  0  0  0
  1  3  1  0  0  0
  2 13  1  0  0  0
  3  4  1  0  0  0
  3  5  2  0  0  0
  5  6  1  0  0  0
  5  7  1  0  0  0
  7  8  1  0  0  0
  8  9  1  0  0  0
  9 10  2  0  0  0
 10 11  1  0  0  0
 10 12  1  0  0  0
 13 14  1  0  0  0
 13 15  2  0  0  0
 13 16  1  0  0  0
 16 17  1  0  0  0
 17 18  1  0  0  0
 17 19  2  0  0  0
 17 20  1  0  0  0
  1 21  1  0  0  0
  1 22  1  0  0  0
  6 23  1  0  0  0
  6 24  1  0  0  0
  6 25  1  0  0  0
  7 26  1  0  0  0
  7 27  1  0  0  0
  8 28  1  0  0  0
  8 29  1  0  0  0
  9 30  1  0  0  0
 11 31  1  0  0  0
 11 32  1  0  0  0
 11 33  1  0  0  0
 12 34  1  0  0  0
 12 35  1  0  0  0
 12 36  1  0  0  0
 14 37  1  0  0  0
 18 38  1  0  0  0
 20 39  1  0  0  0
M  END
$$$$
