### 
### Created by X-TOOL on Mon Sep 10 21:13:31 2018
### 

@<TRIPOS>MOLECULE
5n1y_ligand
  163   167     1     0     0
SMALL
GAST_HUCK


@<TRIPOS>ATOM
      1 N           5.0100    2.4690   70.0620 N.4       1 MET         0.2379
      2 CA          5.7090    3.7580   70.2160 C.3       1 MET         0.0658
      3 C           5.1050    4.7910   69.2650 C.2       1 MET         0.2267
      4 O           5.0330    4.4960   68.0870 O.2       1 MET        -0.3907
      5 CB          7.1690    3.4790   69.8110 C.3       1 MET         0.0168
      6 CG          7.9170    4.7010   69.9000 C.3       1 MET         0.0007
      7 SD          9.6650    4.5760   70.0800 S.3       1 MET        -0.1638
      8 CE          9.8180    3.8710   71.6530 C.3       1 MET        -0.0181
      9 N           4.7700    6.0030   69.7510 N.am      1 VAL        -0.2608
     10 CA          4.2670    7.0380   68.9240 C.3       1 VAL         0.1334
     11 C           5.2690    7.6970   68.0250 C.2       1 VAL         0.2042
     12 O           6.4920    7.6080   68.2490 O.2       1 VAL        -0.3944
     13 CB          3.5320    8.0970   69.7350 C.3       1 VAL        -0.0063
     14 CG1         2.3790    7.5760   70.5950 C.3       1 VAL        -0.0584
     15 CG2         4.3870    8.8570   70.5540 C.3       1 VAL        -0.0584
     16 N           4.7880    8.3370   66.9840 N.am      1 TRP        -0.2627
     17 CA          5.6700    9.0540   66.0830 C.3       1 TRP         0.1352
     18 C           6.2820   10.2820   66.7080 C.2       1 TRP         0.2050
     19 O           5.5920   11.0430   67.4060 O.2       1 TRP        -0.3943
     20 CB          4.8330    9.4350   64.8650 C.3       1 TRP         0.0042
     21 CG          5.4000   10.2750   63.7890 C.2       1 TRP        -0.0418
     22 CD1         6.5990   10.1850   63.2880 C.2       1 TRP         0.0167
     23 CD2         4.6680   11.2220   62.9760 C.ar      1 TRP        -0.0214
     24 NE1         6.7840   11.1240   62.2470 N.pl3     1 TRP        -0.2890
     25 CE2         5.5800   11.7530   62.0440 C.ar      1 TRP         0.0603
     26 CE3         3.3540   11.6940   62.9830 C.ar      1 TRP        -0.0747
     27 CZ2         5.2390   12.7690   61.1140 C.ar      1 TRP        -0.0443
     28 CZ3         2.9850   12.7050   62.0130 C.ar      1 TRP        -0.0792
     29 CH2         3.9410   13.2280   61.1410 C.ar      1 TRP        -0.0768
     30 N           7.5480   10.5320   66.4880 N.am      1 GLY        -0.2663
     31 CA          8.1950   11.7250   66.9680 C.3       1 GLY         0.1203
     32 C           9.1490   12.2760   65.9170 C.2       1 GLY         0.2032
     33 O           9.3930   11.6060   64.8610 O.2       1 GLY        -0.3945
     34 N           9.7330   13.3970   66.2310 N.am      1 PRO        -0.2501
     35 CA          9.6240   14.0710   67.5350 C.3       1 PRO         0.1338
     36 C           8.4000   14.9530   67.6880 C.2       1 PRO         0.2042
     37 O           7.9830   15.2050   68.8530 O.2       1 PRO        -0.3944
     38 CB         10.8850   14.9210   67.5970 C.3       1 PRO        -0.0104
     39 CG         11.2180   15.1810   66.1650 C.3       1 PRO        -0.0281
     40 CD         10.9340   13.8780   65.4890 C.3       1 PRO         0.0369
     41 N           7.8590   15.4530   66.5630 N.am      1 ASP        -0.2622
     42 CA          6.8800   16.5900   66.6540 C.3       1 ASP         0.1425
     43 C           6.1700   16.7110   65.2970 C.2       1 ASP         0.2081
     44 O           6.7100   17.2280   64.3180 O.2       1 ASP        -0.3941
     45 CB          7.6200   17.8620   67.0180 C.3       1 ASP         0.0406
     46 CG          6.7320   19.0300   67.2900 C.2       1 ASP         0.0393
     47 OD1         5.5200   18.8780   67.3130 O.co2     1 ASP        -0.5688
     48 OD2         7.2790   20.1560   67.3890 O.co2     1 ASP        -0.5688
     49 N           4.9090   16.3070   65.2640 N.am      1 PRO        -0.2497
     50 CA          4.1760   16.3490   63.9840 C.3       1 PRO         0.1338
     51 C           4.0080   17.7540   63.4310 C.2       1 PRO         0.2041
     52 O           3.7350   18.7140   64.2040 O.2       1 PRO        -0.3944
     53 CB          2.7900   15.8410   64.3540 C.3       1 PRO        -0.0104
     54 CG          3.0150   15.0400   65.5310 C.3       1 PRO        -0.0281
     55 CD          4.0530   15.7520   66.3240 C.3       1 PRO         0.0369
     56 N           4.2770   17.9160   62.1140 N.am      1 LEU        -0.2637
     57 CA          4.1240   19.2570   61.5170 C.3       1 LEU         0.1312
     58 C           2.6500   19.6970   61.5250 C.2       1 LEU         0.2040
     59 O           1.7350   18.9370   61.2660 O.2       1 LEU        -0.3944
     60 CB          4.7060   19.2840   60.1010 C.3       1 LEU        -0.0101
     61 CG          4.8500   20.6800   59.4420 C.3       1 LEU        -0.0425
     62 CD1         5.6920   21.6390   60.2450 C.3       1 LEU        -0.0625
     63 CD2         5.4360   20.5850   58.0210 C.3       1 LEU        -0.0625
     64 N           2.4880   20.9520   61.8140 N.am      1 TYR        -0.2621
     65 CA          1.1710   21.6100   61.7080 C.3       1 TYR         0.1390
     66 C           0.6610   21.7280   60.2660 C.2       1 TYR         0.2052
     67 O           1.3960   21.7270   59.2740 O.2       1 TYR        -0.3943
     68 CB          1.2240   22.9690   62.4280 C.3       1 TYR         0.0163
     69 CG          2.3550   23.8550   61.9540 C.ar      1 TYR        -0.0493
     70 CD1         2.2690   24.5480   60.7560 C.ar      1 TYR        -0.0685
     71 CD2         3.5650   23.8600   62.6090 C.ar      1 TYR        -0.0685
     72 CE1         3.3300   25.3930   60.3040 C.ar      1 TYR        -0.0398
     73 CE2         4.6530   24.6460   62.1410 C.ar      1 TYR        -0.0398
     74 CZ          4.5010   25.3780   60.9860 C.ar      1 TYR         0.0805
     75 OH          5.5740   26.1890   60.4880 O.3       1 TYR        -0.3376
     76 N          -0.6620   21.8080   60.1520 N.am      1 VAL        -0.2691
     77 CA         -1.3470   21.9930   58.8420 C.3       1 VAL         0.0967
     78 C          -1.2700   23.3750   58.1980 C.2       1 VAL         0.0603
     79 O          -0.8660   24.3430   58.9150 O.co2     1 VAL        -0.5666
     80 CB         -2.8360   21.5540   58.8810 C.3       1 VAL        -0.0118
     81 CG1        -2.9910   20.1640   59.2960 C.3       1 VAL        -0.0590
     82 CG2        -3.6210   22.5940   59.6870 C.3       1 VAL        -0.0590
     83 OXT        -1.5700   23.5300   56.9600 O.co2     1 VAL        -0.5666
     84 H1          5.4119    1.7916   70.6910 H         1 MET         0.2015
     85 H2          5.1076    2.1451   69.1125 H         1 MET         0.2015
     86 H3          4.0326    2.5889   70.2773 H         1 MET         0.2015
     87 H4          5.6487    4.1174   71.2539 H         1 MET         0.1098
     88 H5          7.2002    3.1012   68.7784 H         1 MET         0.0354
     89 H6          7.6037    2.7297   70.4889 H         1 MET         0.0354
     90 H7          7.5357    5.2577   70.7687 H         1 MET         0.0380
     91 H8          7.7209    5.2745   68.9821 H         1 MET         0.0380
     92 H9         10.8832    3.7369   71.8926 H         1 MET         0.0340
     93 H10         9.3131    2.8938   71.6676 H         1 MET         0.0340
     94 H11         9.3551    4.5341   72.3986 H         1 MET         0.0340
     95 H12         4.8803    6.1778   70.7294 H         1 VAL         0.1885
     96 H13         3.5257    6.5635   68.2643 H         1 VAL         0.0802
     97 H14         3.0915    8.7857   68.9990 H         1 VAL         0.0343
     98 H15         1.9177    8.4148   71.1369 H         1 VAL         0.0234
     99 H16         2.7633    6.8402   71.3168 H         1 VAL         0.0234
    100 H17         1.6269    7.0985   69.9497 H         1 VAL         0.0234
    101 H18         5.2243    9.2414   69.9530 H         1 VAL         0.0234
    102 H19         4.7776    8.2235   71.3640 H         1 VAL         0.0234
    103 H20         3.8277    9.7003   70.9852 H         1 VAL         0.0234
    104 H21         3.8032    8.3299   66.8107 H         1 TRP         0.1884
    105 H22         6.4853    8.3839   65.7727 H         1 TRP         0.0815
    106 H23         3.9493    9.9678   65.2460 H         1 TRP         0.0397
    107 H24         4.5179    8.4924   64.3937 H         1 TRP         0.0397
    108 H25         7.3577    9.4806   63.6258 H         1 TRP         0.0795
    109 H26         7.6599   11.3032   61.7355 H         1 TRP         0.2216
    110 H27         2.6298   11.3144   63.6947 H         1 TRP         0.0540
    111 H28         5.9664   13.1654   60.4148 H         1 TRP         0.0541
    112 H29         1.9609   13.0571   61.9643 H         1 TRP         0.0510
    113 H30         3.6520   14.0222   60.4622 H         1 TRP         0.0530
    114 H31         8.0859    9.8693   65.9669 H         1 GLY         0.1881
    115 H32         8.7608   11.4873   67.8809 H         1 GLY         0.0763
    116 H33         7.4317   12.4834   67.1967 H         1 GLY         0.0763
    117 H34         9.6184   13.3228   68.3413 H         1 PRO         0.0802
    118 H35        11.7001   14.3752   68.0948 H         1 PRO         0.0313
    119 H36        10.6950   15.8636   68.1313 H         1 PRO         0.0313
    120 H37        12.2767   15.4576   66.0531 H         1 PRO         0.0287
    121 H38        10.5846   15.9812   65.7547 H         1 PRO         0.0287
    122 H39        10.7126   14.0220   64.4212 H         1 PRO         0.0524
    123 H40        11.7769   13.1796   65.5978 H         1 PRO         0.0524
    124 H41         8.1062   15.0712   65.6724 H         1 ASP         0.1884
    125 H42         6.1347   16.3758   67.4341 H         1 ASP         0.0819
    126 H43         8.2878   18.1233   66.1839 H         1 ASP         0.0478
    127 H44         8.2188   17.6667   67.9198 H         1 ASP         0.0478
    128 H45         4.6635   15.7069   63.2356 H         1 PRO         0.0802
    129 H46         2.3670   15.2319   63.5416 H         1 PRO         0.0313
    130 H47         2.1125   16.6789   64.5750 H         1 PRO         0.0313
    131 H48         3.3712   14.0383   65.2485 H         1 PRO         0.0287
    132 H49         2.0863   14.9482   66.1133 H         1 PRO         0.0287
    133 H50         3.6105   16.5484   66.9403 H         1 PRO         0.0524
    134 H51         4.6119   15.0574   66.9683 H         1 PRO         0.0524
    135 H52         4.5739   17.1411   61.5560 H         1 LEU         0.1883
    136 H53         4.6929   19.9705   62.1312 H         1 LEU         0.0800
    137 H54         4.0518   18.6764   59.4585 H         1 LEU         0.0315
    138 H55         5.7063   18.8281   60.1414 H         1 LEU         0.0315
    139 H56         3.8389   21.1064   59.3653 H         1 LEU         0.0298
    140 H57         5.7504   22.6038   59.7200 H         1 LEU         0.0232
    141 H58         6.7042   21.2256   60.3659 H         1 LEU         0.0232
    142 H59         5.2358   21.7873   61.2349 H         1 LEU         0.0232
    143 H60         4.8322   19.8881   57.4212 H         1 LEU         0.0232
    144 H61         6.4720   20.2194   58.0753 H         1 LEU         0.0232
    145 H62         5.4223   21.5796   57.5514 H         1 LEU         0.0232
    146 H63         3.2765   21.4874   62.1166 H         1 TYR         0.1885
    147 H64         0.4476   20.9801   62.2464 H         1 TYR         0.0821
    148 H65         1.3506   22.7882   63.5056 H         1 TYR         0.0453
    149 H66         0.2731   23.4937   62.2534 H         1 TYR         0.0453
    150 H67         1.3770   24.4468   60.1484 H         1 TYR         0.0530
    151 H68         3.6909   23.2533   63.4984 H         1 TYR         0.0530
    152 H69         3.2009   26.0303   59.4367 H         1 TYR         0.0525
    153 H70         5.5895   24.6684   62.6865 H         1 TYR         0.0525
    154 H71         5.2979   26.6214   59.6885 H         1 TYR         0.2458
    155 H72        -1.2195   21.7412   60.9795 H         1 VAL         0.1876
    156 H73        -0.8315   21.3100   58.1508 H         1 VAL         0.0729
    157 H74        -3.2190   21.6026   57.8510 H         1 VAL         0.0336
    158 H75        -4.0592   19.9019   59.3078 H         1 VAL         0.0234
    159 H76        -2.5702   20.0331   60.3038 H         1 VAL         0.0234
    160 H77        -2.4606   19.5090   58.5892 H         1 VAL         0.0234
    161 H78        -3.4237   23.5973   59.2815 H         1 VAL         0.0234
    162 H79        -3.3060   22.5557   60.7402 H         1 VAL         0.0234
    163 H80        -4.6969   22.3757   59.6178 H         1 VAL         0.0234
@<TRIPOS>BOND
     1    1    2 1  
     2    2    3 1  
     3    2    5 1  
     4    3    4 2  
     5    3    9 am 
     6    5    6 1  
     7    6    7 1  
     8    7    8 1  
     9    9   10 1  
    10   10   11 1  
    11   10   13 1  
    12   11   12 2  
    13   11   16 am 
    14   13   14 1  
    15   13   15 1  
    16   16   17 1  
    17   17   18 1  
    18   17   20 1  
    19   18   19 2  
    20   18   30 am 
    21   20   21 1  
    22   21   22 2  
    23   21   23 1  
    24   22   24 1  
    25   23   25 ar 
    26   23   26 ar 
    27   24   25 1  
    28   25   27 ar 
    29   26   28 ar 
    30   27   29 ar 
    31   28   29 ar 
    32   30   31 1  
    33   31   32 1  
    34   32   33 2  
    35   32   34 am 
    36   34   35 1  
    37   34   40 1  
    38   35   36 1  
    39   35   38 1  
    40   36   37 2  
    41   36   41 am 
    42   38   39 1  
    43   39   40 1  
    44   41   42 1  
    45   42   43 1  
    46   42   45 1  
    47   43   44 2  
    48   43   49 am 
    49   45   46 1  
    50   46   47 ar 
    51   46   48 ar 
    52   49   50 1  
    53   49   55 1  
    54   50   51 1  
    55   50   53 1  
    56   51   52 2  
    57   51   56 am 
    58   53   54 1  
    59   54   55 1  
    60   56   57 1  
    61   57   58 1  
    62   57   60 1  
    63   58   59 2  
    64   58   64 am 
    65   60   61 1  
    66   61   62 1  
    67   61   63 1  
    68   64   65 1  
    69   65   66 1  
    70   65   68 1  
    71   66   67 2  
    72   66   76 am 
    73   68   69 1  
    74   69   70 ar 
    75   69   71 ar 
    76   70   72 ar 
    77   71   73 ar 
    78   72   74 ar 
    79   73   74 ar 
    80   74   75 1  
    81   76   77 1  
    82   77   78 1  
    83   77   80 1  
    84   78   79 ar 
    85   78   83 ar 
    86   80   81 1  
    87   80   82 1  
    88    1   84 1  
    89    1   85 1  
    90    1   86 1  
    91    2   87 1  
    92    5   88 1  
    93    5   89 1  
    94    6   90 1  
    95    6   91 1  
    96    8   92 1  
    97    8   93 1  
    98    8   94 1  
    99    9   95 1  
   100   10   96 1  
   101   13   97 1  
   102   14   98 1  
   103   14   99 1  
   104   14  100 1  
   105   15  101 1  
   106   15  102 1  
   107   15  103 1  
   108   16  104 1  
   109   17  105 1  
   110   20  106 1  
   111   20  107 1  
   112   22  108 1  
   113   24  109 1  
   114   26  110 1  
   115   27  111 1  
   116   28  112 1  
   117   29  113 1  
   118   30  114 1  
   119   31  115 1  
   120   31  116 1  
   121   35  117 1  
   122   38  118 1  
   123   38  119 1  
   124   39  120 1  
   125   39  121 1  
   126   40  122 1  
   127   40  123 1  
   128   41  124 1  
   129   42  125 1  
   130   45  126 1  
   131   45  127 1  
   132   50  128 1  
   133   53  129 1  
   134   53  130 1  
   135   54  131 1  
   136   54  132 1  
   137   55  133 1  
   138   55  134 1  
   139   56  135 1  
   140   57  136 1  
   141   60  137 1  
   142   60  138 1  
   143   61  139 1  
   144   62  140 1  
   145   62  141 1  
   146   62  142 1  
   147   63  143 1  
   148   63  144 1  
   149   63  145 1  
   150   64  146 1  
   151   65  147 1  
   152   68  148 1  
   153   68  149 1  
   154   70  150 1  
   155   71  151 1  
   156   72  152 1  
   157   73  153 1  
   158   75  154 1  
   159   76  155 1  
   160   77  156 1  
   161   80  157 1  
   162   81  158 1  
   163   81  159 1  
   164   81  160 1  
   165   82  161 1  
   166   82  162 1  
   167   82  163 1  
@<TRIPOS>SUBSTRUCTURE
     1 MET         1

