5n1y_ligand
  -I-interpret- 

164168  0  0  0  0  0  0  0  0999 V2000
    5.0100    2.4690   70.0620 N   0  3  0  0  0
    5.7090    3.7580   70.2160 C   0  0  0  0  0
    5.1050    4.7910   69.2650 C   0  0  0  0  0
    5.0330    4.4960   68.0870 O   0  0  0  0  0
    7.1690    3.4790   69.8110 C   0  0  0  0  0
    7.9170    4.7010   69.9000 C   0  0  0  0  0
    9.6650    4.5760   70.0800 S   0  0  0  0  0
    9.8180    3.8710   71.6530 C   0  0  0  0  0
    4.7700    6.0030   69.7510 N   0  0  0  0  0
    4.2670    7.0380   68.9240 C   0  0  0  0  0
    5.2690    7.6970   68.0250 C   0  0  0  0  0
    6.4920    7.6080   68.2490 O   0  0  0  0  0
    3.5320    8.0970   69.7350 C   0  0  0  0  0
    2.3790    7.5760   70.5950 C   0  0  0  0  0
    4.3870    8.8570   70.5540 C   0  0  0  0  0
    4.7880    8.3370   66.9840 N   0  0  0  0  0
    5.6700    9.0540   66.0830 C   0  0  0  0  0
    6.2820   10.2820   66.7080 C   0  0  0  0  0
    5.5920   11.0430   67.4060 O   0  0  0  0  0
    4.8330    9.4350   64.8650 C   0  0  0  0  0
    5.4000   10.2750   63.7890 C   0  0  0  0  0
    6.5990   10.1850   63.2880 C   0  0  0  0  0
    4.6680   11.2220   62.9760 C   0  0  0  0  0
    6.7840   11.1240   62.2470 N   0  0  0  0  0
    5.5800   11.7530   62.0440 C   0  0  0  0  0
    3.3540   11.6940   62.9830 C   0  0  0  0  0
    5.2390   12.7690   61.1140 C   0  0  0  0  0
    2.9850   12.7050   62.0130 C   0  0  0  0  0
    3.9410   13.2280   61.1410 C   0  0  0  0  0
    7.5480   10.5320   66.4880 N   0  0  0  0  0
    8.1950   11.7250   66.9680 C   0  0  0  0  0
    9.1490   12.2760   65.9170 C   0  0  0  0  0
    9.3930   11.6060   64.8610 O   0  0  0  0  0
    9.7330   13.3970   66.2310 N   0  0  0  0  0
    9.6240   14.0710   67.5350 C   0  0  0  0  0
    8.4000   14.9530   67.6880 C   0  0  0  0  0
    7.9830   15.2050   68.8530 O   0  0  0  0  0
   10.8850   14.9210   67.5970 C   0  0  0  0  0
   11.2180   15.1810   66.1650 C   0  0  0  0  0
   10.9340   13.8780   65.4890 C   0  0  0  0  0
    7.8590   15.4530   66.5630 N   0  0  0  0  0
    6.8800   16.5900   66.6540 C   0  0  0  0  0
    6.1700   16.7110   65.2970 C   0  0  0  0  0
    6.7100   17.2280   64.3180 O   0  0  0  0  0
    7.6200   17.8620   67.0180 C   0  0  0  0  0
    6.7320   19.0300   67.2900 C   0  0  0  0  0
    5.5200   18.8780   67.3130 O   0  0  0  0  0
    7.2790   20.1560   67.3890 O   0  0  0  0  0
    4.9090   16.3070   65.2640 N   0  0  0  0  0
    4.1760   16.3490   63.9840 C   0  0  0  0  0
    4.0080   17.7540   63.4310 C   0  0  0  0  0
    3.7350   18.7140   64.2040 O   0  0  0  0  0
    2.7900   15.8410   64.3540 C   0  0  0  0  0
    3.0150   15.0400   65.5310 C   0  0  0  0  0
    4.0530   15.7520   66.3240 C   0  0  0  0  0
    4.2770   17.9160   62.1140 N   0  0  0  0  0
    4.1240   19.2570   61.5170 C   0  0  0  0  0
    2.6500   19.6970   61.5250 C   0  0  0  0  0
    1.7350   18.9370   61.2660 O   0  0  0  0  0
    4.7060   19.2840   60.1010 C   0  0  0  0  0
    4.8500   20.6800   59.4420 C   0  0  0  0  0
    5.6920   21.6390   60.2450 C   0  0  0  0  0
    5.4360   20.5850   58.0210 C   0  0  0  0  0
    2.4880   20.9520   61.8140 N   0  0  0  0  0
    1.1710   21.6100   61.7080 C   0  0  0  0  0
    0.6610   21.7280   60.2660 C   0  0  0  0  0
    1.3960   21.7270   59.2740 O   0  0  0  0  0
    1.2240   22.9690   62.4280 C   0  0  0  0  0
    2.3550   23.8550   61.9540 C   0  0  0  0  0
    2.2690   24.5480   60.7560 C   0  0  0  0  0
    3.5650   23.8600   62.6090 C   0  0  0  0  0
    3.3300   25.3930   60.3040 C   0  0  0  0  0
    4.6530   24.6460   62.1410 C   0  0  0  0  0
    4.5010   25.3780   60.9860 C   0  0  0  0  0
    5.5740   26.1890   60.4880 O   0  0  0  0  0
   -0.6620   21.8080   60.1520 N   0  0  0  0  0
   -1.3470   21.9930   58.8420 C   0  0  0  0  0
   -1.2700   23.3750   58.1980 C   0  0  0  0  0
   -0.8660   24.3430   58.9150 O   0  0  0  0  0
   -2.8360   21.5540   58.8810 C   0  0  0  0  0
   -2.9910   20.1640   59.2960 C   0  0  0  0  0
   -3.6210   22.5940   59.6870 C   0  0  0  0  0
   -1.5700   23.5300   56.9600 O   0  0  0  0  0
    4.0288    2.5832   70.3162 H   0  0  0  0  0
    5.0775    2.1608   69.0920 H   0  0  0  0  0
    5.4418    1.7745   70.6716 H   0  0  0  0  0
    5.6286    4.1473   71.2309 H   0  0  0  0  0
    7.2023    3.0998   68.7896 H   0  0  0  0  0
    7.6007    2.7330   70.4782 H   0  0  0  0  0
    7.5641    5.1949   70.8053 H   0  0  0  0  0
    7.7563    5.2123   68.9509 H   0  0  0  0  0
    9.3589    4.5290   72.3909 H   0  0  0  0  0
    9.3173    2.9029   71.6661 H   0  0  0  0  0
   10.8738    3.7386   71.8893 H   0  0  0  0  0
    4.8825    6.1813   70.7490 H   0  0  0  0  0
    3.5736    6.5192   68.2621 H   0  0  0  0  0
    3.1035    8.7280   68.9563 H   0  0  0  0  0
    1.6346    7.1031   69.9545 H   0  0  0  0  0
    2.7611    6.8471   71.3097 H   0  0  0  0  0
    1.9228    8.4080   71.1314 H   0  0  0  0  0
    4.8966    8.1972   71.2562 H   0  0  0  0  0
    5.1234    9.3676   69.9334 H   0  0  0  0  0
    3.8011    9.5929   71.1047 H   0  0  0  0  0
    3.7835    8.3298   66.8072 H   0  0  0  0  0
    6.5118    8.4149   65.8165 H   0  0  0  0  0
    4.0250   10.0399   65.2765 H   0  0  0  0  0
    4.6251    8.4827   64.3771 H   0  0  0  0  0
    7.3584    9.4800   63.6261 H   0  0  0  0  0
    2.6257   11.3123   63.6986 H   0  0  0  0  0
    5.9704   13.1676   60.4110 H   0  0  0  0  0
    1.9553   13.0590   61.9640 H   0  0  0  0  0
    3.6504   14.0266   60.4584 H   0  0  0  0  0
    8.0966    9.8561   65.9565 H   0  0  0  0  0
    8.7614   11.4826   67.8672 H   0  0  0  0  0
    7.4356   12.4763   67.1847 H   0  0  0  0  0
    9.5215   13.3378   68.3350 H   0  0  0  0  0
   11.6958   14.4185   68.1245 H   0  0  0  0  0
   10.7342   15.8425   68.1594 H   0  0  0  0  0
   12.2514   15.5007   66.0312 H   0  0  0  0  0
   10.6347   16.0010   65.7461 H   0  0  0  0  0
   10.7672   13.9762   64.4163 H   0  0  0  0  0
   11.7715   13.1814   65.5266 H   0  0  0  0  0
    8.1111   15.0636   65.6546 H   0  0  0  0  0
    6.1343   16.4122   67.4288 H   0  0  0  0  0
    8.2455   18.1254   66.1651 H   0  0  0  0  0
    8.1752   17.6600   67.9340 H   0  0  0  0  0
    8.2325   20.0521   67.3478 H   0  0  0  0  0
    4.7094   15.7770   63.2248 H   0  0  0  0  0
    2.3303   15.2700   63.5473 H   0  0  0  0  0
    2.0869   16.6539   64.5356 H   0  0  0  0  0
    3.3431   14.0349   65.2660 H   0  0  0  0  0
    2.0965   14.9177   66.1051 H   0  0  0  0  0
    3.6450   16.5088   66.9940 H   0  0  0  0  0
    4.5873   15.1057   67.0203 H   0  0  0  0  0
    4.5799   17.1256   61.5448 H   0  0  0  0  0
    4.6828   19.9696   62.1237 H   0  0  0  0  0
    4.0094   18.7247   59.4765 H   0  0  0  0  0
    5.7157   18.8811   60.1808 H   0  0  0  0  0
    3.8337   21.0717   59.4001 H   0  0  0  0  0
    5.2389   21.7850   61.2256 H   0  0  0  0  0
    6.6946   21.2282   60.3641 H   0  0  0  0  0
    5.7491   22.5946   59.7238 H   0  0  0  0  0
    6.4228   20.1243   58.0664 H   0  0  0  0  0
    4.7787   19.9784   57.3981 H   0  0  0  0  0
    5.5199   21.5854   57.5963 H   0  0  0  0  0
    3.2923   21.4981   62.1226 H   0  0  0  0  0
    0.4366   20.9744   62.2027 H   0  0  0  0  0
    1.3816   22.7734   63.4887 H   0  0  0  0  0
    0.2890   23.4888   62.2188 H   0  0  0  0  0
    1.3721   24.4462   60.1450 H   0  0  0  0  0
    3.6916   23.2499   63.5034 H   0  0  0  0  0
    3.2002   26.0338   59.4319 H   0  0  0  0  0
    5.5946   24.6685   62.6896 H   0  0  0  0  0
    6.3403   26.0887   61.0575 H   0  0  0  0  0
   -1.2307   21.7399   60.9960 H   0  0  0  0  0
   -0.7551   21.3355   58.2053 H   0  0  0  0  0
   -3.2693   21.5429   57.8809 H   0  0  0  0  0
   -2.4649   19.5160   58.5949 H   0  0  0  0  0
   -2.5736   20.0356   60.2947 H   0  0  0  0  0
   -4.0498   19.9055   59.3073 H   0  0  0  0  0
   -3.2189   22.6468   60.6987 H   0  0  0  0  0
   -3.5296   23.5683   59.2070 H   0  0  0  0  0
   -4.6710   22.3041   59.7267 H   0  0  0  0  0
   -1.8521   22.6892   56.5926 H   0  0  0  0  0
  1  2  1  0  0  0
  2  3  1  0  0  0
  2  5  1  0  0  0
  3  4  2  0  0  0
  3  9  1  0  0  0
  5  6  1  0  0  0
  6  7  1  0  0  0
  7  8  1  0  0  0
  9 10  1  0  0  0
 10 11  1  0  0  0
 10 13  1  0  0  0
 11 12  2  0  0  0
 11 16  1  0  0  0
 13 14  1  0  0  0
 13 15  1  0  0  0
 16 17  1  0  0  0
 17 18  1  0  0  0
 17 20  1  0  0  0
 18 19  2  0  0  0
 18 30  1  0  0  0
 20 21  1  0  0  0
 21 22  4  0  0  0
 21 23  4  0  0  0
 22 24  4  0  0  0
 23 25  4  0  0  0
 23 26  4  0  0  0
 24 25  4  0  0  0
 25 27  4  0  0  0
 26 28  4  0  0  0
 27 29  4  0  0  0
 28 29  4  0  0  0
 30 31  1  0  0  0
 31 32  1  0  0  0
 32 33  2  0  0  0
 32 34  1  0  0  0
 34 35  1  0  0  0
 34 40  1  0  0  0
 35 36  1  0  0  0
 35 38  1  0  0  0
 36 37  2  0  0  0
 36 41  1  0  0  0
 38 39  1  0  0  0
 39 40  1  0  0  0
 41 42  1  0  0  0
 42 43  1  0  0  0
 42 45  1  0  0  0
 43 44  2  0  0  0
 43 49  1  0  0  0
 45 46  1  0  0  0
 46 47  2  0  0  0
 46 48  1  0  0  0
 49 50  1  0  0  0
 49 55  1  0  0  0
 50 51  1  0  0  0
 50 53  1  0  0  0
 51 52  2  0  0  0
 51 56  1  0  0  0
 53 54  1  0  0  0
 54 55  1  0  0  0
 56 57  1  0  0  0
 57 58  1  0  0  0
 57 60  1  0  0  0
 58 59  2  0  0  0
 58 64  1  0  0  0
 60 61  1  0  0  0
 61 62  1  0  0  0
 61 63  1  0  0  0
 64 65  1  0  0  0
 65 66  1  0  0  0
 65 68  1  0  0  0
 66 67  2  0  0  0
 66 76  1  0  0  0
 68 69  1  0  0  0
 69 70  4  0  0  0
 69 71  4  0  0  0
 70 72  4  0  0  0
 71 73  4  0  0  0
 72 74  4  0  0  0
 73 74  4  0  0  0
 74 75  1  0  0  0
 76 77  1  0  0  0
 77 78  1  0  0  0
 77 80  1  0  0  0
 78 79  2  0  0  0
 78 83  1  0  0  0
 80 81  1  0  0  0
 80 82  1  0  0  0
  1 84  1  0  0  0
  1 85  1  0  0  0
  1 86  1  0  0  0
  2 87  1  0  0  0
  5 88  1  0  0  0
  5 89  1  0  0  0
  6 90  1  0  0  0
  6 91  1  0  0  0
  8 92  1  0  0  0
  8 93  1  0  0  0
  8 94  1  0  0  0
  9 95  1  0  0  0
 10 96  1  0  0  0
 13 97  1  0  0  0
 14 98  1  0  0  0
 14 99  1  0  0  0
 14100  1  0  0  0
 15101  1  0  0  0
 15102  1  0  0  0
 15103  1  0  0  0
 16104  1  0  0  0
 17105  1  0  0  0
 20106  1  0  0  0
 20107  1  0  0  0
 22108  1  0  0  0
 26109  1  0  0  0
 27110  1  0  0  0
 28111  1  0  0  0
 29112  1  0  0  0
 30113  1  0  0  0
 31114  1  0  0  0
 31115  1  0  0  0
 35116  1  0  0  0
 38117  1  0  0  0
 38118  1  0  0  0
 39119  1  0  0  0
 39120  1  0  0  0
 40121  1  0  0  0
 40122  1  0  0  0
 41123  1  0  0  0
 42124  1  0  0  0
 45125  1  0  0  0
 45126  1  0  0  0
 48127  1  0  0  0
 50128  1  0  0  0
 53129  1  0  0  0
 53130  1  0  0  0
 54131  1  0  0  0
 54132  1  0  0  0
 55133  1  0  0  0
 55134  1  0  0  0
 56135  1  0  0  0
 57136  1  0  0  0
 60137  1  0  0  0
 60138  1  0  0  0
 61139  1  0  0  0
 62140  1  0  0  0
 62141  1  0  0  0
 62142  1  0  0  0
 63143  1  0  0  0
 63144  1  0  0  0
 63145  1  0  0  0
 64146  1  0  0  0
 65147  1  0  0  0
 68148  1  0  0  0
 68149  1  0  0  0
 70150  1  0  0  0
 71151  1  0  0  0
 72152  1  0  0  0
 73153  1  0  0  0
 75154  1  0  0  0
 76155  1  0  0  0
 77156  1  0  0  0
 80157  1  0  0  0
 81158  1  0  0  0
 81159  1  0  0  0
 81160  1  0  0  0
 82161  1  0  0  0
 82162  1  0  0  0
 82163  1  0  0  0
 83164  1  0  0  0
M  END
$$$$
