5wlo_ligand
  -I-interpret- 

 86 90  0  0  0  0  0  0  0  0999 V2000
   20.9950  -15.0610   -8.0150 C   0  0  0  0  0
   21.5960  -16.0370   -7.2320 C   0  0  0  0  0
   20.9000  -17.2020   -6.8310 C   0  0  0  0  0
   19.5850  -17.4160   -7.2060 C   0  0  0  0  0
   19.0030  -16.4220   -7.9930 C   0  0  0  0  0
   19.6770  -15.2860   -8.3860 C   0  0  0  0  0
   18.5940  -18.8190   -6.7820 S   0  0  0  0  0
   17.6340  -18.9200   -7.9910 O   0  0  0  0  0
   19.4900  -19.9520   -6.5790 O   0  0  0  0  0
   17.6580  -18.5490   -5.5070 N   0  0  0  0  0
   16.3600  -17.9230   -5.6120 C   0  0  0  0  0
   15.2560  -18.8310   -5.0600 C   0  0  0  0  0
   14.0820  -18.0490   -4.7580 O   0  0  0  0  0
   14.8780  -19.9560   -6.0160 C   0  0  0  0  0
   13.9560  -20.8730   -5.3300 N   0  0  0  0  0
   14.2520  -22.1050   -4.9350 C   0  0  0  0  0
   15.3260  -22.7510   -5.0590 O   0  0  0  0  0
   13.2490  -22.7060   -4.2600 O   0  0  0  0  0
   13.4190  -24.1110   -4.0220 C   0  0  0  0  0
   12.8680  -24.3590   -2.5990 C   0  0  0  0  0
   11.4420  -24.2850   -2.8090 O   0  0  0  0  0
   11.1170  -24.8710   -4.0690 C   0  0  0  0  0
   10.2360  -23.9980   -4.7760 O   0  0  0  0  0
   10.8960  -23.4030   -5.9010 C   0  0  0  0  0
   12.0240  -24.3750   -6.2170 C   0  0  0  0  0
   12.4170  -24.9130   -4.8530 C   0  0  0  0  0
   14.1780  -19.4360   -7.2810 C   0  0  0  0  0
   12.4910  -21.0460   -8.2910 C   0  0  0  0  0
   12.1280  -22.1420   -9.0920 C   0  0  0  0  0
   13.1540  -22.8520   -9.7010 C   0  0  0  0  0
   14.4630  -22.4020   -9.6840 C   0  0  0  0  0
   14.8270  -21.3250   -8.8710 C   0  0  0  0  0
   13.8050  -20.6040   -8.2070 C   0  0  0  0  0
   21.6130  -13.9180   -8.4330 O   0  0  0  0  0
   22.9770  -13.8650   -8.0350 C   0  0  0  0  0
   18.2630  -18.7080   -4.2220 C   0  0  0  0  0
   18.3450  -20.1520   -3.7510 C   0  0  0  0  0
   18.5740  -20.1810   -2.2630 C   0  0  0  0  0
   19.9950  -20.1580   -1.8390 C   0  0  0  0  0
   21.6510  -18.0890   -6.0420 C   0  0  0  0  0
   21.8620  -17.3220   -4.7940 O   0  0  0  0  0
   22.4890  -18.0000   -3.6940 C   0  0  0  0  0
   21.5310  -18.4150   -2.7590 C   0  0  0  0  0
   20.9810  -19.6600   -2.6620 C   0  0  0  0  0
   22.6310  -15.9025   -6.9178 H   0  0  0  0  0
   17.9684  -16.5496   -8.3115 H   0  0  0  0  0
   19.1633  -14.5479   -9.0020 H   0  0  0  0  0
   16.1538  -17.7274   -6.6643 H   0  0  0  0  0
   16.3723  -17.0005   -5.0316 H   0  0  0  0  0
   15.6528  -19.2918   -4.1554 H   0  0  0  0  0
   13.3955  -18.6246   -4.4130 H   0  0  0  0  0
   15.7994  -20.4560   -6.3147 H   0  0  0  0  0
   13.0121  -20.5349   -5.1424 H   0  0  0  0  0
   14.4571  -24.3811   -4.2159 H   0  0  0  0  0
   13.2329  -23.6408   -1.8648 H   0  0  0  0  0
   13.1915  -25.3080   -2.1713 H   0  0  0  0  0
   10.6571  -25.8511   -3.9423 H   0  0  0  0  0
   11.2619  -22.3994   -5.6841 H   0  0  0  0  0
   10.2242  -23.2581   -6.7470 H   0  0  0  0  0
   12.8560  -23.8971   -6.7343 H   0  0  0  0  0
   11.7176  -25.1626   -6.9054 H   0  0  0  0  0
   12.9037  -25.8732   -5.0237 H   0  0  0  0  0
   14.8550  -18.7659   -7.8108 H   0  0  0  0  0
   13.2690  -18.9086   -6.9918 H   0  0  0  0  0
   11.7202  -20.5285   -7.7199 H   0  0  0  0  0
   11.0839  -22.4232   -9.2296 H   0  0  0  0  0
   12.9224  -23.7896  -10.2064 H   0  0  0  0  0
   15.2128  -22.8895  -10.3071 H   0  0  0  0  0
   15.8739  -21.0463   -8.7508 H   0  0  0  0  0
   23.0386  -13.9042   -6.9474 H   0  0  0  0  0
   23.5118  -14.7137   -8.4613 H   0  0  0  0  0
   23.4226  -12.9366   -8.3922 H   0  0  0  0  0
   17.6446  -18.1686   -3.5046 H   0  0  0  0  0
   19.2841  -18.3339   -4.2969 H   0  0  0  0  0
   19.1708  -20.6531   -4.2560 H   0  0  0  0  0
   17.4122  -20.6647   -3.9856 H   0  0  0  0  0
   18.1559  -21.1205   -1.9015 H   0  0  0  0  0
   18.1135  -19.2794   -1.8590 H   0  0  0  0  0
   20.2525  -21.2116   -1.7308 H   0  0  0  0  0
   20.0017  -19.4815   -0.9843 H   0  0  0  0  0
   22.5846  -18.3915   -6.5164 H   0  0  0  0  0
   21.1447  -19.0397   -5.8746 H   0  0  0  0  0
   23.1839  -17.3156   -3.2074 H   0  0  0  0  0
   23.0150  -18.8762   -4.0730 H   0  0  0  0  0
   21.1921  -17.6703   -2.0388 H   0  0  0  0  0
   21.3949  -20.3891   -3.3586 H   0  0  0  0  0
  2  1  4  0  0  0
  6  1  4  0  0  0
  1 34  1  0  0  0
  3  2  4  0  0  0
  4  3  4  0  0  0
  3 40  1  0  0  0
  4  5  4  0  0  0
  7  4  1  0  0  0
  5  6  4  0  0  0
  7  8  2  0  0  0
  7  9  2  0  0  0
 10  7  1  0  0  0
 11 10  1  0  0  0
 10 36  1  0  0  0
 12 11  1  0  0  0
 12 13  1  0  0  0
 14 12  1  0  0  0
 14 15  1  0  0  0
 27 14  1  0  0  0
 15 16  1  0  0  0
 16 17  2  0  0  0
 16 18  1  0  0  0
 18 19  1  0  0  0
 19 20  1  0  0  0
 19 26  1  0  0  0
 20 21  1  0  0  0
 22 21  1  0  0  0
 22 23  1  0  0  0
 26 22  1  0  0  0
 24 23  1  0  0  0
 25 24  1  0  0  0
 26 25  1  0  0  0
 33 27  1  0  0  0
 28 29  4  0  0  0
 28 33  4  0  0  0
 29 30  4  0  0  0
 30 31  4  0  0  0
 31 32  4  0  0  0
 32 33  4  0  0  0
 34 35  1  0  0  0
 36 37  1  0  0  0
 37 38  1  0  0  0
 38 39  1  0  0  0
 39 44  1  0  0  0
 40 41  1  0  0  0
 41 42  1  0  0  0
 42 43  1  0  0  0
 43 44  2  0  0  0
  2 45  1  0  0  0
  5 46  1  0  0  0
  6 47  1  0  0  0
 11 48  1  0  0  0
 11 49  1  0  0  0
 12 50  1  0  0  0
 13 51  1  0  0  0
 14 52  1  0  0  0
 15 53  1  0  0  0
 19 54  1  0  0  0
 20 55  1  0  0  0
 20 56  1  0  0  0
 22 57  1  0  0  0
 24 58  1  0  0  0
 24 59  1  0  0  0
 25 60  1  0  0  0
 25 61  1  0  0  0
 26 62  1  0  0  0
 27 63  1  0  0  0
 27 64  1  0  0  0
 28 65  1  0  0  0
 29 66  1  0  0  0
 30 67  1  0  0  0
 31 68  1  0  0  0
 32 69  1  0  0  0
 35 70  1  0  0  0
 35 71  1  0  0  0
 35 72  1  0  0  0
 36 73  1  0  0  0
 36 74  1  0  0  0
 37 75  1  0  0  0
 37 76  1  0  0  0
 38 77  1  0  0  0
 38 78  1  0  0  0
 39 79  1  0  0  0
 39 80  1  0  0  0
 40 81  1  0  0  0
 40 82  1  0  0  0
 42 83  1  0  0  0
 42 84  1  0  0  0
 43 85  1  0  0  0
 44 86  1  0  0  0
M  END
$$$$
