4jfj_ligand
  -I-interpret- 

 65 69  0  0  0  0  0  0  0  0999 V2000
    9.7600   40.0780   17.9400 C   0  0  0  0  0
   12.1960   40.3520   18.1350 N   0  0  0  0  0
    8.6780   40.3930   17.4660 O   0  0  0  0  0
   11.0020   40.7080   17.3160 C   0  0  0  0  0
   11.1040   40.2700   15.8600 C   0  0  0  0  0
    5.3490   44.8200   20.3450 C   0  0  0  0  0
    4.3270   43.9620   19.8420 O   0  0  0  0  0
    4.7510   42.6790   19.7080 C   0  0  0  0  0
    5.9430   42.2600   20.2850 C   0  0  0  0  0
    3.9690   41.7840   18.9930 C   0  0  0  0  0
    2.8010   42.2250   18.4350 O   0  0  0  0  0
    1.7600   41.2570   18.5460 C   0  0  0  0  0
    4.3990   40.4660   18.8600 C   0  0  0  0  0
    5.5990   40.0450   19.4340 C   0  0  0  0  0
    6.3800   40.9460   20.1520 C   0  0  0  0  0
    7.5700   40.5960   20.7380 O   0  0  0  0  0
    7.9220   39.2020   20.7640 C   0  0  0  0  0
    8.3930   38.6830   19.4040 C   0  0  0  0  0
    9.7030   39.2240   18.9700 N   0  0  0  0  0
   10.9180   38.7490   19.6590 C   0  0  0  0  0
   11.8350   37.9970   18.6890 C   0  0  0  0  0
   12.7360   38.9760   17.9270 C   0  0  0  0  0
   12.7780   38.5460   16.4630 C   0  0  0  0  0
   11.4280   38.7890   15.8060 C   0  0  0  0  0
   13.3740   41.5500   18.2230 S   0  0  0  0  0
   12.7700   42.8460   17.8250 O   0  0  0  0  0
   14.5800   41.1900   17.4140 O   0  0  0  0  0
   13.8030   41.5760   19.9160 C   0  0  0  0  0
   14.9200   40.8840   20.3320 C   0  0  0  0  0
   15.3030   40.8600   21.6700 C   0  0  0  0  0
   16.5900   40.1320   22.4830 S   0  0  0  0  0
   16.1690   40.6970   24.0190 C   0  0  0  0  0
   15.0530   41.4310   23.8810 N   0  0  0  0  0
   14.5530   41.5460   22.6310 C   0  0  0  0  0
   13.4220   42.2430   22.2050 C   0  0  0  0  0
   13.0490   42.2510   20.8630 C   0  0  0  0  0
   10.9396   41.7962   17.3128 H   0  0  0  0  0
   11.8921   40.8352   15.3624 H   0  0  0  0  0
   10.1561   40.4557   15.3549 H   0  0  0  0  0
    5.6695   44.4657   21.3247 H   0  0  0  0  0
    6.1967   44.8138   19.6598 H   0  0  0  0  0
    4.9592   45.8341   20.4336 H   0  0  0  0  0
    6.5450   42.9714   20.8504 H   0  0  0  0  0
    2.0598   40.3426   18.0340 H   0  0  0  0  0
    1.5763   41.0420   19.5987 H   0  0  0  0  0
    0.8509   41.6490   18.0899 H   0  0  0  0  0
    3.7908   39.7549   18.3009 H   0  0  0  0  0
    5.9247   39.0110   19.3202 H   0  0  0  0  0
    7.0325   38.6387   21.0461 H   0  0  0  0  0
    8.7427   39.0784   21.4705 H   0  0  0  0  0
    7.6544   38.9962   18.6661 H   0  0  0  0  0
    8.5038   37.6022   19.4922 H   0  0  0  0  0
   10.6249   38.0722   20.4616 H   0  0  0  0  0
   11.4563   39.6098   20.0555 H   0  0  0  0  0
   11.2199   37.4530   17.9722 H   0  0  0  0  0
   12.4620   37.3100   19.2574 H   0  0  0  0  0
   13.7648   38.9742   18.2872 H   0  0  0  0  0
   13.0149   37.4834   16.4096 H   0  0  0  0  0
   13.5385   39.1274   15.9418 H   0  0  0  0  0
   11.4632   38.4606   14.7672 H   0  0  0  0  0
   10.6581   38.2274   16.3351 H   0  0  0  0  0
   15.5166   40.3436   19.5970 H   0  0  0  0  0
   16.7037   40.5020   24.9486 H   0  0  0  0  0
   12.8217   42.7891   22.9327 H   0  0  0  0  0
   12.1553   42.7935   20.5545 H   0  0  0  0  0
  1  3  2  0  0  0
  1  4  1  0  0  0
 19  1  1  0  0  0
  4  2  1  0  0  0
  2 22  1  0  0  0
  2 25  1  0  0  0
  4  5  1  0  0  0
  5 24  1  0  0  0
  7  6  1  0  0  0
  8  7  1  0  0  0
  9  8  4  0  0  0
  8 10  4  0  0  0
 15  9  4  0  0  0
 10 11  1  0  0  0
 13 10  4  0  0  0
 11 12  1  0  0  0
 14 13  4  0  0  0
 15 14  4  0  0  0
 16 15  1  0  0  0
 17 16  1  0  0  0
 18 17  1  0  0  0
 18 19  1  0  0  0
 19 20  1  0  0  0
 20 21  1  0  0  0
 21 22  1  0  0  0
 22 23  1  0  0  0
 23 24  1  0  0  0
 25 26  2  0  0  0
 25 27  2  0  0  0
 25 28  1  0  0  0
 28 29  4  0  0  0
 28 36  4  0  0  0
 29 30  4  0  0  0
 30 31  4  0  0  0
 30 34  4  0  0  0
 31 32  4  0  0  0
 32 33  4  0  0  0
 33 34  4  0  0  0
 34 35  4  0  0  0
 35 36  4  0  0  0
  4 37  1  0  0  0
  5 38  1  0  0  0
  5 39  1  0  0  0
  6 40  1  0  0  0
  6 41  1  0  0  0
  6 42  1  0  0  0
  9 43  1  0  0  0
 12 44  1  0  0  0
 12 45  1  0  0  0
 12 46  1  0  0  0
 13 47  1  0  0  0
 14 48  1  0  0  0
 17 49  1  0  0  0
 17 50  1  0  0  0
 18 51  1  0  0  0
 18 52  1  0  0  0
 20 53  1  0  0  0
 20 54  1  0  0  0
 21 55  1  0  0  0
 21 56  1  0  0  0
 22 57  1  0  0  0
 23 58  1  0  0  0
 23 59  1  0  0  0
 24 60  1  0  0  0
 24 61  1  0  0  0
 29 62  1  0  0  0
 32 63  1  0  0  0
 35 64  1  0  0  0
 36 65  1  0  0  0
M  END
$$$$
