4ce1_ligand
  -I-interpret- 

 52 53  0  0  0  0  0  0  0  0999 V2000
   19.8830   -1.9180   -6.1750 O   0  0  0  0  0
   18.9630   -2.7070   -6.0140 C   0  0  0  0  0
   17.9460   -2.8520   -6.8860 N   0  0  0  0  0
   16.9460   -3.9220   -6.7610 C   0  0  0  0  0
   19.0060   -3.5920   -4.7950 C   0  0  0  0  0
   19.9400   -4.6660   -4.7570 C   0  0  0  0  0
   20.7510   -4.8690   -5.7990 O   0  0  0  0  0
   19.9990   -5.5180   -3.6690 C   0  0  0  0  0
   19.1500   -5.3140   -2.5960 C   0  0  0  0  0
   19.1190   -6.1560   -1.5350 O   0  0  0  0  0
   18.2580   -4.2200   -2.6520 C   0  0  0  0  0
   17.3230   -3.9730   -1.2430 Cl  0  0  0  0  0
   18.1240   -3.3460   -3.7240 C   0  0  0  0  0
   17.1160   -2.2100   -3.7550 C   0  0  0  0  0
   15.6760   -2.6260   -3.5330 C   0  0  0  0  0
   15.2630   -3.6740   -3.9720 O   0  0  0  0  0
   14.7950   -1.7110   -2.7250 C   0  0  0  0  0
   13.3100   -2.0370   -2.7370 C   0  0  0  0  0
   12.5790   -1.1470   -3.6910 C   0  0  0  0  0
   12.9500   -1.4330   -5.1370 C   0  0  0  0  0
   12.4950   -0.4060   -6.1570 C   0  0  0  0  0
   12.8930   -0.8180   -7.5780 C   0  0  0  0  0
   14.3220   -0.4340   -7.8830 C   0  0  0  0  0
   15.4070   -1.0410   -7.4100 C   0  0  0  0  0
   16.8540   -0.6740   -7.6690 C   0  0  0  0  0
   17.7480   -1.8840   -7.9650 C   0  0  0  0  0
   15.9645   -3.4816   -6.5854 H   0  0  0  0  0
   16.9241   -4.5064   -7.6809 H   0  0  0  0  0
   17.2104   -4.5687   -5.9244 H   0  0  0  0  0
   21.3162   -5.6242   -5.6208 H   0  0  0  0  0
   20.7096   -6.3445   -3.6571 H   0  0  0  0  0
   18.4694   -5.8452   -0.9001 H   0  0  0  0  0
   17.1669   -1.7711   -4.7514 H   0  0  0  0  0
   17.3777   -1.5345   -2.9405 H   0  0  0  0  0
   14.8951   -0.7196   -3.1669 H   0  0  0  0  0
   15.1217   -1.8061   -1.6895 H   0  0  0  0  0
   12.9083   -1.8840   -1.7353 H   0  0  0  0  0
   13.1798   -3.0724   -3.0520 H   0  0  0  0  0
   12.8489   -0.1147   -3.4682 H   0  0  0  0  0
   11.5103   -1.3255   -3.5722 H   0  0  0  0  0
   12.4537   -2.3668   -5.4010 H   0  0  0  0  0
   14.0392   -1.4420   -5.1772 H   0  0  0  0  0
   12.9712    0.5469   -5.9259 H   0  0  0  0  0
   11.4088   -0.3280   -6.1099 H   0  0  0  0  0
   12.2387   -0.3056   -8.2832 H   0  0  0  0  0
   12.7995   -1.9006   -7.6637 H   0  0  0  0  0
   14.4775    0.4148   -8.5490 H   0  0  0  0  0
   15.2355   -1.9006   -6.7621 H   0  0  0  0  0
   17.2373   -0.1961   -6.7675 H   0  0  0  0  0
   16.8762   -0.0277   -8.5464 H   0  0  0  0  0
   17.2485   -2.4313   -8.7644 H   0  0  0  0  0
   18.7355   -1.4757   -8.1799 H   0  0  0  0  0
  1  2  2  0  0  0
  2  3  1  0  0  0
  2  5  1  0  0  0
  3  4  1  0  0  0
  3 26  1  0  0  0
  5  6  4  0  0  0
  5 13  4  0  0  0
  6  7  1  0  0  0
  6  8  4  0  0  0
  8  9  4  0  0  0
  9 10  1  0  0  0
  9 11  4  0  0  0
 11 12  1  0  0  0
 11 13  4  0  0  0
 13 14  1  0  0  0
 14 15  1  0  0  0
 15 16  2  0  0  0
 15 17  1  0  0  0
 17 18  1  0  0  0
 18 19  1  0  0  0
 19 20  1  0  0  0
 20 21  1  0  0  0
 21 22  1  0  0  0
 22 23  1  0  0  0
 23 24  2  0  0  0
 24 25  1  0  0  0
 25 26  1  0  0  0
  4 27  1  0  0  0
  4 28  1  0  0  0
  4 29  1  0  0  0
  7 30  1  0  0  0
  8 31  1  0  0  0
 10 32  1  0  0  0
 14 33  1  0  0  0
 14 34  1  0  0  0
 17 35  1  0  0  0
 17 36  1  0  0  0
 18 37  1  0  0  0
 18 38  1  0  0  0
 19 39  1  0  0  0
 19 40  1  0  0  0
 20 41  1  0  0  0
 20 42  1  0  0  0
 21 43  1  0  0  0
 21 44  1  0  0  0
 22 45  1  0  0  0
 22 46  1  0  0  0
 23 47  1  0  0  0
 24 48  1  0  0  0
 25 49  1  0  0  0
 25 50  1  0  0  0
 26 51  1  0  0  0
 26 52  1  0  0  0
M  END
$$$$
