4x6h_ligand
  -I-interpret- 

 78 80  0  0  0  0  0  0  0  0999 V2000
   15.5370    6.0130  -20.6170 C   0  0  0  0  0
   16.5380    4.9450  -21.1350 C   0  0  0  0  0
   16.5360    3.7340  -20.2560 C   0  0  0  0  0
   16.8660    4.1320  -18.7820 C   0  0  0  0  0
   11.8900    8.1010  -17.4240 C   0  0  0  0  0
   12.7970    8.6080  -18.5030 C   0  0  0  0  0
   10.8890    8.7890  -16.8400 N   0  0  0  0  0
   15.9710    5.2230  -18.2860 C   0  0  0  0  0
   15.3280    8.0610  -17.5490 O   0  0  0  0  0
   14.9620    7.4260  -18.5490 C   0  0  0  0  0
   15.9320    6.4440  -19.1960 C   0  0  0  0  0
   17.4970    8.2540  -19.8020 C   0  0  0  0  0
   18.7770    8.9410  -19.5000 C   0  0  0  0  0
   18.8600   10.2960  -19.7640 C   0  0  0  0  0
   19.9960   10.9570  -19.4120 C   0  0  0  0  0
   21.0870   10.3550  -18.8210 C   0  0  0  0  0
   21.0380    8.9780  -18.6060 C   0  0  0  0  0
   19.8830    8.2760  -18.9380 C   0  0  0  0  0
   16.6130    8.8210  -20.4580 O   0  0  0  0  0
   13.7550    7.5970  -19.0840 N   0  0  0  0  0
   17.2640    7.0690  -19.1880 N   0  0  0  0  0
   22.2280   11.1170  -18.4420 N   0  0  0  0  0
   20.0730   12.3090  -19.6570 F   0  0  0  0  0
   15.9330    6.4410  -19.1960 C   0  0  0  0  0
   15.9720    5.2200  -18.2860 C   0  0  0  0  0
   16.8670    4.1290  -18.7820 C   0  0  0  0  0
   16.5370    3.7310  -20.2560 C   0  0  0  0  0
   16.5390    4.9420  -21.1350 C   0  0  0  0  0
   15.5380    6.0100  -20.6170 C   0  0  0  0  0
   17.2650    7.0660  -19.1880 N   0  0  0  0  0
   17.4980    8.2510  -19.8020 C   0  0  0  0  0
   16.6140    8.8180  -20.4580 O   0  0  0  0  0
   18.7780    8.9380  -19.5000 C   0  0  0  0  0
   18.8610   10.2930  -19.7640 C   0  0  0  0  0
   19.9970   10.9540  -19.4120 C   0  0  0  0  0
   21.0880   10.3520  -18.8210 C   0  0  0  0  0
   21.0390    8.9750  -18.6060 C   0  0  0  0  0
   19.8840    8.2730  -18.9380 C   0  0  0  0  0
   22.2290   11.1140  -18.4420 N   0  0  0  0  0
   20.0740   12.3060  -19.6570 F   0  0  0  0  0
   14.5325    5.5901  -20.6010 H   0  0  0  0  0
   15.5586    6.8799  -21.2774 H   0  0  0  0  0
   17.5394    5.3756  -21.1335 H   0  0  0  0  0
   16.2408    4.6468  -22.1404 H   0  0  0  0  0
   17.2918    3.0344  -20.6130 H   0  0  0  0  0
   15.5484    3.2737  -20.2873 H   0  0  0  0  0
   17.8946    4.4908  -18.7467 H   0  0  0  0  0
   16.7198    3.2559  -18.1502 H   0  0  0  0  0
   12.0550    7.0803  -17.0790 H   0  0  0  0  0
   13.4094    9.3874  -18.0495 H   0  0  0  0  0
   12.1526    8.9277  -19.3219 H   0  0  0  0  0
   10.6938    9.7480  -17.1274 H   0  0  0  0  0
   16.3580    5.5484  -17.3203 H   0  0  0  0  0
   14.9597    4.8190  -18.2391 H   0  0  0  0  0
   18.0344   10.8223  -20.2430 H   0  0  0  0  0
   21.8961    8.4565  -18.1820 H   0  0  0  0  0
   19.8345    7.2015  -18.7612 H   0  0  0  0  0
   13.4758    7.0409  -19.8922 H   0  0  0  0  0
   18.0312    6.5983  -18.7082 H   0  0  0  0  0
   22.2467   12.1235  -18.6065 H   0  0  0  0  0
   23.0269   10.6566  -18.0059 H   0  0  0  0  0
   15.1947    7.1611  -18.8432 H   0  0  0  0  0
   14.9607    4.8160  -18.2391 H   0  0  0  0  0
   16.3590    5.5454  -17.3203 H   0  0  0  0  0
   16.7208    3.2529  -18.1502 H   0  0  0  0  0
   17.8956    4.4878  -18.7467 H   0  0  0  0  0
   15.5494    3.2707  -20.2873 H   0  0  0  0  0
   17.2928    3.0314  -20.6130 H   0  0  0  0  0
   16.2418    4.6438  -22.1404 H   0  0  0  0  0
   17.5404    5.3726  -21.1335 H   0  0  0  0  0
   15.5596    6.8769  -21.2774 H   0  0  0  0  0
   14.5335    5.5871  -20.6010 H   0  0  0  0  0
   18.0322    6.5953  -18.7082 H   0  0  0  0  0
   18.0354   10.8193  -20.2430 H   0  0  0  0  0
   21.8971    8.4535  -18.1820 H   0  0  0  0  0
   19.8355    7.1985  -18.7612 H   0  0  0  0  0
   22.2477   12.1205  -18.6065 H   0  0  0  0  0
   23.0279   10.6536  -18.0059 H   0  0  0  0  0
  1  2  1  0  0  0
 11  1  1  0  0  0
  2  3  1  0  0  0
  4  3  1  0  0  0
  8  4  1  0  0  0
  6  5  1  0  0  0
  5  7  2  0  0  0
 20  6  1  0  0  0
 11  8  1  0  0  0
 10  9  2  0  0  0
 11 10  1  0  0  0
 10 20  1  0  0  0
 21 11  1  0  0  0
 13 12  1  0  0  0
 12 19  2  0  0  0
 12 21  1  0  0  0
 14 13  4  0  0  0
 13 18  4  0  0  0
 15 14  4  0  0  0
 15 16  4  0  0  0
 23 15  1  0  0  0
 16 17  4  0  0  0
 16 22  1  0  0  0
 17 18  4  0  0  0
 24 25  1  0  0  0
 24 29  1  0  0  0
 30 24  1  0  0  0
 25 26  1  0  0  0
 26 27  1  0  0  0
 28 27  1  0  0  0
 29 28  1  0  0  0
 31 30  1  0  0  0
 31 32  2  0  0  0
 33 31  1  0  0  0
 34 33  4  0  0  0
 33 38  4  0  0  0
 35 34  4  0  0  0
 35 36  4  0  0  0
 40 35  1  0  0  0
 36 37  4  0  0  0
 36 39  1  0  0  0
 37 38  4  0  0  0
  1 41  1  0  0  0
  1 42  1  0  0  0
  2 43  1  0  0  0
  2 44  1  0  0  0
  3 45  1  0  0  0
  3 46  1  0  0  0
  4 47  1  0  0  0
  4 48  1  0  0  0
  5 49  1  0  0  0
  6 50  1  0  0  0
  6 51  1  0  0  0
  7 52  1  0  0  0
  8 53  1  0  0  0
  8 54  1  0  0  0
 14 55  1  0  0  0
 17 56  1  0  0  0
 18 57  1  0  0  0
 20 58  1  0  0  0
 21 59  1  0  0  0
 22 60  1  0  0  0
 22 61  1  0  0  0
 24 62  1  0  0  0
 25 63  1  0  0  0
 25 64  1  0  0  0
 26 65  1  0  0  0
 26 66  1  0  0  0
 27 67  1  0  0  0
 27 68  1  0  0  0
 28 69  1  0  0  0
 28 70  1  0  0  0
 29 71  1  0  0  0
 29 72  1  0  0  0
 30 73  1  0  0  0
 34 74  1  0  0  0
 37 75  1  0  0  0
 38 76  1  0  0  0
 39 77  1  0  0  0
 39 78  1  0  0  0
M  END
$$$$
