4pvv_ligand
  -I-interpret- 

 39 41  0  0  0  0  0  0  0  0999 V2000
    9.8810   -2.8110    8.5070 C   0  0  0  0  0
   10.2290   -2.0650    9.7610 C   0  0  0  0  0
   11.4530   -1.6470   10.3310 C   0  0  0  0  0
   11.4870   -0.4580   10.8750 C   0  0  0  0  0
   12.4590   -2.4030   10.8200 C   0  0  0  0  0
   12.8900   -3.6520   10.6010 C   0  0  0  0  0
   12.2470   -4.3710    9.7490 N   0  0  0  0  0
   13.9520   -4.1460   11.1790 N   0  0  0  0  0
   14.6440   -3.3640   12.1040 C   0  0  0  0  0
   14.2230   -2.0510   12.3390 N   0  0  0  0  0
   13.1310   -1.6080   11.7030 C   0  0  0  0  0
   12.5190   -0.4300   11.7260 N   0  0  0  0  0
   12.9290    0.6750   12.5410 C   0  0  0  0  0
   11.9520    0.8620   13.5790 O   0  0  0  0  0
   12.1980    2.1340   14.0850 C   0  0  0  0  0
   10.9920    2.5450   14.9300 C   0  0  0  0  0
   10.7780    1.5060   15.9320 O   0  0  0  0  0
   12.3400    2.9940   12.8280 C   0  0  0  0  0
   13.2560    4.0260   13.0190 O   0  0  0  0  0
   12.8360    1.9950   11.7740 C   0  0  0  0  0
   14.0690    2.3870   11.1790 O   0  0  0  0  0
   10.2389   -2.2523    7.6422 H   0  0  0  0  0
   10.3530   -3.7933    8.5273 H   0  0  0  0  0
    8.7991   -2.9276    8.4435 H   0  0  0  0  0
    9.9476   -2.8210   10.4941 H   0  0  0  0  0
    9.8194   -1.0893    9.4995 H   0  0  0  0  0
   10.7986    0.3623   10.6717 H   0  0  0  0  0
   11.4364   -3.9852    9.2648 H   0  0  0  0  0
   12.5480   -5.3267    9.5580 H   0  0  0  0  0
   15.5028   -3.7714   12.6374 H   0  0  0  0  0
   13.9402    0.4563   12.8841 H   0  0  0  0  0
   13.0778    2.2181   14.7229 H   0  0  0  0  0
   10.1080    2.6541   14.3017 H   0  0  0  0  0
   11.1761    3.5050   15.4122 H   0  0  0  0  0
   10.0239    1.7400   16.4780 H   0  0  0  0  0
   11.4111    3.4882   12.5434 H   0  0  0  0  0
   13.3226    4.5461   12.2149 H   0  0  0  0  0
   12.1653    1.9247   10.9176 H   0  0  0  0  0
   13.9486    3.2182   10.7140 H   0  0  0  0  0
  1  2  1  0  0  0
  2  3  1  0  0  0
  3  4  4  0  0  0
  3  5  4  0  0  0
  4 12  4  0  0  0
  5  6  4  0  0  0
  5 11  4  0  0  0
  6  7  1  0  0  0
  6  8  4  0  0  0
  8  9  4  0  0  0
  9 10  4  0  0  0
 10 11  4  0  0  0
 11 12  4  0  0  0
 12 13  1  0  0  0
 13 14  1  0  0  0
 13 20  1  0  0  0
 14 15  1  0  0  0
 15 16  1  0  0  0
 15 18  1  0  0  0
 16 17  1  0  0  0
 18 19  1  0  0  0
 18 20  1  0  0  0
 20 21  1  0  0  0
  1 22  1  0  0  0
  1 23  1  0  0  0
  1 24  1  0  0  0
  2 25  1  0  0  0
  2 26  1  0  0  0
  4 27  1  0  0  0
  7 28  1  0  0  0
  7 29  1  0  0  0
  9 30  1  0  0  0
 13 31  1  0  0  0
 15 32  1  0  0  0
 16 33  1  0  0  0
 16 34  1  0  0  0
 17 35  1  0  0  0
 18 36  1  0  0  0
 19 37  1  0  0  0
 20 38  1  0  0  0
 21 39  1  0  0  0
M  END
$$$$
