5dp4_ligand
  -I-interpret- 

 57 58  0  0  0  0  0  0  0  0999 V2000
   29.9940    3.9810   21.6770 O   0  0  0  0  0
   24.9840    6.3860   28.0940 O   0  0  0  0  0
   23.3670    2.1010   26.2280 C   0  0  0  0  0
   21.9660    0.7480   27.8820 C   0  0  0  0  0
   20.3530   -0.9060   27.1690 C   0  0  0  0  0
   20.6920   -0.6210   25.8340 C   0  0  0  0  0
   28.7490    3.4600   23.7060 C   0  0  0  0  0
   21.6750    0.3490   25.5150 C   0  0  0  0  0
   29.9520    3.5720   22.8140 C   0  0  0  0  0
   25.7450    5.8590   24.3290 C   0  0  0  0  0
   24.9140    6.0590   25.5910 C   0  0  0  0  0
   25.7130    6.4910   26.8240 C   0  0  0  0  0
   25.5660    2.7640   25.5960 C   0  0  0  0  0
   25.6050    6.4180   29.3880 C   0  0  0  0  0
   26.8790    6.9430   26.8040 O   0  0  0  0  0
   26.8120    5.4800   29.4760 C   0  0  0  0  0
   26.6960    4.6560   24.5260 C   0  0  0  0  0
   27.7110    4.5320   23.4050 C   0  0  0  0  0
   29.3720    3.5810   25.0800 C   0  0  0  0  0
   30.7400    2.9410   24.9100 C   0  0  0  0  0
   30.9710    3.1550   23.4890 N   0  0  0  0  0
   25.8160    3.4750   24.4660 N   0  0  0  0  0
   26.0510    3.0400   26.6820 O   0  0  0  0  0
   24.6000    1.6190   25.4770 C   0  0  0  0  0
   25.2600    0.3710   26.0090 C   0  0  0  0  0
   22.3210    1.0390   26.5390 C   0  0  0  0  0
   20.9920   -0.2150   28.2050 C   0  0  0  0  0
   22.8802    2.8318   25.5822 H   0  0  0  0  0
   23.7196    2.4756   27.1890 H   0  0  0  0  0
   22.4632    1.2872   28.6883 H   0  0  0  0  0
   19.5983   -1.6593   27.3951 H   0  0  0  0  0
   20.1889   -1.1566   25.0290 H   0  0  0  0  0
   28.1797    2.5389   23.5814 H   0  0  0  0  0
   21.9244    0.5542   24.4740 H   0  0  0  0  0
   26.3302    6.7573   24.1322 H   0  0  0  0  0
   25.0836    5.6658   23.4844 H   0  0  0  0  0
   24.4619    5.0960   25.8282 H   0  0  0  0  0
   24.2032    6.8576   25.3787 H   0  0  0  0  0
   24.8698    6.0933   30.1243 H   0  0  0  0  0
   25.9525    7.4347   29.5715 H   0  0  0  0  0
   26.4906    4.4571   29.2801 H   0  0  0  0  0
   27.5557    5.7765   28.7363 H   0  0  0  0  0
   27.2459    5.5410   30.4740 H   0  0  0  0  0
   27.2533    4.7636   25.4566 H   0  0  0  0  0
   27.1840    4.2548   22.4920 H   0  0  0  0  0
   28.2239    5.4877   23.2972 H   0  0  0  0  0
   28.7767    3.0933   25.8519 H   0  0  0  0  0
   29.4348    4.6149   25.4195 H   0  0  0  0  0
   30.7779    1.8939   25.2105 H   0  0  0  0  0
   31.5102    3.3688   25.5517 H   0  0  0  0  0
   31.8784    2.9866   23.0547 H   0  0  0  0  0
   25.3967    3.1930   23.5800 H   0  0  0  0  0
   24.3044    1.3439   24.4646 H   0  0  0  0  0
   26.1578    0.1603   25.4278 H   0  0  0  0  0
   25.5294    0.5214   27.0544 H   0  0  0  0  0
   24.5680   -0.4673   25.9278 H   0  0  0  0  0
   20.7392   -0.4195   29.2454 H   0  0  0  0  0
  9  1  2  0  0  0
 12  2  1  0  0  0
  2 14  1  0  0  0
 24  3  1  0  0  0
  3 26  1  0  0  0
 26  4  4  0  0  0
  4 27  4  0  0  0
  6  5  4  0  0  0
 27  5  4  0  0  0
  8  6  4  0  0  0
  7  9  1  0  0  0
 18  7  1  0  0  0
  7 19  1  0  0  0
 26  8  4  0  0  0
  9 21  1  0  0  0
 10 11  1  0  0  0
 17 10  1  0  0  0
 11 12  1  0  0  0
 12 15  2  0  0  0
 22 13  1  0  0  0
 13 23  2  0  0  0
 13 24  1  0  0  0
 14 16  1  0  0  0
 17 18  1  0  0  0
 17 22  1  0  0  0
 19 20  1  0  0  0
 20 21  1  0  0  0
 24 25  1  0  0  0
  3 28  1  0  0  0
  3 29  1  0  0  0
  4 30  1  0  0  0
  5 31  1  0  0  0
  6 32  1  0  0  0
  7 33  1  0  0  0
  8 34  1  0  0  0
 10 35  1  0  0  0
 10 36  1  0  0  0
 11 37  1  0  0  0
 11 38  1  0  0  0
 14 39  1  0  0  0
 14 40  1  0  0  0
 16 41  1  0  0  0
 16 42  1  0  0  0
 16 43  1  0  0  0
 17 44  1  0  0  0
 18 45  1  0  0  0
 18 46  1  0  0  0
 19 47  1  0  0  0
 19 48  1  0  0  0
 20 49  1  0  0  0
 20 50  1  0  0  0
 21 51  1  0  0  0
 22 52  1  0  0  0
 24 53  1  0  0  0
 25 54  1  0  0  0
 25 55  1  0  0  0
 25 56  1  0  0  0
 27 57  1  0  0  0
M  END
$$$$
