3kcf_ligand
  -I-interpret- 

 47 50  0  0  0  0  0  0  0  0999 V2000
   74.6250   34.2180   90.9430 C   0  0  0  0  0
   75.0070   33.0010   91.5870 O   0  0  0  0  0
   75.3300   32.0130   90.6250 C   0  0  0  0  0
   75.7280   30.7270   91.2930 C   0  0  0  0  0
   76.3010   30.7230   92.6040 C   0  0  0  0  0
   76.6760   29.4940   93.2080 C   0  0  0  0  0
   76.4830   28.2690   92.5030 C   0  0  0  0  0
   75.9040   28.2670   91.1900 C   0  0  0  0  0
   75.5320   29.5060   90.5940 C   0  0  0  0  0
   75.7010   26.9840   90.4200 C   0  0  0  0  0
   75.1340   25.7990   90.8140 C   0  0  0  0  0
   75.1910   24.9110   89.7290 N   0  0  0  0  0
   74.6920   23.5040   89.6830 C   0  0  0  0  0
   75.7980   25.5490   88.6580 N   0  0  0  0  0
   76.0480   24.9490   87.3340 C   0  0  0  0  0
   76.1190   26.7830   89.0000 C   0  0  0  0  0
   76.6700   27.6170   88.2680 O   0  0  0  0  0
   74.5430   25.4630   92.1520 C   0  0  0  0  0
   73.5620   26.3090   92.7600 C   0  0  0  0  0
   73.0010   25.9650   94.0260 C   0  0  0  0  0
   73.4150   24.7750   94.6820 C   0  0  0  0  0
   72.8980   24.4110   95.8780 N   0  0  0  0  0
   73.2800   23.2680   96.5200 C   0  0  0  0  0
   74.2480   22.4370   95.9150 C   0  0  0  0  0
   74.7770   22.7910   94.7150 N   0  0  0  0  0
   74.3970   23.9260   94.0770 C   0  0  0  0  0
   74.9560   24.2720   92.8250 C   0  0  0  0  0
   75.4505   34.5769   90.3283 H   0  0  0  0  0
   73.7538   34.0366   90.3136 H   0  0  0  0  0
   74.3804   34.9656   91.6976 H   0  0  0  0  0
   76.1656   32.3692   90.0226 H   0  0  0  0  0
   74.4543   31.8292   90.0026 H   0  0  0  0  0
   76.4493   31.6616   93.1380 H   0  0  0  0  0
   77.1102   29.4865   94.2078 H   0  0  0  0  0
   76.7777   27.3269   92.9653 H   0  0  0  0  0
   75.0944   29.5173   89.5958 H   0  0  0  0  0
   75.2076   22.9121   90.4392 H   0  0  0  0  0
   73.6200   23.4934   89.8801 H   0  0  0  0  0
   74.8855   23.0833   88.6963 H   0  0  0  0  0
   76.6903   24.0757   87.4477 H   0  0  0  0  0
   75.1000   24.6487   86.8877 H   0  0  0  0  0
   76.5379   25.6807   86.6916 H   0  0  0  0  0
   73.2421   27.2198   92.2539 H   0  0  0  0  0
   72.2569   26.6135   94.4885 H   0  0  0  0  0
   72.8450   23.0016   97.4833 H   0  0  0  0  0
   74.5683   21.5186   96.4070 H   0  0  0  0  0
   75.7069   23.6259   92.3703 H   0  0  0  0  0
  1  2  1  0  0  0
  2  3  1  0  0  0
  3  4  1  0  0  0
  4  5  4  0  0  0
  4  9  4  0  0  0
  5  6  4  0  0  0
  6  7  4  0  0  0
  7  8  4  0  0  0
  8  9  4  0  0  0
  8 10  1  0  0  0
 10 11  2  0  0  0
 10 16  1  0  0  0
 11 12  1  0  0  0
 11 18  1  0  0  0
 12 13  1  0  0  0
 12 14  1  0  0  0
 14 15  1  0  0  0
 14 16  1  0  0  0
 16 17  2  0  0  0
 18 19  4  0  0  0
 18 27  4  0  0  0
 19 20  4  0  0  0
 20 21  4  0  0  0
 21 22  4  0  0  0
 21 26  4  0  0  0
 22 23  4  0  0  0
 23 24  4  0  0  0
 24 25  4  0  0  0
 25 26  4  0  0  0
 26 27  4  0  0  0
  1 28  1  0  0  0
  1 29  1  0  0  0
  1 30  1  0  0  0
  3 31  1  0  0  0
  3 32  1  0  0  0
  5 33  1  0  0  0
  6 34  1  0  0  0
  7 35  1  0  0  0
  9 36  1  0  0  0
 13 37  1  0  0  0
 13 38  1  0  0  0
 13 39  1  0  0  0
 15 40  1  0  0  0
 15 41  1  0  0  0
 15 42  1  0  0  0
 19 43  1  0  0  0
 20 44  1  0  0  0
 23 45  1  0  0  0
 24 46  1  0  0  0
 27 47  1  0  0  0
M  END
$$$$
