2eg8_ligand
  -I-interpret- 

 15 15  0  0  0  0  0  0  0  0999 V2000
   25.7090   39.1610   72.5410 C   0  0  0  0  0
   27.8520   39.9840   72.0690 C   0  0  0  0  0
   27.3000   41.3380   71.9450 C   0  0  0  0  0
   24.9640   38.1850   72.7980 O   0  0  0  0  0
   25.1360   40.3720   72.4330 N   0  0  0  0  0
   27.0290   38.9700   72.3740 N   0  0  0  0  0
   29.0720   39.8380   71.9110 O   0  0  0  0  0
   28.0770   42.3880   71.6310 F   0  0  0  0  0
   25.8480   41.4600   72.1500 C   0  0  0  0  0
   25.2220   42.7910   72.0010 C   0  0  0  0  0
   25.9010   43.7520   72.3850 O   0  0  0  0  0
   24.0950   42.8860   71.4440 O   0  0  0  0  0
   24.1292   40.4593   72.5716 H   0  0  0  0  0
   27.4139   38.0316   72.4818 H   0  0  0  0  0
   23.7659   42.0079   71.2383 H   0  0  0  0  0
  1  4  2  0  0  0
  1  5  1  0  0  0
  6  1  1  0  0  0
  2  3  1  0  0  0
  2  6  1  0  0  0
  2  7  2  0  0  0
  3  8  1  0  0  0
  3  9  2  0  0  0
  5  9  1  0  0  0
  9 10  1  0  0  0
 10 11  2  0  0  0
 10 12  1  0  0  0
  5 13  1  0  0  0
  6 14  1  0  0  0
 12 15  1  0  0  0
M  END
$$$$
