1mfg_ligand
  -I-interpret- 

145146  0  0  0  0  0  0  0  0999 V2000
   17.8240   -6.3730   13.2850 N   0  3  0  0  0
   18.6400   -5.5060   14.1150 C   0  0  0  0  0
   18.0950   -4.0720   14.1160 C   0  0  0  0  0
   17.5600   -3.6500   13.0680 O   0  0  0  0  0
   20.0790   -5.5280   13.6140 C   0  0  0  0  0
   20.2590   -5.1660   12.1450 C   0  0  0  0  0
   21.7370   -5.0000   11.8010 C   0  0  0  0  0
   22.5780   -5.0280   12.7230 O   0  0  0  0  0
   22.0550   -4.8340   10.6010 O   0  0  0  0  0
   18.2190   -3.3050   15.2040 N   0  0  0  0  0
   17.7770   -1.9330   15.2890 C   0  0  0  0  0
   18.6940   -1.0350   14.4730 C   0  0  0  0  0
   19.9080   -1.1220   14.6600 O   0  0  0  0  0
   17.8130   -1.4400   16.7510 C   0  0  0  0  0
   17.2680   -0.0240   16.8680 C   0  0  0  0  0
   15.9480    0.2540   16.5670 C   0  0  0  0  0
   18.1060    1.0250   17.2860 C   0  0  0  0  0
   15.4420    1.5500   16.6880 C   0  0  0  0  0
   17.6180    2.3170   17.3940 C   0  0  0  0  0
   16.2840    2.5510   17.0910 C   0  0  0  0  0
   15.7870    3.8430   17.1810 O   0  0  0  0  0
   18.1460   -0.1690   13.6190 N   0  0  0  0  0
   18.8910    0.6300   12.6880 C   0  0  0  0  0
   18.5640    2.1240   12.8390 C   0  0  0  0  0
   18.8510    2.9450   11.9760 O   0  0  0  0  0
   18.6230    0.1870   11.2460 C   0  0  0  0  0
   19.0590   -1.2260   10.8570 C   0  0  0  0  0
   18.6860   -1.4640    9.3830 C   0  0  0  0  0
   20.5460   -1.3930   11.1330 C   0  0  0  0  0
   17.9790    2.4940   13.9790 N   0  0  0  0  0
   17.7790    3.8790   14.2830 C   0  0  0  0  0
   16.4590    4.5060   13.9370 C   0  0  0  0  0
   16.2410    5.6890   14.1110 O   0  0  0  0  0
   15.5110    3.7120   13.4270 N   0  0  0  0  0
   14.1980    4.2410   13.1240 C   0  0  0  0  0
   13.2880    4.2750   14.3560 C   0  0  0  0  0
   12.7720    3.2410   14.7930 O   0  0  0  0  0
   13.5010    3.4640   11.9940 C   0  0  0  0  0
   12.2030    4.1430   11.5290 C   0  0  0  0  0
   12.4780    5.4270   10.7900 C   0  0  0  0  0
   11.4020    3.2200   10.6310 C   0  0  0  0  0
   13.0720    5.4680   14.8750 N   0  0  0  0  0
   12.2310    5.6740   16.0470 C   0  0  0  0  0
   10.9770    6.3890   15.5630 C   0  0  0  0  0
   10.8680    6.7950   14.4120 O   0  0  0  0  0
   13.0080    6.4310   17.1250 C   0  0  0  0  0
   13.6400    7.7430   16.7500 C   0  0  0  0  0
   13.5000    8.1310   15.5770 O   0  0  0  0  0
   14.2690    8.3450   17.6410 O   0  0  0  0  0
   10.0340    6.5420   16.4730 N   0  0  0  0  0
    8.7260    7.0730   16.2000 C   0  0  0  0  0
    8.4240    8.2690   17.1080 C   0  0  0  0  0
    8.2940    8.0590   18.3290 O   0  0  0  0  0
    7.5960    6.0300   16.3800 C   0  0  0  0  0
    6.2230    6.6570   16.0880 C   0  0  0  0  0
    7.8500    4.8250   15.4850 C   0  0  0  0  0
    8.2790    9.4570   16.5580 N   0  0  0  0  0
    7.9040   10.6150   17.4050 C   0  0  0  0  0
    6.4620   10.5410   17.8530 C   0  0  0  0  0
    5.5480   10.2090   17.0920 O   0  0  0  0  0
    8.0900   11.8400   16.4910 C   0  0  0  0  0
    8.5980   11.3250   15.2230 C   0  0  0  0  0
    8.5400    9.8530   15.1690 C   0  0  0  0  0
    6.2440   10.8240   19.1330 N   0  0  0  0  0
    4.9140   10.8860   19.6980 C   0  0  0  0  0
    4.7650   12.1680   20.5230 C   0  0  0  0  0
    3.6290   12.4160   20.9870 O   0  0  0  0  0
    4.6450    9.6550   20.5980 C   0  0  0  0  0
    4.6480    8.3700   19.7770 C   0  0  0  0  0
    5.6780    9.5360   21.7280 C   0  0  0  0  0
    5.7300   12.9720   20.6860 O   0  0  0  0  0
   16.8614   -6.3568   13.6220 H   0  0  0  0  0
   17.8532   -6.0439   12.3200 H   0  0  0  0  0
   18.1859   -7.3255   13.3317 H   0  0  0  0  0
   18.6095   -5.8740   15.1405 H   0  0  0  0  0
   20.4357   -6.5514   13.7305 H   0  0  0  0  0
   20.6228   -4.7793   14.1901 H   0  0  0  0  0
   19.7464   -4.2238   11.9512 H   0  0  0  0  0
   19.8451   -5.9678   11.5335 H   0  0  0  0  0
   21.2640   -4.8445   10.0571 H   0  0  0  0  0
   18.6550   -3.7165   16.0292 H   0  0  0  0  0
   16.7581   -1.8890   14.9044 H   0  0  0  0  0
   18.8476   -1.4440   17.0941 H   0  0  0  0  0
   17.1942   -2.1021   17.3567 H   0  0  0  0  0
   15.2928   -0.5495   16.2305 H   0  0  0  0  0
   19.1490    0.8197   17.5272 H   0  0  0  0  0
   14.3959    1.7605   16.4656 H   0  0  0  0  0
   18.2681    3.1327   17.7103 H   0  0  0  0  0
   16.4851    4.4335   17.4734 H   0  0  0  0  0
   17.1311   -0.0680   13.6282 H   0  0  0  0  0
   19.9471    0.4829   12.9143 H   0  0  0  0  0
   19.2048    0.8602   10.6165 H   0  0  0  0  0
   17.5397    0.2059   11.1270 H   0  0  0  0  0
   18.5451   -1.9798   11.4534 H   0  0  0  0  0
   17.6079   -1.3600    9.2610 H   0  0  0  0  0
   19.1961   -0.7313    8.7576 H   0  0  0  0  0
   18.9908   -2.4687    9.0901 H   0  0  0  0  0
   21.1070   -0.6650   10.5469 H   0  0  0  0  0
   20.7376   -1.2325   12.1940 H   0  0  0  0  0
   20.8549   -2.4007   10.8551 H   0  0  0  0  0
   17.6706    1.7826   14.6417 H   0  0  0  0  0
   18.5141    4.4119   13.6798 H   0  0  0  0  0
   17.8498    3.9453   15.3687 H   0  0  0  0  0
   15.7144    2.7282   13.2506 H   0  0  0  0  0
   14.3669    5.2640   12.7877 H   0  0  0  0  0
   13.2464    2.4742   12.3729 H   0  0  0  0  0
   14.1823    3.4217   11.1442 H   0  0  0  0  0
   11.6287    4.3712   12.4269 H   0  0  0  0  0
   13.0095    6.1159   11.4465 H   0  0  0  0  0
   13.0884    5.2158    9.9120 H   0  0  0  0  0
   11.5343    5.8749   10.4788 H   0  0  0  0  0
   11.9966    2.9615    9.7548 H   0  0  0  0  0
   11.1471    2.3130   11.1792 H   0  0  0  0  0
   10.4886    3.7244   10.3159 H   0  0  0  0  0
   13.5111    6.2787   14.4387 H   0  0  0  0  0
   11.9338    4.7386   16.5212 H   0  0  0  0  0
   13.8373    5.7777   17.3961 H   0  0  0  0  0
   12.2744    6.6729   17.8940 H   0  0  0  0  0
   14.2291    7.8398   18.4564 H   0  0  0  0  0
   10.2465    6.2659   17.4316 H   0  0  0  0  0
    8.7461    7.3781   15.1538 H   0  0  0  0  0
    7.5918    5.6938   17.4168 H   0  0  0  0  0
    6.0499    7.4856   16.7747 H   0  0  0  0  0
    6.2033    7.0238   15.0618 H   0  0  0  0  0
    5.4457    5.9046   16.2212 H   0  0  0  0  0
    7.8785    5.1468   14.4440 H   0  0  0  0  0
    8.8038    4.3701   15.7523 H   0  0  0  0  0
    7.0489    4.0983   15.6202 H   0  0  0  0  0
    8.5091   10.6507   18.3109 H   0  0  0  0  0
    8.7824   12.5580   16.9304 H   0  0  0  0  0
    7.1500   12.3737   16.3513 H   0  0  0  0  0
    9.6390   11.6314   15.1206 H   0  0  0  0  0
    7.9792   11.7225   14.4186 H   0  0  0  0  0
    7.7703    9.4946   14.4855 H   0  0  0  0  0
    9.4606    9.4171   14.7810 H   0  0  0  0  0
    7.0441   11.0041   19.7394 H   0  0  0  0  0
    4.1896   10.8870   18.8835 H   0  0  0  0  0
    3.6607    9.8002   21.0432 H   0  0  0  0  0
    3.8700    8.4250   19.0156 H   0  0  0  0  0
    5.6194    8.2489   19.2976 H   0  0  0  0  0
    4.4568    7.5208   20.4330 H   0  0  0  0  0
    6.6746    9.4346   21.2983 H   0  0  0  0  0
    5.6385   10.4301   22.3503 H   0  0  0  0  0
    5.4516    8.6592   22.3347 H   0  0  0  0  0
    6.5158   12.6167   20.2642 H   0  0  0  0  0
  1  2  1  0  0  0
  2  3  1  0  0  0
  2  5  1  0  0  0
  3  4  2  0  0  0
  3 10  1  0  0  0
  5  6  1  0  0  0
  6  7  1  0  0  0
  7  8  2  0  0  0
  7  9  1  0  0  0
 10 11  1  0  0  0
 11 12  1  0  0  0
 11 14  1  0  0  0
 12 13  2  0  0  0
 12 22  1  0  0  0
 14 15  1  0  0  0
 15 16  4  0  0  0
 15 17  4  0  0  0
 16 18  4  0  0  0
 17 19  4  0  0  0
 18 20  4  0  0  0
 19 20  4  0  0  0
 20 21  1  0  0  0
 22 23  1  0  0  0
 23 24  1  0  0  0
 23 26  1  0  0  0
 24 25  2  0  0  0
 24 30  1  0  0  0
 26 27  1  0  0  0
 27 28  1  0  0  0
 27 29  1  0  0  0
 30 31  1  0  0  0
 31 32  1  0  0  0
 32 33  2  0  0  0
 32 34  1  0  0  0
 34 35  1  0  0  0
 35 36  1  0  0  0
 35 38  1  0  0  0
 36 37  2  0  0  0
 36 42  1  0  0  0
 38 39  1  0  0  0
 39 40  1  0  0  0
 39 41  1  0  0  0
 42 43  1  0  0  0
 43 44  1  0  0  0
 43 46  1  0  0  0
 44 45  2  0  0  0
 44 50  1  0  0  0
 46 47  1  0  0  0
 47 48  2  0  0  0
 47 49  1  0  0  0
 50 51  1  0  0  0
 51 52  1  0  0  0
 51 54  1  0  0  0
 52 53  2  0  0  0
 52 57  1  0  0  0
 54 55  1  0  0  0
 54 56  1  0  0  0
 57 58  1  0  0  0
 57 63  1  0  0  0
 58 59  1  0  0  0
 58 61  1  0  0  0
 59 60  2  0  0  0
 59 64  1  0  0  0
 61 62  1  0  0  0
 62 63  1  0  0  0
 64 65  1  0  0  0
 65 66  1  0  0  0
 65 68  1  0  0  0
 66 67  2  0  0  0
 66 71  1  0  0  0
 68 69  1  0  0  0
 68 70  1  0  0  0
  1 72  1  0  0  0
  1 73  1  0  0  0
  1 74  1  0  0  0
  2 75  1  0  0  0
  5 76  1  0  0  0
  5 77  1  0  0  0
  6 78  1  0  0  0
  6 79  1  0  0  0
  9 80  1  0  0  0
 10 81  1  0  0  0
 11 82  1  0  0  0
 14 83  1  0  0  0
 14 84  1  0  0  0
 16 85  1  0  0  0
 17 86  1  0  0  0
 18 87  1  0  0  0
 19 88  1  0  0  0
 21 89  1  0  0  0
 22 90  1  0  0  0
 23 91  1  0  0  0
 26 92  1  0  0  0
 26 93  1  0  0  0
 27 94  1  0  0  0
 28 95  1  0  0  0
 28 96  1  0  0  0
 28 97  1  0  0  0
 29 98  1  0  0  0
 29 99  1  0  0  0
 29100  1  0  0  0
 30101  1  0  0  0
 31102  1  0  0  0
 31103  1  0  0  0
 34104  1  0  0  0
 35105  1  0  0  0
 38106  1  0  0  0
 38107  1  0  0  0
 39108  1  0  0  0
 40109  1  0  0  0
 40110  1  0  0  0
 40111  1  0  0  0
 41112  1  0  0  0
 41113  1  0  0  0
 41114  1  0  0  0
 42115  1  0  0  0
 43116  1  0  0  0
 46117  1  0  0  0
 46118  1  0  0  0
 49119  1  0  0  0
 50120  1  0  0  0
 51121  1  0  0  0
 54122  1  0  0  0
 55123  1  0  0  0
 55124  1  0  0  0
 55125  1  0  0  0
 56126  1  0  0  0
 56127  1  0  0  0
 56128  1  0  0  0
 58129  1  0  0  0
 61130  1  0  0  0
 61131  1  0  0  0
 62132  1  0  0  0
 62133  1  0  0  0
 63134  1  0  0  0
 63135  1  0  0  0
 64136  1  0  0  0
 65137  1  0  0  0
 68138  1  0  0  0
 69139  1  0  0  0
 69140  1  0  0  0
 69141  1  0  0  0
 70142  1  0  0  0
 70143  1  0  0  0
 70144  1  0  0  0
 71145  1  0  0  0
M  END
$$$$
