### 
### Created by X-TOOL on Mon Sep 10 21:12:49 2018
### 

@<TRIPOS>MOLECULE
1mfg_ligand
  142   143     1     0     0
SMALL
GAST_HUCK


@<TRIPOS>ATOM
      1 N          17.8240   -6.3730   13.2850 N.4       1 GLU         0.2380
      2 CA         18.6400   -5.5060   14.1150 C.3       1 GLU         0.0665
      3 C          18.0950   -4.0720   14.1160 C.2       1 GLU         0.2269
      4 O          17.5600   -3.6500   13.0680 O.2       1 GLU        -0.3907
      5 CB         20.0790   -5.5280   13.6140 C.3       1 GLU         0.0194
      6 CG         20.2590   -5.1660   12.1450 C.3       1 GLU         0.0075
      7 CD         21.7370   -5.0000   11.8010 C.2       1 GLU         0.0351
      8 OE1        22.5780   -5.0280   12.7230 O.co2     1 GLU        -0.5690
      9 OE2        22.0550   -4.8340   10.6010 O.co2     1 GLU        -0.5690
     10 N          18.2190   -3.3050   15.2040 N.am      1 TYR        -0.2594
     11 CA         17.7770   -1.9330   15.2890 C.3       1 TYR         0.1391
     12 C          18.6940   -1.0350   14.4730 C.2       1 TYR         0.2057
     13 O          19.9080   -1.1220   14.6600 O.2       1 TYR        -0.3942
     14 CB         17.8130   -1.4400   16.7510 C.3       1 TYR         0.0164
     15 CG         17.2680   -0.0240   16.8680 C.ar      1 TYR        -0.0493
     16 CD1        15.9480    0.2540   16.5670 C.ar      1 TYR        -0.0685
     17 CD2        18.1060    1.0250   17.2860 C.ar      1 TYR        -0.0685
     18 CE1        15.4420    1.5500   16.6880 C.ar      1 TYR        -0.0398
     19 CE2        17.6180    2.3170   17.3940 C.ar      1 TYR        -0.0398
     20 CZ         16.2840    2.5510   17.0910 C.ar      1 TYR         0.0805
     21 OH         15.7870    3.8430   17.1810 O.3       1 TYR        -0.3376
     22 N          18.1460   -0.1690   13.6190 N.am      1 LEU        -0.2636
     23 CA         18.8910    0.6300   12.6880 C.3       1 LEU         0.1312
     24 C          18.5640    2.1240   12.8390 C.2       1 LEU         0.2037
     25 O          18.8510    2.9450   11.9760 O.2       1 LEU        -0.3944
     26 CB         18.6230    0.1870   11.2460 C.3       1 LEU        -0.0101
     27 CG         19.0590   -1.2260   10.8570 C.3       1 LEU        -0.0425
     28 CD1        18.6860   -1.4640    9.3830 C.3       1 LEU        -0.0625
     29 CD2        20.5460   -1.3930   11.1330 C.3       1 LEU        -0.0625
     30 N          17.9790    2.4940   13.9790 N.am      1 GLY        -0.2664
     31 CA         17.7790    3.8790   14.2830 C.3       1 GLY         0.1201
     32 C          16.4590    4.5060   13.9370 C.2       1 GLY         0.2007
     33 O          16.2410    5.6890   14.1110 O.2       1 GLY        -0.3947
     34 N          15.5110    3.7120   13.4270 N.am      1 LEU        -0.2640
     35 CA         14.1980    4.2410   13.1240 C.3       1 LEU         0.1312
     36 C          13.2880    4.2750   14.3560 C.2       1 LEU         0.2040
     37 O          12.7720    3.2410   14.7930 O.2       1 LEU        -0.3944
     38 CB         13.5010    3.4640   11.9940 C.3       1 LEU        -0.0101
     39 CG         12.2030    4.1430   11.5290 C.3       1 LEU        -0.0425
     40 CD1        12.4780    5.4270   10.7900 C.3       1 LEU        -0.0625
     41 CD2        11.4020    3.2200   10.6310 C.3       1 LEU        -0.0625
     42 N          13.0720    5.4680   14.8750 N.am      1 ASP        -0.2622
     43 CA         12.2310    5.6740   16.0470 C.3       1 ASP         0.1423
     44 C          10.9770    6.3890   15.5630 C.2       1 ASP         0.2056
     45 O          10.8680    6.7950   14.4120 O.2       1 ASP        -0.3943
     46 CB         13.0080    6.4310   17.1250 C.3       1 ASP         0.0406
     47 CG         13.6400    7.7430   16.7500 C.2       1 ASP         0.0393
     48 OD1        13.5000    8.1310   15.5770 O.co2     1 ASP        -0.5688
     49 OD2        14.2690    8.3450   17.6410 O.co2     1 ASP        -0.5688
     50 N          10.0340    6.5420   16.4730 N.am      1 VAL        -0.2634
     51 CA          8.7260    7.0730   16.2000 C.3       1 VAL         0.1334
     52 C           8.4240    8.2690   17.1080 C.2       1 VAL         0.2066
     53 O           8.2940    8.0590   18.3290 O.2       1 VAL        -0.3942
     54 CB          7.5960    6.0300   16.3800 C.3       1 VAL        -0.0062
     55 CG1         6.2230    6.6570   16.0880 C.3       1 VAL        -0.0584
     56 CG2         7.8500    4.8250   15.4850 C.3       1 VAL        -0.0584
     57 N           8.2790    9.4570   16.5580 N.am      1 PRO        -0.2498
     58 CA          7.9040   10.6150   17.4050 C.3       1 PRO         0.1337
     59 C           6.4620   10.5410   17.8530 C.2       1 PRO         0.2036
     60 O           5.5480   10.2090   17.0920 O.2       1 PRO        -0.3944
     61 CB          8.0900   11.8400   16.4910 C.3       1 PRO        -0.0104
     62 CG          8.5980   11.3250   15.2230 C.3       1 PRO        -0.0281
     63 CD          8.5400    9.8530   15.1690 C.3       1 PRO         0.0369
     64 N           6.2440   10.8240   19.1330 N.am      1 VAL        -0.2692
     65 CA          4.9140   10.8860   19.6980 C.3       1 VAL         0.0967
     66 C           4.7650   12.1680   20.5230 C.2       1 VAL         0.0603
     67 O           3.6290   12.4160   20.9870 O.co2     1 VAL        -0.5666
     68 CB          4.6450    9.6550   20.5980 C.3       1 VAL        -0.0118
     69 CG1         4.6480    8.3700   19.7770 C.3       1 VAL        -0.0590
     70 CG2         5.6780    9.5360   21.7280 C.3       1 VAL        -0.0590
     71 OXT         5.7300   12.9720   20.6860 O.co2     1 VAL        -0.5666
     72 H1         18.2024   -7.3071   13.3013 H         1 GLU         0.2015
     73 H2         17.8225   -6.0276   12.3380 H         1 GLU         0.2015
     74 H3         16.8804   -6.3865   13.6392 H         1 GLU         0.2015
     75 H4         18.6194   -5.8866   15.1468 H         1 GLU         0.1099
     76 H5         20.4770   -6.5421   13.7660 H         1 GLU         0.0363
     77 H6         20.6596   -4.8124   14.2146 H         1 GLU         0.0363
     78 H7         19.7335   -4.2217   11.9399 H         1 GLU         0.0434
     79 H8         19.8322   -5.9659   11.5222 H         1 GLU         0.0434
     80 H9         18.6464   -3.7085   16.0130 H         1 TYR         0.1886
     81 H10        16.7498   -1.8617   14.9019 H         1 TYR         0.0821
     82 H11        18.8529   -1.4548   17.1092 H         1 TYR         0.0453
     83 H12        17.2019   -2.1120   17.3714 H         1 TYR         0.0453
     84 H13        15.2964   -0.5451   16.2323 H         1 TYR         0.0530
     85 H14        19.1432    0.8208   17.5259 H         1 TYR         0.0530
     86 H15        14.4016    1.7593   16.4668 H         1 TYR         0.0525
     87 H16        18.2645    3.1282   17.7086 H         1 TYR         0.0525
     88 H17        15.8871    4.1583   18.0716 H         1 TYR         0.2458
     89 H18        17.1509   -0.0700   13.6280 H         1 LEU         0.1883
     90 H19        19.9611    0.4888   12.9001 H         1 LEU         0.0800
     91 H20        19.1465    0.8897   10.5811 H         1 LEU         0.0315
     92 H21        17.5389    0.2579   11.0740 H         1 LEU         0.0315
     93 H22        18.5121   -1.9539   11.4744 H         1 LEU         0.0298
     94 H23        18.9931   -2.4777    9.0862 H         1 LEU         0.0232
     95 H24        19.2002   -0.7252    8.7507 H         1 LEU         0.0232
     96 H25        17.5981   -1.3593    9.2585 H         1 LEU         0.0232
     97 H26        20.7438   -1.2100   12.1995 H         1 LEU         0.0232
     98 H27        21.1147   -0.6733   10.5259 H         1 LEU         0.0232
     99 H28        20.8545   -2.4164   10.8732 H         1 LEU         0.0232
    100 H29        17.6767    1.7965   14.6287 H         1 GLY         0.1881
    101 H30        18.5567    4.4442   13.7486 H         1 GLY         0.0763
    102 H31        17.9199    3.9969   15.3675 H         1 GLY         0.0763
    103 H32        15.7104    2.7475   13.2540 H         1 LEU         0.1883
    104 H33        14.3367    5.2770   12.7814 H         1 LEU         0.0800
    105 H34        13.2607    2.4536   12.3563 H         1 LEU         0.0315
    106 H35        14.1884    3.3929   11.1382 H         1 LEU         0.0315
    107 H36        11.6014    4.3758   12.4199 H         1 LEU         0.0298
    108 H37        11.5263    5.8800   10.4754 H         1 LEU         0.0232
    109 H38        13.0940    5.2152    9.9036 H         1 LEU         0.0232
    110 H39        13.0144    6.1232   11.4515 H         1 LEU         0.0232
    111 H40        11.1962    2.2791   11.1624 H         1 LEU         0.0232
    112 H41        11.9770    3.0071    9.7177 H         1 LEU         0.0232
    113 H42        10.4518    3.7042   10.3616 H         1 LEU         0.0232
    114 H43        13.5025    6.2628   14.4472 H         1 ASP         0.1884
    115 H44        11.9392    4.6985   16.4632 H         1 ASP         0.0819
    116 H45        13.8133    5.7680   17.4741 H         1 ASP         0.0478
    117 H46        12.3110    6.6285   17.9527 H         1 ASP         0.0478
    118 H47        10.2423    6.2713   17.4129 H         1 VAL         0.1883
    119 H48         8.7152    7.4137   15.1541 H         1 VAL         0.0803
    120 H49         7.6018    5.6902   17.4262 H         1 VAL         0.0343
    121 H50         5.4376    5.8986   16.2221 H         1 VAL         0.0234
    122 H51         6.2018    7.0275   15.0525 H         1 VAL         0.0234
    123 H52         6.0471    7.4934   16.7804 H         1 VAL         0.0234
    124 H53         8.8372    4.3983   15.7160 H         1 VAL         0.0234
    125 H54         7.8238    5.1390   14.4311 H         1 VAL         0.0234
    126 H55         7.0726    4.0670   15.6612 H         1 VAL         0.0234
    127 H56         8.5605   10.6765   18.2855 H         1 PRO         0.0802
    128 H57         8.8117   12.5415   16.9348 H         1 PRO         0.0313
    129 H58         7.1283   12.3515   16.3375 H         1 PRO         0.0313
    130 H59         9.6434   11.6451   15.1015 H         1 PRO         0.0287
    131 H60         7.9911   11.7358   14.4027 H         1 PRO         0.0287
    132 H61         7.7276    9.5177   14.5075 H         1 PRO         0.0524
    133 H62         9.4952    9.4367   14.8166 H         1 PRO         0.0524
    134 H63         7.0285   11.0006   19.7275 H         1 VAL         0.1875
    135 H64         4.1791   10.8967   18.8796 H         1 VAL         0.0729
    136 H65         3.6502    9.7770   21.0512 H         1 VAL         0.0336
    137 H66         4.4551    7.5122   20.4380 H         1 VAL         0.0234
    138 H67         5.6279    8.2466   19.2927 H         1 VAL         0.0234
    139 H68         3.8632    8.4242   19.0082 H         1 VAL         0.0234
    140 H69         5.6789   10.4613   22.3228 H         1 VAL         0.0234
    141 H70         6.6771    9.3767   21.2962 H         1 VAL         0.0234
    142 H71         5.4179    8.6849   22.3745 H         1 VAL         0.0234
@<TRIPOS>BOND
     1    1    2 1  
     2    2    3 1  
     3    2    5 1  
     4    3    4 2  
     5    3   10 am 
     6    5    6 1  
     7    6    7 1  
     8    7    8 ar 
     9    7    9 ar 
    10   10   11 1  
    11   11   12 1  
    12   11   14 1  
    13   12   13 2  
    14   12   22 am 
    15   14   15 1  
    16   15   16 ar 
    17   15   17 ar 
    18   16   18 ar 
    19   17   19 ar 
    20   18   20 ar 
    21   19   20 ar 
    22   20   21 1  
    23   22   23 1  
    24   23   24 1  
    25   23   26 1  
    26   24   25 2  
    27   24   30 am 
    28   26   27 1  
    29   27   28 1  
    30   27   29 1  
    31   30   31 1  
    32   31   32 1  
    33   32   33 2  
    34   32   34 am 
    35   34   35 1  
    36   35   36 1  
    37   35   38 1  
    38   36   37 2  
    39   36   42 am 
    40   38   39 1  
    41   39   40 1  
    42   39   41 1  
    43   42   43 1  
    44   43   44 1  
    45   43   46 1  
    46   44   45 2  
    47   44   50 am 
    48   46   47 1  
    49   47   48 ar 
    50   47   49 ar 
    51   50   51 1  
    52   51   52 1  
    53   51   54 1  
    54   52   53 2  
    55   52   57 am 
    56   54   55 1  
    57   54   56 1  
    58   57   58 1  
    59   57   63 1  
    60   58   59 1  
    61   58   61 1  
    62   59   60 2  
    63   59   64 am 
    64   61   62 1  
    65   62   63 1  
    66   64   65 1  
    67   65   66 1  
    68   65   68 1  
    69   66   67 ar 
    70   66   71 ar 
    71   68   69 1  
    72   68   70 1  
    73    1   72 1  
    74    1   73 1  
    75    1   74 1  
    76    2   75 1  
    77    5   76 1  
    78    5   77 1  
    79    6   78 1  
    80    6   79 1  
    81   10   80 1  
    82   11   81 1  
    83   14   82 1  
    84   14   83 1  
    85   16   84 1  
    86   17   85 1  
    87   18   86 1  
    88   19   87 1  
    89   21   88 1  
    90   22   89 1  
    91   23   90 1  
    92   26   91 1  
    93   26   92 1  
    94   27   93 1  
    95   28   94 1  
    96   28   95 1  
    97   28   96 1  
    98   29   97 1  
    99   29   98 1  
   100   29   99 1  
   101   30  100 1  
   102   31  101 1  
   103   31  102 1  
   104   34  103 1  
   105   35  104 1  
   106   38  105 1  
   107   38  106 1  
   108   39  107 1  
   109   40  108 1  
   110   40  109 1  
   111   40  110 1  
   112   41  111 1  
   113   41  112 1  
   114   41  113 1  
   115   42  114 1  
   116   43  115 1  
   117   46  116 1  
   118   46  117 1  
   119   50  118 1  
   120   51  119 1  
   121   54  120 1  
   122   55  121 1  
   123   55  122 1  
   124   55  123 1  
   125   56  124 1  
   126   56  125 1  
   127   56  126 1  
   128   58  127 1  
   129   61  128 1  
   130   61  129 1  
   131   62  130 1  
   132   62  131 1  
   133   63  132 1  
   134   63  133 1  
   135   64  134 1  
   136   65  135 1  
   137   68  136 1  
   138   69  137 1  
   139   69  138 1  
   140   69  139 1  
   141   70  140 1  
   142   70  141 1  
   143   70  142 1  
@<TRIPOS>SUBSTRUCTURE
     1 GLU         1

