3bl7_ligand
  -I-interpret- 

 53 56  0  0  0  0  0  0  0  0999 V2000
    7.8920   -3.6710   17.4080 F   0  0  0  0  0
    8.8480   -2.7290   17.4260 C   0  0  0  0  0
   10.1800   -3.1080   17.2790 C   0  0  0  0  0
   11.1830   -2.1440   17.2910 C   0  0  0  0  0
   10.8730   -0.7920   17.4470 C   0  0  0  0  0
    9.5500   -0.3640   17.6020 C   0  0  0  0  0
    8.5040   -1.2860   17.6170 C   0  0  0  0  0
    7.0700   -0.7960   17.7580 C   0  0  0  0  0
    6.3590   -1.0270   19.0270 N   0  3  0  0  0
    6.7170   -2.0790   19.9790 C   0  0  0  0  0
    5.7510   -2.0080   21.1740 C   0  0  0  0  0
    5.6670   -0.6070   21.7940 C   0  0  0  0  0
    5.3660    0.4310   20.7050 C   0  0  0  0  0
    5.2050   -0.1730   19.3120 C   0  0  0  0  0
    4.6790   -0.5730   22.9800 C   0  0  0  0  0
    3.5770    0.3710   22.9480 O   0  0  0  0  0
    3.0010    0.8600   24.1070 C   0  0  0  0  0
    1.9820    1.9480   24.0660 C   0  0  0  0  0
    1.5010    2.5870   22.8130 C   0  0  0  0  0
    1.9620    2.2250   21.5980 N   0  0  0  0  0
    0.5870    3.5620   22.9030 N   0  0  0  0  0
    0.0860    3.9740   24.0990 C   0  0  0  0  0
   -0.8390    4.9540   24.0940 N   0  0  0  0  0
    0.4580    3.4310   25.2880 N   0  0  0  0  0
    1.3810    2.4480   25.3400 C   0  0  0  0  0
    1.7720    1.8950   26.5440 C   0  0  0  0  0
    2.7330    0.8840   26.5450 C   0  0  0  0  0
    3.3300    0.3840   25.3720 C   0  0  0  0  0
   10.4367   -4.1600   17.1545 H   0  0  0  0  0
   12.2235   -2.4482   17.1772 H   0  0  0  0  0
   11.6768   -0.0558   17.4481 H   0  0  0  0  0
    9.3352    0.6989   17.7119 H   0  0  0  0  0
    6.5063   -1.3583   17.0135 H   0  0  0  0  0
    7.1329    0.2881   17.6643 H   0  0  0  0  0
    7.2925   -1.3540   19.2761 H   0  0  0  0  0
    7.7421   -1.9370   20.3212 H   0  0  0  0  0
    6.6431   -3.0549   19.4992 H   0  0  0  0  0
    6.1204   -2.6890   21.9407 H   0  0  0  0  0
    4.7567   -2.2720   20.8136 H   0  0  0  0  0
    6.6338   -0.3416   22.2218 H   0  0  0  0  0
    6.2106    1.1190   20.6671 H   0  0  0  0  0
    4.4225    0.9116   20.9637 H   0  0  0  0  0
    4.2906   -0.7649   19.2713 H   0  0  0  0  0
    5.1451    0.6237   18.5705 H   0  0  0  0  0
    5.2802   -0.2750   23.8390 H   0  0  0  0  0
    4.2079   -1.5559   22.9823 H   0  0  0  0  0
    2.6645    1.4898   21.5173 H   0  0  0  0  0
    1.6081    2.6864   20.7600 H   0  0  0  0  0
   -1.1432    5.3637   23.2108 H   0  0  0  0  0
   -1.2349    5.2861   24.9734 H   0  0  0  0  0
    1.3357    2.2438   27.4800 H   0  0  0  0  0
    3.0370    0.4598   27.5019 H   0  0  0  0  0
    4.0772   -0.4049   25.4583 H   0  0  0  0  0
  1  2  1  0  0  0
  2  3  4  0  0  0
  2  7  4  0  0  0
  3  4  4  0  0  0
  4  5  4  0  0  0
  5  6  4  0  0  0
  6  7  4  0  0  0
  7  8  1  0  0  0
  8  9  1  0  0  0
  9 10  1  0  0  0
  9 14  1  0  0  0
 10 11  1  0  0  0
 11 12  1  0  0  0
 12 13  1  0  0  0
 12 15  1  0  0  0
 13 14  1  0  0  0
 15 16  1  0  0  0
 16 17  1  0  0  0
 17 18  4  0  0  0
 17 28  4  0  0  0
 18 19  4  0  0  0
 18 25  4  0  0  0
 19 20  1  0  0  0
 19 21  4  0  0  0
 21 22  4  0  0  0
 22 23  1  0  0  0
 22 24  4  0  0  0
 24 25  4  0  0  0
 25 26  4  0  0  0
 26 27  4  0  0  0
 27 28  4  0  0  0
  3 29  1  0  0  0
  4 30  1  0  0  0
  5 31  1  0  0  0
  6 32  1  0  0  0
  8 33  1  0  0  0
  8 34  1  0  0  0
  9 35  1  0  0  0
 10 36  1  0  0  0
 10 37  1  0  0  0
 11 38  1  0  0  0
 11 39  1  0  0  0
 12 40  1  0  0  0
 13 41  1  0  0  0
 13 42  1  0  0  0
 14 43  1  0  0  0
 14 44  1  0  0  0
 15 45  1  0  0  0
 15 46  1  0  0  0
 20 47  1  0  0  0
 20 48  1  0  0  0
 23 49  1  0  0  0
 23 50  1  0  0  0
 26 51  1  0  0  0
 27 52  1  0  0  0
 28 53  1  0  0  0
M  END
$$$$
