5tx5_ligand
  -I-interpret- 

 46 49  0  0  0  0  0  0  0  0999 V2000
   16.9020    0.0210   56.6900 C   0  0  0  0  0
   15.9730   -0.9970   56.6090 C   0  0  0  0  0
   17.9780    0.0610   55.8190 C   0  0  0  0  0
   25.3240   -9.3200   58.8530 C   0  0  0  0  0
   24.8130   -8.7070   59.9820 C   0  0  0  0  0
   16.1410   -1.9750   55.6500 C   0  0  0  0  0
   18.1490   -0.9150   54.8590 C   0  0  0  0  0
   24.4630   -9.8960   57.9320 C   0  0  0  0  0
   23.4460   -8.6740   60.1910 C   0  0  0  0  0
   17.2250   -1.9360   54.7880 C   0  0  0  0  0
   23.0900   -9.8700   58.1250 C   0  0  0  0  0
   22.5930   -9.2460   59.2640 C   0  0  0  0  0
   19.0300   -5.7270   55.4540 C   0  0  0  0  0
   17.8180   -4.2890   54.3610 C   0  0  0  0  0
   20.9920   -9.8160   56.8320 C   0  0  0  0  0
   20.0790   -6.3040   56.2220 C   0  0  0  0  0
   20.5800   -8.2230   58.6990 C   0  0  0  0  0
   20.9240   -8.3650   57.2320 C   0  0  0  0  0
   22.3800  -11.8160   56.7970 C   0  0  0  0  0
   17.4080   -3.0050   53.7730 C   0  0  0  0  0
   17.9590   -6.3510   55.0080 N   0  0  0  0  0
   17.1950   -5.4470   54.3170 N   0  0  0  0  0
   18.9730   -4.4230   55.0720 N   0  0  0  0  0
   22.1930  -10.4310   57.1690 N   0  0  0  0  0
   19.9790   -7.6700   56.3900 N   0  0  0  0  0
   20.0690  -10.3790   56.2590 O   0  0  0  0  0
   20.9760   -5.6130   56.6830 O   0  0  0  0  0
   21.2140   -9.2240   59.4990 O   0  0  0  0  0
   16.7878    0.7989   57.4449 H   0  0  0  0  0
   15.1225   -1.0277   57.2900 H   0  0  0  0  0
   18.6996    0.8746   55.8929 H   0  0  0  0  0
   26.4010   -9.3502   58.6876 H   0  0  0  0  0
   25.4868   -8.2501   60.7068 H   0  0  0  0  0
   15.4153   -2.7844   55.5701 H   0  0  0  0  0
   18.9950   -0.8798   54.1725 H   0  0  0  0  0
   24.8712  -10.3765   57.0429 H   0  0  0  0  0
   23.0416   -8.1982   61.0844 H   0  0  0  0  0
   19.5011   -8.3337   58.8076 H   0  0  0  0  0
   20.9278   -7.2468   59.0370 H   0  0  0  0  0
   21.9045   -7.9104   57.0906 H   0  0  0  0  0
   23.3728  -11.9442   56.3657 H   0  0  0  0  0
   22.2830  -12.4449   57.6820 H   0  0  0  0  0
   21.6246  -12.0992   56.0639 H   0  0  0  0  0
   18.1956   -2.6848   53.0909 H   0  0  0  0  0
   16.4508   -3.1579   53.2745 H   0  0  0  0  0
   19.2375   -8.1888   55.9194 H   0  0  0  0  0
  2  1  4  0  0  0
  3  1  4  0  0  0
  6  2  4  0  0  0
  7  3  4  0  0  0
  5  4  4  0  0  0
  8  4  4  0  0  0
  9  5  4  0  0  0
 10  6  4  0  0  0
 10  7  4  0  0  0
 11  8  4  0  0  0
 12  9  4  0  0  0
 20 10  1  0  0  0
 12 11  4  0  0  0
 24 11  1  0  0  0
 28 12  1  0  0  0
 16 13  1  0  0  0
 13 21  4  0  0  0
 13 23  4  0  0  0
 14 20  1  0  0  0
 14 22  4  0  0  0
 23 14  4  0  0  0
 18 15  1  0  0  0
 15 24  1  0  0  0
 15 26  2  0  0  0
 25 16  1  0  0  0
 16 27  2  0  0  0
 18 17  1  0  0  0
 17 28  1  0  0  0
 18 25  1  0  0  0
 24 19  1  0  0  0
 21 22  4  0  0  0
  1 29  1  0  0  0
  2 30  1  0  0  0
  3 31  1  0  0  0
  4 32  1  0  0  0
  5 33  1  0  0  0
  6 34  1  0  0  0
  7 35  1  0  0  0
  8 36  1  0  0  0
  9 37  1  0  0  0
 17 38  1  0  0  0
 17 39  1  0  0  0
 18 40  1  0  0  0
 19 41  1  0  0  0
 19 42  1  0  0  0
 19 43  1  0  0  0
 20 44  1  0  0  0
 20 45  1  0  0  0
 25 46  1  0  0  0
M  END
$$$$
