5c2a_ligand
  -I-interpret- 

 37 39  0  0  0  0  0  0  0  0999 V2000
    4.5140   12.2570   45.1750 C   0  0  0  0  0
    3.6290   12.8260   47.4960 C   0  0  0  0  0
    3.1230   14.7470   41.2580 C   0  0  0  0  0
    9.2790   11.9070   44.1990 C   0  0  0  0  0
    8.1100   10.0960   43.6450 C   0  0  0  0  0
    7.1680   10.7400   44.4120 C   0  0  0  0  0
   10.4180   12.8460   44.2500 C   0  0  0  0  0
    5.7980   10.2970   44.7440 C   0  0  0  0  0
    3.2800   14.2080   45.4590 C   0  0  0  0  0
    3.3970   14.5210   44.1780 N   0  0  0  0  0
    7.8010   12.2300   45.0030 S   0  0  0  0  0
    4.0830   13.6760   43.4020 C   0  0  0  0  0
    4.6380   12.5490   43.8680 N   0  0  0  0  0
    3.8230   13.0880   46.0350 C   0  0  0  0  0
    4.2210   14.0140   41.9740 C   0  0  0  0  0
    4.4190   15.4380   41.5290 C   0  0  0  0  0
    2.3750   15.3630   46.3610 Cl  0  0  0  0  0
    9.2920   10.7760   43.5420 N   0  0  0  0  0
    7.9910    8.7940   42.9450 C   0  0  0  0  0
    5.0940   11.0930   45.7260 N   0  0  0  0  0
    3.0958   11.8844   47.6273 H   0  0  0  0  0
    4.6012   12.7658   47.9852 H   0  0  0  0  0
    3.0493   13.6377   47.9355 H   0  0  0  0  0
    2.0568   14.9380   41.3795 H   0  0  0  0  0
    2.4465   14.5837   40.4191 H   0  0  0  0  0
   10.1155   13.8052   43.8298 H   0  0  0  0  0
   10.7280   12.9832   45.2859 H   0  0  0  0  0
   11.2480   12.4401   43.6717 H   0  0  0  0  0
    5.8943    9.2989   45.1714 H   0  0  0  0  0
    5.2214   10.3687   43.8218 H   0  0  0  0  0
    4.7592   13.0785   41.8215 H   0  0  0  0  0
    4.7694   16.3824   41.9454 H   0  0  0  0  0
    5.1579   16.0292   40.9881 H   0  0  0  0  0
    7.7855    8.0091   43.6728 H   0  0  0  0  0
    7.1760    8.8443   42.2230 H   0  0  0  0  0
    8.9244    8.5751   42.4265 H   0  0  0  0  0
    5.0240   10.8403   46.7117 H   0  0  0  0  0
 13  1  4  0  0  0
  1 14  4  0  0  0
  1 20  1  0  0  0
 14  2  1  0  0  0
 15  3  1  0  0  0
  3 16  1  0  0  0
  4  7  1  0  0  0
 11  4  4  0  0  0
  4 18  4  0  0  0
  6  5  4  0  0  0
  5 18  4  0  0  0
  5 19  1  0  0  0
  8  6  1  0  0  0
  6 11  4  0  0  0
 20  8  1  0  0  0
 10  9  4  0  0  0
  9 14  4  0  0  0
  9 17  1  0  0  0
 12 10  4  0  0  0
 12 13  4  0  0  0
 12 15  1  0  0  0
 15 16  1  0  0  0
  2 21  1  0  0  0
  2 22  1  0  0  0
  2 23  1  0  0  0
  3 24  1  0  0  0
  3 25  1  0  0  0
  7 26  1  0  0  0
  7 27  1  0  0  0
  7 28  1  0  0  0
  8 29  1  0  0  0
  8 30  1  0  0  0
 15 31  1  0  0  0
 16 32  1  0  0  0
 16 33  1  0  0  0
 19 34  1  0  0  0
 19 35  1  0  0  0
 19 36  1  0  0  0
 20 37  1  0  0  0
M  END
$$$$
