1h46_ligand
  -I-interpret- 

 38 39  0  0  0  0  0  0  0  0999 V2000
    3.9310    9.0750   25.8320 C   0  0  0  0  0
    4.0120    9.7700   24.6360 C   0  0  0  0  0
    3.4940   11.0710   24.5410 C   0  0  0  0  0
    2.8940   11.7180   25.6300 C   0  0  0  0  0
    2.2160   11.6720   27.9920 C   0  0  0  0  0
    2.1610   10.9560   29.1890 C   0  0  0  0  0
    2.6580    9.6600   29.3120 C   0  0  0  0  0
    3.2460    9.0320   28.2190 C   0  0  0  0  0
    3.3220    9.7170   27.0170 C   0  0  0  0  0
    2.7870   11.0870   26.8670 C   0  0  0  0  0
    4.4140    7.8060   25.9980 O   0  0  0  0  0
    5.1050    7.1650   24.8980 C   0  0  0  0  0
    5.7800    5.8750   25.3090 C   0  0  0  0  0
    6.3770    6.0290   26.6000 O   0  0  0  0  0
    6.8660    5.5380   24.3220 C   0  0  0  0  0
    7.2460    4.2580   24.2600 N   0  0  0  0  0
    7.1920    3.3470   25.4010 C   0  0  0  0  0
    6.8380    1.9490   24.8980 C   0  0  0  0  0
    8.5500    3.2940   26.0960 C   0  0  0  0  0
    4.4788    9.3055   23.7674 H   0  0  0  0  0
    3.5606   11.5960   23.5881 H   0  0  0  0  0
    2.5057   12.7291   25.5071 H   0  0  0  0  0
    1.8138   12.6837   27.9394 H   0  0  0  0  0
    1.7115   11.4293   30.0619 H   0  0  0  0  0
    2.5859    9.1377   30.2660 H   0  0  0  0  0
    3.6398    8.0194   28.3065 H   0  0  0  0  0
    5.8757    7.8485   24.5416 H   0  0  0  0  0
    4.3680    6.9286   24.1305 H   0  0  0  0  0
    5.0337    5.0810   25.3357 H   0  0  0  0  0
    6.8032    5.2072   26.8543 H   0  0  0  0  0
    7.3200    6.3005   23.6891 H   0  0  0  0  0
    6.4415    3.6997   26.1084 H   0  0  0  0  0
    5.8682    1.9778   24.4012 H   0  0  0  0  0
    7.5990    1.6144   24.1930 H   0  0  0  0  0
    6.7950    1.2606   25.7421 H   0  0  0  0  0
    9.3036    2.9414   25.3918 H   0  0  0  0  0
    8.8166    4.2911   26.4464 H   0  0  0  0  0
    8.4962    2.6117   26.9443 H   0  0  0  0  0
  2  1  4  0  0  0
  1  9  4  0  0  0
  1 11  1  0  0  0
  3  2  4  0  0  0
  4  3  4  0  0  0
 10  4  4  0  0  0
  5  6  4  0  0  0
 10  5  4  0  0  0
  6  7  4  0  0  0
  7  8  4  0  0  0
  8  9  4  0  0  0
  9 10  4  0  0  0
 11 12  1  0  0  0
 12 13  1  0  0  0
 13 14  1  0  0  0
 13 15  1  0  0  0
 15 16  2  0  0  0
 16 17  1  0  0  0
 17 18  1  0  0  0
 17 19  1  0  0  0
  2 20  1  0  0  0
  3 21  1  0  0  0
  4 22  1  0  0  0
  5 23  1  0  0  0
  6 24  1  0  0  0
  7 25  1  0  0  0
  8 26  1  0  0  0
 12 27  1  0  0  0
 12 28  1  0  0  0
 13 29  1  0  0  0
 14 30  1  0  0  0
 15 31  1  0  0  0
 17 32  1  0  0  0
 18 33  1  0  0  0
 18 34  1  0  0  0
 18 35  1  0  0  0
 19 36  1  0  0  0
 19 37  1  0  0  0
 19 38  1  0  0  0
M  END
$$$$
