### 
### Created by X-TOOL on Fri Nov  2 11:07:27 2018
### 

@<TRIPOS>MOLECULE
5xvu_ligand
   43    45     1     0     0
SMALL
GAST_HUCK


@<TRIPOS>ATOM
      1 PG          1.9550   -4.0100   -6.6880 P.3       1 ATP         0.1879
      2 O1G         0.4110   -4.0030   -6.4570 O.co2     1 ATP        -0.6091
      3 O2G         2.5580   -2.6720   -6.4320 O.co2     1 ATP        -0.6091
      4 O3G         2.6490   -5.1140   -5.8040 O.co2     1 ATP        -0.6091
      5 PB          2.1630   -5.9600   -8.8110 P.3       1 ATP         0.3553
      6 O1B         0.7160   -6.4050   -9.0950 O.co2     1 ATP        -0.5652
      7 O2B         2.8280   -6.8950   -7.8720 O.co2     1 ATP        -0.5652
      8 O3B         2.1480   -4.4930   -8.1950 O.3       1 ATP        -0.1546
      9 PA          3.4790   -6.9380  -11.2540 P.3       1 ATP         0.3266
     10 O1A         2.6560   -8.1700  -11.2190 O.co2     1 ATP        -0.5692
     11 O2A         4.9940   -7.2760  -11.0430 O.co2     1 ATP        -0.5692
     12 O3A         2.9820   -5.8770  -10.1730 O.3       1 ATP        -0.1171
     13 O5'         3.2560   -6.0900  -12.5940 O.3       1 ATP        -0.2441
     14 C5'         1.9620   -5.7560  -13.1410 C.3       1 ATP         0.1131
     15 C4'         1.9450   -6.1020  -14.6100 C.3       1 ATP         0.1189
     16 O4'         3.1040   -5.5320  -15.2550 O.3       1 ATP        -0.3364
     17 C3'         2.0080   -7.5900  -14.9310 C.3       1 ATP         0.1149
     18 O3'         0.7320   -8.2200  -14.8410 O.3       1 ATP        -0.3864
     19 C2'         2.6360   -7.5980  -16.3280 C.3       1 ATP         0.1385
     20 O2'         1.7190   -7.3840  -17.3940 O.3       1 ATP        -0.3836
     21 C1'         3.5980   -6.4120  -16.2490 C.3       1 ATP         0.2010
     22 N9          4.9860   -6.7720  -15.9540 N.pl3     1 ATP        -0.1919
     23 C8          5.6290   -6.7560  -14.7430 C.2       1 ATP         0.1123
     24 N7          6.8750   -7.1650  -14.7930 N.2       1 ATP        -0.2958
     25 C5          7.0690   -7.4660  -16.1320 C.ar      1 ATP         0.1045
     26 C6          8.1850   -7.9530  -16.8470 C.ar      1 ATP         0.1298
     27 N6          9.3830   -8.1680  -16.3010 N.pl3     1 ATP        -0.3152
     28 N1          8.0340   -8.1750  -18.1740 N.ar      1 ATP        -0.2698
     29 C2          6.8510   -7.9070  -18.7430 C.ar      1 ATP         0.0533
     30 N3          5.7380   -7.4270  -18.1780 N.ar      1 ATP        -0.2714
     31 C4          5.9120   -7.2300  -16.8600 C.ar      1 ATP         0.1613
     32 H1          1.7744   -4.6796  -13.0135 H         1 ATP         0.0648
     33 H2          1.1817   -6.3286  -12.6183 H         1 ATP         0.0648
     34 H3          1.0264   -5.6830  -15.0466 H         1 ATP         0.0651
     35 H4          2.6797   -8.0993  -14.2243 H         1 ATP         0.0648
     36 H5          0.1343   -7.8116  -15.4563 H         1 ATP         0.2100
     37 H6          3.1723   -8.5426  -16.5014 H         1 ATP         0.0676
     38 H7          1.0596   -8.0678  -17.3851 H         1 ATP         0.2101
     39 H8          3.5872   -5.8976  -17.2212 H         1 ATP         0.0996
     40 H9          5.1481   -6.4324  -13.8210 H         1 ATP         0.1349
     41 H10        10.1563   -8.5251  -16.8801 H         1 ATP         0.1820
     42 H11         9.5347   -7.9769  -15.3003 H         1 ATP         0.1820
     43 H12         6.7874   -8.1065  -19.8066 H         1 ATP         0.0996
@<TRIPOS>BOND
     1    1    2 ar 
     2    1    3 ar 
     3    1    4 ar 
     4    8    1 1  
     5    5    6 ar 
     6    5    7 ar 
     7    5    8 1  
     8   12    5 1  
     9    9   10 ar 
    10    9   11 ar 
    11    9   12 1  
    12    9   13 1  
    13   13   14 1  
    14   14   15 1  
    15   15   16 1  
    16   15   17 1  
    17   16   21 1  
    18   17   18 1  
    19   17   19 1  
    20   19   20 1  
    21   19   21 1  
    22   21   22 1  
    23   22   23 1  
    24   22   31 1  
    25   23   24 2  
    26   24   25 1  
    27   25   26 ar 
    28   25   31 ar 
    29   26   27 1  
    30   26   28 ar 
    31   28   29 ar 
    32   29   30 ar 
    33   30   31 ar 
    34   14   32 1  
    35   14   33 1  
    36   15   34 1  
    37   17   35 1  
    38   18   36 1  
    39   19   37 1  
    40   20   38 1  
    41   21   39 1  
    42   23   40 1  
    43   27   41 1  
    44   27   42 1  
    45   29   43 1  
@<TRIPOS>SUBSTRUCTURE
     1 ATP         1

