5xvu_ligand
  -I-interpret- 

 47 49  0  0  0  0  0  0  0  0999 V2000
    1.9550   -4.0100   -6.6880 P   0  0  0  0  0
    0.4110   -4.0030   -6.4570 O   0  0  0  0  0
    2.5580   -2.6720   -6.4320 O   0  0  0  0  0
    2.6490   -5.1140   -5.8040 O   0  0  0  0  0
    2.1630   -5.9600   -8.8110 P   0  0  0  0  0
    0.7160   -6.4050   -9.0950 O   0  0  0  0  0
    2.8280   -6.8950   -7.8720 O   0  0  0  0  0
    2.1480   -4.4930   -8.1950 O   0  0  0  0  0
    3.4790   -6.9380  -11.2540 P   0  0  0  0  0
    2.6560   -8.1700  -11.2190 O   0  0  0  0  0
    4.9940   -7.2760  -11.0430 O   0  0  0  0  0
    2.9820   -5.8770  -10.1730 O   0  0  0  0  0
    3.2560   -6.0900  -12.5940 O   0  0  0  0  0
    1.9620   -5.7560  -13.1410 C   0  0  0  0  0
    1.9450   -6.1020  -14.6100 C   0  0  0  0  0
    3.1040   -5.5320  -15.2550 O   0  0  0  0  0
    2.0080   -7.5900  -14.9310 C   0  0  0  0  0
    0.7320   -8.2200  -14.8410 O   0  0  0  0  0
    2.6360   -7.5980  -16.3280 C   0  0  0  0  0
    1.7190   -7.3840  -17.3940 O   0  0  0  0  0
    3.5980   -6.4120  -16.2490 C   0  0  0  0  0
    4.9860   -6.7720  -15.9540 N   0  0  0  0  0
    5.6290   -6.7560  -14.7430 C   0  0  0  0  0
    6.8750   -7.1650  -14.7930 N   0  0  0  0  0
    7.0690   -7.4660  -16.1320 C   0  0  0  0  0
    8.1850   -7.9530  -16.8470 C   0  0  0  0  0
    9.3830   -8.1680  -16.3010 N   0  0  0  0  0
    8.0340   -8.1750  -18.1740 N   0  0  0  0  0
    6.8510   -7.9070  -18.7430 C   0  0  0  0  0
    5.7380   -7.4270  -18.1780 N   0  0  0  0  0
    5.9120   -7.2300  -16.8600 C   0  0  0  0  0
    0.0586   -4.8789   -6.6309 H   0  0  0  0  0
    2.2462   -5.9666   -5.9842 H   0  0  0  0  0
    0.3058   -5.7864   -9.7039 H   0  0  0  0  0
    5.5081   -6.4657  -11.0692 H   0  0  0  0  0
    1.7726   -4.6903  -13.0123 H   0  0  0  0  0
    1.1869   -6.3197  -12.6217 H   0  0  0  0  0
    0.9913   -5.7089  -14.9621 H   0  0  0  0  0
    2.5920   -8.1777  -14.2227 H   0  0  0  0  0
    0.8213   -9.1525  -15.0508 H   0  0  0  0  0
    3.0795   -8.5684  -16.5513 H   0  0  0  0  0
    2.1911   -7.4040  -18.2296 H   0  0  0  0  0
    3.6324   -5.9486  -17.2350 H   0  0  0  0  0
    5.1477   -6.4321  -13.8202 H   0  0  0  0  0
    9.5332   -7.9788  -15.3100 H   0  0  0  0  0
   10.1488   -8.5216  -16.8745 H   0  0  0  0  0
    6.7870   -8.1076  -19.8125 H   0  0  0  0  0
  1  2  1  0  0  0
  1  3  2  0  0  0
  1  4  1  0  0  0
  8  1  1  0  0  0
  5  6  1  0  0  0
  5  7  2  0  0  0
  5  8  1  0  0  0
 12  5  1  0  0  0
  9 10  2  0  0  0
  9 11  1  0  0  0
  9 12  1  0  0  0
  9 13  1  0  0  0
 13 14  1  0  0  0
 14 15  1  0  0  0
 15 16  1  0  0  0
 15 17  1  0  0  0
 16 21  1  0  0  0
 17 18  1  0  0  0
 17 19  1  0  0  0
 19 20  1  0  0  0
 19 21  1  0  0  0
 21 22  1  0  0  0
 22 23  4  0  0  0
 22 31  4  0  0  0
 23 24  4  0  0  0
 24 25  4  0  0  0
 25 26  4  0  0  0
 25 31  4  0  0  0
 26 27  1  0  0  0
 26 28  4  0  0  0
 28 29  4  0  0  0
 29 30  4  0  0  0
 30 31  4  0  0  0
  2 32  1  0  0  0
  4 33  1  0  0  0
  6 34  1  0  0  0
 11 35  1  0  0  0
 14 36  1  0  0  0
 14 37  1  0  0  0
 15 38  1  0  0  0
 17 39  1  0  0  0
 18 40  1  0  0  0
 19 41  1  0  0  0
 20 42  1  0  0  0
 21 43  1  0  0  0
 23 44  1  0  0  0
 27 45  1  0  0  0
 27 46  1  0  0  0
 29 47  1  0  0  0
M  END
$$$$
