5n16_ligand
  -I-interpret- 

 45 50  0  0  0  0  0  0  0  0999 V2000
  -12.1590   23.9050   12.7390 O   0  0  0  0  0
  -16.7750   30.8040    7.6170 O   0  0  0  0  0
  -13.7930   24.9630   11.6590 N   0  0  0  0  0
  -16.4190   29.5320    7.7970 N   0  0  0  0  0
  -16.6840   35.0010   10.0910 N   0  0  0  0  0
  -17.3290   33.6830    7.7830 N   0  0  0  0  0
   -9.4890   27.0700   12.3240 C   0  0  0  0  0
   -9.9510   28.2860   12.7960 C   0  0  0  0  0
  -11.3020   28.4450   13.1110 C   0  0  0  0  0
  -12.1820   27.3770   12.9540 C   0  0  0  0  0
  -11.7190   26.1620   12.4670 C   0  0  0  0  0
  -10.3710   26.0050   12.1650 C   0  0  0  0  0
  -12.6060   24.9570   12.2890 C   0  0  0  0  0
  -14.3210   26.1160   11.0550 C   0  0  0  0  0
  -14.7760   26.0020    9.7400 C   0  0  0  0  0
  -14.9280   28.4390   11.0450 C   0  0  0  0  0
  -14.4110   27.3480   11.7140 C   0  0  0  0  0
  -15.9410   29.4970    9.0610 C   0  0  0  0  0
  -16.5370   31.5730    8.7050 C   0  0  0  0  0
  -16.7950   33.0210    8.8340 C   0  0  0  0  0
  -15.3240   27.0960    9.0800 C   0  0  0  0  0
  -15.3910   28.3000    9.7440 C   0  0  0  0  0
  -13.8260   27.5580   13.2940 S   0  0  0  0  0
  -15.9870   30.7430    9.6130 N   0  0  0  0  0
  -17.5400   34.9970    7.8840 C   0  0  0  0  0
  -17.2180   35.6580    9.0610 C   0  0  0  0  0
  -16.4600   33.6880   10.0020 C   0  0  0  0  0
  -14.4730   23.6560   11.4960 C   0  0  0  0  0
  -15.1030   23.2530   12.8330 C   0  0  0  0  0
  -15.9820   23.7890   11.7160 C   0  0  0  0  0
   -8.4346   26.9462   12.0768 H   0  0  0  0  0
   -9.2603   29.1197   12.9219 H   0  0  0  0  0
  -11.6674   29.4036   13.4793 H   0  0  0  0  0
  -10.0037   25.0449   11.8026 H   0  0  0  0  0
  -14.7007   25.0443    9.2249 H   0  0  0  0  0
  -14.9727   29.4099   11.5385 H   0  0  0  0  0
  -15.6927   27.0024    8.0585 H   0  0  0  0  0
  -17.9637   35.5490    7.0450 H   0  0  0  0  0
  -17.4042   36.7287    9.1445 H   0  0  0  0  0
  -16.0185   33.1464   10.8386 H   0  0  0  0  0
  -13.8444   23.1833   10.7413 H   0  0  0  0  0
  -14.9396   23.4260   13.8967 H   0  0  0  0  0
  -15.0839   22.4087   13.5221 H   0  0  0  0  0
  -16.9068   23.5194   11.2060 H   0  0  0  0  0
  -16.7624   24.5379   11.5811 H   0  0  0  0  0
 13  1  2  0  0  0
  2  4  4  0  0  0
 19  2  4  0  0  0
  3 13  1  0  0  0
 14  3  1  0  0  0
  3 28  1  0  0  0
 18  4  4  0  0  0
  5 26  4  0  0  0
 27  5  4  0  0  0
 20  6  4  0  0  0
  6 25  4  0  0  0
  8  7  4  0  0  0
 12  7  4  0  0  0
  9  8  4  0  0  0
 10  9  4  0  0  0
 10 11  4  0  0  0
 23 10  1  0  0  0
 11 12  4  0  0  0
 11 13  1  0  0  0
 14 15  4  0  0  0
 17 14  4  0  0  0
 15 21  4  0  0  0
 16 17  4  0  0  0
 22 16  4  0  0  0
 17 23  1  0  0  0
 18 22  1  0  0  0
 24 18  4  0  0  0
 20 19  1  0  0  0
 19 24  4  0  0  0
 20 27  4  0  0  0
 21 22  4  0  0  0
 25 26  4  0  0  0
 28 29  1  0  0  0
 28 30  1  0  0  0
 29 30  1  0  0  0
  7 31  1  0  0  0
  8 32  1  0  0  0
  9 33  1  0  0  0
 12 34  1  0  0  0
 15 35  1  0  0  0
 16 36  1  0  0  0
 21 37  1  0  0  0
 25 38  1  0  0  0
 26 39  1  0  0  0
 27 40  1  0  0  0
 28 41  1  0  0  0
 29 42  1  0  0  0
 29 43  1  0  0  0
 30 44  1  0  0  0
 30 45  1  0  0  0
M  END
$$$$
