5xmv_ligand
  -I-interpret- 

 52 55  0  0  0  0  0  0  0  0999 V2000
   30.1600   43.4620   20.6970 C   0  0  0  0  0
   29.6050   41.7340   22.5770 C   0  0  0  0  0
   30.8030   42.3400   18.6590 C   0  0  0  0  0
   28.6560   45.6020   20.5130 C   0  0  0  0  0
   31.7680   45.1440   19.6120 C   0  0  0  0  0
   34.6120   44.8770   22.8110 C   0  0  0  0  0
   30.1980   40.9510   20.3420 C   0  0  0  0  0
   30.4180   42.1930   19.8600 C   0  0  0  0  0
   31.1580   42.4850   17.5530 N   0  0  0  0  0
   28.9310   44.1630   20.0470 C   0  0  0  0  0
   32.9570   45.8880   19.5730 C   0  0  0  0  0
   32.5980   45.3350   24.7670 Cl  0  0  0  0  0
   34.2760   45.0360   24.2460 C   0  0  0  0  0
   35.2620   44.9660   25.2120 C   0  0  0  0  0
   36.5830   44.7390   24.8320 C   0  0  0  0  0
   36.9200   44.5890   23.4920 C   0  0  0  0  0
   35.9510   44.6460   22.4880 C   0  0  0  0  0
   33.5890   44.9520   21.7240 C   0  0  0  0  0
   33.8530   45.7760   20.6340 C   0  0  0  0  0
   33.3030   46.8300   18.4230 C   0  0  0  0  0
   33.1510   48.0860   18.8230 F   0  0  0  0  0
   32.5370   46.6250   17.3590 F   0  0  0  0  0
   34.5870   46.6800   18.0780 F   0  0  0  0  0
   32.4080   44.1900   21.7430 C   0  0  0  0  0
   31.4600   44.2800   20.6970 C   0  0  0  0  0
   27.6260   43.3530   20.1230 C   0  0  0  0  0
   30.3740   39.8340   19.6500 N   0  0  0  0  0
   29.7910   43.1060   22.1110 C   0  0  0  0  0
   29.5490   43.8690   23.3710 C   0  0  0  0  0
   29.6020   45.3600   23.5970 C   0  0  0  0  0
   29.2720   42.9520   24.3170 N   0  0  0  0  0
   29.2980   41.6070   23.8800 N   0  0  0  0  0
   29.7440   40.7280   21.6890 O   0  0  0  0  0
   27.9041   46.0545   19.8665 H   0  0  0  0  0
   28.2920   45.5866   21.5403 H   0  0  0  0  0
   29.5777   46.1816   20.4614 H   0  0  0  0  0
   31.0610   45.2313   18.7870 H   0  0  0  0  0
   29.2527   44.2183   19.0070 H   0  0  0  0  0
   35.0076   45.0877   26.2649 H   0  0  0  0  0
   37.3604   44.6784   25.5936 H   0  0  0  0  0
   37.9622   44.4234   23.2191 H   0  0  0  0  0
   36.2414   44.5094   21.4463 H   0  0  0  0  0
   34.7815   46.3465   20.6098 H   0  0  0  0  0
   32.2191   43.5171   22.5795 H   0  0  0  0  0
   27.2649   43.3439   21.1514 H   0  0  0  0  0
   26.8770   43.8118   19.4776 H   0  0  0  0  0
   27.8144   42.3312   19.7937 H   0  0  0  0  0
   30.6972   39.8783   18.6836 H   0  0  0  0  0
   30.1863   38.9302   20.0840 H   0  0  0  0  0
   30.6007   45.7268   23.3601 H   0  0  0  0  0
   28.8714   45.8499   22.9534 H   0  0  0  0  0
   29.3721   45.5765   24.6403 H   0  0  0  0  0
  1  8  1  0  0  0
  1 10  1  0  0  0
 25  1  1  0  0  0
  1 28  1  0  0  0
 28  2  4  0  0  0
  2 32  4  0  0  0
  2 33  1  0  0  0
  8  3  1  0  0  0
  3  9  3  0  0  0
 10  4  1  0  0  0
 11  5  4  0  0  0
  5 25  4  0  0  0
  6 13  4  0  0  0
  6 17  4  0  0  0
 18  6  1  0  0  0
  8  7  2  0  0  0
  7 27  1  0  0  0
  7 33  1  0  0  0
 10 26  1  0  0  0
 19 11  4  0  0  0
 11 20  1  0  0  0
 13 12  1  0  0  0
 13 14  4  0  0  0
 14 15  4  0  0  0
 16 15  4  0  0  0
 17 16  4  0  0  0
 18 19  4  0  0  0
 18 24  4  0  0  0
 20 21  1  0  0  0
 20 22  1  0  0  0
 20 23  1  0  0  0
 24 25  4  0  0  0
 28 29  4  0  0  0
 29 30  1  0  0  0
 29 31  4  0  0  0
 31 32  4  0  0  0
  4 34  1  0  0  0
  4 35  1  0  0  0
  4 36  1  0  0  0
  5 37  1  0  0  0
 10 38  1  0  0  0
 14 39  1  0  0  0
 15 40  1  0  0  0
 16 41  1  0  0  0
 17 42  1  0  0  0
 19 43  1  0  0  0
 24 44  1  0  0  0
 26 45  1  0  0  0
 26 46  1  0  0  0
 26 47  1  0  0  0
 27 48  1  0  0  0
 27 49  1  0  0  0
 30 50  1  0  0  0
 30 51  1  0  0  0
 30 52  1  0  0  0
M  END
$$$$
