2ql7_ligand
  -I-interpret- 

 65 65  0  0  0  0  0  0  0  0999 V2000
  -57.8350   28.6660    0.0450 N   0  3  0  0  0
  -56.4110   28.3170   -0.0010 C   0  0  0  0  0
  -56.1200   27.1230   -0.9110 C   0  0  0  0  0
  -56.8550   26.1340   -0.9120 O   0  0  0  0  0
  -55.9180   28.0170    1.4260 C   0  0  0  0  0
  -54.3960   28.1060    1.4690 C   0  0  0  0  0
  -56.3680   26.6240    1.8630 C   0  0  0  0  0
  -53.8510   28.1300    2.8530 C   0  0  0  0  0
  -55.0400   27.2290   -1.6810 N   0  0  0  0  0
  -54.6340   26.1820   -2.6130 C   0  0  0  0  0
  -53.3820   25.4500   -2.1390 C   0  0  0  0  0
  -52.5230   26.0350   -1.4820 O   0  0  0  0  0
  -54.3740   26.7910   -3.9930 C   0  0  0  0  0
  -55.6220   27.2720   -4.7130 C   0  0  0  0  0
  -55.3100   28.2350   -5.8470 C   0  0  0  0  0
  -54.3950   27.9460   -6.6540 O   0  0  0  0  0
  -55.9890   29.2830   -5.9350 O   0  0  0  0  0
  -53.2720   24.1490   -2.4590 N   0  0  0  0  0
  -52.1230   23.3170   -2.0750 C   0  0  0  0  0
  -50.9780   23.3180   -3.1010 C   0  0  0  0  0
  -51.1690   23.6910   -4.2590 O   0  0  0  0  0
  -52.7470   21.9380   -1.9030 C   0  0  0  0  0
  -53.7850   21.9260   -2.9810 C   0  0  0  0  0
  -54.4060   23.3080   -2.8940 C   0  0  0  0  0
  -49.7960   22.8870   -2.6620 N   0  0  0  0  0
  -48.6040   22.8350   -3.5090 C   0  0  0  0  0
  -47.9080   21.4870   -3.4680 C   0  0  0  0  0
  -48.0270   20.8300   -4.7270 O   0  0  0  0  0
  -47.5930   23.8910   -3.0690 C   0  0  0  0  0
  -47.7310   25.1820   -3.8390 C   0  0  0  0  0
  -47.2380   26.2200   -3.3480 O   0  0  0  0  0
  -48.3330   25.1580   -4.9330 O   0  0  0  0  0
  -58.1656   28.8656   -0.8991 H   0  0  0  0  0
  -58.3630   27.8844    0.4333 H   0  0  0  0  0
  -57.9631   29.4898    0.6326 H   0  0  0  0  0
  -55.8787   29.1703   -0.4212 H   0  0  0  0  0
  -56.3450   28.7512    2.1092 H   0  0  0  0  0
  -54.1051   29.0370    0.9826 H   0  0  0  0  0
  -53.9986   27.2210    0.9721 H   0  0  0  0  0
  -55.9438   25.8788    1.1901 H   0  0  0  0  0
  -56.0241   26.4348    2.8799 H   0  0  0  0  0
  -57.4561   26.5680    1.8298 H   0  0  0  0  0
  -54.2478   28.9956    3.3834 H   0  0  0  0  0
  -54.1436   27.2179    3.3732 H   0  0  0  0  0
  -52.7636   28.1940    2.8129 H   0  0  0  0  0
  -54.4738   28.0750   -1.6174 H   0  0  0  0  0
  -55.4463   25.4572   -2.6674 H   0  0  0  0  0
  -53.9312   26.0085   -4.6092 H   0  0  0  0  0
  -53.7361   27.6620   -3.8428 H   0  0  0  0  0
  -56.2446   27.7977   -3.9890 H   0  0  0  0  0
  -56.1187   26.4010   -5.1405 H   0  0  0  0  0
  -54.0051   27.1045   -6.4060 H   0  0  0  0  0
  -51.6310   23.6898   -1.1766 H   0  0  0  0  0
  -53.1585   21.7728   -0.9073 H   0  0  0  0  0
  -52.0260   21.1252   -1.9905 H   0  0  0  0  0
  -54.5177   21.1305   -2.8453 H   0  0  0  0  0
  -53.3623   21.7202   -3.9644 H   0  0  0  0  0
  -54.8417   23.6377   -3.8372 H   0  0  0  0  0
  -55.2530   23.3504   -2.2093 H   0  0  0  0  0
  -49.7187   22.5797   -1.6925 H   0  0  0  0  0
  -48.9521   23.0181   -4.5256 H   0  0  0  0  0
  -47.3908   21.0794   -2.5994 H   0  0  0  0  0
  -46.5937   23.4960   -3.2522 H   0  0  0  0  0
  -47.7708   24.1077   -2.0157 H   0  0  0  0  0
  -46.8249   26.0100   -2.5073 H   0  0  0  0  0
  1  2  1  0  0  0
  2  3  1  0  0  0
  2  5  1  0  0  0
  3  4  2  0  0  0
  3  9  1  0  0  0
  5  6  1  0  0  0
  5  7  1  0  0  0
  6  8  1  0  0  0
  9 10  1  0  0  0
 10 11  1  0  0  0
 10 13  1  0  0  0
 11 12  2  0  0  0
 11 18  1  0  0  0
 13 14  1  0  0  0
 14 15  1  0  0  0
 15 16  1  0  0  0
 15 17  2  0  0  0
 18 19  1  0  0  0
 18 24  1  0  0  0
 19 20  1  0  0  0
 19 22  1  0  0  0
 20 21  2  0  0  0
 20 25  1  0  0  0
 22 23  1  0  0  0
 23 24  1  0  0  0
 25 26  1  0  0  0
 26 27  1  0  0  0
 26 29  1  0  0  0
 27 28  2  0  0  0
 29 30  1  0  0  0
 30 31  1  0  0  0
 30 32  2  0  0  0
  1 33  1  0  0  0
  1 34  1  0  0  0
  1 35  1  0  0  0
  2 36  1  0  0  0
  5 37  1  0  0  0
  6 38  1  0  0  0
  6 39  1  0  0  0
  7 40  1  0  0  0
  7 41  1  0  0  0
  7 42  1  0  0  0
  8 43  1  0  0  0
  8 44  1  0  0  0
  8 45  1  0  0  0
  9 46  1  0  0  0
 10 47  1  0  0  0
 13 48  1  0  0  0
 13 49  1  0  0  0
 14 50  1  0  0  0
 14 51  1  0  0  0
 16 52  1  0  0  0
 19 53  1  0  0  0
 22 54  1  0  0  0
 22 55  1  0  0  0
 23 56  1  0  0  0
 23 57  1  0  0  0
 24 58  1  0  0  0
 24 59  1  0  0  0
 25 60  1  0  0  0
 26 61  1  0  0  0
 27 62  1  0  0  0
 29 63  1  0  0  0
 29 64  1  0  0  0
 31 65  1  0  0  0
M  END
$$$$
