5w6i_ligand
  -I-interpret- 

204209  0  0  0  0  0  0  0  0999 V2000
  -22.8470  -52.4910  -23.5610 C   0  0  0  0  0
  -22.6030  -53.3980  -22.7720 O   0  0  0  0  0
  -21.7310  -51.7370  -24.2660 C   0  0  0  0  0
  -25.9280  -53.4870  -24.2620 C   0  0  0  0  0
  -24.0340  -52.0720  -23.8310 N   0  0  0  0  0
  -25.7260  -53.3550  -25.4520 O   0  0  0  0  0
  -25.1630  -52.6660  -23.2350 C   0  0  0  0  0
  -25.8160  -51.4320  -22.8260 C   0  0  0  0  0
  -28.6070  -50.5140  -21.7690 C   0  0  0  0  0
  -27.0500  -51.8690  -22.2130 C   0  0  0  0  0
  -28.0140  -50.9510  -22.8550 C   0  0  0  0  0
  -29.8360  -49.7750  -19.5820 C   0  0  0  0  0
  -29.7010  -51.2120  -21.4100 C   0  0  0  0  0
  -28.0920  -49.4760  -21.0630 C   0  0  0  0  0
  -30.3490  -50.8400  -20.2740 C   0  0  0  0  0
  -28.7120  -49.0780  -19.9300 C   0  0  0  0  0
  -26.8260  -54.3120  -23.7320 N   0  0  0  0  0
  -27.6030  -55.2510  -24.5300 C   0  0  0  0  0
  -27.0920  -56.6120  -24.1860 C   0  0  0  0  0
  -25.8470  -56.9520  -24.9390 C   0  0  0  0  0
  -26.1980  -57.9710  -25.9780 C   0  0  0  0  0
  -24.9980  -58.4030  -26.6890 N   0  0  0  0  0
  -28.9050  -55.2850  -24.1310 C   0  0  0  0  0
  -29.2070  -55.1940  -22.9550 O   0  0  0  0  0
  -29.8850  -55.5370  -25.0550 N   0  0  0  0  0
  -31.2690  -55.6500  -24.6430 C   0  0  0  0  0
  -31.5300  -56.9910  -24.7010 C   0  0  0  0  0
  -31.6120  -57.5640  -25.7760 O   0  0  0  0  0
  -32.1380  -54.9190  -25.6340 C   0  0  0  0  0
  -31.6680  -53.4920  -25.7130 C   0  0  0  0  0
  -32.4690  -52.7650  -26.7640 C   0  0  0  0  0
  -31.9380  -52.8450  -24.3770 C   0  0  0  0  0
  -31.6180  -57.7330  -23.5420 N   0  0  0  0  0
  -31.8190  -59.1760  -23.6170 C   0  0  0  0  0
  -33.1510  -59.3770  -23.4410 C   0  0  0  0  0
  -33.6420  -59.5500  -22.3320 O   0  0  0  0  0
  -30.9700  -59.8440  -22.5510 C   0  0  0  0  0
  -29.5650  -59.2990  -22.6580 C   0  0  0  0  0
  -28.6260  -60.2280  -21.9330 C   0  0  0  0  0
  -28.2640  -61.2420  -22.5520 O   0  0  0  0  0
  -28.2900  -59.9010  -20.7810 O   0  0  0  0  0
  -33.9490  -59.3010  -24.5500 N   0  0  0  0  0
  -35.3880  -59.3970  -24.3840 C   0  0  0  0  0
  -35.8520  -60.6190  -24.7450 C   0  0  0  0  0
  -36.9340  -61.0180  -24.3390 O   0  0  0  0  0
  -36.0310  -58.2800  -25.1950 C   0  0  0  0  0
  -35.7560  -56.9860  -24.7320 C   0  0  0  0  0
  -35.1090  -56.6930  -23.5410 C   0  0  0  0  0
  -36.1610  -55.9320  -25.5170 C   0  0  0  0  0
  -34.8850  -55.3880  -23.1620 C   0  0  0  0  0
  -35.9430  -54.6260  -25.1360 C   0  0  0  0  0
  -35.3010  -54.3590  -23.9600 C   0  0  0  0  0
  -35.0830  -53.0940  -23.5860 O   0  0  0  0  0
  -35.0850  -61.4140  -25.5540 N   0  0  0  0  0
  -35.5750  -62.7350  -25.9240 C   0  0  0  0  0
  -34.5040  -63.5910  -25.8150 C   0  0  0  0  0
  -33.3590  -63.1700  -25.8880 O   0  0  0  0  0
  -36.1110  -62.6660  -27.3220 C   0  0  0  0  0
  -37.1200  -61.7290  -27.3460 C   0  0  0  0  0
  -38.2320  -61.8770  -26.5500 C   0  0  0  0  0
  -37.0240  -60.6380  -28.1710 C   0  0  0  0  0
  -39.2430  -60.9410  -26.5880 C   0  0  0  0  0
  -38.0330  -59.6980  -28.2050 C   0  0  0  0  0
  -39.1450  -59.8490  -27.4180 C   0  0  0  0  0
  -34.7130  -64.9200  -25.5690 N   0  0  0  0  0
  -33.5770  -65.8000  -25.3240 C   0  0  0  0  0
  -32.8680  -66.1900  -26.4300 C   0  0  0  0  0
  -31.8870  -66.9050  -26.2700 O   0  0  0  0  0
  -34.0830  -67.0230  -24.5800 C   0  0  0  0  0
  -33.7350  -66.8580  -23.1000 C   0  0  0  0  0
  -34.9370  -67.1420  -22.1940 C   0  0  0  0  0
  -36.0620  -66.8150  -22.6130 O   0  0  0  0  0
  -34.6960  -67.6680  -21.0910 O   0  0  0  0  0
  -33.2170  -65.7850  -27.6990 N   0  0  0  0  0
  -32.4580  -66.3110  -28.8400 C   0  0  0  0  0
  -31.8120  -65.3380  -29.5190 C   0  0  0  0  0
  -31.2290  -65.5920  -30.5560 O   0  0  0  0  0
  -33.4290  -66.9650  -29.7900 C   0  0  0  0  0
  -34.5750  -66.0220  -30.0960 C   0  0  0  0  0
  -35.7110  -65.9520  -29.4530 C   0  0  0  0  0
  -34.5770  -65.1630  -31.0740 C   0  0  0  0  0
  -36.4250  -65.0140  -30.0400 N   0  0  0  0  0
  -35.7240  -64.5380  -31.0390 C   0  0  0  0  0
  -33.6670  -64.8820  -31.9800 C   0  0  0  0  0
  -35.9950  -63.6030  -31.9180 C   0  0  0  0  0
  -33.8880  -63.9090  -32.9320 C   0  0  0  0  0
  -35.0890  -63.2550  -32.8970 C   0  0  0  0  0
  -31.7950  -64.0590  -29.0330 N   0  0  0  0  0
  -31.1490  -62.9960  -29.8020 C   0  0  0  0  0
  -29.8600  -63.3210  -30.0270 C   0  0  0  0  0
  -29.3530  -64.2200  -29.3880 O   0  0  0  0  0
  -31.2010  -61.7050  -29.0480 C   0  0  0  0  0
  -32.6270  -61.4920  -28.6390 C   0  0  0  0  0
  -32.6880  -60.2470  -27.7790 C   0  0  0  0  0
  -33.4240  -61.2720  -29.8990 C   0  0  0  0  0
  -29.1540  -62.6450  -30.9990 N   0  0  0  0  0
  -27.7940  -63.0640  -31.3100 C   0  0  0  0  0
  -26.8690  -62.5490  -30.4570 C   0  0  0  0  0
  -25.6870  -62.7410  -30.6950 O   0  0  0  0  0
  -27.4410  -62.7140  -32.7530 C   0  0  0  0  0
  -26.9320  -61.3940  -32.8950 O   0  0  0  0  0
  -27.2370  -61.7860  -29.3670 N   0  0  0  0  0
  -26.1690  -61.2650  -28.4810 C   0  0  0  0  0
  -26.2990  -59.7760  -28.1870 C   0  0  0  0  0
  -25.0800  -59.2810  -27.7530 C   0  0  0  0  0
  -24.0390  -59.6080  -28.3040 O   0  0  0  0  0
  -21.0916  -51.2593  -23.5237 H   0  0  0  0  0
  -21.1413  -52.4352  -24.8600 H   0  0  0  0  0
  -22.1627  -50.9777  -24.9180 H   0  0  0  0  0
  -24.1583  -51.2995  -24.4853 H   0  0  0  0  0
  -25.0152  -53.3856  -22.4298 H   0  0  0  0  0
  -25.9901  -50.7609  -23.6671 H   0  0  0  0  0
  -25.2007  -50.8490  -22.1407 H   0  0  0  0  0
  -27.0470  -51.8196  -21.1241 H   0  0  0  0  0
  -27.2725  -52.9250  -22.3661 H   0  0  0  0  0
  -27.5751  -50.1814  -23.4900 H   0  0  0  0  0
  -28.6714  -51.4065  -23.5956 H   0  0  0  0  0
  -30.3652  -49.4581  -18.6833 H   0  0  0  0  0
  -30.0560  -52.0490  -22.0112 H   0  0  0  0  0
  -27.1896  -48.9695  -21.4054 H   0  0  0  0  0
  -31.2386  -51.3667  -19.9288 H   0  0  0  0  0
  -28.3379  -48.2496  -19.3285 H   0  0  0  0  0
  -26.9773  -54.2863  -22.7236 H   0  0  0  0  0
  -27.5243  -54.9655  -25.5790 H   0  0  0  0  0
  -27.8589  -57.3400  -24.4507 H   0  0  0  0  0
  -26.8605  -56.6290  -23.1210 H   0  0  0  0  0
  -25.0934  -57.3509  -24.2599 H   0  0  0  0  0
  -25.4368  -56.0592  -25.4109 H   0  0  0  0  0
  -26.8939  -57.5280  -26.6904 H   0  0  0  0  0
  -26.6534  -58.8335  -25.4913 H   0  0  0  0  0
  -24.0863  -58.0517  -26.3962 H   0  0  0  0  0
  -29.6384  -55.6456  -26.0388 H   0  0  0  0  0
  -31.4578  -55.2307  -23.6548 H   0  0  0  0  0
  -33.1793  -54.9522  -25.3136 H   0  0  0  0  0
  -32.0657  -55.3910  -26.6138 H   0  0  0  0  0
  -30.6078  -53.4530  -25.9631 H   0  0  0  0  0
  -32.3269  -53.2520  -27.7287 H   0  0  0  0  0
  -33.5251  -52.7891  -26.4954 H   0  0  0  0  0
  -32.1318  -51.7303  -26.8248 H   0  0  0  0  0
  -33.0069  -52.8814  -24.1665 H   0  0  0  0  0
  -31.3947  -53.3810  -23.5988 H   0  0  0  0  0
  -31.6068  -51.8069  -24.4039 H   0  0  0  0  0
  -31.5427  -57.2739  -22.6343 H   0  0  0  0  0
  -31.5135  -59.6085  -24.5697 H   0  0  0  0  0
  -30.9655  -60.9241  -22.6973 H   0  0  0  0  0
  -31.3784  -59.6368  -21.5619 H   0  0  0  0  0
  -29.5195  -58.3059  -22.2111 H   0  0  0  0  0
  -29.2761  -59.2269  -23.7065 H   0  0  0  0  0
  -28.7153  -59.0726  -20.5478 H   0  0  0  0  0
  -33.5402  -59.1791  -25.4765 H   0  0  0  0  0
  -35.6492  -59.2801  -23.3322 H   0  0  0  0  0
  -37.1099  -58.4188  -25.1258 H   0  0  0  0  0
  -35.6262  -58.3480  -26.2048 H   0  0  0  0  0
  -34.7735  -57.5057  -22.8967 H   0  0  0  0  0
  -36.6657  -56.1343  -26.4617 H   0  0  0  0  0
  -34.3744  -55.1750  -22.2228 H   0  0  0  0  0
  -36.2820  -53.8078  -25.7714 H   0  0  0  0  0
  -34.6247  -53.0853  -22.7425 H   0  0  0  0  0
  -34.1812  -61.0851  -25.8936 H   0  0  0  0  0
  -36.3837  -63.0878  -25.2840 H   0  0  0  0  0
  -36.4945  -63.6398  -27.6264 H   0  0  0  0  0
  -35.3187  -62.3836  -28.0153 H   0  0  0  0  0
  -38.3140  -62.7379  -25.8865 H   0  0  0  0  0
  -36.1453  -60.5128  -28.8036 H   0  0  0  0  0
  -40.1234  -61.0668  -25.9578 H   0  0  0  0  0
  -37.9456  -58.8315  -28.8605 H   0  0  0  0  0
  -39.9451  -59.1095  -27.4498 H   0  0  0  0  0
  -35.6617  -65.2946  -25.5570 H   0  0  0  0  0
  -32.8632  -65.2167  -24.7423 H   0  0  0  0  0
  -33.6155  -67.9239  -24.9772 H   0  0  0  0  0
  -35.1618  -67.1176  -24.7035 H   0  0  0  0  0
  -33.4202  -65.8274  -22.9363 H   0  0  0  0  0
  -32.9464  -67.5689  -22.8535 H   0  0  0  0  0
  -33.7517  -67.8206  -21.0100 H   0  0  0  0  0
  -33.9876  -65.1325  -27.8433 H   0  0  0  0  0
  -31.7167  -67.0109  -28.4542 H   0  0  0  0  0
  -33.8245  -67.8704  -29.3296 H   0  0  0  0  0
  -32.9112  -67.2108  -30.7171 H   0  0  0  0  0
  -36.0100  -66.5546  -28.5953 H   0  0  0  0  0
  -32.7228  -65.4266  -31.9788 H   0  0  0  0  0
  -36.9561  -63.0907  -31.8735 H   0  0  0  0  0
  -33.1350  -63.6704  -33.6831 H   0  0  0  0  0
  -35.3237  -62.4783  -33.6249 H   0  0  0  0  0
  -32.2321  -63.8474  -28.1360 H   0  0  0  0  0
  -31.6755  -62.8808  -30.7494 H   0  0  0  0  0
  -30.8516  -60.8811  -29.6703 H   0  0  0  0  0
  -30.5511  -61.7431  -28.1737 H   0  0  0  0  0
  -33.0206  -62.3423  -28.0820 H   0  0  0  0  0
  -32.0603  -60.3841  -26.8985 H   0  0  0  0  0
  -32.3294  -59.3926  -28.3530 H   0  0  0  0  0
  -33.7180  -60.0714  -27.4687 H   0  0  0  0  0
  -33.0397  -60.3964  -30.4222 H   0  0  0  0  0
  -33.3355  -62.1484  -30.5410 H   0  0  0  0  0
  -34.4712  -61.1127  -29.6418 H   0  0  0  0  0
  -29.5787  -61.8610  -31.4944 H   0  0  0  0  0
  -27.7674  -64.1463  -31.1836 H   0  0  0  0  0
  -28.3537  -62.7837  -33.3447 H   0  0  0  0  0
  -26.6664  -63.4062  -33.0830 H   0  0  0  0  0
  -26.7277  -61.2286  -33.8183 H   0  0  0  0  0
  -28.2188  -61.5859  -29.1762 H   0  0  0  0  0
  -26.2426  -61.7949  -27.5313 H   0  0  0  0  0
  -25.2170  -61.4174  -28.9895 H   0  0  0  0  0
  -27.0492  -59.6237  -27.4111 H   0  0  0  0  0
  -26.6009  -59.2523  -29.0940 H   0  0  0  0  0
  1  2  2  0  0  0
  1  3  1  0  0  0
  4  6  2  0  0  0
  4  7  1  0  0  0
  7  5  1  0  0  0
  7  8  1  0  0  0
  8 10  1  0  0  0
 11  9  1  0  0  0
  9 13  4  0  0  0
  9 14  4  0  0  0
 10 11  1  0  0  0
 15 12  4  0  0  0
 16 12  4  0  0  0
 13 15  4  0  0  0
 14 16  4  0  0  0
  5  1  1  0  0  0
 18 17  1  0  0  0
 18 19  1  0  0  0
 23 18  1  0  0  0
 23 24  2  0  0  0
 19 20  1  0  0  0
 20 21  1  0  0  0
 21 22  1  0  0  0
 17  4  1  0  0  0
 26 25  1  0  0  0
 26 29  1  0  0  0
 27 26  1  0  0  0
 27 28  2  0  0  0
 29 30  1  0  0  0
 30 31  1  0  0  0
 30 32  1  0  0  0
 25 23  1  0  0  0
 34 33  1  0  0  0
 34 37  1  0  0  0
 35 34  1  0  0  0
 35 36  2  0  0  0
 37 38  1  0  0  0
 38 39  1  0  0  0
 39 41  1  0  0  0
 39 40  2  0  0  0
 33 27  1  0  0  0
 43 42  1  0  0  0
 43 46  1  0  0  0
 44 43  1  0  0  0
 44 45  2  0  0  0
 46 47  1  0  0  0
 47 48  4  0  0  0
 47 49  4  0  0  0
 49 51  4  0  0  0
 51 52  4  0  0  0
 52 53  1  0  0  0
 50 52  4  0  0  0
 48 50  4  0  0  0
 42 35  1  0  0  0
 55 54  1  0  0  0
 55 58  1  0  0  0
 56 55  1  0  0  0
 56 57  2  0  0  0
 58 59  1  0  0  0
 59 60  4  0  0  0
 59 61  4  0  0  0
 61 63  4  0  0  0
 63 64  4  0  0  0
 62 64  4  0  0  0
 60 62  4  0  0  0
 54 44  1  0  0  0
 66 65  1  0  0  0
 66 69  1  0  0  0
 67 66  1  0  0  0
 67 68  2  0  0  0
 69 70  1  0  0  0
 70 71  1  0  0  0
 71 73  1  0  0  0
 71 72  2  0  0  0
 65 56  1  0  0  0
 75 74  1  0  0  0
 75 78  1  0  0  0
 76 75  1  0  0  0
 76 77  2  0  0  0
 78 79  1  0  0  0
 79 80  4  0  0  0
 79 81  4  0  0  0
 81 84  4  0  0  0
 81 83  4  0  0  0
 83 85  4  0  0  0
 83 82  4  0  0  0
 80 82  4  0  0  0
 85 87  4  0  0  0
 86 87  4  0  0  0
 84 86  4  0  0  0
 74 67  1  0  0  0
 89 88  1  0  0  0
 89 92  1  0  0  0
 90 89  1  0  0  0
 90 91  2  0  0  0
 92 93  1  0  0  0
 93 94  1  0  0  0
 93 95  1  0  0  0
 88 76  1  0  0  0
 97 96  1  0  0  0
 97100  1  0  0  0
 98 97  1  0  0  0
 98 99  2  0  0  0
100101  1  0  0  0
 96 90  1  0  0  0
103104  1  0  0  0
102103  1  0  0  0
104105  1  0  0  0
105106  2  0  0  0
 98102  1  0  0  0
105 22  1  0  0  0
  3107  1  0  0  0
  3108  1  0  0  0
  3109  1  0  0  0
  5110  1  0  0  0
  7111  1  0  0  0
  8112  1  0  0  0
  8113  1  0  0  0
 10114  1  0  0  0
 10115  1  0  0  0
 11116  1  0  0  0
 11117  1  0  0  0
 12118  1  0  0  0
 13119  1  0  0  0
 14120  1  0  0  0
 15121  1  0  0  0
 16122  1  0  0  0
 17123  1  0  0  0
 18124  1  0  0  0
 19125  1  0  0  0
 19126  1  0  0  0
 20127  1  0  0  0
 20128  1  0  0  0
 21129  1  0  0  0
 21130  1  0  0  0
 22131  1  0  0  0
 25132  1  0  0  0
 26133  1  0  0  0
 29134  1  0  0  0
 29135  1  0  0  0
 30136  1  0  0  0
 31137  1  0  0  0
 31138  1  0  0  0
 31139  1  0  0  0
 32140  1  0  0  0
 32141  1  0  0  0
 32142  1  0  0  0
 33143  1  0  0  0
 34144  1  0  0  0
 37145  1  0  0  0
 37146  1  0  0  0
 38147  1  0  0  0
 38148  1  0  0  0
 41149  1  0  0  0
 42150  1  0  0  0
 43151  1  0  0  0
 46152  1  0  0  0
 46153  1  0  0  0
 48154  1  0  0  0
 49155  1  0  0  0
 50156  1  0  0  0
 51157  1  0  0  0
 53158  1  0  0  0
 54159  1  0  0  0
 55160  1  0  0  0
 58161  1  0  0  0
 58162  1  0  0  0
 60163  1  0  0  0
 61164  1  0  0  0
 62165  1  0  0  0
 63166  1  0  0  0
 64167  1  0  0  0
 65168  1  0  0  0
 66169  1  0  0  0
 69170  1  0  0  0
 69171  1  0  0  0
 70172  1  0  0  0
 70173  1  0  0  0
 73174  1  0  0  0
 74175  1  0  0  0
 75176  1  0  0  0
 78177  1  0  0  0
 78178  1  0  0  0
 80179  1  0  0  0
 84180  1  0  0  0
 85181  1  0  0  0
 86182  1  0  0  0
 87183  1  0  0  0
 88184  1  0  0  0
 89185  1  0  0  0
 92186  1  0  0  0
 92187  1  0  0  0
 93188  1  0  0  0
 94189  1  0  0  0
 94190  1  0  0  0
 94191  1  0  0  0
 95192  1  0  0  0
 95193  1  0  0  0
 95194  1  0  0  0
 96195  1  0  0  0
 97196  1  0  0  0
100197  1  0  0  0
100198  1  0  0  0
101199  1  0  0  0
102200  1  0  0  0
103201  1  0  0  0
103202  1  0  0  0
104203  1  0  0  0
104204  1  0  0  0
M  END
$$$$
