### 
### Created by X-TOOL on Mon Sep 10 21:13:33 2018
### 

@<TRIPOS>MOLECULE
5w6i_ligand
  203   208     1     0     0
SMALL
GAST_HUCK


@<TRIPOS>ATOM
      1 C         -22.8470  -52.4910  -23.5610 C.2       1 ACE         0.1751
      2 O         -22.6030  -53.3980  -22.7720 O.2       1 ACE        -0.3972
      3 CH3       -21.7310  -51.7370  -24.2660 C.3       1 ACE         0.0258
      4 C         -25.9280  -53.4870  -24.2620 C.2       1 PH8         0.2039
      5 N         -24.0340  -52.0720  -23.8310 N.am      1 PH8        -0.2658
      6 O         -25.7260  -53.3550  -25.4520 O.2       1 PH8        -0.3944
      7 CA        -25.1630  -52.6660  -23.2350 C.3       1 PH8         0.1310
      8 CB        -25.8160  -51.4320  -22.8260 C.3       1 PH8        -0.0106
      9 CG        -28.6070  -50.5140  -21.7690 C.ar      1 PH8        -0.0430
     10 CI        -27.0500  -51.8690  -22.2130 C.3       1 PH8        -0.0390
     11 CJ        -28.0140  -50.9510  -22.8550 C.3       1 PH8        -0.0189
     12 CZ        -29.8360  -49.7750  -19.5820 C.ar      1 PH8        -0.0687
     13 CD1       -29.7010  -51.2120  -21.4100 C.ar      1 PH8        -0.0603
     14 CD2       -28.0920  -49.4760  -21.0630 C.ar      1 PH8        -0.0603
     15 CE1       -30.3490  -50.8400  -20.2740 C.ar      1 PH8        -0.0686
     16 CE2       -28.7120  -49.0780  -19.9300 C.ar      1 PH8        -0.0686
     17 N         -26.8260  -54.3120  -23.7320 N.am      1 ORN        -0.2637
     18 CA        -27.6030  -55.2510  -24.5300 C.3       1 ORN         0.1310
     19 CB        -27.0920  -56.6120  -24.1860 C.3       1 ORN        -0.0106
     20 CG        -25.8470  -56.9520  -24.9390 C.3       1 ORN        -0.0285
     21 CD        -26.1980  -57.9710  -25.9780 C.3       1 ORN         0.0311
     22 NE        -24.9980  -58.4030  -26.6890 N.am      1 ORN        -0.2869
     23 C         -28.9050  -55.2850  -24.1310 C.2       1 ORN         0.2039
     24 O         -29.2070  -55.1940  -22.9550 O.2       1 ORN        -0.3944
     25 N         -29.8850  -55.5370  -25.0550 N.am      1 LEU        -0.2637
     26 CA        -31.2690  -55.6500  -24.6430 C.3       1 LEU         0.1312
     27 C         -31.5300  -56.9910  -24.7010 C.2       1 LEU         0.2039
     28 O         -31.6120  -57.5640  -25.7760 O.2       1 LEU        -0.3944
     29 CB        -32.1380  -54.9190  -25.6340 C.3       1 LEU        -0.0101
     30 CG        -31.6680  -53.4920  -25.7130 C.3       1 LEU        -0.0425
     31 CD1       -32.4690  -52.7650  -26.7640 C.3       1 LEU        -0.0625
     32 CD2       -31.9380  -52.8450  -24.3770 C.3       1 LEU        -0.0625
     33 N         -31.6180  -57.7330  -23.5420 N.am      1 GLU        -0.2636
     34 CA        -31.8190  -59.1760  -23.6170 C.3       1 GLU         0.1325
     35 C         -33.1510  -59.3770  -23.4410 C.2       1 GLU         0.2041
     36 O         -33.6420  -59.5500  -22.3320 O.2       1 GLU        -0.3944
     37 CB        -30.9700  -59.8440  -22.5510 C.3       1 GLU        -0.0008
     38 CG        -29.5650  -59.2990  -22.6580 C.3       1 GLU         0.0044
     39 CD        -28.6260  -60.2280  -21.9330 C.2       1 GLU         0.0350
     40 OE1       -28.2640  -61.2420  -22.5520 O.co2     1 GLU        -0.5690
     41 OE2       -28.2900  -59.9010  -20.7810 O.co2     1 GLU        -0.5690
     42 N         -33.9490  -59.3010  -24.5500 N.am      1 TYR        -0.2621
     43 CA        -35.3880  -59.3970  -24.3840 C.3       1 TYR         0.1390
     44 C         -35.8520  -60.6190  -24.7450 C.2       1 TYR         0.2059
     45 O         -36.9340  -61.0180  -24.3390 O.2       1 TYR        -0.3942
     46 CB        -36.0310  -58.2800  -25.1950 C.3       1 TYR         0.0163
     47 CG        -35.7560  -56.9860  -24.7320 C.ar      1 TYR        -0.0493
     48 CD1       -35.1090  -56.6930  -23.5410 C.ar      1 TYR        -0.0685
     49 CD2       -36.1610  -55.9320  -25.5170 C.ar      1 TYR        -0.0685
     50 CE1       -34.8850  -55.3880  -23.1620 C.ar      1 TYR        -0.0398
     51 CE2       -35.9430  -54.6260  -25.1360 C.ar      1 TYR        -0.0398
     52 CZ        -35.3010  -54.3590  -23.9600 C.ar      1 TYR         0.0805
     53 OH        -35.0830  -53.0940  -23.5860 O.3       1 TYR        -0.3376
     54 N         -35.0850  -61.4140  -25.5540 N.am      1 PHE        -0.2618
     55 CA        -35.5750  -62.7350  -25.9240 C.3       1 PHE         0.1404
     56 C         -34.5040  -63.5910  -25.8150 C.2       1 PHE         0.2060
     57 O         -33.3590  -63.1700  -25.8880 O.2       1 PHE        -0.3942
     58 CB        -36.1110  -62.6660  -27.3220 C.3       1 PHE         0.0214
     59 CG        -37.1200  -61.7290  -27.3460 C.ar      1 PHE        -0.0386
     60 CD1       -38.2320  -61.8770  -26.5500 C.ar      1 PHE        -0.0601
     61 CD2       -37.0240  -60.6380  -28.1710 C.ar      1 PHE        -0.0601
     62 CE1       -39.2430  -60.9410  -26.5880 C.ar      1 PHE        -0.0686
     63 CE2       -38.0330  -59.6980  -28.2050 C.ar      1 PHE        -0.0686
     64 CZ        -39.1450  -59.8490  -27.4180 C.ar      1 PHE        -0.0687
     65 N         -34.7130  -64.9200  -25.5690 N.am      1 GLU        -0.2635
     66 CA        -33.5770  -65.8000  -25.3240 C.3       1 GLU         0.1325
     67 C         -32.8680  -66.1900  -26.4300 C.2       1 GLU         0.2041
     68 O         -31.8870  -66.9050  -26.2700 O.2       1 GLU        -0.3944
     69 CB        -34.0830  -67.0230  -24.5800 C.3       1 GLU        -0.0008
     70 CG        -33.7350  -66.8580  -23.1000 C.3       1 GLU         0.0044
     71 CD        -34.9370  -67.1420  -22.1940 C.2       1 GLU         0.0350
     72 OE1       -36.0620  -66.8150  -22.6130 O.co2     1 GLU        -0.5690
     73 OE2       -34.6960  -67.6680  -21.0910 O.co2     1 GLU        -0.5690
     74 N         -33.2170  -65.7850  -27.6990 N.am      1 TRP        -0.2627
     75 CA        -32.4580  -66.3110  -28.8400 C.3       1 TRP         0.1352
     76 C         -31.8120  -65.3380  -29.5190 C.2       1 TRP         0.2052
     77 O         -31.2290  -65.5920  -30.5560 O.2       1 TRP        -0.3942
     78 CB        -33.4290  -66.9650  -29.7900 C.3       1 TRP         0.0042
     79 CG        -34.5750  -66.0220  -30.0960 C.2       1 TRP        -0.0418
     80 CD1       -35.7110  -65.9520  -29.4530 C.2       1 TRP         0.0167
     81 CD2       -34.5770  -65.1630  -31.0740 C.ar      1 TRP        -0.0214
     82 NE1       -36.4250  -65.0140  -30.0400 N.pl3     1 TRP        -0.2890
     83 CE2       -35.7240  -64.5380  -31.0390 C.ar      1 TRP         0.0603
     84 CE3       -33.6670  -64.8820  -31.9800 C.ar      1 TRP        -0.0747
     85 CZ2       -35.9950  -63.6030  -31.9180 C.ar      1 TRP        -0.0443
     86 CZ3       -33.8880  -63.9090  -32.9320 C.ar      1 TRP        -0.0792
     87 CH2       -35.0890  -63.2550  -32.8970 C.ar      1 TRP        -0.0768
     88 N         -31.7950  -64.0590  -29.0330 N.am      1 LEU        -0.2636
     89 CA        -31.1490  -62.9960  -29.8020 C.3       1 LEU         0.1312
     90 C         -29.8600  -63.3210  -30.0270 C.2       1 LEU         0.2040
     91 O         -29.3530  -64.2200  -29.3880 O.2       1 LEU        -0.3944
     92 CB        -31.2010  -61.7050  -29.0480 C.3       1 LEU        -0.0101
     93 CG        -32.6270  -61.4920  -28.6390 C.3       1 LEU        -0.0425
     94 CD1       -32.6880  -60.2470  -27.7790 C.3       1 LEU        -0.0625
     95 CD2       -33.4240  -61.2720  -29.8990 C.3       1 LEU        -0.0625
     96 N         -29.1540  -62.6450  -30.9990 N.am      1 SER        -0.2616
     97 CA        -27.7940  -63.0640  -31.3100 C.3       1 SER         0.1538
     98 C         -26.8690  -62.5490  -30.4570 C.2       1 SER         0.2041
     99 O         -25.6870  -62.7410  -30.6950 O.2       1 SER        -0.3944
    100 CB        -27.4410  -62.7140  -32.7530 C.3       1 SER         0.0843
    101 OG        -26.9320  -61.3940  -32.8950 O.3       1 SER        -0.3903
    102 N         -27.2370  -61.7860  -29.3670 N.am      1 BAL        -0.2827
    103 CB        -26.1690  -61.2650  -28.4810 C.3       1 BAL         0.0477
    104 CA        -26.2990  -59.7760  -28.1870 C.3       1 BAL         0.0574
    105 C         -25.0800  -59.2810  -27.7530 C.2       1 BAL         0.1779
    106 O         -24.0390  -59.6080  -28.3040 O.2       1 BAL        -0.3970
    107 H1        -22.1655  -50.9704  -24.9244 H         1 ACE         0.0467
    108 H2        -21.1351  -52.4406  -24.8659 H         1 ACE         0.0467
    109 H3        -21.0849  -51.2544  -23.5179 H         1 ACE         0.0467
    110 H4        -24.1558  -51.3146  -24.4725 H         1 PH8         0.1882
    111 H5        -24.9097  -53.3018  -22.3739 H         1 PH8         0.0800
    112 H6        -26.0188  -50.7910  -23.6966 H         1 PH8         0.0314
    113 H7        -25.1946  -50.8830  -22.1032 H         1 PH8         0.0314
    114 H8        -27.0295  -51.7366  -21.1212 H         1 PH8         0.0289
    115 H9        -27.2709  -52.9200  -22.4508 H         1 PH8         0.0289
    116 H10       -27.5134  -50.1434  -23.4093 H         1 PH8         0.0426
    117 H11       -28.7088  -51.4793  -23.5244 H         1 PH8         0.0426
    118 H12       -30.3623  -49.4599  -18.6883 H         1 PH8         0.0559
    119 H13       -30.0541  -52.0444  -22.0079 H         1 PH8         0.0557
    120 H14       -27.1945  -48.9723  -21.4035 H         1 PH8         0.0557
    121 H15       -31.2337  -51.3638  -19.9307 H         1 PH8         0.0599
    122 H16       -28.3400  -48.2541  -19.3318 H         1 PH8         0.0599
    123 H17       -26.9743  -54.2868  -22.7434 H         1 ORN         0.1883
    124 H18       -27.5154  -55.0246  -25.6029 H         1 ORN         0.0800
    125 H19       -27.8671  -57.3537  -24.4289 H         1 ORN         0.0313
    126 H20       -26.8754  -56.6476  -23.1081 H         1 ORN         0.0313
    127 H21       -25.0953  -57.3650  -24.2503 H         1 ORN         0.0287
    128 H22       -25.4449  -56.0494  -25.4224 H         1 ORN         0.0287
    129 H23       -26.9055  -57.5294  -26.6951 H         1 ORN         0.0520
    130 H24       -26.6641  -58.8403  -25.4910 H         1 ORN         0.0520
    131 H25       -24.1041  -58.0586  -26.4019 H         1 ORN         0.1850
    132 H26       -29.6432  -55.6435  -26.0195 H         1 LEU         0.1883
    133 H27       -31.4234  -55.2535  -23.6287 H         1 LEU         0.0800
    134 H28       -33.1861  -54.9473  -25.3014 H         1 LEU         0.0315
    135 H29       -32.0542  -55.3933  -26.6229 H         1 LEU         0.0315
    136 H30       -30.5954  -53.4524  -25.9536 H         1 LEU         0.0298
    137 H31       -32.1296  -51.7205  -26.8263 H         1 LEU         0.0232
    138 H32       -33.5351  -52.7886  -26.4940 H         1 LEU         0.0232
    139 H33       -32.3265  -53.2555  -27.7382 H         1 LEU         0.0232
    140 H34       -31.3615  -53.3623  -23.5959 H         1 LEU         0.0232
    141 H35       -33.0114  -52.9136  -24.1466 H         1 LEU         0.0232
    142 H36       -31.6378  -51.7874  -24.4144 H         1 LEU         0.0232
    143 H37       -31.5442  -57.2829  -22.6521 H         1 GLU         0.1883
    144 H38       -31.5171  -59.5549  -24.6045 H         1 GLU         0.0801
    145 H39       -30.9605  -60.9324  -22.7101 H         1 GLU         0.0330
    146 H40       -31.3806  -59.6226  -21.5548 H         1 GLU         0.0330
    147 H41       -29.5208  -58.2991  -22.2018 H         1 GLU         0.0433
    148 H42       -29.2742  -59.2322  -23.7168 H         1 GLU         0.0433
    149 H43       -33.5482  -59.1815  -25.4583 H         1 TYR         0.1885
    150 H44       -35.6309  -59.2438  -23.3222 H         1 TYR         0.0821
    151 H45       -37.1210  -58.4263  -25.1753 H         1 TYR         0.0453
    152 H46       -35.6693  -58.3571  -26.2310 H         1 TYR         0.0453
    153 H47       -34.7754  -57.5012  -22.9003 H         1 TYR         0.0530
    154 H48       -36.6630  -56.1332  -26.4565 H         1 TYR         0.0530
    155 H49       -34.3772  -55.1762  -22.2280 H         1 TYR         0.0525
    156 H50       -36.2801  -53.8123  -25.7679 H         1 TYR         0.0525
    157 H51       -35.9145  -52.6425  -23.5005 H         1 TYR         0.2458
    158 H52       -34.1989  -61.0916  -25.8869 H         1 PHE         0.1885
    159 H53       -36.3766  -63.0545  -25.2419 H         1 PHE         0.0823
    160 H54       -36.5070  -63.6484  -27.6187 H         1 PHE         0.0474
    161 H55       -35.3097  -62.3692  -28.0147 H         1 PHE         0.0474
    162 H56       -38.3135  -62.7332  -25.8902 H         1 PHE         0.0557
    163 H57       -36.1501  -60.5134  -28.8002 H         1 PHE         0.0557
    164 H58       -40.1186  -61.0661  -25.9613 H         1 PHE         0.0599
    165 H59       -37.9461  -58.8363  -28.8569 H         1 PHE         0.0599
    166 H60       -39.9407  -59.1136  -27.4496 H         1 PHE         0.0559
    167 H61       -35.6431  -65.2872  -25.5572 H         1 GLU         0.1883
    168 H62       -32.8782  -65.2572  -24.6705 H         1 GLU         0.0801
    169 H63       -33.5997  -67.9276  -24.9778 H         1 GLU         0.0330
    170 H64       -35.1733  -67.1071  -24.6993 H         1 GLU         0.0330
    171 H65       -33.3961  -65.8258  -22.9275 H         1 GLU         0.0433
    172 H66       -32.9250  -67.5573  -22.8453 H         1 GLU         0.0433
    173 H67       -33.9725  -65.1453  -27.8404 H         1 TRP         0.1884
    174 H68       -31.7267  -67.0489  -28.4786 H         1 TRP         0.0815
    175 H69       -33.8257  -67.8822  -29.3302 H         1 TRP         0.0397
    176 H70       -32.9079  -67.2192  -30.7248 H         1 TRP         0.0397
    177 H71       -36.0097  -66.5540  -28.5961 H         1 TRP         0.0795
    178 H72       -37.3686  -64.7084  -29.7624 H         1 TRP         0.2216
    179 H73       -32.7280  -65.4236  -31.9788 H         1 TRP         0.0540
    180 H74       -36.9508  -63.0936  -31.8737 H         1 TRP         0.0541
    181 H75       -33.1392  -63.6717  -33.6790 H         1 TRP         0.0510
    182 H76       -35.3224  -62.4826  -33.6209 H         1 TRP         0.0530
    183 H77       -32.2235  -63.8515  -28.1536 H         1 LEU         0.1883
    184 H78       -31.6701  -62.8771  -30.7634 H         1 LEU         0.0800
    185 H79       -30.8653  -60.8783  -29.6913 H         1 LEU         0.0315
    186 H80       -30.5574  -61.7615  -28.1578 H         1 LEU         0.0315
    187 H81       -33.0106  -62.3613  -28.0847 H         1 LEU         0.0298
    188 H82       -33.7271  -60.0687  -27.4652 H         1 LEU         0.0232
    189 H83       -32.3264  -59.3839  -28.3571 H         1 LEU         0.0232
    190 H84       -32.0549  -60.3841  -26.8899 H         1 LEU         0.0232
    191 H85       -33.3796  -62.1764  -30.5235 H         1 LEU         0.0232
    192 H86       -33.0033  -60.4214  -30.4552 H         1 LEU         0.0232
    193 H87       -34.4709  -61.0578  -29.6380 H         1 LEU         0.0232
    194 H88       -29.5704  -61.8764  -31.4847 H         1 SER         0.1884
    195 H89       -27.7580  -64.1589  -31.2104 H         1 SER         0.0823
    196 H90       -28.3477  -62.8083  -33.3686 H         1 SER         0.0606
    197 H91       -26.6800  -63.4236  -33.1099 H         1 SER         0.0606
    198 H92       -26.1432  -61.3022  -32.3737 H         1 SER         0.2097
    199 H93       -28.1996  -61.5898  -29.1799 H         1 BAL         0.1853
    200 H94       -26.2083  -61.8132  -27.5282 H         1 BAL         0.0545
    201 H95       -25.1973  -61.4411  -28.9656 H         1 BAL         0.0545
    202 H96       -27.0565  -59.6219  -27.4044 H         1 BAL         0.0522
    203 H97       -26.6042  -59.2472  -29.1020 H         1 BAL         0.0522
@<TRIPOS>BOND
     1    1    2 2  
     2    1    3 1  
     3    4    6 2  
     4    4    7 1  
     5    7    5 1  
     6    7    8 1  
     7    8   10 1  
     8   11    9 1  
     9    9   13 ar 
    10    9   14 ar 
    11   10   11 1  
    12   15   12 ar 
    13   16   12 ar 
    14   13   15 ar 
    15   14   16 ar 
    16    5    1 am 
    17   18   17 1  
    18   18   19 1  
    19   23   18 1  
    20   23   24 2  
    21   19   20 1  
    22   20   21 1  
    23   21   22 1  
    24   17    4 am 
    25   26   25 1  
    26   26   29 1  
    27   27   26 1  
    28   27   28 2  
    29   29   30 1  
    30   30   31 1  
    31   30   32 1  
    32   25   23 am 
    33   34   33 1  
    34   34   37 1  
    35   35   34 1  
    36   35   36 2  
    37   37   38 1  
    38   38   39 1  
    39   39   41 ar 
    40   39   40 ar 
    41   33   27 am 
    42   43   42 1  
    43   43   46 1  
    44   44   43 1  
    45   44   45 2  
    46   46   47 1  
    47   47   48 ar 
    48   47   49 ar 
    49   49   51 ar 
    50   51   52 ar 
    51   52   53 1  
    52   50   52 ar 
    53   48   50 ar 
    54   42   35 am 
    55   55   54 1  
    56   55   58 1  
    57   56   55 1  
    58   56   57 2  
    59   58   59 1  
    60   59   60 ar 
    61   59   61 ar 
    62   61   63 ar 
    63   63   64 ar 
    64   62   64 ar 
    65   60   62 ar 
    66   54   44 am 
    67   66   65 1  
    68   66   69 1  
    69   67   66 1  
    70   67   68 2  
    71   69   70 1  
    72   70   71 1  
    73   71   73 ar 
    74   71   72 ar 
    75   65   56 am 
    76   75   74 1  
    77   75   78 1  
    78   76   75 1  
    79   76   77 2  
    80   78   79 1  
    81   79   80 2  
    82   79   81 1  
    83   81   84 ar 
    84   81   83 ar 
    85   83   85 ar 
    86   83   82 1  
    87   80   82 1  
    88   85   87 ar 
    89   86   87 ar 
    90   84   86 ar 
    91   74   67 am 
    92   89   88 1  
    93   89   92 1  
    94   90   89 1  
    95   90   91 2  
    96   92   93 1  
    97   93   94 1  
    98   93   95 1  
    99   88   76 am 
   100   97   96 1  
   101   97  100 1  
   102   98   97 1  
   103   98   99 2  
   104  100  101 1  
   105   96   90 am 
   106  103  104 1  
   107  102  103 1  
   108  104  105 1  
   109  105  106 2  
   110   98  102 am 
   111  105   22 am 
   112    3  107 1  
   113    3  108 1  
   114    3  109 1  
   115    5  110 1  
   116    7  111 1  
   117    8  112 1  
   118    8  113 1  
   119   10  114 1  
   120   10  115 1  
   121   11  116 1  
   122   11  117 1  
   123   12  118 1  
   124   13  119 1  
   125   14  120 1  
   126   15  121 1  
   127   16  122 1  
   128   17  123 1  
   129   18  124 1  
   130   19  125 1  
   131   19  126 1  
   132   20  127 1  
   133   20  128 1  
   134   21  129 1  
   135   21  130 1  
   136   22  131 1  
   137   25  132 1  
   138   26  133 1  
   139   29  134 1  
   140   29  135 1  
   141   30  136 1  
   142   31  137 1  
   143   31  138 1  
   144   31  139 1  
   145   32  140 1  
   146   32  141 1  
   147   32  142 1  
   148   33  143 1  
   149   34  144 1  
   150   37  145 1  
   151   37  146 1  
   152   38  147 1  
   153   38  148 1  
   154   42  149 1  
   155   43  150 1  
   156   46  151 1  
   157   46  152 1  
   158   48  153 1  
   159   49  154 1  
   160   50  155 1  
   161   51  156 1  
   162   53  157 1  
   163   54  158 1  
   164   55  159 1  
   165   58  160 1  
   166   58  161 1  
   167   60  162 1  
   168   61  163 1  
   169   62  164 1  
   170   63  165 1  
   171   64  166 1  
   172   65  167 1  
   173   66  168 1  
   174   69  169 1  
   175   69  170 1  
   176   70  171 1  
   177   70  172 1  
   178   74  173 1  
   179   75  174 1  
   180   78  175 1  
   181   78  176 1  
   182   80  177 1  
   183   82  178 1  
   184   84  179 1  
   185   85  180 1  
   186   86  181 1  
   187   87  182 1  
   188   88  183 1  
   189   89  184 1  
   190   92  185 1  
   191   92  186 1  
   192   93  187 1  
   193   94  188 1  
   194   94  189 1  
   195   94  190 1  
   196   95  191 1  
   197   95  192 1  
   198   95  193 1  
   199   96  194 1  
   200   97  195 1  
   201  100  196 1  
   202  100  197 1  
   203  101  198 1  
   204  102  199 1  
   205  103  200 1  
   206  103  201 1  
   207  104  202 1  
   208  104  203 1  
@<TRIPOS>SUBSTRUCTURE
     1 ACE         1

