2rgu_ligand
  -I-interpret- 

 64 68  0  0  0  0  0  0  0  0999 V2000
   69.0230   69.5870   69.8910 C   0  0  0  0  0
   68.5930   70.8800   69.4780 N   0  0  0  0  0
   68.6460   69.4700   71.2410 C   0  0  0  0  0
   69.6890   68.4790   69.3030 C   0  0  0  0  0
   67.9320   71.3720   70.6010 C   0  0  0  0  0
   68.7950   71.5900   68.1420 C   0  0  0  0  0
   68.0080   70.5350   71.5700 N   0  0  0  0  0
   68.9620   68.3370   71.9770 N   0  0  0  0  0
   69.9520   67.3480   70.0640 N   0  0  0  0  0
   70.0100   68.5270   68.1350 O   0  0  0  0  0
   67.2480   72.5290   70.7930 N   0  0  0  0  0
   68.0580   71.1430   66.9590 C   0  0  0  0  0
   69.5960   67.2990   71.3980 C   0  0  0  0  0
   68.5970   68.2960   73.4070 C   0  0  0  0  0
   70.6310   66.1760   69.4380 C   0  0  0  0  0
   66.3910   73.0560   69.7640 C   0  0  0  0  0
   67.5170   73.3980   71.8960 C   0  0  0  0  0
   67.5090   70.8750   65.9620 C   0  0  0  0  0
   69.8520   66.3150   72.0710 O   0  0  0  0  0
   69.7000   64.9760   69.5580 C   0  0  0  0  0
   65.0140   72.7450   70.3660 C   0  0  0  0  0
   66.1730   73.3450   72.7010 C   0  0  0  0  0
   66.8410   70.5880   64.6840 C   0  0  0  0  0
   68.4020   65.1560   69.3030 N   0  0  0  0  0
   70.2020   63.7850   69.9320 N   0  0  0  0  0
   64.8790   73.4740   71.7640 C   0  0  0  0  0
   63.9670   73.1820   69.4360 N   0  3  0  0  0
   67.5260   64.1350   69.4110 C   0  0  0  0  0
   69.4330   62.6890   70.0740 C   0  0  0  0  0
   68.0230   62.8080   69.8190 C   0  0  0  0  0
   66.1440   64.3100   69.1420 C   0  0  0  0  0
   70.0490   61.3740   70.4930 C   0  0  0  0  0
   67.1010   61.7110   69.9400 C   0  0  0  0  0
   65.2750   63.2230   69.2680 C   0  0  0  0  0
   65.7520   61.9260   69.6670 C   0  0  0  0  0
   69.8418   71.4137   67.8945 H   0  0  0  0  0
   68.4413   72.6062   68.3164 H   0  0  0  0  0
   67.9278   67.4544   73.5859 H   0  0  0  0  0
   69.4990   68.1787   74.0077 H   0  0  0  0  0
   68.0957   69.2247   73.6795 H   0  0  0  0  0
   71.5754   65.9729   69.9430 H   0  0  0  0  0
   70.8487   66.3814   68.3899 H   0  0  0  0  0
   66.5565   72.6213   68.7782 H   0  0  0  0  0
   66.5544   74.1107   69.5428 H   0  0  0  0  0
   67.7927   74.4069   71.5890 H   0  0  0  0  0
   68.3809   73.0885   72.4842 H   0  0  0  0  0
   64.9044   71.6723   70.5253 H   0  0  0  0  0
   66.1670   74.1859   73.3945 H   0  0  0  0  0
   66.1244   72.3795   73.2045 H   0  0  0  0  0
   66.1566   71.4012   64.4426 H   0  0  0  0  0
   67.5895   70.4956   63.8970 H   0  0  0  0  0
   66.2835   69.6552   64.7683 H   0  0  0  0  0
   64.0508   73.0029   72.2933 H   0  0  0  0  0
   64.7342   74.5350   71.5604 H   0  0  0  0  0
   63.0514   72.9756   69.8354 H   0  0  0  0  0
   64.0518   74.1861   69.2779 H   0  0  0  0  0
   64.0723   72.6870   68.5504 H   0  0  0  0  0
   65.7629   65.2853   68.8392 H   0  0  0  0  0
   70.7973   61.0746   69.7592 H   0  0  0  0  0
   70.5211   61.4899   71.4686 H   0  0  0  0  0
   69.2714   60.6125   70.5523 H   0  0  0  0  0
   67.4530   60.7244   70.2413 H   0  0  0  0  0
   64.2140   63.3608   69.0597 H   0  0  0  0  0
   65.0475   61.0991   69.7571 H   0  0  0  0  0
  1  2  4  0  0  0
  1  3  4  0  0  0
  1  4  1  0  0  0
  2  5  4  0  0  0
  2  6  1  0  0  0
  3  7  4  0  0  0
  3  8  1  0  0  0
  4  9  1  0  0  0
  4 10  2  0  0  0
  5  7  4  0  0  0
  5 11  1  0  0  0
  6 12  1  0  0  0
  8 13  1  0  0  0
  8 14  1  0  0  0
  9 13  1  0  0  0
  9 15  1  0  0  0
 11 16  1  0  0  0
 11 17  1  0  0  0
 12 18  3  0  0  0
 13 19  2  0  0  0
 15 20  1  0  0  0
 16 21  1  0  0  0
 17 22  1  0  0  0
 18 23  1  0  0  0
 20 24  4  0  0  0
 20 25  4  0  0  0
 21 26  1  0  0  0
 21 27  1  0  0  0
 22 26  1  0  0  0
 24 28  4  0  0  0
 25 29  4  0  0  0
 28 30  4  0  0  0
 28 31  4  0  0  0
 29 30  4  0  0  0
 29 32  1  0  0  0
 30 33  4  0  0  0
 31 34  4  0  0  0
 33 35  4  0  0  0
 34 35  4  0  0  0
  6 36  1  0  0  0
  6 37  1  0  0  0
 14 38  1  0  0  0
 14 39  1  0  0  0
 14 40  1  0  0  0
 15 41  1  0  0  0
 15 42  1  0  0  0
 16 43  1  0  0  0
 16 44  1  0  0  0
 17 45  1  0  0  0
 17 46  1  0  0  0
 21 47  1  0  0  0
 22 48  1  0  0  0
 22 49  1  0  0  0
 23 50  1  0  0  0
 23 51  1  0  0  0
 23 52  1  0  0  0
 26 53  1  0  0  0
 26 54  1  0  0  0
 27 55  1  0  0  0
 27 56  1  0  0  0
 27 57  1  0  0  0
 31 58  1  0  0  0
 32 59  1  0  0  0
 32 60  1  0  0  0
 32 61  1  0  0  0
 33 62  1  0  0  0
 34 63  1  0  0  0
 35 64  1  0  0  0
M  END
$$$$
