5ni7_ligand
  -I-interpret- 

 50 52  0  0  0  0  0  0  0  0999 V2000
  -30.5490    6.0100  -19.3070 C   0  0  0  0  0
  -30.0010    8.1890  -18.3110 C   0  0  0  0  0
  -28.0350   -0.1760  -14.1810 C   0  0  0  0  0
  -26.6160   -0.9550  -12.4440 C   0  0  0  0  0
  -29.4400    8.9070  -17.2720 C   0  0  0  0  0
  -27.4370   -1.0500  -15.0600 C   0  0  0  0  0
  -26.0020   -1.8380  -13.3120 C   0  0  0  0  0
  -29.4770    6.1290  -17.1920 C   0  0  0  0  0
  -28.9700    4.7520  -14.7010 C   0  0  0  0  0
  -27.4120    6.4220  -14.2400 C   0  0  0  0  0
  -30.0150    6.8020  -18.2640 C   0  0  0  0  0
  -28.9350    6.8410  -16.1470 C   0  0  0  0  0
  -28.4560    6.0320  -15.0580 C   0  0  0  0  0
  -27.6310   -0.1210  -12.8700 C   0  0  0  0  0
  -28.9140    8.2350  -16.1810 C   0  0  0  0  0
  -26.4280   -1.8690  -14.6210 C   0  0  0  0  0
  -28.3210    4.1820  -13.6270 C   0  0  0  0  0
  -27.7390    2.2390  -12.2260 C   0  0  0  0  0
  -24.3160   -0.7080  -16.5880 C   0  0  0  0  0
  -28.4460   10.3600  -15.2200 C   0  0  0  0  0
  -28.2810    0.8590  -11.9410 C   0  0  0  0  0
  -24.0990   -2.1540  -16.1360 C   0  0  0  0  0
  -30.9530    5.3400  -20.1630 N   0  0  0  0  0
  -28.5920    2.9580  -13.0360 N   0  0  0  0  0
  -26.6500    2.6000  -11.8090 O   0  0  0  0  0
  -26.4500   -2.9510  -16.9970 O   0  0  0  0  0
  -25.4000   -4.1820  -15.0590 O   0  0  0  0  0
  -28.3700    8.9300  -15.0920 O   0  0  0  0  0
  -27.0940    5.2350  -13.0400 S   0  0  0  0  0
  -25.6520   -2.9590  -15.7900 S   0  0  0  0  0
  -30.4316    8.7109  -19.1656 H   0  0  0  0  0
  -28.8353    0.4774  -14.5283 H   0  0  0  0  0
  -26.2931   -0.9161  -11.4037 H   0  0  0  0  0
  -29.4116    9.9959  -17.3108 H   0  0  0  0  0
  -27.7633   -1.0912  -16.0992 H   0  0  0  0  0
  -25.2011   -2.4930  -12.9691 H   0  0  0  0  0
  -29.4800    5.0392  -17.1705 H   0  0  0  0  0
  -29.7954    4.2708  -15.2257 H   0  0  0  0  0
  -26.8636    7.3583  -14.3429 H   0  0  0  0  0
  -24.9232   -0.6989  -17.4932 H   0  0  0  0  0
  -24.8277   -0.1553  -15.8001 H   0  0  0  0  0
  -23.3511   -0.2436  -16.7915 H   0  0  0  0  0
  -27.9003   10.6734  -16.1100 H   0  0  0  0  0
  -29.4900   10.6607  -15.3078 H   0  0  0  0  0
  -28.0051   10.8263  -14.3389 H   0  0  0  0  0
  -28.0657    0.5853  -10.9081 H   0  0  0  0  0
  -29.3604    0.8492  -12.0924 H   0  0  0  0  0
  -23.4989   -2.1485  -15.2261 H   0  0  0  0  0
  -23.5953   -2.6973  -16.9355 H   0  0  0  0  0
  -29.5093    2.5506  -13.2175 H   0  0  0  0  0
 11  1  1  0  0  0
  1 23  3  0  0  0
  5  2  4  0  0  0
 11  2  4  0  0  0
  6  3  4  0  0  0
  3 14  4  0  0  0
  7  4  4  0  0  0
  4 14  4  0  0  0
 15  5  4  0  0  0
 16  6  4  0  0  0
 16  7  4  0  0  0
  8 11  4  0  0  0
 12  8  4  0  0  0
  9 13  4  0  0  0
 17  9  4  0  0  0
 10 13  4  0  0  0
 29 10  4  0  0  0
 13 12  1  0  0  0
 12 15  4  0  0  0
 14 21  1  0  0  0
 15 28  1  0  0  0
 30 16  1  0  0  0
 24 17  1  0  0  0
 17 29  4  0  0  0
 21 18  1  0  0  0
 18 24  1  0  0  0
 18 25  2  0  0  0
 22 19  1  0  0  0
 28 20  1  0  0  0
 22 30  1  0  0  0
 30 26  2  0  0  0
 30 27  2  0  0  0
  2 31  1  0  0  0
  3 32  1  0  0  0
  4 33  1  0  0  0
  5 34  1  0  0  0
  6 35  1  0  0  0
  7 36  1  0  0  0
  8 37  1  0  0  0
  9 38  1  0  0  0
 10 39  1  0  0  0
 19 40  1  0  0  0
 19 41  1  0  0  0
 19 42  1  0  0  0
 20 43  1  0  0  0
 20 44  1  0  0  0
 20 45  1  0  0  0
 21 46  1  0  0  0
 21 47  1  0  0  0
 22 48  1  0  0  0
 22 49  1  0  0  0
 24 50  1  0  0  0
M  END
$$$$
