### 
### Created by X-TOOL on Mon Sep 10 21:13:20 2018
### 

@<TRIPOS>MOLECULE
4xqa_ligand
  161   166     1     0     0
SMALL
GAST_HUCK


@<TRIPOS>ATOM
      1 OBN        -0.4660    1.6570    4.6730 O.3       1 423        -0.3924
      2 CBM        -1.3770    1.6470    3.5640 C.3       1 423         0.0727
      3 CBK        -0.6130    1.8790    2.2670 C.3       1 423         0.1065
      4 OBL         0.4100    0.8910    2.0930 O.3       1 423        -0.3869
      5 CBI        -1.5560    1.9120    1.0610 C.3       1 423         0.1114
      6 OBJ        -2.3740    3.0840    1.1810 O.3       1 423        -0.3865
      7 CBC        -0.6130    2.0420   -0.1290 C.3       1 423         0.1143
      8 OBD         0.1460    3.2120    0.0690 O.3       1 423        -0.3383
      9 CAY        -1.4130    2.1460   -1.4440 C.3       1 423         0.0964
     10 NAX        -2.2630    0.9350   -1.5850 N.am      1 423        -0.2790
     11 CAV        -3.5630    0.9590   -1.8770 C.2       1 423         0.1733
     12 OAU        -4.2510    1.9670   -1.9910 O.2       1 423        -0.3974
     13 CAW        -4.2230   -0.4180   -1.9690 C.3       1 423         0.0257
     14 CAZ        -0.4110    2.2840   -2.6170 C.3       1 423         0.0850
     15 OBA        -1.1060    2.5110   -3.8790 O.3       1 423        -0.3893
     16 CBB         0.3540    3.5480   -2.3150 C.3       1 423         0.0354
     17 CBE         1.0690    3.4060   -0.9670 C.3       1 423         0.2217
     18 CBF         2.1750    2.2690   -0.8910 C.2       1 423         0.1042
     19 OBG         2.2700    1.5370    0.1410 O.co2     1 423        -0.5426
     20 OBH         3.0090    2.2070   -1.8210 O.co2     1 423        -0.5426
     21 OCL         1.7630    4.6130   -0.7110 O.3       1 423        -0.3374
     22 CCM         2.4180    4.6880    0.5390 C.3       1 423         0.0847
     23 CCV         3.0630    6.0840    0.5730 C.2       1 423         0.0624
     24 CCR         2.3450    7.2360    0.2260 C.2       1 423         0.0718
     25 NCU         3.8750    6.4850    1.6760 N.2       1 423        -0.2242
     26 NCT         3.6090    7.7050    1.8970 N.2       1 423        -0.1017
     27 NCS         2.7210    8.1810    1.0960 N.pl3     1 423        -0.1760
     28 CDH         2.2040    9.6260    1.1250 C.3       1 423         0.1150
     29 CDL         3.2980   10.5560    0.5950 C.3       1 423        -0.0006
     30 NDK         3.7170   10.2220   -0.7720 N.4       1 423         0.2416
     31 CDM         5.1680   10.0030   -0.8480 C.3       1 423        -0.0006
     32 CDI         5.6940    9.1560   -2.0360 C.3       1 423         0.1150
     33 NCX         5.4770    9.6380   -3.4220 N.pl3     1 423        -0.1760
     34 CCW         4.9480    9.1540   -4.5570 C.2       1 423         0.0718
     35 NCY         5.9020   10.7700   -3.6070 N.2       1 423        -0.1017
     36 NCZ         5.7390   11.1320   -4.6690 N.2       1 423        -0.2242
     37 CDA         5.1450   10.1860   -5.3690 C.2       1 423         0.0624
     38 CCP         4.7910   10.3620   -6.8380 C.3       1 423         0.0847
     39 OCO         3.3750   10.2730   -6.9480 O.3       1 423        -0.3374
     40 CAK         2.9460   10.0180   -8.2780 C.3       1 423         0.2217
     41 CAL         3.4090   11.2960   -9.0950 C.2       1 423         0.1042
     42 OAM         2.8170   12.3690   -8.8850 O.co2     1 423        -0.5426
     43 OAN         4.4320   11.2160   -9.8310 O.co2     1 423        -0.5426
     44 OAJ         3.6080    8.8790   -8.8040 O.3       1 423        -0.3383
     45 CAH         1.4620    9.7730   -8.2340 C.3       1 423         0.0354
     46 CAF         0.9360    9.4830   -9.6270 C.3       1 423         0.0850
     47 OAG        -0.4850    9.2340   -9.5020 O.3       1 423        -0.3893
     48 CAE         1.6910    8.2380  -10.1010 C.3       1 423         0.0964
     49 NAD         1.2880    7.8900  -11.4760 N.am      1 423        -0.2790
     50 CAB         0.5400    6.8010  -11.7930 C.2       1 423         0.1733
     51 OAA         0.1460    5.9360  -10.9970 O.2       1 423        -0.3974
     52 CAC         0.2410    6.6320  -13.2740 C.3       1 423         0.0257
     53 CAI         3.2070    8.5620  -10.1180 C.3       1 423         0.1143
     54 CAO         4.0150    7.3460  -10.5790 C.3       1 423         0.1114
     55 OAP         3.8280    6.2440   -9.6900 O.3       1 423        -0.3865
     56 CAQ         5.4930    7.7710  -10.4320 C.3       1 423         0.1065
     57 OAR         5.7510    9.0340  -11.0790 O.3       1 423        -0.3869
     58 CAS         6.4460    6.6860  -10.9060 C.3       1 423         0.0727
     59 OAT         7.7940    7.1080  -10.6800 O.3       1 423        -0.3924
     60 CDJ         3.0070   10.6260   -1.9990 C.3       1 423        -0.0006
     61 CDG         2.8260   12.1510   -2.1670 C.3       1 423         0.1150
     62 NDC         1.8720   12.8530   -1.2250 N.pl3     1 423        -0.1760
     63 CDB         0.5680   12.6280   -1.4150 C.2       1 423         0.0718
     64 NDD         2.0100   13.6190   -0.3290 N.2       1 423        -0.1017
     65 NDE         0.9020   13.9650    0.1860 N.2       1 423        -0.2242
     66 CDF        -0.0440   13.3590   -0.4960 C.2       1 423         0.0624
     67 CCJ        -1.5500   13.4760   -0.2270 C.3       1 423         0.0847
     68 OCI        -2.1970   12.3240   -0.7470 O.3       1 423        -0.3374
     69 CBY        -3.5720   12.4020   -0.9640 C.3       1 423         0.2217
     70 CBZ        -4.1560   12.7290    0.4740 C.2       1 423         0.1042
     71 OCA        -4.5580   13.8950    0.7270 O.co2     1 423        -0.5426
     72 OCB        -4.1520   11.8410    1.3460 O.co2     1 423        -0.5426
     73 OBX        -3.8710   13.4740   -1.8070 O.3       1 423        -0.3383
     74 CBV        -4.0290   11.0970   -1.5670 C.3       1 423         0.0354
     75 CBT        -5.5140   11.1470   -1.8270 C.3       1 423         0.0850
     76 OBU        -5.9100    9.9330   -2.4310 O.3       1 423        -0.3893
     77 CBS        -5.7460   12.3260   -2.8070 C.3       1 423         0.0964
     78 NBR        -7.1760   12.4880   -3.1180 N.am      1 423        -0.2790
     79 CBP        -7.7200   12.2650   -4.3400 C.2       1 423         0.1733
     80 OBO        -7.0580   11.9580   -5.3490 O.2       1 423        -0.3974
     81 CBQ        -9.2330   12.5020   -4.4340 C.3       1 423         0.0257
     82 CBW        -5.2400   13.6260   -2.1210 C.3       1 423         0.1143
     83 CCC        -5.4250   14.8440   -3.0200 C.3       1 423         0.1114
     84 OCD        -4.5910   14.6930   -4.1760 O.3       1 423        -0.3865
     85 CCE        -4.8710   16.0430   -2.2200 C.3       1 423         0.1065
     86 OCF        -5.3770   16.1150   -0.8640 O.3       1 423        -0.3869
     87 CCG        -5.1340   17.3410   -2.9850 C.3       1 423         0.0727
     88 OCH        -4.5870   18.4510   -2.2360 O.3       1 423        -0.3924
     89 H1         -0.9481    1.5119    5.4787 H         1 423         0.2095
     90 H2         -2.1224    2.4450    3.6965 H         1 423         0.0584
     91 H3         -1.8864    0.6731    3.5186 H         1 423         0.0584
     92 H4         -0.1239    2.8618    2.3368 H         1 423         0.0643
     93 H5          0.8722    1.0553    1.2795 H         1 423         0.2100
     94 H6         -2.1760    1.0060    0.9915 H         1 423         0.0647
     95 H7         -1.8202    3.8558    1.1898 H         1 423         0.2100
     96 H8          0.0517    1.1669   -0.1766 H         1 423         0.0646
     97 H9         -2.0588    3.0360   -1.4157 H         1 423         0.0608
     98 H10        -1.8308    0.0431   -1.4519 H         1 423         0.1856
     99 H11        -5.2890   -0.2981   -2.2125 H         1 423         0.0467
    100 H12        -4.1234   -0.9375   -1.0046 H         1 423         0.0467
    101 H13        -3.7313   -1.0085   -2.7561 H         1 423         0.0467
    102 H14         0.2474    1.4054   -2.6847 H         1 423         0.0618
    103 H15        -1.6837    1.7782   -4.0573 H         1 423         0.2099
    104 H16        -0.3441    4.3970   -2.2715 H         1 423         0.0336
    105 H17         1.0970    3.7244   -3.1067 H         1 423         0.0336
    106 H18         3.1871    3.9057    0.6191 H         1 423         0.0676
    107 H19         1.6951    4.5770    1.3606 H         1 423         0.0676
    108 H20         1.6272    7.3411   -0.5862 H         1 423         0.0899
    109 H21         1.9498    9.9064    2.1578 H         1 423         0.0702
    110 H22         1.3089    9.7105    0.4912 H         1 423         0.0702
    111 H23         4.1726   10.4832    1.2581 H         1 423         0.0844
    112 H24         2.9165   11.5877    0.6032 H         1 423         0.0844
    113 H25         3.4110    9.2616   -0.7761 H         1 423         0.2037
    114 H26         5.4760    9.4991    0.0800 H         1 423         0.0844
    115 H27         5.6494   10.9903   -0.9064 H         1 423         0.0844
    116 H28         5.2173    8.1675   -1.9615 H         1 423         0.0702
    117 H29         6.7803    9.0506   -1.8991 H         1 423         0.0702
    118 H30         4.4872    8.1875   -4.7557 H         1 423         0.0899
    119 H31         5.2651    9.5702   -7.4365 H         1 423         0.0676
    120 H32         5.1346   11.3450   -7.1924 H         1 423         0.0676
    121 H33         0.9583   10.6655   -7.8342 H         1 423         0.0336
    122 H34         1.2553    8.9120   -7.5813 H         1 423         0.0336
    123 H35         1.1160   10.3266  -10.3096 H         1 423         0.0618
    124 H36        -0.8494    9.0479  -10.3594 H         1 423         0.2099
    125 H37         1.4867    7.3955   -9.4239 H         1 423         0.0608
    126 H38         1.5826    8.4910  -12.2190 H         1 423         0.1856
    127 H39        -0.3661    5.7271  -13.4245 H         1 423         0.0467
    128 H40         1.1852    6.5367  -13.8302 H         1 423         0.0467
    129 H41        -0.3125    7.5098  -13.6388 H         1 423         0.0467
    130 H42         3.3973    9.4119  -10.7899 H         1 423         0.0646
    131 H43         3.7624    7.0671  -11.6126 H         1 423         0.0647
    132 H44         4.1148    6.4896   -8.8183 H         1 423         0.2100
    133 H45         5.6806    7.9156   -9.3578 H         1 423         0.0643
    134 H46         5.2054    9.7062  -10.6878 H         1 423         0.2100
    135 H47         6.2927    6.5061  -11.9803 H         1 423         0.0584
    136 H48         6.2531    5.7581  -10.3476 H         1 423         0.0584
    137 H49         8.3906    6.4305  -10.9760 H         1 423         0.2095
    138 H50         2.0098   10.1619   -1.9866 H         1 423         0.0844
    139 H51         3.5752   10.2511   -2.8630 H         1 423         0.0844
    140 H52         2.4666   12.3286   -3.1914 H         1 423         0.0702
    141 H53         3.8150   12.6155   -2.0397 H         1 423         0.0702
    142 H54         0.1088   11.9835   -2.1631 H         1 423         0.0899
    143 H55        -1.9451   14.3764   -0.7201 H         1 423         0.0676
    144 H56        -1.7282   13.5431    0.8564 H         1 423         0.0676
    145 H57        -3.8077   10.2753   -0.8700 H         1 423         0.0336
    146 H58        -3.4978   10.9268   -2.5151 H         1 423         0.0336
    147 H59        -6.0710   11.3048   -0.8917 H         1 423         0.0618
    148 H60        -6.8448    9.9544   -2.5991 H         1 423         0.2099
    149 H61        -5.1869   12.1470   -3.7372 H         1 423         0.0608
    150 H62        -7.7850   12.7812   -2.3810 H         1 423         0.1856
    151 H63        -9.5735   12.2949   -5.4592 H         1 423         0.0467
    152 H64        -9.4570   13.5480   -4.1776 H         1 423         0.0467
    153 H65        -9.7532   11.8330   -3.7327 H         1 423         0.0467
    154 H66        -5.8097   13.7827   -1.1932 H         1 423         0.0646
    155 H67        -6.4792   14.9861   -3.3002 H         1 423         0.0647
    156 H68        -3.6832   14.6271   -3.9038 H         1 423         0.2100
    157 H69        -3.7811   15.9125   -2.1489 H         1 423         0.0643
    158 H70        -5.1375   15.3242   -0.3954 H         1 423         0.2100
    159 H71        -6.2177   17.4807   -3.1119 H         1 423         0.0584
    160 H72        -4.6527   17.2904   -3.9728 H         1 423         0.0584
    161 H73        -4.7481   19.2598   -2.7076 H         1 423         0.2095
@<TRIPOS>BOND
     1    1    2 1  
     2    2    3 1  
     3    3    4 1  
     4    3    5 1  
     5    5    6 1  
     6    5    7 1  
     7    7    8 1  
     8    7    9 1  
     9    8   17 1  
    10    9   10 1  
    11    9   14 1  
    12   10   11 am 
    13   11   12 2  
    14   11   13 1  
    15   14   15 1  
    16   14   16 1  
    17   16   17 1  
    18   17   18 1  
    19   17   21 1  
    20   18   19 ar 
    21   18   20 ar 
    22   21   22 1  
    23   22   23 1  
    24   23   24 2  
    25   23   25 1  
    26   24   27 1  
    27   25   26 2  
    28   26   27 1  
    29   27   28 1  
    30   28   29 1  
    31   29   30 1  
    32   30   31 1  
    33   30   60 1  
    34   31   32 1  
    35   32   33 1  
    36   33   34 1  
    37   33   35 1  
    38   34   37 2  
    39   35   36 2  
    40   36   37 1  
    41   37   38 1  
    42   38   39 1  
    43   39   40 1  
    44   40   41 1  
    45   40   44 1  
    46   40   45 1  
    47   41   42 ar 
    48   41   43 ar 
    49   44   53 1  
    50   45   46 1  
    51   46   47 1  
    52   46   48 1  
    53   48   49 1  
    54   48   53 1  
    55   49   50 am 
    56   50   51 2  
    57   50   52 1  
    58   53   54 1  
    59   54   55 1  
    60   54   56 1  
    61   56   57 1  
    62   56   58 1  
    63   58   59 1  
    64   60   61 1  
    65   61   62 1  
    66   62   63 1  
    67   62   64 1  
    68   63   66 2  
    69   64   65 2  
    70   65   66 1  
    71   66   67 1  
    72   67   68 1  
    73   68   69 1  
    74   69   70 1  
    75   69   73 1  
    76   69   74 1  
    77   70   71 ar 
    78   70   72 ar 
    79   73   82 1  
    80   74   75 1  
    81   75   76 1  
    82   75   77 1  
    83   77   78 1  
    84   77   82 1  
    85   78   79 am 
    86   79   80 2  
    87   79   81 1  
    88   82   83 1  
    89   83   84 1  
    90   83   85 1  
    91   85   86 1  
    92   85   87 1  
    93   87   88 1  
    94    1   89 1  
    95    2   90 1  
    96    2   91 1  
    97    3   92 1  
    98    4   93 1  
    99    5   94 1  
   100    6   95 1  
   101    7   96 1  
   102    9   97 1  
   103   10   98 1  
   104   13   99 1  
   105   13  100 1  
   106   13  101 1  
   107   14  102 1  
   108   15  103 1  
   109   16  104 1  
   110   16  105 1  
   111   22  106 1  
   112   22  107 1  
   113   24  108 1  
   114   28  109 1  
   115   28  110 1  
   116   29  111 1  
   117   29  112 1  
   118   30  113 1  
   119   31  114 1  
   120   31  115 1  
   121   32  116 1  
   122   32  117 1  
   123   34  118 1  
   124   38  119 1  
   125   38  120 1  
   126   45  121 1  
   127   45  122 1  
   128   46  123 1  
   129   47  124 1  
   130   48  125 1  
   131   49  126 1  
   132   52  127 1  
   133   52  128 1  
   134   52  129 1  
   135   53  130 1  
   136   54  131 1  
   137   55  132 1  
   138   56  133 1  
   139   57  134 1  
   140   58  135 1  
   141   58  136 1  
   142   59  137 1  
   143   60  138 1  
   144   60  139 1  
   145   61  140 1  
   146   61  141 1  
   147   63  142 1  
   148   67  143 1  
   149   67  144 1  
   150   74  145 1  
   151   74  146 1  
   152   75  147 1  
   153   76  148 1  
   154   77  149 1  
   155   78  150 1  
   156   81  151 1  
   157   81  152 1  
   158   81  153 1  
   159   82  154 1  
   160   83  155 1  
   161   84  156 1  
   162   85  157 1  
   163   86  158 1  
   164   87  159 1  
   165   87  160 1  
   166   88  161 1  
@<TRIPOS>SUBSTRUCTURE
     1 423         1

