4xqa_ligand
  -I-interpret- 

164169  0  0  0  0  0  0  0  0999 V2000
   -0.4660    1.6570    4.6730 O   0  0  0  0  0
   -1.3770    1.6470    3.5640 C   0  0  0  0  0
   -0.6130    1.8790    2.2670 C   0  0  0  0  0
    0.4100    0.8910    2.0930 O   0  0  0  0  0
   -1.5560    1.9120    1.0610 C   0  0  0  0  0
   -2.3740    3.0840    1.1810 O   0  0  0  0  0
   -0.6130    2.0420   -0.1290 C   0  0  0  0  0
    0.1460    3.2120    0.0690 O   0  0  0  0  0
   -1.4130    2.1460   -1.4440 C   0  0  0  0  0
   -2.2630    0.9350   -1.5850 N   0  0  0  0  0
   -3.5630    0.9590   -1.8770 C   0  0  0  0  0
   -4.2510    1.9670   -1.9910 O   0  0  0  0  0
   -4.2230   -0.4180   -1.9690 C   0  0  0  0  0
   -0.4110    2.2840   -2.6170 C   0  0  0  0  0
   -1.1060    2.5110   -3.8790 O   0  0  0  0  0
    0.3540    3.5480   -2.3150 C   0  0  0  0  0
    1.0690    3.4060   -0.9670 C   0  0  0  0  0
    2.1750    2.2690   -0.8910 C   0  0  0  0  0
    2.2700    1.5370    0.1410 O   0  0  0  0  0
    3.0090    2.2070   -1.8210 O   0  0  0  0  0
    1.7630    4.6130   -0.7110 O   0  0  0  0  0
    2.4180    4.6880    0.5390 C   0  0  0  0  0
    3.0630    6.0840    0.5730 C   0  0  0  0  0
    2.3450    7.2360    0.2260 C   0  0  0  0  0
    3.8750    6.4850    1.6760 N   0  0  0  0  0
    3.6090    7.7050    1.8970 N   0  0  0  0  0
    2.7210    8.1810    1.0960 N   0  0  0  0  0
    2.2040    9.6260    1.1250 C   0  0  0  0  0
    3.2980   10.5560    0.5950 C   0  0  0  0  0
    3.7170   10.2220   -0.7720 N   0  3  0  0  0
    5.1680   10.0030   -0.8480 C   0  0  0  0  0
    5.6940    9.1560   -2.0360 C   0  0  0  0  0
    5.4770    9.6380   -3.4220 N   0  0  0  0  0
    4.9480    9.1540   -4.5570 C   0  0  0  0  0
    5.9020   10.7700   -3.6070 N   0  0  0  0  0
    5.7390   11.1320   -4.6690 N   0  0  0  0  0
    5.1450   10.1860   -5.3690 C   0  0  0  0  0
    4.7910   10.3620   -6.8380 C   0  0  0  0  0
    3.3750   10.2730   -6.9480 O   0  0  0  0  0
    2.9460   10.0180   -8.2780 C   0  0  0  0  0
    3.4090   11.2960   -9.0950 C   0  0  0  0  0
    2.8170   12.3690   -8.8850 O   0  0  0  0  0
    4.4320   11.2160   -9.8310 O   0  0  0  0  0
    3.6080    8.8790   -8.8040 O   0  0  0  0  0
    1.4620    9.7730   -8.2340 C   0  0  0  0  0
    0.9360    9.4830   -9.6270 C   0  0  0  0  0
   -0.4850    9.2340   -9.5020 O   0  0  0  0  0
    1.6910    8.2380  -10.1010 C   0  0  0  0  0
    1.2880    7.8900  -11.4760 N   0  0  0  0  0
    0.5400    6.8010  -11.7930 C   0  0  0  0  0
    0.1460    5.9360  -10.9970 O   0  0  0  0  0
    0.2410    6.6320  -13.2740 C   0  0  0  0  0
    3.2070    8.5620  -10.1180 C   0  0  0  0  0
    4.0150    7.3460  -10.5790 C   0  0  0  0  0
    3.8280    6.2440   -9.6900 O   0  0  0  0  0
    5.4930    7.7710  -10.4320 C   0  0  0  0  0
    5.7510    9.0340  -11.0790 O   0  0  0  0  0
    6.4460    6.6860  -10.9060 C   0  0  0  0  0
    7.7940    7.1080  -10.6800 O   0  0  0  0  0
    3.0070   10.6260   -1.9990 C   0  0  0  0  0
    2.8260   12.1510   -2.1670 C   0  0  0  0  0
    1.8720   12.8530   -1.2250 N   0  0  0  0  0
    0.5680   12.6280   -1.4150 C   0  0  0  0  0
    2.0100   13.6190   -0.3290 N   0  0  0  0  0
    0.9020   13.9650    0.1860 N   0  0  0  0  0
   -0.0440   13.3590   -0.4960 C   0  0  0  0  0
   -1.5500   13.4760   -0.2270 C   0  0  0  0  0
   -2.1970   12.3240   -0.7470 O   0  0  0  0  0
   -3.5720   12.4020   -0.9640 C   0  0  0  0  0
   -4.1560   12.7290    0.4740 C   0  0  0  0  0
   -4.5580   13.8950    0.7270 O   0  0  0  0  0
   -4.1520   11.8410    1.3460 O   0  0  0  0  0
   -3.8710   13.4740   -1.8070 O   0  0  0  0  0
   -4.0290   11.0970   -1.5670 C   0  0  0  0  0
   -5.5140   11.1470   -1.8270 C   0  0  0  0  0
   -5.9100    9.9330   -2.4310 O   0  0  0  0  0
   -5.7460   12.3260   -2.8070 C   0  0  0  0  0
   -7.1760   12.4880   -3.1180 N   0  0  0  0  0
   -7.7200   12.2650   -4.3400 C   0  0  0  0  0
   -7.0580   11.9580   -5.3490 O   0  0  0  0  0
   -9.2330   12.5020   -4.4340 C   0  0  0  0  0
   -5.2400   13.6260   -2.1210 C   0  0  0  0  0
   -5.4250   14.8440   -3.0200 C   0  0  0  0  0
   -4.5910   14.6930   -4.1760 O   0  0  0  0  0
   -4.8710   16.0430   -2.2200 C   0  0  0  0  0
   -5.3770   16.1150   -0.8640 O   0  0  0  0  0
   -5.1340   17.3410   -2.9850 C   0  0  0  0  0
   -4.5870   18.4510   -2.2360 O   0  0  0  0  0
   -0.9531    1.5104    5.4871 H   0  0  0  0  0
   -2.1135    2.4398    3.6953 H   0  0  0  0  0
   -1.8792    0.6806    3.5187 H   0  0  0  0  0
   -0.1329    2.8552    2.3354 H   0  0  0  0  0
    0.9865    0.8903    2.8606 H   0  0  0  0  0
   -2.2101    1.0446    0.9720 H   0  0  0  0  0
   -2.9616    2.9870    1.9339 H   0  0  0  0  0
    0.0319    1.1664   -0.2034 H   0  0  0  0  0
   -2.0661    3.0187   -1.4442 H   0  0  0  0  0
   -1.8221    0.0253   -1.4493 H   0  0  0  0  0
   -4.9725   -0.5135   -1.1833 H   0  0  0  0  0
   -4.7000   -0.5265   -2.9431 H   0  0  0  0  0
   -3.4651   -1.1917   -1.8459 H   0  0  0  0  0
    0.2004    1.3863   -2.7086 H   0  0  0  0  0
   -0.4629    2.5926   -4.5870 H   0  0  0  0  0
   -0.3383    4.3888   -2.2712 H   0  0  0  0  0
    1.0907    3.7218   -3.0993 H   0  0  0  0  0
    1.5418    1.7291    0.7364 H   0  0  0  0  0
    3.1613    3.8987    0.6516 H   0  0  0  0  0
    1.7229    4.5459    1.3665 H   0  0  0  0  0
    1.6265    7.3412   -0.5869 H   0  0  0  0  0
    1.9474    9.9046    2.1471 H   0  0  0  0  0
    1.3144    9.7112    0.5010 H   0  0  0  0  0
    4.1671   10.4528    1.2448 H   0  0  0  0  0
    2.8970   11.5695    0.5826 H   0  0  0  0  0
    3.1796    9.3626   -0.8864 H   0  0  0  0  0
    5.4316    9.4474    0.0520 H   0  0  0  0  0
    5.6111   10.9914   -0.9694 H   0  0  0  0  0
    5.1403    8.2190   -1.9769 H   0  0  0  0  0
    6.7768    9.1436   -1.9116 H   0  0  0  0  0
    4.4868    8.1866   -4.7559 H   0  0  0  0  0
    5.2703    9.5912   -7.4415 H   0  0  0  0  0
    5.1427   11.3271   -7.2028 H   0  0  0  0  0
    4.7329   10.3049   -9.8608 H   0  0  0  0  0
    0.9656   10.6614   -7.8435 H   0  0  0  0  0
    1.2613    8.9155   -7.5917 H   0  0  0  0  0
    1.0809   10.2958  -10.3386 H   0  0  0  0  0
   -0.8532    9.0459  -10.3684 H   0  0  0  0  0
    1.4676    7.4076   -9.4313 H   0  0  0  0  0
    1.5885    8.5030  -12.2339 H   0  0  0  0  0
    0.6917    5.7059  -13.6310 H   0  0  0  0  0
   -0.8380    6.5937  -13.4234 H   0  0  0  0  0
    0.6558    7.4756  -13.8257 H   0  0  0  0  0
    3.3837    9.3919  -10.8023 H   0  0  0  0  0
    3.7203    7.0516  -11.5863 H   0  0  0  0  0
    4.3429    5.4947   -9.9983 H   0  0  0  0  0
    5.6806    7.9120   -9.3676 H   0  0  0  0  0
    6.6759    9.2661  -10.9679 H   0  0  0  0  0
    6.2937    6.5064  -11.9703 H   0  0  0  0  0
    6.2546    5.7659  -10.3539 H   0  0  0  0  0
    8.3969    6.4234  -10.9791 H   0  0  0  0  0
    2.0086   10.1918   -1.9457 H   0  0  0  0  0
    3.6080   10.2830   -2.8411 H   0  0  0  0  0
    2.4057   12.2872   -3.1634 H   0  0  0  0  0
    3.8057   12.5851   -1.9676 H   0  0  0  0  0
    0.1084   11.9829   -2.1638 H   0  0  0  0  0
   -1.9436   14.3707   -0.7093 H   0  0  0  0  0
   -1.7297   13.5487    0.8456 H   0  0  0  0  0
   -4.4867   14.4354   -0.0633 H   0  0  0  0  0
   -3.8114   10.2840   -0.8743 H   0  0  0  0  0
   -3.5037   10.9309   -2.5075 H   0  0  0  0  0
   -6.0871   11.2836   -0.9100 H   0  0  0  0  0
   -6.8546    9.9546   -2.6008 H   0  0  0  0  0
   -5.2116   12.1257   -3.7357 H   0  0  0  0  0
   -7.7972   12.7871   -2.3663 H   0  0  0  0  0
   -9.4289   13.3201   -5.1271 H   0  0  0  0  0
   -9.7199   11.5953   -4.7932 H   0  0  0  0  0
   -9.6213   12.7583   -3.4483 H   0  0  0  0  0
   -5.8248   13.7886   -1.2156 H   0  0  0  0  0
   -6.4667   14.9691   -3.3154 H   0  0  0  0  0
   -4.6998   15.4552   -4.7495 H   0  0  0  0  0
   -3.7959   15.8941   -2.1192 H   0  0  0  0  0
   -4.9970   16.8777   -0.4219 H   0  0  0  0  0
   -6.2074   17.4794   -3.1142 H   0  0  0  0  0
   -4.6602   17.2912   -3.9654 H   0  0  0  0  0
   -4.7498   19.2683   -2.7126 H   0  0  0  0  0
  1  2  1  0  0  0
  2  3  1  0  0  0
  3  4  1  0  0  0
  3  5  1  0  0  0
  5  6  1  0  0  0
  5  7  1  0  0  0
  7  8  1  0  0  0
  7  9  1  0  0  0
  8 17  1  0  0  0
  9 10  1  0  0  0
  9 14  1  0  0  0
 10 11  1  0  0  0
 11 12  2  0  0  0
 11 13  1  0  0  0
 14 15  1  0  0  0
 14 16  1  0  0  0
 16 17  1  0  0  0
 17 18  1  0  0  0
 17 21  1  0  0  0
 18 19  1  0  0  0
 18 20  2  0  0  0
 21 22  1  0  0  0
 22 23  1  0  0  0
 23 24  4  0  0  0
 23 25  4  0  0  0
 24 27  4  0  0  0
 25 26  4  0  0  0
 26 27  4  0  0  0
 27 28  1  0  0  0
 28 29  1  0  0  0
 29 30  1  0  0  0
 30 31  1  0  0  0
 30 60  1  0  0  0
 31 32  1  0  0  0
 32 33  1  0  0  0
 33 34  4  0  0  0
 33 35  4  0  0  0
 34 37  4  0  0  0
 35 36  4  0  0  0
 36 37  4  0  0  0
 37 38  1  0  0  0
 38 39  1  0  0  0
 39 40  1  0  0  0
 40 41  1  0  0  0
 40 44  1  0  0  0
 40 45  1  0  0  0
 41 42  2  0  0  0
 41 43  1  0  0  0
 44 53  1  0  0  0
 45 46  1  0  0  0
 46 47  1  0  0  0
 46 48  1  0  0  0
 48 49  1  0  0  0
 48 53  1  0  0  0
 49 50  1  0  0  0
 50 51  2  0  0  0
 50 52  1  0  0  0
 53 54  1  0  0  0
 54 55  1  0  0  0
 54 56  1  0  0  0
 56 57  1  0  0  0
 56 58  1  0  0  0
 58 59  1  0  0  0
 60 61  1  0  0  0
 61 62  1  0  0  0
 62 63  4  0  0  0
 62 64  4  0  0  0
 63 66  4  0  0  0
 64 65  4  0  0  0
 65 66  4  0  0  0
 66 67  1  0  0  0
 67 68  1  0  0  0
 68 69  1  0  0  0
 69 70  1  0  0  0
 69 73  1  0  0  0
 69 74  1  0  0  0
 70 71  1  0  0  0
 70 72  2  0  0  0
 73 82  1  0  0  0
 74 75  1  0  0  0
 75 76  1  0  0  0
 75 77  1  0  0  0
 77 78  1  0  0  0
 77 82  1  0  0  0
 78 79  1  0  0  0
 79 80  2  0  0  0
 79 81  1  0  0  0
 82 83  1  0  0  0
 83 84  1  0  0  0
 83 85  1  0  0  0
 85 86  1  0  0  0
 85 87  1  0  0  0
 87 88  1  0  0  0
  1 89  1  0  0  0
  2 90  1  0  0  0
  2 91  1  0  0  0
  3 92  1  0  0  0
  4 93  1  0  0  0
  5 94  1  0  0  0
  6 95  1  0  0  0
  7 96  1  0  0  0
  9 97  1  0  0  0
 10 98  1  0  0  0
 13 99  1  0  0  0
 13100  1  0  0  0
 13101  1  0  0  0
 14102  1  0  0  0
 15103  1  0  0  0
 16104  1  0  0  0
 16105  1  0  0  0
 19106  1  0  0  0
 22107  1  0  0  0
 22108  1  0  0  0
 24109  1  0  0  0
 28110  1  0  0  0
 28111  1  0  0  0
 29112  1  0  0  0
 29113  1  0  0  0
 30114  1  0  0  0
 31115  1  0  0  0
 31116  1  0  0  0
 32117  1  0  0  0
 32118  1  0  0  0
 34119  1  0  0  0
 38120  1  0  0  0
 38121  1  0  0  0
 43122  1  0  0  0
 45123  1  0  0  0
 45124  1  0  0  0
 46125  1  0  0  0
 47126  1  0  0  0
 48127  1  0  0  0
 49128  1  0  0  0
 52129  1  0  0  0
 52130  1  0  0  0
 52131  1  0  0  0
 53132  1  0  0  0
 54133  1  0  0  0
 55134  1  0  0  0
 56135  1  0  0  0
 57136  1  0  0  0
 58137  1  0  0  0
 58138  1  0  0  0
 59139  1  0  0  0
 60140  1  0  0  0
 60141  1  0  0  0
 61142  1  0  0  0
 61143  1  0  0  0
 63144  1  0  0  0
 67145  1  0  0  0
 67146  1  0  0  0
 71147  1  0  0  0
 74148  1  0  0  0
 74149  1  0  0  0
 75150  1  0  0  0
 76151  1  0  0  0
 77152  1  0  0  0
 78153  1  0  0  0
 81154  1  0  0  0
 81155  1  0  0  0
 81156  1  0  0  0
 82157  1  0  0  0
 83158  1  0  0  0
 84159  1  0  0  0
 85160  1  0  0  0
 86161  1  0  0  0
 87162  1  0  0  0
 87163  1  0  0  0
 88164  1  0  0  0
M  END
$$$$
