1nja_ligand
  -I-interpret- 

 34 35  0  0  0  0  0  0  0  0999 V2000
   15.1840   46.7700  -52.4170 N   0  0  0  0  0
   14.3930   45.8310  -51.8040 C   0  0  0  0  0
   13.6130   46.2850  -50.7560 N   0  0  0  0  0
   13.6360   47.5830  -50.3560 C   0  0  0  0  0
   14.4610   48.5200  -51.0050 C   0  0  0  0  0
   15.2310   48.0420  -52.0540 C   0  0  0  0  0
   14.3930   44.6540  -52.1480 O   0  0  0  0  0
   12.9040   48.0020  -49.3460 N   0  0  0  0  0
   16.0180   46.4250  -53.5420 C   0  0  0  0  0
   15.2480   46.3280  -54.8550 C   0  0  0  0  0
   16.4140   46.3740  -55.8260 C   0  0  0  0  0
   17.3030   47.5340  -55.3580 C   0  0  0  0  0
   17.1420   47.3690  -53.8730 O   0  0  0  0  0
   17.1580   45.1450  -55.6540 O   0  0  0  0  0
   16.7270   48.8740  -55.8280 C   0  0  0  0  0
   16.9780   48.9670  -57.2610 O   0  0  0  0  0
   15.9390   49.3110  -58.3770 P   0  0  0  0  0
   16.4890   49.0510  -59.7300 O   0  0  0  0  0
   14.8250   48.3920  -58.1470 O   0  0  0  0  0
   15.5140   50.7430  -58.3510 O   0  0  0  0  0
   14.4930   49.5658  -50.6993 H   0  0  0  0  0
   15.8878   48.7269  -52.5902 H   0  0  0  0  0
   12.3029   47.3473  -48.8456 H   0  0  0  0  0
   12.9376   48.9815  -49.0635 H   0  0  0  0  0
   16.4158   45.4747  -53.1860 H   0  0  0  0  0
   14.4981   47.1049  -55.0038 H   0  0  0  0  0
   14.6104   45.4488  -54.9473 H   0  0  0  0  0
   16.0970   46.4946  -56.8619 H   0  0  0  0  0
   18.3304   47.5255  -55.7221 H   0  0  0  0  0
   17.9066   45.1387  -56.2549 H   0  0  0  0  0
   17.1981   49.7028  -55.2995 H   0  0  0  0  0
   15.6586   48.9288  -55.6194 H   0  0  0  0  0
   17.2225   49.6477  -59.8961 H   0  0  0  0  0
   16.2768   51.3049  -58.5062 H   0  0  0  0  0
  1  9  1  0  0  0
  1  6  1  0  0  0
  1  2  1  0  0  0
  2  7  2  0  0  0
  2  3  1  0  0  0
  3  4  2  0  0  0
  4  8  1  0  0  0
  4  5  1  0  0  0
  5  6  2  0  0  0
  9 13  1  0  0  0
  9 10  1  0  0  0
 10 11  1  0  0  0
 11 14  1  0  0  0
 11 12  1  0  0  0
 12 15  1  0  0  0
 12 13  1  0  0  0
 15 16  1  0  0  0
 16 17  1  0  0  0
 17 20  1  0  0  0
 17 19  2  0  0  0
 17 18  1  0  0  0
  5 21  1  0  0  0
  6 22  1  0  0  0
  8 23  1  0  0  0
  8 24  1  0  0  0
  9 25  1  0  0  0
 10 26  1  0  0  0
 10 27  1  0  0  0
 11 28  1  0  0  0
 12 29  1  0  0  0
 14 30  1  0  0  0
 15 31  1  0  0  0
 15 32  1  0  0  0
 18 33  1  0  0  0
 20 34  1  0  0  0
M  END
$$$$
