4m3e_ligand
  -I-interpret- 

 48 49  0  0  0  0  0  0  0  0999 V2000
  -30.6140   18.5200   -7.0110 F   0  0  0  0  0
  -30.7990   17.2730   -7.3920 C   0  0  0  0  0
  -32.0500   17.1080   -7.6250 F   0  0  0  0  0
  -30.1240   17.1010   -8.5040 F   0  0  0  0  0
  -30.4090   16.2290   -6.3800 C   0  0  0  0  0
  -28.9050   16.0850   -6.5050 C   0  0  0  0  0
  -28.4370   14.8500   -5.9340 N   0  0  0  0  0
  -28.1180   13.8490   -6.7260 C   0  0  0  0  0
  -27.9850   14.0440   -7.9250 O   0  0  0  0  0
  -27.8820   12.5020   -6.1050 C   0  0  0  0  0
  -28.0650   12.3100   -4.7440 C   0  0  0  0  0
  -27.8300   11.0480   -4.1320 C   0  0  0  0  0
  -27.4910   11.4330   -6.8560 C   0  0  0  0  0
  -27.2750   10.1920   -6.2600 C   0  0  0  0  0
  -27.4250    9.9670   -4.8880 C   0  0  0  0  0
  -27.1810    8.6860   -4.3340 C   0  0  0  0  0
  -26.7680    7.6190   -5.1280 N   0  0  0  0  0
  -27.2770    8.3170   -2.9760 C   0  0  0  0  0
  -26.8530    6.6790   -2.8820 S   0  0  0  0  0
  -26.5650    6.4370   -4.5280 C   0  0  0  0  0
  -26.1350    5.1010   -5.1230 C   0  0  0  0  0
  -26.4190    3.9190   -4.3140 N   0  0  0  0  0
  -27.8390    3.1190   -4.2890 S   0  0  0  0  0
  -28.3570    3.1570   -2.9320 O   0  0  0  0  0
  -28.7910    3.7530   -5.1670 O   0  0  0  0  0
  -27.6610    1.5130   -4.7990 C   0  0  0  0  0
  -27.1350    0.5470   -3.7140 C   0  0  0  0  0
  -28.2300   -0.1660   -2.9340 C   0  0  0  0  0
  -30.9175   15.2830   -6.5661 H   0  0  0  0  0
  -30.6995   16.5226   -5.3713 H   0  0  0  0  0
  -28.4361   16.9098   -5.9684 H   0  0  0  0  0
  -28.6470   16.0922   -7.5640 H   0  0  0  0  0
  -28.3531   14.7512   -4.9223 H   0  0  0  0  0
  -28.3969   13.1462   -4.1286 H   0  0  0  0  0
  -27.9709   10.9337   -3.0572 H   0  0  0  0  0
  -27.3464   11.5501   -7.9300 H   0  0  0  0  0
  -26.9749    9.3571   -6.8933 H   0  0  0  0  0
  -27.5680    8.9615   -2.1465 H   0  0  0  0  0
  -25.0510    5.1472   -5.2276 H   0  0  0  0  0
  -26.6995    4.9819   -6.0478 H   0  0  0  0  0
  -25.6702    3.5663   -3.7179 H   0  0  0  0  0
  -26.9274    1.5151   -5.6052 H   0  0  0  0  0
  -28.6512    1.1593   -5.0863 H   0  0  0  0  0
  -26.5659    1.1425   -3.0002 H   0  0  0  0  0
  -26.5487   -0.2194   -4.2210 H   0  0  0  0  0
  -28.8558    0.5717   -2.4318 H   0  0  0  0  0
  -28.8391   -0.7542   -3.6204 H   0  0  0  0  0
  -27.7766   -0.8245   -2.1931 H   0  0  0  0  0
  1  2  1  0  0  0
  2  3  1  0  0  0
  2  4  1  0  0  0
  2  5  1  0  0  0
  5  6  1  0  0  0
  6  7  1  0  0  0
  7  8  1  0  0  0
  8  9  2  0  0  0
  8 10  1  0  0  0
 10 11  4  0  0  0
 10 13  4  0  0  0
 11 12  4  0  0  0
 12 15  4  0  0  0
 13 14  4  0  0  0
 14 15  4  0  0  0
 15 16  1  0  0  0
 16 17  4  0  0  0
 16 18  4  0  0  0
 17 20  4  0  0  0
 18 19  4  0  0  0
 19 20  4  0  0  0
 20 21  1  0  0  0
 21 22  1  0  0  0
 22 23  1  0  0  0
 23 24  2  0  0  0
 23 25  2  0  0  0
 23 26  1  0  0  0
 26 27  1  0  0  0
 27 28  1  0  0  0
  5 29  1  0  0  0
  5 30  1  0  0  0
  6 31  1  0  0  0
  6 32  1  0  0  0
  7 33  1  0  0  0
 11 34  1  0  0  0
 12 35  1  0  0  0
 13 36  1  0  0  0
 14 37  1  0  0  0
 18 38  1  0  0  0
 21 39  1  0  0  0
 21 40  1  0  0  0
 22 41  1  0  0  0
 26 42  1  0  0  0
 26 43  1  0  0  0
 27 44  1  0  0  0
 27 45  1  0  0  0
 28 46  1  0  0  0
 28 47  1  0  0  0
 28 48  1  0  0  0
M  END
$$$$
