6ee2_ligand
  -I-interpret- 

 50 52  0  0  0  0  0  0  0  0999 V2000
  178.0530   16.6010   85.2640 C   0  0  0  0  0
  179.4960   16.3080   85.6470 C   0  0  0  0  0
  180.4070   17.4510   85.1780 C   0  0  0  0  0
  180.2420   17.7080   83.6590 C   0  0  0  0  0
  178.7490   17.9660   83.3120 C   0  0  0  0  0
  178.0250   16.7240   83.7590 C   0  0  0  0  0
  176.6070   16.4960   83.2250 C   0  0  0  0  0
  176.2520   16.8330   82.1010 O   0  0  0  0  0
  175.9020   15.7550   84.0830 N   0  0  0  0  0
  174.6230   15.0890   83.8650 C   0  0  0  0  0
  174.5630   14.0440   84.9770 C   0  0  0  0  0
  174.4680   14.4220   86.1520 O   0  0  0  0  0
  174.7390   12.7750   84.5110 N   0  0  0  0  0
  174.6820   11.5290   85.4340 O   0  0  0  0  0
  173.4400   15.8260   83.7970 C   0  0  0  0  0
  172.3910   15.2160   83.1100 C   0  0  0  0  0
  171.1620   15.8460   82.9780 C   0  0  0  0  0
  173.2710   17.0830   84.3690 C   0  0  0  0  0
  172.0340   17.7190   84.2320 C   0  0  0  0  0
  170.9840   17.0980   83.5500 C   0  0  0  0  0
  169.7630   17.7480   83.3980 C   0  0  0  0  0
  168.9120   17.3520   82.3710 C   0  0  0  0  0
  167.7020   18.0050   82.1800 C   0  0  0  0  0
  166.8660   17.6310   81.2000 F   0  0  0  0  0
  167.3420   19.0560   83.0080 C   0  0  0  0  0
  166.1960   19.6950   82.8400 F   0  0  0  0  0
  168.1860   19.4580   84.0260 C   0  0  0  0  0
  167.7830   20.4960   84.8100 F   0  0  0  0  0
  169.4090   18.8110   84.2240 C   0  0  0  0  0
  177.7023   17.5183   85.7370 H   0  0  0  0  0
  177.3901   15.8049   85.6028 H   0  0  0  0  0
  179.8117   15.3798   85.1708 H   0  0  0  0  0
  179.5672   16.2147   86.7307 H   0  0  0  0  0
  181.4429   17.1746   85.3746 H   0  0  0  0  0
  180.1341   18.3582   85.7170 H   0  0  0  0  0
  180.5874   16.8313   83.1111 H   0  0  0  0  0
  180.8275   18.5846   83.3816 H   0  0  0  0  0
  178.6084   18.1547   82.2477 H   0  0  0  0  0
  178.3669   18.8575   83.8093 H   0  0  0  0  0
  178.5972   15.9251   83.2874 H   0  0  0  0  0
  176.3105   15.6398   85.0105 H   0  0  0  0  0
  174.6354   14.7175   82.8403 H   0  0  0  0  0
  174.9152   12.6391   83.5156 H   0  0  0  0  0
  174.8304   10.7377   84.9111 H   0  0  0  0  0
  172.5388   14.2297   82.6702 H   0  0  0  0  0
  170.3491   15.3653   82.4337 H   0  0  0  0  0
  174.0858   17.5615   84.9123 H   0  0  0  0  0
  171.8866   18.7099   84.6616 H   0  0  0  0  0
  169.1956   16.5283   81.7158 H   0  0  0  0  0
  170.0802   19.1362   85.0189 H   0  0  0  0  0
  1  2  1  0  0  0
  1  6  1  0  0  0
  2  3  1  0  0  0
  3  4  1  0  0  0
  4  5  1  0  0  0
  5  6  1  0  0  0
  6  7  1  0  0  0
  7  8  2  0  0  0
  7  9  1  0  0  0
  9 10  1  0  0  0
 10 11  1  0  0  0
 10 15  1  0  0  0
 11 12  2  0  0  0
 11 13  1  0  0  0
 13 14  1  0  0  0
 15 16  4  0  0  0
 15 18  4  0  0  0
 16 17  4  0  0  0
 17 20  4  0  0  0
 18 19  4  0  0  0
 19 20  4  0  0  0
 20 21  1  0  0  0
 21 22  4  0  0  0
 21 29  4  0  0  0
 22 23  4  0  0  0
 23 24  1  0  0  0
 23 25  4  0  0  0
 25 26  1  0  0  0
 25 27  4  0  0  0
 27 28  1  0  0  0
 27 29  4  0  0  0
  1 30  1  0  0  0
  1 31  1  0  0  0
  2 32  1  0  0  0
  2 33  1  0  0  0
  3 34  1  0  0  0
  3 35  1  0  0  0
  4 36  1  0  0  0
  4 37  1  0  0  0
  5 38  1  0  0  0
  5 39  1  0  0  0
  6 40  1  0  0  0
  9 41  1  0  0  0
 10 42  1  0  0  0
 13 43  1  0  0  0
 14 44  1  0  0  0
 16 45  1  0  0  0
 17 46  1  0  0  0
 18 47  1  0  0  0
 19 48  1  0  0  0
 22 49  1  0  0  0
 29 50  1  0  0  0
M  END
$$$$
