1p28_ligand
  -I-interpret- 

 14 13  0  0  0  0  0  0  0  0999 V2000
   11.0500    0.5970    3.2040 C   0  0  0  0  0
   10.7400    1.2830    1.8750 C   0  0  0  0  0
    9.8280    2.3420    2.1570 O   0  0  0  0  0
   10.1720    0.3310    0.8340 C   0  0  0  0  0
    8.8460   -0.3240    1.0680 C   0  0  0  0  0
   10.7870    0.1150   -0.2160 O   0  0  0  0  0
   10.1351    0.1669    3.6115 H   0  0  0  0  0
   11.7832   -0.1929    3.0413 H   0  0  0  0  0
   11.4521    1.3292    3.9042 H   0  0  0  0  0
   11.6638    1.6620    1.4379 H   0  0  0  0  0
   10.2113    2.9261    2.8154 H   0  0  0  0  0
    8.1501   -0.0225    0.2851 H   0  0  0  0  0
    8.9688   -1.4069    1.0495 H   0  0  0  0  0
    8.4572   -0.0177    2.0392 H   0  0  0  0  0
  1  2  1  0  0  0
  2  3  1  0  0  0
  2  4  1  0  0  0
  4  5  1  0  0  0
  4  6  2  0  0  0
  1  7  1  0  0  0
  1  8  1  0  0  0
  1  9  1  0  0  0
  2 10  1  0  0  0
  3 11  1  0  0  0
  5 12  1  0  0  0
  5 13  1  0  0  0
  5 14  1  0  0  0
M  END
$$$$
