6o0m_ligand
  -I-interpret- 

111118  0  0  0  0  0  0  0  0999 V2000
  -11.0990    0.5630  -17.9070 C   0  0  0  0  0
  -11.9710    1.5910  -18.2120 C   0  0  0  0  0
  -14.9290    2.6630  -16.5870 C   0  0  0  0  0
  -14.5220    3.7080  -14.4510 C   0  0  0  0  0
  -15.1780    4.3470  -13.2500 C   0  0  0  0  0
  -17.0080    2.7560  -13.4580 C   0  0  0  0  0
  -16.3070    2.1640  -14.6670 C   0  0  0  0  0
  -17.2020    3.0030  -10.4700 C   0  0  0  0  0
  -17.6370    3.4730   -9.2440 C   0  0  0  0  0
  -16.7500    5.6350   -9.7480 C   0  0  0  0  0
  -16.3110    5.1700  -10.9720 C   0  0  0  0  0
  -17.7310    5.3870   -7.5190 C   0  0  0  0  0
  -16.9160    3.7200   -4.0740 C   0  0  0  0  0
  -15.5850    3.4220   -3.8380 C   0  0  0  0  0
  -16.2190    1.1160   -3.3270 C   0  0  0  0  0
  -17.5490    1.4870   -3.5160 C   0  0  0  0  0
  -16.9210   -1.1930   -2.8960 C   0  0  0  0  0
  -15.5360    3.1920  -15.3670 N   0  3  0  0  0
  -13.8850    4.7280  -20.4490 C   0  0  0  0  0
  -18.5960    6.2430   -7.3650 O   0  0  0  0  0
  -13.3730    5.6480  -19.3400 C   0  0  0  0  0
  -10.3860    0.5850  -16.7250 C   0  0  0  0  0
  -16.5210    3.8490  -11.3480 C   0  0  0  0  0
  -14.5400    6.1190  -18.4620 C   0  0  0  0  0
  -17.4090    4.7970   -8.8540 C   0  0  0  0  0
  -15.2430    2.1360   -3.4870 C   0  0  0  0  0
  -15.2110    4.9960  -17.6670 C   0  0  0  0  0
  -17.9040    2.7720   -3.8810 C   0  0  0  0  0
  -16.4300   -2.2860   -1.9690 C   0  0  0  0  0
  -17.3150   -3.5200   -2.0840 C   0  0  0  0  0
  -16.7420   -4.6390   -1.2520 C   0  0  0  0  0
  -14.5620   -3.8350   -1.4650 C   0  0  0  0  0
  -14.9960   -2.6670   -2.3110 C   0  0  0  0  0
  -17.6650    1.5030   -7.8520 C   0  0  0  0  0
  -18.3220    0.2860   -7.7480 C   0  0  0  0  0
  -16.4870   -0.7000   -6.7970 C   0  0  0  0  0
  -14.3270    3.8290  -17.3200 C   0  0  0  0  0
  -15.7250    0.4990   -6.8640 C   0  0  0  0  0
  -16.3540    1.6170   -7.4120 C   0  0  0  0  0
  -14.4500    0.1900   -6.2950 C   0  0  0  0  0
  -14.4840   -1.1160   -5.9240 C   0  0  0  0  0
  -12.6750    6.8520  -19.9720 C   0  0  0  0  0
  -13.0240    3.7830  -17.6710 C   0  0  0  0  0
  -12.3860    4.8900  -18.4500 C   0  0  0  0  0
  -12.1300    2.6490  -17.3290 C   0  0  0  0  0
  -11.4230    2.6610  -16.1350 C   0  0  0  0  0
  -10.5540    1.6280  -15.8380 C   0  0  0  0  0
  -16.0380    3.3840  -12.5570 N   0  0  0  0  0
  -16.9730    4.9280   -6.4580 N   0  0  0  0  0
  -15.8950   -0.1740   -3.0350 N   0  0  0  0  0
  -13.8130    1.8750   -3.3420 N   0  0  0  0  0
  -17.7550   -0.8130   -7.2300 N   0  0  0  0  0
  -15.7120   -1.6640   -6.2230 N   0  0  0  0  0
  -18.7110    5.4620   -4.7490 O   0  0  0  0  0
  -16.3770    6.2280   -4.4460 O   0  0  0  0  0
  -15.4160   -4.9570   -1.6600 O   0  0  0  0  0
  -13.4580    0.7750   -2.9480 O   0  0  0  0  0
  -13.0310    2.7690   -3.6330 O   0  0  0  0  0
  -18.3200    2.6210   -8.3770 O   0  0  0  0  0
  -17.3050    5.2290   -4.8830 S   0  0  0  0  0
   -9.2570   -0.6910  -16.3670 Cl  0  0  0  0  0
  -10.9739   -0.2675  -18.6017 H   0  0  0  0  0
  -12.5333    1.5704  -19.1455 H   0  0  0  0  0
  -15.6760    2.1637  -17.2041 H   0  0  0  0  0
  -14.1659    1.9222  -16.3481 H   0  0  0  0  0
  -13.8921    2.8838  -14.1162 H   0  0  0  0  0
  -13.9218    4.4560  -14.9690 H   0  0  0  0  0
  -15.7873    5.1861  -13.5858 H   0  0  0  0  0
  -14.4024    4.6854  -12.5629 H   0  0  0  0  0
  -17.5233    1.9586  -12.9225 H   0  0  0  0  0
  -17.7177    3.5114  -13.7955 H   0  0  0  0  0
  -17.0560    1.7586  -15.3472 H   0  0  0  0  0
  -15.6289    1.3785  -14.3336 H   0  0  0  0  0
  -17.3916    1.9674  -10.7522 H   0  0  0  0  0
  -16.5772    6.6767   -9.4776 H   0  0  0  0  0
  -15.7935    5.8474  -11.6513 H   0  0  0  0  0
  -14.8202    4.1933   -3.9287 H   0  0  0  0  0
  -18.3318    0.7424   -3.3718 H   0  0  0  0  0
  -17.8232   -0.7441   -2.4805 H   0  0  0  0  0
  -17.1419   -1.6201   -3.8742 H   0  0  0  0  0
  -16.1560    3.9489  -15.6553 H   0  0  0  0  0
  -14.3706    3.8597  -20.0037 H   0  0  0  0  0
  -14.6014    5.2695  -21.0667 H   0  0  0  0  0
  -13.0467    4.4013  -21.0643 H   0  0  0  0  0
  -15.2945    6.5420  -19.1253 H   0  0  0  0  0
  -14.1367    6.8302  -17.7411 H   0  0  0  0  0
  -16.0089    4.6038  -18.2976 H   0  0  0  0  0
  -15.5313    5.4341  -16.7217 H   0  0  0  0  0
  -18.9531    3.0356   -4.0155 H   0  0  0  0  0
  -16.4709   -1.9065   -0.9480 H   0  0  0  0  0
  -17.3618   -3.8339   -3.1268 H   0  0  0  0  0
  -18.3159   -3.2803   -1.7251 H   0  0  0  0  0
  -17.3668   -5.5229   -1.3802 H   0  0  0  0  0
  -16.7184   -4.3206   -0.2098 H   0  0  0  0  0
  -14.6075   -3.5411   -0.4164 H   0  0  0  0  0
  -13.5485   -4.1150   -1.7520 H   0  0  0  0  0
  -14.3413   -1.8177   -2.1154 H   0  0  0  0  0
  -14.9382   -2.9437   -3.3637 H   0  0  0  0  0
  -19.3498    0.2198   -8.1049 H   0  0  0  0  0
  -15.8237    2.5658   -7.4933 H   0  0  0  0  0
  -13.6091    0.8740   -6.1806 H   0  0  0  0  0
  -13.6585   -1.6532   -5.4569 H   0  0  0  0  0
  -11.8380    6.5076  -20.5794 H   0  0  0  0  0
  -13.3832    7.3925  -20.6001 H   0  0  0  0  0
  -12.3078    7.5115  -19.1857 H   0  0  0  0  0
  -11.9728    5.6013  -17.7349 H   0  0  0  0  0
  -11.6313    4.4450  -19.0985 H   0  0  0  0  0
  -11.5528    3.4840  -15.4322 H   0  0  0  0  0
   -9.9995    1.6376  -14.8996 H   0  0  0  0  0
  -16.1507    4.3632   -6.6707 H   0  0  0  0  0
  -14.9151   -0.4292   -2.9118 H   0  0  0  0  0
  2  1  4  0  0  0
  1 22  4  0  0  0
 45  2  4  0  0  0
 18  3  1  0  0  0
  3 37  1  0  0  0
  5  4  1  0  0  0
  4 18  1  0  0  0
 48  5  1  0  0  0
  6  7  1  0  0  0
 48  6  1  0  0  0
  7 18  1  0  0  0
  9  8  4  0  0  0
  8 23  4  0  0  0
 25  9  4  0  0  0
  9 59  1  0  0  0
 10 11  4  0  0  0
 25 10  4  0  0  0
 11 23  4  0  0  0
 12 20  2  0  0  0
 12 25  1  0  0  0
 49 12  1  0  0  0
 13 14  4  0  0  0
 13 28  4  0  0  0
 60 13  1  0  0  0
 14 26  4  0  0  0
 16 15  4  0  0  0
 26 15  4  0  0  0
 15 50  1  0  0  0
 28 16  4  0  0  0
 17 29  1  0  0  0
 50 17  1  0  0  0
 21 19  1  0  0  0
 24 21  1  0  0  0
 21 42  1  0  0  0
 44 21  1  0  0  0
 47 22  4  0  0  0
 22 61  1  0  0  0
 23 48  1  0  0  0
 27 24  1  0  0  0
 26 51  1  0  0  0
 37 27  1  0  0  0
 29 30  1  0  0  0
 29 33  1  0  0  0
 30 31  1  0  0  0
 31 56  1  0  0  0
 33 32  1  0  0  0
 32 56  1  0  0  0
 34 35  4  0  0  0
 34 39  4  0  0  0
 59 34  1  0  0  0
 35 52  4  0  0  0
 38 36  4  0  0  0
 52 36  4  0  0  0
 36 53  4  0  0  0
 37 43  2  0  0  0
 39 38  4  0  0  0
 38 40  4  0  0  0
 40 41  4  0  0  0
 41 53  4  0  0  0
 43 44  1  0  0  0
 43 45  1  0  0  0
 45 46  4  0  0  0
 46 47  4  0  0  0
 49 60  1  0  0  0
 51 57  2  0  0  0
 51 58  2  0  0  0
 60 54  2  0  0  0
 60 55  2  0  0  0
  1 62  1  0  0  0
  2 63  1  0  0  0
  3 64  1  0  0  0
  3 65  1  0  0  0
  4 66  1  0  0  0
  4 67  1  0  0  0
  5 68  1  0  0  0
  5 69  1  0  0  0
  6 70  1  0  0  0
  6 71  1  0  0  0
  7 72  1  0  0  0
  7 73  1  0  0  0
  8 74  1  0  0  0
 10 75  1  0  0  0
 11 76  1  0  0  0
 14 77  1  0  0  0
 16 78  1  0  0  0
 17 79  1  0  0  0
 17 80  1  0  0  0
 18 81  1  0  0  0
 19 82  1  0  0  0
 19 83  1  0  0  0
 19 84  1  0  0  0
 24 85  1  0  0  0
 24 86  1  0  0  0
 27 87  1  0  0  0
 27 88  1  0  0  0
 28 89  1  0  0  0
 29 90  1  0  0  0
 30 91  1  0  0  0
 30 92  1  0  0  0
 31 93  1  0  0  0
 31 94  1  0  0  0
 32 95  1  0  0  0
 32 96  1  0  0  0
 33 97  1  0  0  0
 33 98  1  0  0  0
 35 99  1  0  0  0
 39100  1  0  0  0
 40101  1  0  0  0
 41102  1  0  0  0
 42103  1  0  0  0
 42104  1  0  0  0
 42105  1  0  0  0
 44106  1  0  0  0
 44107  1  0  0  0
 46108  1  0  0  0
 47109  1  0  0  0
 49110  1  0  0  0
 50111  1  0  0  0
M  END
$$$$
