### 
### Created by X-TOOL on Mon Aug  2 16:11:44 2021
### 

@<TRIPOS>MOLECULE
6mtv_ligand
   96    95     1     0     0
SMALL
GAST_HUCK


@<TRIPOS>ATOM
      1 N           2.8090  -18.8220   13.1640 N.4       1 HIS         0.2377
      2 CA          3.4350  -17.5080   13.1130 C.3       1 HIS         0.0621
      3 C           2.9550  -16.7700   11.8780 C.2       1 HIS         0.2264
      4 O           3.1960  -17.2180   10.7570 O.2       1 HIS        -0.3907
      5 CB          4.9340  -17.6280   13.0970 C.3       1 HIS        -0.0040
      6 N           2.2850  -15.6390   12.0800 N.am      1 HIS        -0.2613
      7 CA          1.6970  -14.9050   10.9700 C.3       1 HIS         0.1283
      8 C           1.7520  -13.3970   11.2140 C.2       1 HIS         0.2037
      9 O           0.7390  -12.7080   11.2720 O.2       1 HIS        -0.3944
     10 CB          0.2610  -15.3680   10.7350 C.3       1 HIS        -0.0244
     11 N           2.9620  -12.8630   11.3670 N.am      1 HIS        -0.2616
     12 CA          3.2310  -11.4270   11.2730 C.3       1 HIS         0.1476
     13 C           2.3670  -10.6100   12.2420 C.2       1 HIS         0.2063
     14 O           1.4390   -9.9000   11.8520 O.2       1 HIS        -0.3942
     15 CB          3.0170  -10.9510    9.8280 C.3       1 HIS         0.0773
     16 CG          3.5940   -9.5820    9.5700 C.2       1 HIS         0.1780
     17 OD1         3.5280   -8.6970   10.4220 O.2       1 HIS        -0.3970
     18 ND2         4.1810   -9.4010    8.3930 N.am      1 HIS        -0.3007
     19 N           2.7260  -10.7000   13.5210 N.am      1 HIS        -0.2635
     20 CA          2.2100   -9.7930   14.5390 C.3       1 HIS         0.1325
     21 C           3.3000   -8.7900   14.9050 C.2       1 HIS         0.2041
     22 O           4.4840   -9.1390   14.9560 O.2       1 HIS        -0.3944
     23 CB          1.7560  -10.5380   15.8000 C.3       1 HIS        -0.0008
     24 CG          1.0710  -11.8700   15.5430 C.3       1 HIS         0.0044
     25 CD          0.2240  -12.3340   16.7200 C.2       1 HIS         0.0350
     26 OE1         0.0790  -11.5680   17.6950 O.co2     1 HIS        -0.5690
     27 OE2        -0.3050  -13.4650   16.6660 O.co2     1 HIS        -0.5690
     28 N           2.8990   -7.5470   15.1610 N.am      1 HIS        -0.2613
     29 CA          3.8190   -6.4840   15.5490 C.3       1 HIS         0.1565
     30 C           3.3440   -5.8780   16.8610 C.2       1 HIS         0.2065
     31 O           2.1760   -5.4970   16.9790 O.2       1 HIS        -0.3943
     32 CB          3.9070   -5.4030   14.4660 C.3       1 HIS         0.0924
     33 OG1         4.5170   -5.9440   13.2870 O.3       1 HIS        -0.3874
     34 CG2         4.7210   -4.2200   14.9550 C.3       1 HIS        -0.0346
     35 N           4.2430   -5.7830   17.8380 N.am      1 HIS        -0.2615
     36 CA          3.8790   -5.2740   19.1550 C.3       1 HIS         0.1539
     37 C           3.9250   -3.7510   19.1820 C.2       1 HIS         0.2056
     38 O           4.8190   -3.1300   18.6010 O.2       1 HIS        -0.3943
     39 CB          4.8140   -5.8390   20.2230 C.3       1 HIS         0.0843
     40 OG          4.4590   -5.3610   21.5070 O.3       1 HIS        -0.3903
     41 N           2.9590   -3.1530   19.8750 N.am      1 HIS        -0.2694
     42 CA          2.8400   -1.6990   19.9410 C.3       1 HIS         0.0946
     43 C           2.2670   -1.2260   21.2720 C.2       1 HIS         0.0601
     44 O           1.5550   -1.9590   21.9580 O.co2     1 HIS        -0.5666
     45 CB          1.9590   -1.1920   18.7980 C.3       1 HIS        -0.0156
     46 CG          2.6630   -0.8300   17.4940 C.3       1 HIS        -0.0431
     47 CD1         1.6900   -0.9050   16.3300 C.3       1 HIS        -0.0625
     48 CD2         3.2710    0.5610   17.5930 C.3       1 HIS        -0.0625
     49 OXT         2.4990   -0.0900   21.6910 O.co2     1 HIS        -0.5666
     50 H1          3.1269  -19.3140   13.9843 H         1 HIS         0.2015
     51 H2          3.0595  -19.3457   12.3400 H         1 HIS         0.2015
     52 H3          1.8074  -18.7157   13.2031 H         1 HIS         0.2015
     53 H4          3.1379  -16.9392   14.0064 H         1 HIS         0.1095
     54 H5          5.3818  -16.6240   13.0584 H         1 HIS         0.0310
     55 H6          5.2464  -18.2030   12.2128 H         1 HIS         0.0310
     56 H7          5.2703  -18.1447   14.0080 H         1 HIS         0.0310
     57 H8          2.1837  -15.2872   13.0106 H         1 HIS         0.1884
     58 H9          2.2819  -15.1249   10.0648 H         1 HIS         0.0797
     59 H10        -0.1724  -14.8064    9.8943 H         1 HIS         0.0277
     60 H11        -0.3352  -15.1886   11.6418 H         1 HIS         0.0277
     61 H12         0.2560  -16.4425   10.4995 H         1 HIS         0.0277
     62 H13         3.7289  -13.4762   11.5564 H         1 HIS         0.1885
     63 H14         4.2852  -11.2608   11.5393 H         1 HIS         0.0826
     64 H15         1.9364  -10.9204    9.6248 H         1 HIS         0.0551
     65 H16         3.4980  -11.6686    9.1471 H         1 HIS         0.0551
     66 H17         4.5820   -8.5136    8.1654 H         1 HIS         0.1814
     67 H18         4.2222  -10.1520    7.7340 H         1 HIS         0.1814
     68 H19         3.3714  -11.4139   13.7925 H         1 HIS         0.1883
     69 H20         1.3470   -9.2525   14.1231 H         1 HIS         0.0801
     70 H21         1.0524   -9.8912   16.3446 H         1 HIS         0.0330
     71 H22         2.6420  -10.7241   16.4248 H         1 HIS         0.0330
     72 H23         1.8418  -12.6291   15.3437 H         1 HIS         0.0433
     73 H24         0.4213  -11.7669   14.6614 H         1 HIS         0.0433
     74 H25         1.9252   -7.3328   15.0840 H         1 HIS         0.1884
     75 H26         4.8201   -6.9160   15.6948 H         1 HIS         0.0826
     76 H27         2.8906   -5.0609   14.2215 H         1 HIS         0.0639
     77 H28         4.5684   -5.2692   12.6203 H         1 HIS         0.2101
     78 H29         4.7714   -3.4575   14.1638 H         1 HIS         0.0257
     79 H30         5.7382   -4.5541   15.2075 H         1 HIS         0.0257
     80 H31         4.2437   -3.7906   15.8482 H         1 HIS         0.0257
     81 H32         5.1864   -6.0662   17.6654 H         1 HIS         0.1884
     82 H33         2.8520   -5.5969   19.3806 H         1 HIS         0.0823
     83 H34         5.8461   -5.5328   19.9971 H         1 HIS         0.0606
     84 H35         4.7474   -6.9369   20.2161 H         1 HIS         0.0606
     85 H36         5.0522   -5.7242   22.1541 H         1 HIS         0.2097
     86 H37         2.2943   -3.7165   20.3655 H         1 HIS         0.1875
     87 H38         3.8458   -1.2685   19.8273 H         1 HIS         0.0726
     88 H39         1.4366   -0.2921   19.1548 H         1 HIS         0.0308
     89 H40         1.2232   -1.9777   18.5716 H         1 HIS         0.0308
     90 H41         3.4726   -1.5540   17.3199 H         1 HIS         0.0297
     91 H42         2.2120   -0.6416   15.3983 H         1 HIS         0.0232
     92 H43         0.8621   -0.2005   16.4981 H         1 HIS         0.0232
     93 H44         1.2914   -1.9271   16.2506 H         1 HIS         0.0232
     94 H45         3.9716    0.5954   18.4403 H         1 HIS         0.0232
     95 H46         2.4715    1.3005   17.7481 H         1 HIS         0.0232
     96 H47         3.8095    0.7929   16.6623 H         1 HIS         0.0232
@<TRIPOS>BOND
     1    1    2 1  
     2    2    3 1  
     3    2    5 1  
     4    3    4 2  
     5    3    6 am 
     6    6    7 1  
     7    7    8 1  
     8    7   10 1  
     9    8    9 2  
    10    8   11 am 
    11   11   12 1  
    12   12   13 1  
    13   12   15 1  
    14   13   14 2  
    15   13   19 am 
    16   15   16 1  
    17   16   17 2  
    18   16   18 am 
    19   19   20 1  
    20   20   21 1  
    21   20   23 1  
    22   21   22 2  
    23   21   28 am 
    24   23   24 1  
    25   24   25 1  
    26   25   26 ar 
    27   25   27 ar 
    28   28   29 1  
    29   29   30 1  
    30   29   32 1  
    31   30   31 2  
    32   30   35 am 
    33   32   33 1  
    34   32   34 1  
    35   35   36 1  
    36   36   37 1  
    37   36   39 1  
    38   37   38 2  
    39   37   41 am 
    40   39   40 1  
    41   41   42 1  
    42   42   43 1  
    43   42   45 1  
    44   43   44 ar 
    45   43   49 ar 
    46   45   46 1  
    47   46   47 1  
    48   46   48 1  
    49    1   50 1  
    50    1   51 1  
    51    1   52 1  
    52    2   53 1  
    53    5   54 1  
    54    5   55 1  
    55    5   56 1  
    56    6   57 1  
    57    7   58 1  
    58   10   59 1  
    59   10   60 1  
    60   10   61 1  
    61   11   62 1  
    62   12   63 1  
    63   15   64 1  
    64   15   65 1  
    65   18   66 1  
    66   18   67 1  
    67   19   68 1  
    68   20   69 1  
    69   23   70 1  
    70   23   71 1  
    71   24   72 1  
    72   24   73 1  
    73   28   74 1  
    74   29   75 1  
    75   32   76 1  
    76   33   77 1  
    77   34   78 1  
    78   34   79 1  
    79   34   80 1  
    80   35   81 1  
    81   36   82 1  
    82   39   83 1  
    83   39   84 1  
    84   40   85 1  
    85   41   86 1  
    86   42   87 1  
    87   45   88 1  
    88   45   89 1  
    89   46   90 1  
    90   47   91 1  
    91   47   92 1  
    92   47   93 1  
    93   48   94 1  
    94   48   95 1  
    95   48   96 1  
@<TRIPOS>SUBSTRUCTURE
     1 HIS         1

