6mtv_ligand
  -I-interpret- 

 98 97  0  0  0  0  0  0  0  0999 V2000
    2.8090  -18.8220   13.1640 N   0  3  0  0  0
    3.4350  -17.5080   13.1130 C   0  0  0  0  0
    2.9550  -16.7700   11.8780 C   0  0  0  0  0
    3.1960  -17.2180   10.7570 O   0  0  0  0  0
    4.9340  -17.6280   13.0970 C   0  0  0  0  0
    2.2850  -15.6390   12.0800 N   0  0  0  0  0
    1.6970  -14.9050   10.9700 C   0  0  0  0  0
    1.7520  -13.3970   11.2140 C   0  0  0  0  0
    0.7390  -12.7080   11.2720 O   0  0  0  0  0
    0.2610  -15.3680   10.7350 C   0  0  0  0  0
    2.9620  -12.8630   11.3670 N   0  0  0  0  0
    3.2310  -11.4270   11.2730 C   0  0  0  0  0
    2.3670  -10.6100   12.2420 C   0  0  0  0  0
    1.4390   -9.9000   11.8520 O   0  0  0  0  0
    3.0170  -10.9510    9.8280 C   0  0  0  0  0
    3.5940   -9.5820    9.5700 C   0  0  0  0  0
    3.5280   -8.6970   10.4220 O   0  0  0  0  0
    4.1810   -9.4010    8.3930 N   0  0  0  0  0
    2.7260  -10.7000   13.5210 N   0  0  0  0  0
    2.2100   -9.7930   14.5390 C   0  0  0  0  0
    3.3000   -8.7900   14.9050 C   0  0  0  0  0
    4.4840   -9.1390   14.9560 O   0  0  0  0  0
    1.7560  -10.5380   15.8000 C   0  0  0  0  0
    1.0710  -11.8700   15.5430 C   0  0  0  0  0
    0.2240  -12.3340   16.7200 C   0  0  0  0  0
    0.0790  -11.5680   17.6950 O   0  0  0  0  0
   -0.3050  -13.4650   16.6660 O   0  0  0  0  0
    2.8990   -7.5470   15.1610 N   0  0  0  0  0
    3.8190   -6.4840   15.5490 C   0  0  0  0  0
    3.3440   -5.8780   16.8610 C   0  0  0  0  0
    2.1760   -5.4970   16.9790 O   0  0  0  0  0
    3.9070   -5.4030   14.4660 C   0  0  0  0  0
    4.5170   -5.9440   13.2870 O   0  0  0  0  0
    4.7210   -4.2200   14.9550 C   0  0  0  0  0
    4.2430   -5.7830   17.8380 N   0  0  0  0  0
    3.8790   -5.2740   19.1550 C   0  0  0  0  0
    3.9250   -3.7510   19.1820 C   0  0  0  0  0
    4.8190   -3.1300   18.6010 O   0  0  0  0  0
    4.8140   -5.8390   20.2230 C   0  0  0  0  0
    4.4590   -5.3610   21.5070 O   0  0  0  0  0
    2.9590   -3.1530   19.8750 N   0  0  0  0  0
    2.8400   -1.6990   19.9410 C   0  0  0  0  0
    2.2670   -1.2260   21.2720 C   0  0  0  0  0
    1.5550   -1.9590   21.9580 O   0  0  0  0  0
    1.9590   -1.1920   18.7980 C   0  0  0  0  0
    2.6630   -0.8300   17.4940 C   0  0  0  0  0
    1.6900   -0.9050   16.3300 C   0  0  0  0  0
    3.2710    0.5610   17.5930 C   0  0  0  0  0
    2.4990   -0.0900   21.6910 O   0  0  0  0  0
    1.7948  -18.7140   13.1740 H   0  0  0  0  0
    3.0866  -19.3616   12.3441 H   0  0  0  0  0
    3.1087  -19.3075   14.0095 H   0  0  0  0  0
    3.1523  -16.9487   14.0048 H   0  0  0  0  0
    5.2437  -18.1788   12.2088 H   0  0  0  0  0
    5.3768  -16.6321   13.0813 H   0  0  0  0  0
    5.2642  -18.1598   13.9893 H   0  0  0  0  0
    2.1817  -15.2802   13.0292 H   0  0  0  0  0
    2.2806  -15.1136   10.0733 H   0  0  0  0  0
   -0.3434  -15.1323   11.6110 H   0  0  0  0  0
   -0.1461  -14.8566    9.8628 H   0  0  0  0  0
    0.2510  -16.4445   10.5641 H   0  0  0  0  0
    3.7442  -13.4885   11.5602 H   0  0  0  0  0
    4.2700  -11.2647   11.5598 H   0  0  0  0  0
    1.9429  -10.8986    9.6502 H   0  0  0  0  0
    3.5222  -11.6553    9.1671 H   0  0  0  0  0
    4.6005   -8.4995    8.1656 H   0  0  0  0  0
    4.2125  -10.1634    7.7162 H   0  0  0  0  0
    3.3843  -11.4282   13.7979 H   0  0  0  0  0
    1.3380   -9.2842   14.1281 H   0  0  0  0  0
    1.0275   -9.8992   16.2993 H   0  0  0  0  0
    2.6531  -10.7510   16.3814 H   0  0  0  0  0
    1.8464  -12.6173   15.3743 H   0  0  0  0  0
    0.4107  -11.7459   14.6847 H   0  0  0  0  0
   -0.0692  -13.8881   15.8371 H   0  0  0  0  0
    1.9058   -7.3285   15.0825 H   0  0  0  0  0
    4.8163   -6.9060   15.6731 H   0  0  0  0  0
    2.8968   -5.0648   14.2355 H   0  0  0  0  0
    4.5689   -5.2621   12.6133 H   0  0  0  0  0
    4.2471   -3.7955   15.8400 H   0  0  0  0  0
    5.7286   -4.5523   15.2049 H   0  0  0  0  0
    4.7702   -3.4652   14.1702 H   0  0  0  0  0
    5.2053   -6.0719   17.6620 H   0  0  0  0  0
    2.8593   -5.5947   19.3682 H   0  0  0  0  0
    5.8331   -5.5231   20.0002 H   0  0  0  0  0
    4.7353   -6.9262   20.2190 H   0  0  0  0  0
    5.0584   -5.7280   22.1609 H   0  0  0  0  0
    2.2810   -3.7278   20.3753 H   0  0  0  0  0
    3.8460   -1.2900   19.8477 H   0  0  0  0  0
    1.5039   -0.2693   19.1581 H   0  0  0  0  0
    1.2832   -2.0120   18.5552 H   0  0  0  0  0
    3.4652   -1.5468   17.3186 H   0  0  0  0  0
    1.2957   -1.9182   16.2524 H   0  0  0  0  0
    0.8702   -0.2066   16.4978 H   0  0  0  0  0
    2.2084   -0.6438   15.4074 H   0  0  0  0  0
    2.4823    1.2879   17.7868 H   0  0  0  0  0
    3.9949    0.5826   18.4076 H   0  0  0  0  0
    3.7699    0.8056   16.6553 H   0  0  0  0  0
    3.0615    0.3720   21.0651 H   0  0  0  0  0
  1  2  1  0  0  0
  2  3  1  0  0  0
  2  5  1  0  0  0
  3  4  2  0  0  0
  3  6  1  0  0  0
  6  7  1  0  0  0
  7  8  1  0  0  0
  7 10  1  0  0  0
  8  9  2  0  0  0
  8 11  1  0  0  0
 11 12  1  0  0  0
 12 13  1  0  0  0
 12 15  1  0  0  0
 13 14  2  0  0  0
 13 19  1  0  0  0
 15 16  1  0  0  0
 16 17  2  0  0  0
 16 18  1  0  0  0
 19 20  1  0  0  0
 20 21  1  0  0  0
 20 23  1  0  0  0
 21 22  2  0  0  0
 21 28  1  0  0  0
 23 24  1  0  0  0
 24 25  1  0  0  0
 25 26  2  0  0  0
 25 27  1  0  0  0
 28 29  1  0  0  0
 29 30  1  0  0  0
 29 32  1  0  0  0
 30 31  2  0  0  0
 30 35  1  0  0  0
 32 33  1  0  0  0
 32 34  1  0  0  0
 35 36  1  0  0  0
 36 37  1  0  0  0
 36 39  1  0  0  0
 37 38  2  0  0  0
 37 41  1  0  0  0
 39 40  1  0  0  0
 41 42  1  0  0  0
 42 43  1  0  0  0
 42 45  1  0  0  0
 43 44  2  0  0  0
 43 49  1  0  0  0
 45 46  1  0  0  0
 46 47  1  0  0  0
 46 48  1  0  0  0
  1 50  1  0  0  0
  1 51  1  0  0  0
  1 52  1  0  0  0
  2 53  1  0  0  0
  5 54  1  0  0  0
  5 55  1  0  0  0
  5 56  1  0  0  0
  6 57  1  0  0  0
  7 58  1  0  0  0
 10 59  1  0  0  0
 10 60  1  0  0  0
 10 61  1  0  0  0
 11 62  1  0  0  0
 12 63  1  0  0  0
 15 64  1  0  0  0
 15 65  1  0  0  0
 18 66  1  0  0  0
 18 67  1  0  0  0
 19 68  1  0  0  0
 20 69  1  0  0  0
 23 70  1  0  0  0
 23 71  1  0  0  0
 24 72  1  0  0  0
 24 73  1  0  0  0
 27 74  1  0  0  0
 28 75  1  0  0  0
 29 76  1  0  0  0
 32 77  1  0  0  0
 33 78  1  0  0  0
 34 79  1  0  0  0
 34 80  1  0  0  0
 34 81  1  0  0  0
 35 82  1  0  0  0
 36 83  1  0  0  0
 39 84  1  0  0  0
 39 85  1  0  0  0
 40 86  1  0  0  0
 41 87  1  0  0  0
 42 88  1  0  0  0
 45 89  1  0  0  0
 45 90  1  0  0  0
 46 91  1  0  0  0
 47 92  1  0  0  0
 47 93  1  0  0  0
 47 94  1  0  0  0
 48 95  1  0  0  0
 48 96  1  0  0  0
 48 97  1  0  0  0
 49 98  1  0  0  0
M  END
$$$$
