3fdt_ligand
  -I-interpret- 

154153  0  0  0  0  0  0  0  0999 V2000
   16.9420   21.6500   28.5430 N   0  3  0  0  0
   16.4960   20.2470   28.3100 C   0  0  0  0  0
   15.0280   20.1460   27.9580 C   0  0  0  0  0
   14.5720   19.0850   27.5500 O   0  0  0  0  0
   16.8360   19.3680   29.4570 C   0  0  0  0  0
   14.2990   21.2370   28.1410 N   0  0  0  0  0
   12.9380   21.3550   27.6170 C   0  0  0  0  0
   12.9810   21.2260   26.0660 C   0  0  0  0  0
   13.9060   21.7360   25.4460 O   0  0  0  0  0
   12.4530   22.7300   28.0340 C   0  0  0  0  0
   11.2810   23.3240   27.3090 C   0  0  0  0  0
   10.8920   24.6890   27.9740 C   0  0  0  0  0
   11.9870   25.6390   27.9990 N   0  0  0  0  0
   12.4650   26.3120   29.0430 C   0  0  0  0  0
   11.9840   26.1810   30.2480 N   0  0  0  0  0
   13.4770   27.1410   28.8580 N   0  0  0  0  0
   12.0050   20.5730   25.4390 N   0  0  0  0  0
   12.0590   20.3500   23.9860 C   0  0  0  0  0
   11.4410   21.5500   23.2880 C   0  0  0  0  0
   10.6970   22.2890   23.8950 O   0  0  0  0  0
   11.2300   19.1530   23.5950 C   0  0  0  0  0
    9.9150   19.3430   24.1190 O   0  0  0  0  0
   11.7950   17.8560   24.1970 C   0  0  0  0  0
   11.7510   21.7420   22.0090 N   0  0  0  0  0
   11.0750   22.7190   21.1630 C   0  0  0  0  0
   10.7750   22.0520   19.8170 C   0  0  0  0  0
   11.4950   21.1360   19.3770 O   0  0  0  0  0
   11.9440   23.9620   20.9580 C   0  0  0  0  0
    9.6920   22.4700   19.1750 N   0  0  0  0  0
    9.3370   21.9270   17.8640 C   0  0  0  0  0
   10.1030   22.7880   16.8410 C   0  0  0  0  0
    9.8020   23.9630   16.7220 O   0  0  0  0  0
    7.8280   22.0040   17.6450 C   0  0  0  0  0
    7.0050   21.2550   18.6870 C   0  0  0  0  0
    7.2380   19.7600   18.6300 C   0  0  0  0  0
    7.7540   19.1330   19.5890 O   0  0  0  0  0
    6.8930   19.1700   17.5000 N   0  0  0  0  0
   11.0950   22.2150   16.1300 N   0  0  0  0  0
   11.8830   23.0100   15.1660 C   0  0  0  0  0
   12.0280   22.3340   13.8000 C   0  0  0  0  0
   11.7170   21.1630   13.6260 O   0  0  0  0  0
   13.3200   23.2880   15.6760 C   0  0  0  0  0
   13.9490   22.0300   15.8820 O   0  0  0  0  0
   13.3040   24.0390   17.0100 C   0  0  0  0  0
   12.5470   23.0880   12.8400 N   0  0  0  0  0
   12.8880   22.5270   11.5280 C   0  0  0  0  0
   13.9810   23.3910   10.9140 C   0  0  0  0  0
   14.0520   24.5730   11.2210 O   0  0  0  0  0
   11.6480   22.5440   10.6210 C   0  0  0  0  0
   14.8120   22.8070   10.0470 N   0  0  0  0  0
   15.7640   23.5750    9.2210 C   0  0  0  0  0
   15.0300   24.0750    7.9920 C   0  0  0  0  0
   14.2640   23.3370    7.3770 O   0  0  0  0  0
   16.9140   22.6850    8.7290 C   0  0  0  0  0
   15.2550   25.3170    7.6240 N   0  0  0  0  0
   14.6160   25.8670    6.4700 C   0  0  0  0  0
   14.4520   27.2760    6.9230 C   0  0  0  0  0
   13.6320   28.1760    6.0540 C   0  0  0  0  0
   12.9260   28.9900    7.1370 C   0  0  0  0  0
   12.6540   30.3440    6.5550 C   0  0  0  0  0
   12.1120   31.3360    7.4850 N   0  3  0  0  0
   15.5750   25.8040    5.3100 C   0  0  0  0  0
   16.6950   26.2300    5.4520 O   0  0  0  0  0
   10.9810   31.9300    6.7860 C   0  0  0  0  0
   13.1400   32.3360    7.7100 C   0  0  0  0  0
   11.6650   30.8600    8.7850 C   0  0  0  0  0
   15.1540   25.2710    4.1700 N   0  0  0  0  0
   16.0680   24.9990    3.0400 C   0  0  0  0  0
   16.8120   26.2530    2.5480 C   0  0  0  0  0
   16.2070   27.3460    2.4840 O   0  0  0  0  0
   15.2820   24.4060    1.8720 C   0  0  0  0  0
   14.9250   23.0610    2.1250 O   0  0  0  0  0
   18.0240   26.1792    2.2115 O   0  0  0  0  0
   16.6925   22.2231   27.7370 H   0  0  0  0  0
   16.4842   22.0169   29.3774 H   0  0  0  0  0
   17.9535   21.6667   28.6735 H   0  0  0  0  0
   17.0487   19.8939   27.4394 H   0  0  0  0  0
   16.2487   19.6637   30.3263 H   0  0  0  0  0
   16.6104   18.3332   29.1994 H   0  0  0  0  0
   17.8977   19.4640   29.6845 H   0  0  0  0  0
   14.6982   22.0175   28.6624 H   0  0  0  0  0
   12.2723   20.5795   27.9959 H   0  0  0  0  0
   13.2865   23.4015   27.8281 H   0  0  0  0  0
   12.1221   22.6153   29.0662 H   0  0  0  0  0
   10.4349   22.6391   27.3639 H   0  0  0  0  0
   11.5464   23.4911   26.2651 H   0  0  0  0  0
   10.6048   24.4860   29.0057 H   0  0  0  0  0
   10.0855   25.1271   27.3860 H   0  0  0  0  0
   12.4481   25.8131   27.1060 H   0  0  0  0  0
   11.2086   25.5413   30.4209 H   0  0  0  0  0
   13.8626   27.6593   29.6474 H   0  0  0  0  0
   13.8727   27.2627   27.9258 H   0  0  0  0  0
   11.2096   20.2228   25.9729 H   0  0  0  0  0
   13.1005   20.1955   23.7039 H   0  0  0  0  0
   11.2336   19.0640   22.5086 H   0  0  0  0  0
    9.3660   18.5917   23.8828 H   0  0  0  0  0
   12.8129   17.7037   23.8382 H   0  0  0  0  0
   11.7994   17.9334   25.2842 H   0  0  0  0  0
   11.1719   17.0146   23.8938 H   0  0  0  0  0
   12.4970   21.1792   21.6003 H   0  0  0  0  0
   10.1509   23.0432   21.6415 H   0  0  0  0  0
   12.1532   24.4209   21.9243 H   0  0  0  0  0
   12.8807   23.6742   20.4806 H   0  0  0  0  0
   11.4149   24.6731   20.3236 H   0  0  0  0  0
    9.0979   23.1807   19.6020 H   0  0  0  0  0
    9.6039   20.8745   17.7685 H   0  0  0  0  0
    7.6197   21.5432   16.6794 H   0  0  0  0  0
    7.5474   23.0553   17.7092 H   0  0  0  0  0
    5.9502   21.4425   18.4860 H   0  0  0  0  0
    7.3036   21.6082   19.6740 H   0  0  0  0  0
    7.0428   18.1681   17.3814 H   0  0  0  0  0
    6.4767   19.7162   16.7459 H   0  0  0  0  0
   11.3030   21.2248   16.2588 H   0  0  0  0  0
   11.3178   23.9362   15.0626 H   0  0  0  0  0
   13.8475   23.8993   14.9438 H   0  0  0  0  0
   14.8443   22.1693   16.1993 H   0  0  0  0  0
   12.7911   24.9923   16.8827 H   0  0  0  0  0
   12.7813   23.4406   17.7561 H   0  0  0  0  0
   14.3283   24.2169   17.3376 H   0  0  0  0  0
   12.7125   24.0787   13.0177 H   0  0  0  0  0
   13.2323   21.4983   11.6343 H   0  0  0  0  0
   10.8581   21.9467   11.0764 H   0  0  0  0  0
   11.3036   23.5708   10.4977 H   0  0  0  0  0
   11.9056   22.1265    9.6476 H   0  0  0  0  0
   14.7879   21.7917    9.9520 H   0  0  0  0  0
   16.1655   24.3889    9.8247 H   0  0  0  0  0
   17.4477   22.2759    9.5868 H   0  0  0  0  0
   16.5097   21.8701    8.1285 H   0  0  0  0  0
   17.5983   23.2794    8.1235 H   0  0  0  0  0
   15.8940   25.8956    8.1693 H   0  0  0  0  0
   13.6974   25.3768    6.1477 H   0  0  0  0  0
   15.4543   27.7042    6.9339 H   0  0  0  0  0
   13.9272   27.2233    7.8769 H   0  0  0  0  0
   12.9653   27.6603    5.3629 H   0  0  0  0  0
   14.2049   28.7668    5.3392 H   0  0  0  0  0
   13.5481   29.0698    8.0284 H   0  0  0  0  0
   11.9980   28.5062    7.4416 H   0  0  0  0  0
   11.9002   30.2019    5.7806 H   0  0  0  0  0
   13.6136   30.7322    6.2136 H   0  0  0  0  0
   11.3286   32.3919    5.8619 H   0  0  0  0  0
   10.2510   31.1545    6.5539 H   0  0  0  0  0
   10.5198   32.6866    7.4208 H   0  0  0  0  0
   14.0227   31.8585    8.1354 H   0  0  0  0  0
   13.4011   32.8064    6.7621 H   0  0  0  0  0
   12.7654   33.0913    8.4009 H   0  0  0  0  0
   10.8707   30.1261    8.6483 H   0  0  0  0  0
   12.5019   30.3982    9.3088 H   0  0  0  0  0
   11.2886   31.7003    9.3684 H   0  0  0  0  0
   14.1654   25.0409    4.0698 H   0  0  0  0  0
   16.8152   24.2961    3.4084 H   0  0  0  0  0
   15.9079   24.4376    0.9802 H   0  0  0  0  0
   14.3704   24.9878    1.7355 H   0  0  0  0  0
   14.4335   22.7153    1.3763 H   0  0  0  0  0
   18.3308   25.2761    2.3206 H   0  0  0  0  0
  1  2  1  0  0  0
  2  3  1  0  0  0
  2  5  1  0  0  0
  3  4  2  0  0  0
  3  6  1  0  0  0
  6  7  1  0  0  0
  7  8  1  0  0  0
  7 10  1  0  0  0
  8  9  2  0  0  0
  8 17  1  0  0  0
 10 11  1  0  0  0
 11 12  1  0  0  0
 12 13  1  0  0  0
 13 14  1  0  0  0
 14 15  2  0  0  0
 14 16  1  0  0  0
 17 18  1  0  0  0
 18 19  1  0  0  0
 18 21  1  0  0  0
 19 20  2  0  0  0
 19 24  1  0  0  0
 21 22  1  0  0  0
 21 23  1  0  0  0
 24 25  1  0  0  0
 25 26  1  0  0  0
 25 28  1  0  0  0
 26 27  2  0  0  0
 26 29  1  0  0  0
 29 30  1  0  0  0
 30 31  1  0  0  0
 30 33  1  0  0  0
 31 32  2  0  0  0
 31 38  1  0  0  0
 33 34  1  0  0  0
 34 35  1  0  0  0
 35 36  2  0  0  0
 35 37  1  0  0  0
 38 39  1  0  0  0
 39 40  1  0  0  0
 39 42  1  0  0  0
 40 41  2  0  0  0
 40 45  1  0  0  0
 42 43  1  0  0  0
 42 44  1  0  0  0
 45 46  1  0  0  0
 46 47  1  0  0  0
 46 49  1  0  0  0
 47 48  2  0  0  0
 47 50  1  0  0  0
 50 51  1  0  0  0
 51 52  1  0  0  0
 51 54  1  0  0  0
 52 53  2  0  0  0
 52 55  1  0  0  0
 55 56  1  0  0  0
 56 57  1  0  0  0
 56 62  1  0  0  0
 57 58  1  0  0  0
 58 59  1  0  0  0
 59 60  1  0  0  0
 60 61  1  0  0  0
 61 64  1  0  0  0
 61 65  1  0  0  0
 61 66  1  0  0  0
 62 63  2  0  0  0
 62 67  1  0  0  0
 67 68  1  0  0  0
 68 69  1  0  0  0
 68 71  1  0  0  0
 69 70  2  0  0  0
 71 72  1  0  0  0
 69 73  1  0  0  0
  1 74  1  0  0  0
  1 75  1  0  0  0
  1 76  1  0  0  0
  2 77  1  0  0  0
  5 78  1  0  0  0
  5 79  1  0  0  0
  5 80  1  0  0  0
  6 81  1  0  0  0
  7 82  1  0  0  0
 10 83  1  0  0  0
 10 84  1  0  0  0
 11 85  1  0  0  0
 11 86  1  0  0  0
 12 87  1  0  0  0
 12 88  1  0  0  0
 13 89  1  0  0  0
 15 90  1  0  0  0
 16 91  1  0  0  0
 16 92  1  0  0  0
 17 93  1  0  0  0
 18 94  1  0  0  0
 21 95  1  0  0  0
 22 96  1  0  0  0
 23 97  1  0  0  0
 23 98  1  0  0  0
 23 99  1  0  0  0
 24100  1  0  0  0
 25101  1  0  0  0
 28102  1  0  0  0
 28103  1  0  0  0
 28104  1  0  0  0
 29105  1  0  0  0
 30106  1  0  0  0
 33107  1  0  0  0
 33108  1  0  0  0
 34109  1  0  0  0
 34110  1  0  0  0
 37111  1  0  0  0
 37112  1  0  0  0
 38113  1  0  0  0
 39114  1  0  0  0
 42115  1  0  0  0
 43116  1  0  0  0
 44117  1  0  0  0
 44118  1  0  0  0
 44119  1  0  0  0
 45120  1  0  0  0
 46121  1  0  0  0
 49122  1  0  0  0
 49123  1  0  0  0
 49124  1  0  0  0
 50125  1  0  0  0
 51126  1  0  0  0
 54127  1  0  0  0
 54128  1  0  0  0
 54129  1  0  0  0
 55130  1  0  0  0
 56131  1  0  0  0
 57132  1  0  0  0
 57133  1  0  0  0
 58134  1  0  0  0
 58135  1  0  0  0
 59136  1  0  0  0
 59137  1  0  0  0
 60138  1  0  0  0
 60139  1  0  0  0
 64140  1  0  0  0
 64141  1  0  0  0
 64142  1  0  0  0
 65143  1  0  0  0
 65144  1  0  0  0
 65145  1  0  0  0
 66146  1  0  0  0
 66147  1  0  0  0
 66148  1  0  0  0
 67149  1  0  0  0
 68150  1  0  0  0
 71151  1  0  0  0
 71152  1  0  0  0
 72153  1  0  0  0
 73154  1  0  0  0
M  END
$$$$
