### 
### Created by X-TOOL on Mon Sep 10 21:13:00 2018
### 

@<TRIPOS>MOLECULE
3fdt_ligand
  154   153     1     0     0
SMALL
GAST_HUCK


@<TRIPOS>ATOM
      1 N          16.9420   21.6500   28.5430 N.4       1 ALA         0.2377
      2 CA         16.4960   20.2470   28.3100 C.3       1 ALA         0.0621
      3 C          15.0280   20.1460   27.9580 C.2       1 ALA         0.2264
      4 O          14.5720   19.0850   27.5500 O.2       1 ALA        -0.3907
      5 CB         16.8360   19.3680   29.4570 C.3       1 ALA        -0.0040
      6 N          14.2990   21.2370   28.1410 N.am      1 ARG        -0.2610
      7 CA         12.9380   21.3550   27.6170 C.3       1 ARG         0.1312
      8 C          12.9810   21.2260   26.0660 C.2       1 ARG         0.2040
      9 O          13.9060   21.7360   25.4460 O.2       1 ARG        -0.3944
     10 CB         12.4530   22.7300   28.0340 C.3       1 ARG        -0.0092
     11 CG         11.2810   23.3240   27.3090 C.3       1 ARG        -0.0156
     12 CD         10.8920   24.6890   27.9740 C.3       1 ARG         0.0627
     13 NE         11.9870   25.6390   27.9990 N.pl3     1 ARG        -0.2723
     14 CZ         12.4650   26.3120   29.0430 C.cat     1 ARG         0.2882
     15 NH1        11.9840   26.1810   30.2480 N.pl3     1 ARG        -0.2849
     16 NH2        13.4770   27.1410   28.8580 N.pl3     1 ARG        -0.2849
     17 N          12.0050   20.5730   25.4390 N.am      1 THR        -0.2613
     18 CA         12.0590   20.3500   23.9860 C.3       1 THR         0.1565
     19 C          11.4410   21.5500   23.2880 C.2       1 THR         0.2065
     20 O          10.6970   22.2890   23.8950 O.2       1 THR        -0.3943
     21 CB         11.2300   19.1530   23.5950 C.3       1 THR         0.0924
     22 OG1         9.9150   19.3430   24.1190 O.3       1 THR        -0.3874
     23 CG2        11.7950   17.8560   24.1970 C.3       1 THR        -0.0346
     24 N          11.7510   21.7420   22.0090 N.am      1 LYS        -0.2639
     25 CA         11.0750   22.7190   21.1630 C.3       1 LYS         0.1282
     26 C          10.7750   22.0520   19.8170 C.2       1 LYS         0.2036
     27 O          11.4950   21.1360   19.3770 O.2       1 LYS        -0.3944
     28 CB         11.9440   23.9620   20.9580 C.3       1 LYS        -0.0244
     29 N           9.6920   22.4700   19.1750 N.am      1 GLN        -0.2636
     30 CA          9.3370   21.9270   17.8640 C.3       1 GLN         0.1330
     31 C          10.1030   22.7880   16.8410 C.2       1 GLN         0.2041
     32 O           9.8020   23.9630   16.7220 O.2       1 GLN        -0.3944
     33 CB          7.8280   22.0040   17.6450 C.3       1 GLN         0.0045
     34 CG          7.0050   21.2550   18.6870 C.3       1 GLN         0.0412
     35 CD          7.2380   19.7600   18.6300 C.2       1 GLN         0.1737
     36 OE1         7.7540   19.1330   19.5890 O.2       1 GLN        -0.3973
     37 NE2         6.8930   19.1700   17.5000 N.am      1 GLN        -0.3009
     38 N          11.0950   22.2150   16.1300 N.am      1 THR        -0.2613
     39 CA         11.8830   23.0100   15.1660 C.3       1 THR         0.1565
     40 C          12.0280   22.3340   13.8000 C.2       1 THR         0.2065
     41 O          11.7170   21.1630   13.6260 O.2       1 THR        -0.3943
     42 CB         13.3200   23.2880   15.6760 C.3       1 THR         0.0924
     43 OG1        13.9490   22.0300   15.8820 O.3       1 THR        -0.3874
     44 CG2        13.3040   24.0390   17.0100 C.3       1 THR        -0.0346
     45 N          12.5470   23.0880   12.8400 N.am      1 ALA        -0.2639
     46 CA         12.8880   22.5270   11.5280 C.3       1 ALA         0.1282
     47 C          13.9810   23.3910   10.9140 C.2       1 ALA         0.2036
     48 O          14.0520   24.5730   11.2210 O.2       1 ALA        -0.3944
     49 CB         11.6480   22.5440   10.6210 C.3       1 ALA        -0.0244
     50 N          14.8120   22.8070   10.0470 N.am      1 ARG        -0.2640
     51 CA         15.7640   23.5750    9.2210 C.3       1 ARG         0.1282
     52 C          15.0300   24.0750    7.9920 C.2       1 ARG         0.2036
     53 O          14.2640   23.3370    7.3770 O.2       1 ARG        -0.3944
     54 CB         16.9140   22.6850    8.7290 C.3       1 ARG        -0.0244
     55 N          15.2550   25.3170    7.6240 N.am      1 M3L        -0.2637
     56 CA         14.6160   25.8670    6.4700 C.3       1 M3L         0.1309
     57 CB         14.4520   27.2760    6.9230 C.3       1 M3L        -0.0122
     58 CG         13.6320   28.1760    6.0540 C.3       1 M3L        -0.0440
     59 CD         12.9260   28.9900    7.1370 C.3       1 M3L        -0.0123
     60 CE         12.6540   30.3440    6.5550 C.3       1 M3L        -0.0309
     61 NZ         12.1120   31.3360    7.4850 N.4       1 M3L         0.2369
     62 C          15.5750   25.8040    5.3100 C.2       1 M3L         0.2034
     63 O          16.6950   26.2300    5.4520 O.2       1 M3L        -0.3944
     64 CM1        10.9810   31.9300    6.7860 C.3       1 M3L        -0.0418
     65 CM2        13.1400   32.3360    7.7100 C.3       1 M3L        -0.0418
     66 CM3        11.6650   30.8600    8.7850 C.3       1 M3L        -0.0418
     67 N          15.1540   25.2710    4.1700 N.am      1 SER        -0.2672
     68 CA         16.0680   24.9990    3.0400 C.3       1 SER         0.1173
     69 C          16.8120   26.2530    2.5480 C.2       1 SER         0.0623
     70 O          16.2070   27.3460    2.4840 O.co2     1 SER        -0.5665
     71 CB         15.2820   24.4060    1.8720 C.3       1 SER         0.0789
     72 OG         14.9250   23.0610    2.1250 O.3       1 SER        -0.3910
     73 H          16.6925   22.2231   27.7370 H         1 ALA         0.2015
     74 H          16.4842   22.0169   29.3774 H         1 ALA         0.2015
     75 H          17.9535   21.6667   28.6735 H         1 ALA         0.2015
     76 H          17.0487   19.8939   27.4394 H         1 ALA         0.1095
     77 H          16.2487   19.6637   30.3263 H         1 ALA         0.0310
     78 H          16.6104   18.3332   29.1994 H         1 ALA         0.0310
     79 H          17.8977   19.4640   29.6845 H         1 ALA         0.0310
     80 H          14.6982   22.0175   28.6624 H         1 ARG         0.1884
     81 H          12.2723   20.5795   27.9959 H         1 ARG         0.0800
     82 H          13.2865   23.4015   27.8281 H         1 ARG         0.0313
     83 H          12.1221   22.6153   29.0662 H         1 ARG         0.0313
     84 H          10.4349   22.6391   27.3639 H         1 ARG         0.0301
     85 H          11.5464   23.4911   26.2651 H         1 ARG         0.0301
     86 H          10.6048   24.4860   29.0057 H         1 ARG         0.0689
     87 H          10.0855   25.1271   27.3860 H         1 ARG         0.0689
     88 H          12.4481   25.8131   27.1060 H         1 ARG         0.2642
     89 H          11.2086   25.5413   30.4209 H         1 ARG         0.2615
     90 H          12.3832   26.7183   31.0177 H         1 ARG         0.2615
     91 H          13.8782   27.2564   27.9273 H         1 ARG         0.2615
     92 H          13.8571   27.6656   29.6458 H         1 ARG         0.2615
     93 H          11.2096   20.2228   25.9729 H         1 THR         0.1884
     94 H          13.1005   20.1955   23.7039 H         1 THR         0.0826
     95 H          11.2336   19.0640   22.5086 H         1 THR         0.0639
     96 H           9.5376   20.1451   23.7503 H         1 THR         0.2101
     97 H          12.8129   17.7037   23.8382 H         1 THR         0.0257
     98 H          11.7994   17.9334   25.2842 H         1 THR         0.0257
     99 H          11.1719   17.0146   23.8938 H         1 THR         0.0257
    100 H          12.4970   21.1792   21.6003 H         1 LYS         0.1883
    101 H          10.1509   23.0432   21.6415 H         1 LYS         0.0797
    102 H          12.1532   24.4209   21.9243 H         1 LYS         0.0277
    103 H          12.8807   23.6742   20.4806 H         1 LYS         0.0277
    104 H          11.4149   24.6731   20.3236 H         1 LYS         0.0277
    105 H           9.0979   23.1807   19.6020 H         1 GLN         0.1883
    106 H           9.6039   20.8745   17.7685 H         1 GLN         0.0801
    107 H           7.6197   21.5432   16.6794 H         1 GLN         0.0337
    108 H           7.5474   23.0553   17.7092 H         1 GLN         0.0337
    109 H           5.9502   21.4425   18.4860 H         1 GLN         0.0504
    110 H           7.3036   21.6082   19.6740 H         1 GLN         0.0504
    111 H           7.0428   18.1681   17.3814 H         1 GLN         0.1814
    112 H           6.4767   19.7162   16.7459 H         1 GLN         0.1814
    113 H          11.3030   21.2248   16.2588 H         1 THR         0.1884
    114 H          11.3178   23.9362   15.0626 H         1 THR         0.0826
    115 H          13.8475   23.8993   14.9438 H         1 THR         0.0639
    116 H          14.8443   22.1693   16.1993 H         1 THR         0.2101
    117 H          12.7911   24.9923   16.8827 H         1 THR         0.0257
    118 H          12.7813   23.4406   17.7561 H         1 THR         0.0257
    119 H          14.3283   24.2169   17.3376 H         1 THR         0.0257
    120 H          12.7125   24.0787   13.0177 H         1 ALA         0.1883
    121 H          13.2323   21.4983   11.6343 H         1 ALA         0.0797
    122 H          10.8581   21.9467   11.0764 H         1 ALA         0.0277
    123 H          11.3036   23.5708   10.4977 H         1 ALA         0.0277
    124 H          11.9056   22.1265    9.6476 H         1 ALA         0.0277
    125 H          14.7879   21.7917    9.9520 H         1 ARG         0.1883
    126 H          16.1655   24.3889    9.8247 H         1 ARG         0.0797
    127 H          17.4477   22.2759    9.5868 H         1 ARG         0.0277
    128 H          16.5097   21.8701    8.1285 H         1 ARG         0.0277
    129 H          17.5983   23.2794    8.1235 H         1 ARG         0.0277
    130 H          15.8940   25.8956    8.1693 H         1 M3L         0.1883
    131 H          13.6974   25.3768    6.1477 H         1 M3L         0.0800
    132 H          15.4543   27.7042    6.9339 H         1 M3L         0.0312
    133 H          13.9272   27.2233    7.8769 H         1 M3L         0.0312
    134 H          12.9653   27.6603    5.3629 H         1 M3L         0.0269
    135 H          14.2049   28.7668    5.3392 H         1 M3L         0.0269
    136 H          13.5481   29.0698    8.0284 H         1 M3L         0.0317
    137 H          11.9980   28.5062    7.4416 H         1 M3L         0.0317
    138 H          11.9002   30.2019    5.7806 H         1 M3L         0.0815
    139 H          13.6136   30.7322    6.2136 H         1 M3L         0.0815
    140 H          11.3286   32.3919    5.8619 H         1 M3L         0.0778
    141 H          10.2510   31.1545    6.5539 H         1 M3L         0.0778
    142 H          10.5198   32.6866    7.4208 H         1 M3L         0.0778
    143 H          14.0227   31.8585    8.1354 H         1 M3L         0.0778
    144 H          13.4011   32.8064    6.7621 H         1 M3L         0.0778
    145 H          12.7654   33.0913    8.4009 H         1 M3L         0.0778
    146 H          10.8707   30.1261    8.6483 H         1 M3L         0.0778
    147 H          12.5019   30.3982    9.3088 H         1 M3L         0.0778
    148 H          11.2886   31.7003    9.3684 H         1 M3L         0.0778
    149 H          14.1654   25.0409    4.0698 H         1 SER         0.1876
    150 H          16.8152   24.2961    3.4084 H         1 SER         0.0749
    151 O1         18.0240   26.1792    2.2115 O.co2     1 SER        -0.5665
    152 H          15.9079   24.4376    0.9802 H         1 SER         0.0599
    153 H          14.3704   24.9878    1.7355 H         1 SER         0.0599
    154 H          14.3799   23.0188    2.9141 H         1 SER         0.2096
@<TRIPOS>BOND
     1    1    2 1  
     2    2    3 1  
     3    2    5 1  
     4    3    4 2  
     5    3    6 am 
     6    6    7 1  
     7    7    8 1  
     8    7   10 1  
     9    8    9 2  
    10    8   17 am 
    11   10   11 1  
    12   11   12 1  
    13   12   13 1  
    14   13   14 ar 
    15   14   15 ar 
    16   14   16 ar 
    17   17   18 1  
    18   18   19 1  
    19   18   21 1  
    20   19   20 2  
    21   19   24 am 
    22   21   22 1  
    23   21   23 1  
    24   24   25 1  
    25   25   26 1  
    26   25   28 1  
    27   26   27 2  
    28   26   29 am 
    29   29   30 1  
    30   30   31 1  
    31   30   33 1  
    32   31   32 2  
    33   31   38 am 
    34   33   34 1  
    35   34   35 1  
    36   35   36 2  
    37   35   37 am 
    38   38   39 1  
    39   39   40 1  
    40   39   42 1  
    41   40   41 2  
    42   40   45 am 
    43   42   43 1  
    44   42   44 1  
    45   45   46 1  
    46   46   47 1  
    47   46   49 1  
    48   47   48 2  
    49   47   50 am 
    50   50   51 1  
    51   51   52 1  
    52   51   54 1  
    53   52   53 2  
    54   52   55 am 
    55   55   56 1  
    56   56   57 1  
    57   56   62 1  
    58   57   58 1  
    59   58   59 1  
    60   59   60 1  
    61   60   61 1  
    62   61   64 1  
    63   61   65 1  
    64   61   66 1  
    65   62   63 2  
    66   62   67 am 
    67   67   68 1  
    68   68   69 1  
    69   68   71 1  
    70   69   70 ar 
    71   71   72 1  
    72    1   73 1  
    73    1   74 1  
    74    1   75 1  
    75    2   76 1  
    76    5   77 1  
    77    5   78 1  
    78    5   79 1  
    79    6   80 1  
    80    7   81 1  
    81   10   82 1  
    82   10   83 1  
    83   11   84 1  
    84   11   85 1  
    85   12   86 1  
    86   12   87 1  
    87   13   88 1  
    88   15   89 1  
    89   15   90 1  
    90   16   91 1  
    91   16   92 1  
    92   17   93 1  
    93   18   94 1  
    94   21   95 1  
    95   22   96 1  
    96   23   97 1  
    97   23   98 1  
    98   23   99 1  
    99   24  100 1  
   100   25  101 1  
   101   28  102 1  
   102   28  103 1  
   103   28  104 1  
   104   29  105 1  
   105   30  106 1  
   106   33  107 1  
   107   33  108 1  
   108   34  109 1  
   109   34  110 1  
   110   37  111 1  
   111   37  112 1  
   112   38  113 1  
   113   39  114 1  
   114   42  115 1  
   115   43  116 1  
   116   44  117 1  
   117   44  118 1  
   118   44  119 1  
   119   45  120 1  
   120   46  121 1  
   121   49  122 1  
   122   49  123 1  
   123   49  124 1  
   124   50  125 1  
   125   51  126 1  
   126   54  127 1  
   127   54  128 1  
   128   54  129 1  
   129   55  130 1  
   130   56  131 1  
   131   57  132 1  
   132   57  133 1  
   133   58  134 1  
   134   58  135 1  
   135   59  136 1  
   136   59  137 1  
   137   60  138 1  
   138   60  139 1  
   139   64  140 1  
   140   64  141 1  
   141   64  142 1  
   142   65  143 1  
   143   65  144 1  
   144   65  145 1  
   145   66  146 1  
   146   66  147 1  
   147   66  148 1  
   148   67  149 1  
   149   68  150 1  
   150   69  151 ar 
   151   71  152 1  
   152   71  153 1  
   153   72  154 1  
@<TRIPOS>SUBSTRUCTURE
     1 ALA         1

