5myg_ligand
  -I-interpret- 

 44 46  0  0  0  0  0  0  0  0999 V2000
  -10.9030    2.8520  -16.6860 C   0  0  0  0  0
   -7.7620   -1.5950  -17.1600 C   0  0  0  0  0
   -7.6960   -2.0570  -15.8470 C   0  0  0  0  0
   -9.7180    3.5910  -17.0500 C   0  0  0  0  0
   -8.8620   -2.3840  -15.1530 C   0  0  0  0  0
  -10.0930   -2.2560  -15.7710 C   0  0  0  0  0
  -10.4010    5.4210  -15.5960 C   0  0  0  0  0
  -12.4180    5.2860  -14.2610 C   0  0  0  0  0
  -10.1680   -1.7950  -17.0810 C   0  0  0  0  0
   -8.9920   -1.4600  -17.7790 C   0  0  0  0  0
   -6.4080   -2.2000  -15.2160 C   0  0  0  0  0
  -11.8100    3.4410  -15.7930 C   0  0  0  0  0
   -9.4710    4.8290  -16.5550 C   0  0  0  0  0
   -5.3710   -2.3010  -14.7500 N   0  0  0  0  0
   -9.1580   -1.0140  -19.0630 O   0  0  0  0  0
   -7.9900   -0.7170  -19.8170 C   0  0  0  0  0
  -11.7740   -1.6800  -17.8280 S   0  0  0  0  0
  -11.6410   -1.2560  -19.1890 O   0  0  0  0  0
  -12.4590   -2.9010  -17.5320 O   0  0  0  0  0
  -12.5870   -0.4840  -17.0750 N   0  0  0  0  0
  -12.3210    0.8900  -16.7810 C   0  0  0  0  0
  -11.1690    1.5670  -17.1820 C   0  0  0  0  0
  -12.9710    2.7750  -15.4380 C   0  0  0  0  0
  -13.2260    1.5120  -15.9340 C   0  0  0  0  0
   -8.3080    5.6600  -16.9790 C   0  0  0  0  0
  -10.1860    6.5180  -15.0890 O   0  0  0  0  0
  -11.5230    4.7060  -15.2570 N   0  0  0  0  0
   -6.8483   -1.3410  -17.6973 H   0  0  0  0  0
   -9.0035    3.1426  -17.7403 H   0  0  0  0  0
   -8.8026   -2.7401  -14.1245 H   0  0  0  0  0
  -11.0037   -2.5163  -15.2315 H   0  0  0  0  0
  -11.8752    5.4304  -13.3269 H   0  0  0  0  0
  -12.7863    6.2467  -14.6209 H   0  0  0  0  0
  -13.2587    4.6126  -14.0938 H   0  0  0  0  0
   -7.4231    0.0658  -19.3131 H   0  0  0  0  0
   -7.3765   -1.6139  -19.9026 H   0  0  0  0  0
   -8.2780   -0.3760  -20.8114 H   0  0  0  0  0
  -13.4992   -0.7868  -16.7336 H   0  0  0  0  0
  -10.4760    1.0978  -17.8803 H   0  0  0  0  0
  -13.6855    3.2492  -14.7651 H   0  0  0  0  0
  -14.1471    0.9990  -15.6573 H   0  0  0  0  0
   -7.3827    5.1304  -16.7522 H   0  0  0  0  0
   -8.3680    5.8464  -18.0513 H   0  0  0  0  0
   -8.3261    6.6086  -16.4425 H   0  0  0  0  0
  1  4  1  0  0  0
  1 12  4  0  0  0
 22  1  4  0  0  0
  2  3  4  0  0  0
 10  2  4  0  0  0
  5  3  4  0  0  0
  3 11  1  0  0  0
  4 13  2  0  0  0
  6  5  4  0  0  0
  9  6  4  0  0  0
 13  7  1  0  0  0
  7 26  2  0  0  0
 27  7  1  0  0  0
 27  8  1  0  0  0
  9 10  4  0  0  0
 17  9  1  0  0  0
 10 15  1  0  0  0
 11 14  3  0  0  0
 12 23  4  0  0  0
 12 27  1  0  0  0
 13 25  1  0  0  0
 15 16  1  0  0  0
 17 18  2  0  0  0
 17 19  2  0  0  0
 20 17  1  0  0  0
 21 20  1  0  0  0
 21 22  4  0  0  0
 21 24  4  0  0  0
 23 24  4  0  0  0
  2 28  1  0  0  0
  4 29  1  0  0  0
  5 30  1  0  0  0
  6 31  1  0  0  0
  8 32  1  0  0  0
  8 33  1  0  0  0
  8 34  1  0  0  0
 16 35  1  0  0  0
 16 36  1  0  0  0
 16 37  1  0  0  0
 20 38  1  0  0  0
 22 39  1  0  0  0
 23 40  1  0  0  0
 24 41  1  0  0  0
 25 42  1  0  0  0
 25 43  1  0  0  0
 25 44  1  0  0  0
M  END
$$$$
