2z4o_ligand
  -I-interpret- 

 76 80  0  0  0  0  0  0  0  0999 V2000
   20.8150   27.5840   14.9490 C   0  0  0  0  0
   21.7420   28.5790   14.7800 O   0  0  0  0  0
   22.9230   28.1220   15.3260 C   0  0  0  0  0
   22.7600   26.8340   15.7700 O   0  0  0  0  0
   21.4380   26.5200   15.5880 C   0  0  0  0  0
   20.6940   25.3930   15.8970 C   0  0  0  0  0
   19.3320   25.3180   15.5980 C   0  0  0  0  0
   18.7270   26.3840   14.9700 C   0  0  0  0  0
   19.4590   27.5160   14.6390 C   0  0  0  0  0
   18.4410   23.8760   16.0410 S   0  0  0  0  0
   17.3270   23.6190   15.0930 O   0  0  0  0  0
   19.4260   22.7510   16.1670 O   0  0  0  0  0
   17.8000   24.0950   17.5370 N   0  0  0  0  0
   18.7450   24.4820   18.5680 C   0  0  0  0  0
   18.4200   23.8630   19.9310 C   0  0  0  0  0
   18.3370   22.3480   19.8610 C   0  0  0  0  0
   19.4830   24.2590   20.9660 C   0  0  0  0  0
   16.5610   24.8690   17.5340 C   0  0  0  0  0
   15.4150   23.9930   18.0420 C   0  0  0  0  0
   14.2420   24.7490   18.3230 O   0  0  0  0  0
   15.1050   22.8310   17.0990 C   0  0  0  0  0
   14.2160   21.9200   17.8200 N   0  0  0  0  0
   14.4610   20.6740   18.1870 C   0  0  0  0  0
   15.5120   20.0920   17.9210 O   0  0  0  0  0
   13.4370   20.0990   18.8730 O   0  0  0  0  0
   13.5830   18.6990   19.0760 C   0  0  0  0  0
   13.0000   18.3800   20.4560 C   0  0  0  0  0
   11.5790   18.5010   20.2590 O   0  0  0  0  0
   11.2920   18.0120   18.9550 C   0  0  0  0  0
   10.4050   18.8880   18.2630 O   0  0  0  0  0
   11.1640   19.6190   17.3190 C   0  0  0  0  0
   12.2510   18.6250   16.8700 C   0  0  0  0  0
   12.5990   17.9370   18.1860 C   0  0  0  0  0
   14.3990   23.2650   15.8210 C   0  0  0  0  0
   12.6910   21.7030   14.7750 C   0  0  0  0  0
   12.3370   20.5890   14.0150 C   0  0  0  0  0
   13.3090   19.8420   13.3610 C   0  0  0  0  0
   14.6380   20.2320   13.5140 C   0  0  0  0  0
   14.9880   21.3230   14.2930 C   0  0  0  0  0
   14.0140   22.0730   14.9470 C   0  0  0  0  0
   23.2041   28.7599   16.1639 H   0  0  0  0  0
   23.7049   28.1460   14.5669 H   0  0  0  0  0
   21.1814   24.5480   16.3832 H   0  0  0  0  0
   17.6645   26.3384   14.7309 H   0  0  0  0  0
   18.9724   28.3519   14.1363 H   0  0  0  0  0
   18.6996   25.5659   18.6735 H   0  0  0  0  0
   19.7314   24.1292   18.2671 H   0  0  0  0  0
   17.4454   24.2478   20.2313 H   0  0  0  0  0
   17.5537   22.0603   19.1597 H   0  0  0  0  0
   19.2933   21.9482   19.5236 H   0  0  0  0  0
   18.1047   21.9521   20.8496 H   0  0  0  0  0
   20.4591   23.9023   20.6371 H   0  0  0  0  0
   19.5057   25.3443   21.0647 H   0  0  0  0  0
   19.2362   23.8105   21.9283 H   0  0  0  0  0
   16.3424   25.2029   16.5197 H   0  0  0  0  0
   16.6720   25.7369   18.1840 H   0  0  0  0  0
   15.7619   23.5635   18.9819 H   0  0  0  0  0
   13.5515   24.1610   18.6378 H   0  0  0  0  0
   16.0487   22.3718   16.8046 H   0  0  0  0  0
   13.2987   22.2900   18.0689 H   0  0  0  0  0
   14.6292   18.4407   18.9120 H   0  0  0  0  0
   13.3721   19.0502   21.2309 H   0  0  0  0  0
   13.2889   17.3912   20.8123 H   0  0  0  0  0
   10.8178   17.0338   19.0355 H   0  0  0  0  0
   11.5856   20.5305   17.7428 H   0  0  0  0  0
   10.5578   19.9743   16.4857 H   0  0  0  0  0
   13.1049   19.1015   16.3884 H   0  0  0  0  0
   11.9178   17.9366   16.0933 H   0  0  0  0  0
   13.0343   16.9622   17.9660 H   0  0  0  0  0
   15.0808   23.8980   15.2531 H   0  0  0  0  0
   13.4867   23.7932   16.0981 H   0  0  0  0  0
   11.9072   22.2970   15.2451 H   0  0  0  0  0
   11.2887   20.3016   13.9332 H   0  0  0  0  0
   13.0412   18.9805   12.7493 H   0  0  0  0  0
   15.4205   19.6655   13.0091 H   0  0  0  0  0
   16.0379   21.5974   14.3951 H   0  0  0  0  0
  1  2  1  0  0  0
  5  1  4  0  0  0
  9  1  4  0  0  0
  2  3  1  0  0  0
  4  3  1  0  0  0
  5  4  1  0  0  0
  6  5  4  0  0  0
  7  6  4  0  0  0
  7  8  4  0  0  0
 10  7  1  0  0  0
  8  9  4  0  0  0
 10 11  2  0  0  0
 10 12  2  0  0  0
 13 10  1  0  0  0
 13 14  1  0  0  0
 18 13  1  0  0  0
 14 15  1  0  0  0
 15 16  1  0  0  0
 15 17  1  0  0  0
 19 18  1  0  0  0
 19 20  1  0  0  0
 21 19  1  0  0  0
 21 22  1  0  0  0
 34 21  1  0  0  0
 22 23  1  0  0  0
 23 24  2  0  0  0
 23 25  1  0  0  0
 25 26  1  0  0  0
 26 27  1  0  0  0
 26 33  1  0  0  0
 27 28  1  0  0  0
 29 28  1  0  0  0
 29 30  1  0  0  0
 33 29  1  0  0  0
 31 30  1  0  0  0
 32 31  1  0  0  0
 33 32  1  0  0  0
 40 34  1  0  0  0
 35 36  4  0  0  0
 35 40  4  0  0  0
 36 37  4  0  0  0
 37 38  4  0  0  0
 38 39  4  0  0  0
 39 40  4  0  0  0
  3 41  1  0  0  0
  3 42  1  0  0  0
  6 43  1  0  0  0
  8 44  1  0  0  0
  9 45  1  0  0  0
 14 46  1  0  0  0
 14 47  1  0  0  0
 15 48  1  0  0  0
 16 49  1  0  0  0
 16 50  1  0  0  0
 16 51  1  0  0  0
 17 52  1  0  0  0
 17 53  1  0  0  0
 17 54  1  0  0  0
 18 55  1  0  0  0
 18 56  1  0  0  0
 19 57  1  0  0  0
 20 58  1  0  0  0
 21 59  1  0  0  0
 22 60  1  0  0  0
 26 61  1  0  0  0
 27 62  1  0  0  0
 27 63  1  0  0  0
 29 64  1  0  0  0
 31 65  1  0  0  0
 31 66  1  0  0  0
 32 67  1  0  0  0
 32 68  1  0  0  0
 33 69  1  0  0  0
 34 70  1  0  0  0
 34 71  1  0  0  0
 35 72  1  0  0  0
 36 73  1  0  0  0
 37 74  1  0  0  0
 38 75  1  0  0  0
 39 76  1  0  0  0
M  END
$$$$
