6qge_ligand
  -I-interpret- 

 65 69  0  0  0  0  0  0  0  0999 V2000
  -18.2140    6.8110   -0.7220 C   0  0  0  0  0
  -19.9020    9.0480   -1.3230 C   0  0  0  0  0
  -22.3800   10.5680   -1.0630 C   0  0  0  0  0
  -24.6900    9.6490   -0.7870 C   0  0  0  0  0
  -27.8580    8.1040    2.8760 C   0  0  0  0  0
  -27.8770    9.1760    3.7800 C   0  0  0  0  0
  -28.6220    9.1270    4.9640 C   0  0  0  0  0
  -29.3540    6.9480    4.4490 C   0  0  0  0  0
  -13.0050    8.5390    1.4990 C   0  0  0  0  0
  -12.9780    8.6000    0.1090 C   0  0  0  0  0
  -11.7440    8.8730   -0.4900 C   0  0  0  0  0
  -10.5980    9.1060    0.2560 C   0  0  0  0  0
  -10.6280    9.0580    1.6380 C   0  0  0  0  0
  -11.8570    8.7780    2.2210 C   0  0  0  0  0
  -14.1720    8.3520   -0.6580 C   0  0  0  0  0
  -15.4920    8.4100   -0.2840 C   0  0  0  0  0
  -19.7290    6.7280   -0.9680 C   0  0  0  0  0
  -17.6150    8.0250   -1.3500 C   0  0  0  0  0
  -18.3810    9.2680   -1.1770 C   0  0  0  0  0
  -20.3550    5.6180   -0.1210 C   0  0  0  0  0
  -23.1940    9.4620   -0.4020 C   0  0  0  0  0
  -26.2110    9.2450    1.2000 C   0  0  0  0  0
  -11.9110    8.7110    3.5520 F   0  0  0  0  0
  -14.2080    7.9680   -2.0010 N   0  0  0  0  0
  -15.4230    7.8040   -2.3870 N   0  0  0  0  0
  -16.2650    8.0700   -1.3940 N   0  0  0  0  0
  -25.6210    8.8490   -0.0010 N   0  0  0  0  0
  -26.0710    7.5820   -0.2840 N   0  0  0  0  0
  -26.8840    7.1960    0.6500 N   0  0  0  0  0
  -20.3310    7.9370   -0.5600 O   0  0  0  0  0
  -17.9850    7.0020    0.6660 O   0  0  0  0  0
  -21.7360    5.5120   -0.4350 O   0  0  0  0  0
  -17.9540   10.2350   -2.1030 O   0  0  0  0  0
  -23.0580    9.5220    1.0390 O   0  0  0  0  0
  -20.6620   10.5350   -0.5780 S   0  0  0  0  0
  -27.0330    8.2030    1.6430 C   0  0  0  0  0
  -29.3780    8.0200    5.3320 C   0  0  0  0  0
  -28.6090    6.9840    3.2580 C   0  0  0  0  0
  -28.6160   10.1790    5.7850 F   0  0  0  0  0
  -17.7814    5.8965   -1.1279 H   0  0  0  0  0
  -20.1687    8.8775   -2.3660 H   0  0  0  0  0
  -22.7988   11.5253   -0.7527 H   0  0  0  0  0
  -22.4278   10.4219   -2.1421 H   0  0  0  0  0
  -24.7943    9.3321   -1.8247 H   0  0  0  0  0
  -24.9374   10.6951   -0.6068 H   0  0  0  0  0
  -27.2965   10.0706    3.5548 H   0  0  0  0  0
  -29.9295    6.0533    4.6867 H   0  0  0  0  0
  -13.9348    8.3021    2.0162 H   0  0  0  0  0
  -11.6808    8.9036   -1.5777 H   0  0  0  0  0
   -9.6610    9.3300   -0.2539 H   0  0  0  0  0
   -9.7344    9.2308    2.2377 H   0  0  0  0  0
  -15.8685    8.6746    0.7041 H   0  0  0  0  0
  -19.8875    6.5318   -2.0284 H   0  0  0  0  0
  -17.7767    7.8872   -2.4191 H   0  0  0  0  0
  -18.1940    9.6175   -0.1616 H   0  0  0  0  0
  -20.2379    5.8551    0.9364 H   0  0  0  0  0
  -19.8581    4.6715   -0.3341 H   0  0  0  0  0
  -22.8300    8.4933   -0.7444 H   0  0  0  0  0
  -26.0582   10.1990    1.7046 H   0  0  0  0  0
  -17.0404    7.0550    0.8290 H   0  0  0  0  0
  -22.1311    4.8161    0.0953 H   0  0  0  0  0
  -18.4613   11.0406   -1.9796 H   0  0  0  0  0
  -22.1352    9.4067    1.2773 H   0  0  0  0  0
  -29.9543    7.9947    6.2568 H   0  0  0  0  0
  -28.6154    6.1092    2.6078 H   0  0  0  0  0
 17  1  1  0  0  0
 18  1  1  0  0  0
  1 31  1  0  0  0
  2 19  1  0  0  0
  2 30  1  0  0  0
 35  2  1  0  0  0
 21  3  1  0  0  0
  3 35  1  0  0  0
  4 21  1  0  0  0
 27  4  1  0  0  0
  5  6  4  0  0  0
 36  5  1  0  0  0
  5 38  4  0  0  0
  6  7  4  0  0  0
  7 37  4  0  0  0
  7 39  1  0  0  0
  8 37  4  0  0  0
 38  8  4  0  0  0
 10  9  4  0  0  0
  9 14  4  0  0  0
 10 11  4  0  0  0
 15 10  1  0  0  0
 11 12  4  0  0  0
 12 13  4  0  0  0
 14 13  4  0  0  0
 14 23  1  0  0  0
 16 15  4  0  0  0
 15 24  4  0  0  0
 26 16  4  0  0  0
 17 20  1  0  0  0
 30 17  1  0  0  0
 19 18  1  0  0  0
 18 26  1  0  0  0
 19 33  1  0  0  0
 20 32  1  0  0  0
 21 34  1  0  0  0
 22 27  4  0  0  0
 22 36  4  0  0  0
 24 25  4  0  0  0
 25 26  4  0  0  0
 27 28  4  0  0  0
 28 29  4  0  0  0
 29 36  4  0  0  0
  1 40  1  0  0  0
  2 41  1  0  0  0
  3 42  1  0  0  0
  3 43  1  0  0  0
  4 44  1  0  0  0
  4 45  1  0  0  0
  6 46  1  0  0  0
  8 47  1  0  0  0
  9 48  1  0  0  0
 11 49  1  0  0  0
 12 50  1  0  0  0
 13 51  1  0  0  0
 16 52  1  0  0  0
 17 53  1  0  0  0
 18 54  1  0  0  0
 19 55  1  0  0  0
 20 56  1  0  0  0
 20 57  1  0  0  0
 21 58  1  0  0  0
 22 59  1  0  0  0
 31 60  1  0  0  0
 32 61  1  0  0  0
 33 62  1  0  0  0
 34 63  1  0  0  0
 37 64  1  0  0  0
 38 65  1  0  0  0
M  END
$$$$
