### 
### Created by X-TOOL on Mon Sep 10 21:13:08 2018
### 

@<TRIPOS>MOLECULE
4ds1_ligand
  148   148     1     0     0
SMALL
GAST_HUCK


@<TRIPOS>ATOM
      1 N          -1.3180   15.6500   60.5330 N.4       1 TYR         0.2392
      2 CA          0.1090   15.4890   60.8200 C.3       1 TYR         0.0730
      3 C           0.9330   15.4970   59.5340 C.2       1 TYR         0.2285
      4 O           0.4380   15.1290   58.4640 O.2       1 TYR        -0.3905
      5 CB          0.3720   14.1860   61.5830 C.3       1 TYR         0.0365
      6 CG          0.1240   14.2380   63.0810 C.ar      1 TYR        -0.0460
      7 CD1        -0.2880   15.4100   63.7100 C.ar      1 TYR        -0.0684
      8 CD2         0.3300   13.1100   63.8680 C.ar      1 TYR        -0.0684
      9 CE1        -0.5070   15.4480   65.0910 C.ar      1 TYR        -0.0398
     10 CE2         0.1120   13.1350   65.2380 C.ar      1 TYR        -0.0398
     11 CZ         -0.3030   14.3070   65.8440 C.ar      1 TYR         0.0805
     12 OH         -0.5200   14.3230   67.2040 O.3       1 TYR        -0.3376
     13 N           2.1880   15.9210   59.6460 N.am      1 ALA        -0.2612
     14 CA          3.1150   15.9560   58.5170 C.3       1 ALA         0.1283
     15 C           4.4870   15.5630   59.0580 C.2       1 ALA         0.2036
     16 O           4.7370   15.7060   60.2590 O.2       1 ALA        -0.3944
     17 CB          3.1590   17.3400   57.9160 C.3       1 ALA        -0.0244
     18 N           5.3590   15.0540   58.1950 N.am      1 GLU        -0.2636
     19 CA          6.6640   14.5630   58.6340 C.3       1 GLU         0.1325
     20 C           7.7590   15.5820   58.3400 C.2       1 GLU         0.2041
     21 O           7.6640   16.3520   57.3790 O.2       1 GLU        -0.3944
     22 CB          6.9820   13.1810   58.0210 C.3       1 GLU        -0.0008
     23 CG          6.0110   12.0810   58.5220 C.3       1 GLU         0.0044
     24 CD          6.3460   10.6680   58.0550 C.2       1 GLU         0.0350
     25 OE1         7.3500   10.4700   57.3410 O.co2     1 GLU        -0.5690
     26 OE2         5.5920    9.7430   58.4250 O.co2     1 GLU        -0.5690
     27 N           8.7740   15.5990   59.2030 N.am      1 SER        -0.2616
     28 CA          9.9090   16.4990   59.0700 C.3       1 SER         0.1539
     29 C          11.1790   15.7550   59.4440 C.2       1 SER         0.2060
     30 O          11.3080   15.2580   60.5690 O.2       1 SER        -0.3943
     31 CB          9.7550   17.7100   59.9960 C.3       1 SER         0.0843
     32 OG          8.6920   18.5470   59.5780 O.3       1 SER        -0.3903
     33 N          12.1090   15.6720   58.4990 N.am      1 GLY        -0.2663
     34 CA         13.4480   15.1790   58.7840 C.3       1 GLY         0.1201
     35 C          14.4220   16.3430   58.7260 C.2       1 GLY         0.2008
     36 O          14.3530   17.1670   57.8170 O.2       1 GLY        -0.3947
     37 N          15.3280   16.4230   59.6960 N.am      1 ILE        -0.2637
     38 CA         16.2920   17.5200   59.7370 C.3       1 ILE         0.1335
     39 C          17.6710   17.0110   60.1410 C.2       1 ILE         0.2042
     40 O          17.8040   15.9460   60.7530 O.2       1 ILE        -0.3944
     41 CB         15.8490   18.6490   60.7100 C.3       1 ILE        -0.0037
     42 CG1        15.8850   18.1600   62.1620 C.3       1 ILE        -0.0491
     43 CG2        14.4400   19.1690   60.3630 C.3       1 ILE        -0.0582
     44 CD1        17.2480   18.3260   62.8420 C.3       1 ILE        -0.0648
     45 N          18.6960   17.7820   59.7990 N.am      1 GLN        -0.2636
     46 CA         20.0780   17.4410   60.1120 C.3       1 GLN         0.1330
     47 C          20.8420   18.7200   60.4150 C.2       1 GLN         0.2041
     48 O          20.8460   19.6430   59.5960 O.2       1 GLN        -0.3944
     49 CB         20.7270   16.7670   58.9090 C.3       1 GLN         0.0045
     50 CG         22.2010   16.4490   59.1060 C.3       1 GLN         0.0412
     51 CD         22.4220   15.4920   60.2570 C.2       1 GLN         0.1737
     52 OE1        21.8080   14.4240   60.3140 O.2       1 GLN        -0.3973
     53 NE2        23.2890   15.8760   61.1910 N.am      1 GLN        -0.3009
     54 N          21.4840   18.7920   61.5780 N.am      1 THR        -0.2613
     55 CA         22.2710   19.9780   61.9170 C.3       1 THR         0.1565
     56 C          23.4180   20.1540   60.9320 C.2       1 THR         0.2066
     57 O          23.8880   19.1720   60.3560 O.2       1 THR        -0.3943
     58 CB         22.8690   19.8830   63.3350 C.3       1 THR         0.0924
     59 OG1        23.5410   18.6260   63.4800 O.3       1 THR        -0.3874
     60 CG2        21.7720   20.0110   64.3960 C.3       1 THR        -0.0346
     61 N          23.8690   21.3990   60.7520 N.am      1 ASP        -0.2621
     62 CA         25.0130   21.7210   59.8820 C.3       1 ASP         0.1423
     63 C          26.3030   21.1010   60.3900 C.2       1 ASP         0.2050
     64 O          27.1550   20.6880   59.6070 O.2       1 ASP        -0.3943
     65 CB         25.2320   23.2370   59.8050 C.3       1 ASP         0.0406
     66 CG         24.0810   23.9660   59.1420 C.2       1 ASP         0.0393
     67 OD1        23.2740   23.3090   58.4500 O.co2     1 ASP        -0.5688
     68 OD2        23.9950   25.2040   59.3070 O.co2     1 ASP        -0.5688
     69 N          26.4590   21.0820   61.7110 N.am      1 LEU        -0.2694
     70 CA         27.6180   20.4590   62.3430 C.3       1 LEU         0.0946
     71 C          27.1620   19.3480   63.2770 C.2       1 LEU         0.0601
     72 O          26.1150   18.7210   63.0520 O.co2     1 LEU        -0.5666
     73 CB         28.4300   21.4870   63.1370 C.3       1 LEU        -0.0156
     74 CG         29.0760   22.6560   62.4000 C.3       1 LEU        -0.0431
     75 CD1        29.8470   23.5160   63.3960 C.3       1 LEU        -0.0625
     76 CD2        29.9930   22.1550   61.2910 C.3       1 LEU        -0.0625
     77 OXT        27.8360   19.0730   64.2810 O.co2     1 LEU        -0.5666
     78 H1         -1.8375   15.6413   61.3968 H         1 TYR         0.2017
     79 H2         -1.6301   14.8927   59.9456 H         1 TYR         0.2017
     80 H3         -1.4686   16.5269   60.0592 H         1 TYR         0.2017
     81 H4          0.4311   16.3333   61.4472 H         1 TYR         0.1120
     82 H5          1.4243   13.9079   61.4242 H         1 TYR         0.0486
     83 H6         -0.2807   13.4086   61.1592 H         1 TYR         0.0486
     84 H7         -0.4414   16.3066   63.1204 H         1 TYR         0.0530
     85 H8          0.6680   12.1919   63.4012 H         1 TYR         0.0530
     86 H9         -0.8342   16.3653   65.5670 H         1 TYR         0.0525
     87 H10         0.2662   12.2404   65.8305 H         1 TYR         0.0525
     88 H11         0.2850   14.0964   67.6547 H         1 TYR         0.2458
     89 H12         2.5113   16.2290   60.5408 H         1 ALA         0.1884
     90 H13         2.7962   15.2375   57.7476 H         1 ALA         0.0797
     91 H14         3.8603   17.3496   57.0686 H         1 ALA         0.0277
     92 H15         3.4940   18.0599   58.6773 H         1 ALA         0.0277
     93 H16         2.1549   17.6191   57.5641 H         1 ALA         0.0277
     94 H17         5.1180   15.0057   57.2257 H         1 GLU         0.1883
     95 H18         6.6189   14.4344   59.7255 H         1 GLU         0.0801
     96 H19         8.0090   12.8991   58.2963 H         1 GLU         0.0330
     97 H20         6.9022   13.2521   56.9262 H         1 GLU         0.0330
     98 H21         5.0005   12.3285   58.1647 H         1 GLU         0.0433
     99 H22         6.0233   12.0893   59.6219 H         1 GLU         0.0433
    100 H23         8.7547   14.9651   59.9762 H         1 SER         0.1884
    101 H24         9.9767   16.8450   58.0280 H         1 SER         0.0823
    102 H25        10.6906   18.2884   59.9877 H         1 SER         0.0606
    103 H26         9.5516   17.3561   61.0175 H         1 SER         0.0606
    104 H27         8.8640   18.8596   58.6975 H         1 SER         0.2097
    105 H28        11.8828   15.9558   57.5672 H         1 GLY         0.1881
    106 H29        13.7305   14.4233   58.0363 H         1 GLY         0.0763
    107 H30        13.4701   14.7284   59.7872 H         1 GLY         0.0763
    108 H31        15.3498   15.7215   60.4084 H         1 ILE         0.1883
    109 H32        16.3619   17.9471   58.7257 H         1 ILE         0.0803
    110 H33        16.5579   19.4840   60.6087 H         1 ILE         0.0345
    111 H34        15.6202   17.0924   62.1741 H         1 ILE         0.0267
    112 H35        15.1399   18.7292   62.7372 H         1 ILE         0.0267
    113 H36        14.4244   19.5174   59.3197 H         1 ILE         0.0235
    114 H37        14.1819   20.0032   61.0320 H         1 ILE         0.0235
    115 H38        13.7082   18.3576   60.4895 H         1 ILE         0.0235
    116 H39        17.1900   17.9534   63.8754 H         1 ILE         0.0230
    117 H40        17.5261   19.3902   62.8510 H         1 ILE         0.0230
    118 H41        18.0064   17.7535   62.2879 H         1 ILE         0.0230
    119 H42        18.5123   18.6324   59.3060 H         1 GLN         0.1883
    120 H43        20.1087   16.7672   60.9809 H         1 GLN         0.0801
    121 H44        20.6294   17.4365   58.0417 H         1 GLN         0.0337
    122 H45        20.1930   15.8265   58.7082 H         1 GLN         0.0337
    123 H46        22.7423   17.3842   59.3120 H         1 GLN         0.0504
    124 H47        22.5930   15.9937   58.1846 H         1 GLN         0.0504
    125 H48        23.4746   15.2834   61.9749 H         1 GLN         0.1814
    126 H49        23.7548   16.7571   61.1089 H         1 GLN         0.1814
    127 H50        21.4284   18.0310   62.2244 H         1 THR         0.1884
    128 H51        21.6130   20.8580   61.8663 H         1 THR         0.0826
    129 H52        23.5942   20.6984   63.4730 H         1 THR         0.0639
    130 H53        24.2362   18.5636   62.8355 H         1 THR         0.2101
    131 H54        22.2208   19.9405   65.3978 H         1 THR         0.0257
    132 H55        21.0388   19.2015   64.2649 H         1 THR         0.0257
    133 H56        21.2685   20.9829   64.2874 H         1 THR         0.0257
    134 H57        23.4084   22.1468   61.2302 H         1 ASP         0.1884
    135 H58        24.8014   21.3338   58.8744 H         1 ASP         0.0819
    136 H59        26.1486   23.4304   59.2285 H         1 ASP         0.0478
    137 H60        25.3523   23.6266   60.8266 H         1 ASP         0.0478
    138 H61        25.7617   21.5071   62.2881 H         1 LEU         0.1875
    139 H62        28.2590   20.0291   61.5593 H         1 LEU         0.0726
    140 H63        29.2394   20.9378   63.6401 H         1 LEU         0.0308
    141 H64        27.7544   21.9167   63.8913 H         1 LEU         0.0308
    142 H65        28.2832   23.2681   61.9452 H         1 LEU         0.0297
    143 H66        30.3140   24.3600   62.8672 H         1 LEU         0.0232
    144 H67        30.6271   22.9086   63.8781 H         1 LEU         0.0232
    145 H68        29.1560   23.8998   64.1610 H         1 LEU         0.0232
    146 H69        29.4144   21.5386   60.5872 H         1 LEU         0.0232
    147 H70        30.8014   21.5508   61.7285 H         1 LEU         0.0232
    148 H71        30.4252   23.0138   60.7565 H         1 LEU         0.0232
@<TRIPOS>BOND
     1    1    2 1  
     2    2    3 1  
     3    2    5 1  
     4    3    4 2  
     5    3   13 am 
     6    5    6 1  
     7    6    7 ar 
     8    6    8 ar 
     9    7    9 ar 
    10    8   10 ar 
    11    9   11 ar 
    12   10   11 ar 
    13   11   12 1  
    14   13   14 1  
    15   14   15 1  
    16   14   17 1  
    17   15   16 2  
    18   15   18 am 
    19   18   19 1  
    20   19   20 1  
    21   19   22 1  
    22   20   21 2  
    23   20   27 am 
    24   22   23 1  
    25   23   24 1  
    26   24   25 ar 
    27   24   26 ar 
    28   27   28 1  
    29   28   29 1  
    30   28   31 1  
    31   29   30 2  
    32   29   33 am 
    33   31   32 1  
    34   33   34 1  
    35   34   35 1  
    36   35   36 2  
    37   35   37 am 
    38   37   38 1  
    39   38   39 1  
    40   38   41 1  
    41   39   40 2  
    42   39   45 am 
    43   41   42 1  
    44   41   43 1  
    45   42   44 1  
    46   45   46 1  
    47   46   47 1  
    48   46   49 1  
    49   47   48 2  
    50   47   54 am 
    51   49   50 1  
    52   50   51 1  
    53   51   52 2  
    54   51   53 am 
    55   54   55 1  
    56   55   56 1  
    57   55   58 1  
    58   56   57 2  
    59   56   61 am 
    60   58   59 1  
    61   58   60 1  
    62   61   62 1  
    63   62   63 1  
    64   62   65 1  
    65   63   64 2  
    66   63   69 am 
    67   65   66 1  
    68   66   67 ar 
    69   66   68 ar 
    70   69   70 1  
    71   70   71 1  
    72   70   73 1  
    73   71   72 ar 
    74   71   77 ar 
    75   73   74 1  
    76   74   75 1  
    77   74   76 1  
    78    1   78 1  
    79    1   79 1  
    80    1   80 1  
    81    2   81 1  
    82    5   82 1  
    83    5   83 1  
    84    7   84 1  
    85    8   85 1  
    86    9   86 1  
    87   10   87 1  
    88   12   88 1  
    89   13   89 1  
    90   14   90 1  
    91   17   91 1  
    92   17   92 1  
    93   17   93 1  
    94   18   94 1  
    95   19   95 1  
    96   22   96 1  
    97   22   97 1  
    98   23   98 1  
    99   23   99 1  
   100   27  100 1  
   101   28  101 1  
   102   31  102 1  
   103   31  103 1  
   104   32  104 1  
   105   33  105 1  
   106   34  106 1  
   107   34  107 1  
   108   37  108 1  
   109   38  109 1  
   110   41  110 1  
   111   42  111 1  
   112   42  112 1  
   113   43  113 1  
   114   43  114 1  
   115   43  115 1  
   116   44  116 1  
   117   44  117 1  
   118   44  118 1  
   119   45  119 1  
   120   46  120 1  
   121   49  121 1  
   122   49  122 1  
   123   50  123 1  
   124   50  124 1  
   125   53  125 1  
   126   53  126 1  
   127   54  127 1  
   128   55  128 1  
   129   58  129 1  
   130   59  130 1  
   131   60  131 1  
   132   60  132 1  
   133   60  133 1  
   134   61  134 1  
   135   62  135 1  
   136   65  136 1  
   137   65  137 1  
   138   69  138 1  
   139   70  139 1  
   140   73  140 1  
   141   73  141 1  
   142   74  142 1  
   143   75  143 1  
   144   75  144 1  
   145   75  145 1  
   146   76  146 1  
   147   76  147 1  
   148   76  148 1  
@<TRIPOS>SUBSTRUCTURE
     1 TYR         1

