4ds1_ligand
  -I-interpret- 

151151  0  0  0  0  0  0  0  0999 V2000
   -1.3180   15.6500   60.5330 N   0  3  0  0  0
    0.1090   15.4890   60.8200 C   0  0  0  0  0
    0.9330   15.4970   59.5340 C   0  0  0  0  0
    0.4380   15.1290   58.4640 O   0  0  0  0  0
    0.3720   14.1860   61.5830 C   0  0  0  0  0
    0.1240   14.2380   63.0810 C   0  0  0  0  0
   -0.2880   15.4100   63.7100 C   0  0  0  0  0
    0.3300   13.1100   63.8680 C   0  0  0  0  0
   -0.5070   15.4480   65.0910 C   0  0  0  0  0
    0.1120   13.1350   65.2380 C   0  0  0  0  0
   -0.3030   14.3070   65.8440 C   0  0  0  0  0
   -0.5200   14.3230   67.2040 O   0  0  0  0  0
    2.1880   15.9210   59.6460 N   0  0  0  0  0
    3.1150   15.9560   58.5170 C   0  0  0  0  0
    4.4870   15.5630   59.0580 C   0  0  0  0  0
    4.7370   15.7060   60.2590 O   0  0  0  0  0
    3.1590   17.3400   57.9160 C   0  0  0  0  0
    5.3590   15.0540   58.1950 N   0  0  0  0  0
    6.6640   14.5630   58.6340 C   0  0  0  0  0
    7.7590   15.5820   58.3400 C   0  0  0  0  0
    7.6640   16.3520   57.3790 O   0  0  0  0  0
    6.9820   13.1810   58.0210 C   0  0  0  0  0
    6.0110   12.0810   58.5220 C   0  0  0  0  0
    6.3460   10.6680   58.0550 C   0  0  0  0  0
    7.3500   10.4700   57.3410 O   0  0  0  0  0
    5.5920    9.7430   58.4250 O   0  0  0  0  0
    8.7740   15.5990   59.2030 N   0  0  0  0  0
    9.9090   16.4990   59.0700 C   0  0  0  0  0
   11.1790   15.7550   59.4440 C   0  0  0  0  0
   11.3080   15.2580   60.5690 O   0  0  0  0  0
    9.7550   17.7100   59.9960 C   0  0  0  0  0
    8.6920   18.5470   59.5780 O   0  0  0  0  0
   12.1090   15.6720   58.4990 N   0  0  0  0  0
   13.4480   15.1790   58.7840 C   0  0  0  0  0
   14.4220   16.3430   58.7260 C   0  0  0  0  0
   14.3530   17.1670   57.8170 O   0  0  0  0  0
   15.3280   16.4230   59.6960 N   0  0  0  0  0
   16.2920   17.5200   59.7370 C   0  0  0  0  0
   17.6710   17.0110   60.1410 C   0  0  0  0  0
   17.8040   15.9460   60.7530 O   0  0  0  0  0
   15.8490   18.6490   60.7100 C   0  0  0  0  0
   15.8850   18.1600   62.1620 C   0  0  0  0  0
   14.4400   19.1690   60.3630 C   0  0  0  0  0
   17.2480   18.3260   62.8420 C   0  0  0  0  0
   18.6960   17.7820   59.7990 N   0  0  0  0  0
   20.0780   17.4410   60.1120 C   0  0  0  0  0
   20.8420   18.7200   60.4150 C   0  0  0  0  0
   20.8460   19.6430   59.5960 O   0  0  0  0  0
   20.7270   16.7670   58.9090 C   0  0  0  0  0
   22.2010   16.4490   59.1060 C   0  0  0  0  0
   22.4220   15.4920   60.2570 C   0  0  0  0  0
   21.8080   14.4240   60.3140 O   0  0  0  0  0
   23.2890   15.8760   61.1910 N   0  0  0  0  0
   21.4840   18.7920   61.5780 N   0  0  0  0  0
   22.2710   19.9780   61.9170 C   0  0  0  0  0
   23.4180   20.1540   60.9320 C   0  0  0  0  0
   23.8880   19.1720   60.3560 O   0  0  0  0  0
   22.8690   19.8830   63.3350 C   0  0  0  0  0
   23.5410   18.6260   63.4800 O   0  0  0  0  0
   21.7720   20.0110   64.3960 C   0  0  0  0  0
   23.8690   21.3990   60.7520 N   0  0  0  0  0
   25.0130   21.7210   59.8820 C   0  0  0  0  0
   26.3030   21.1010   60.3900 C   0  0  0  0  0
   27.1550   20.6880   59.6070 O   0  0  0  0  0
   25.2320   23.2370   59.8050 C   0  0  0  0  0
   24.0810   23.9660   59.1420 C   0  0  0  0  0
   23.2740   23.3090   58.4500 O   0  0  0  0  0
   23.9950   25.2040   59.3070 O   0  0  0  0  0
   26.4590   21.0820   61.7110 N   0  0  0  0  0
   27.6180   20.4590   62.3430 C   0  0  0  0  0
   27.1620   19.3480   63.2770 C   0  0  0  0  0
   26.1150   18.7210   63.0520 O   0  0  0  0  0
   28.4300   21.4870   63.1370 C   0  0  0  0  0
   29.0760   22.6560   62.4000 C   0  0  0  0  0
   29.8470   23.5160   63.3960 C   0  0  0  0  0
   29.9930   22.1550   61.2910 C   0  0  0  0  0
   27.8360   19.0730   64.2810 O   0  0  0  0  0
   -1.4653   16.5227   60.0260 H   0  0  0  0  0
   -1.6397   14.8666   59.9645 H   0  0  0  0  0
   -1.8394   15.6724   61.4094 H   0  0  0  0  0
    0.4114   16.3329   61.4402 H   0  0  0  0  0
    1.4305   13.9605   61.4531 H   0  0  0  0  0
   -0.3215   13.4475   61.1808 H   0  0  0  0  0
   -0.4422   16.3116   63.1172 H   0  0  0  0  0
    0.6699   12.1868   63.3986 H   0  0  0  0  0
   -0.8360   16.3703   65.5697 H   0  0  0  0  0
    0.2670   12.2355   65.8338 H   0  0  0  0  0
   -0.3319   13.4545   67.5672 H   0  0  0  0  0
    2.5178   16.2352   60.5587 H   0  0  0  0  0
    2.7983   15.2707   57.7308 H   0  0  0  0  0
    2.1635   17.6153   57.5678 H   0  0  0  0  0
    3.4910   18.0523   58.6713 H   0  0  0  0  0
    3.8542   17.3482   57.0765 H   0  0  0  0  0
    5.1132   15.0048   57.2063 H   0  0  0  0  0
    6.6259   14.4296   59.7151 H   0  0  0  0  0
    7.9929   12.9024   58.3186 H   0  0  0  0  0
    6.8781   13.2579   56.9387 H   0  0  0  0  0
    5.0269   12.3215   58.1197 H   0  0  0  0  0
    6.0731   12.0769   59.6102 H   0  0  0  0  0
    4.8839   10.1047   58.9629 H   0  0  0  0  0
    8.7543   14.9524   59.9917 H   0  0  0  0  0
    9.9577   16.8475   58.0384 H   0  0  0  0  0
   10.6801   18.2858   59.9702 H   0  0  0  0  0
    9.5385   17.3514   61.0023 H   0  0  0  0  0
    8.6207   19.2946   60.1760 H   0  0  0  0  0
   11.8783   15.9615   57.5485 H   0  0  0  0  0
   13.7285   14.4261   58.0474 H   0  0  0  0  0
   13.4715   14.7272   59.7757 H   0  0  0  0  0
   15.3503   15.7075   60.4226 H   0  0  0  0  0
   16.3388   17.9380   58.7314 H   0  0  0  0  0
   16.5539   19.4728   60.5976 H   0  0  0  0  0
   15.6574   17.0941   62.1499 H   0  0  0  0  0
   15.1686   18.7600   62.7231 H   0  0  0  0  0
   14.4405   19.5664   59.3480 H   0  0  0  0  0
   13.7243   18.3499   60.4335 H   0  0  0  0  0
   14.1624   19.9570   61.0630 H   0  0  0  0  0
   17.9985   17.7583   62.2920 H   0  0  0  0  0
   17.5224   19.3809   62.8503 H   0  0  0  0  0
   17.1892   17.9565   63.8658 H   0  0  0  0  0
   18.5086   18.6494   59.2961 H   0  0  0  0  0
   20.0991   16.7673   60.9686 H   0  0  0  0  0
   20.6526   17.4582   58.0694 H   0  0  0  0  0
   20.2090   15.8217   58.7470 H   0  0  0  0  0
   22.7247   17.3786   59.3287 H   0  0  0  0  0
   22.5746   15.9808   58.1953 H   0  0  0  0  0
   23.4688   15.2773   61.9970 H   0  0  0  0  0
   23.7736   16.7690   61.1008 H   0  0  0  0  0
   21.4273   18.0158   62.2373 H   0  0  0  0  0
   21.5919   20.8293   61.8710 H   0  0  0  0  0
   23.5773   20.6996   63.4752 H   0  0  0  0  0
   23.9145   18.5640   64.3622 H   0  0  0  0  0
   21.2738   20.9744   64.2873 H   0  0  0  0  0
   21.0462   19.2084   64.2650 H   0  0  0  0  0
   22.2179   19.9410   65.3881 H   0  0  0  0  0
   23.3992   22.1617   61.2398 H   0  0  0  0  0
   24.7711   21.3150   58.8998 H   0  0  0  0  0
   26.1265   23.4143   59.2079 H   0  0  0  0  0
   25.3211   23.6127   60.8243 H   0  0  0  0  0
   24.7132   25.5013   59.8704 H   0  0  0  0  0
   25.7477   21.5156   62.2996 H   0  0  0  0  0
   28.2510   20.0461   61.5576 H   0  0  0  0  0
   25.7135   19.0502   62.2445 H   0  0  0  0  0
   29.2654   20.9226   63.5513 H   0  0  0  0  0
   27.7108   21.9475   63.8143 H   0  0  0  0  0
   28.2974   23.2608   61.9351 H   0  0  0  0  0
   29.1612   23.8956   64.1534 H   0  0  0  0  0
   30.6196   22.9130   63.8730 H   0  0  0  0  0
   30.3093   24.3519   62.8709 H   0  0  0  0  0
   30.7777   21.5340   61.7230 H   0  0  0  0  0
   29.4130   21.5672   60.5795 H   0  0  0  0  0
   30.4419   23.0067   60.7800 H   0  0  0  0  0
  1  2  1  0  0  0
  2  3  1  0  0  0
  2  5  1  0  0  0
  3  4  2  0  0  0
  3 13  1  0  0  0
  5  6  1  0  0  0
  6  7  4  0  0  0
  6  8  4  0  0  0
  7  9  4  0  0  0
  8 10  4  0  0  0
  9 11  4  0  0  0
 10 11  4  0  0  0
 11 12  1  0  0  0
 13 14  1  0  0  0
 14 15  1  0  0  0
 14 17  1  0  0  0
 15 16  2  0  0  0
 15 18  1  0  0  0
 18 19  1  0  0  0
 19 20  1  0  0  0
 19 22  1  0  0  0
 20 21  2  0  0  0
 20 27  1  0  0  0
 22 23  1  0  0  0
 23 24  1  0  0  0
 24 25  2  0  0  0
 24 26  1  0  0  0
 27 28  1  0  0  0
 28 29  1  0  0  0
 28 31  1  0  0  0
 29 30  2  0  0  0
 29 33  1  0  0  0
 31 32  1  0  0  0
 33 34  1  0  0  0
 34 35  1  0  0  0
 35 36  2  0  0  0
 35 37  1  0  0  0
 37 38  1  0  0  0
 38 39  1  0  0  0
 38 41  1  0  0  0
 39 40  2  0  0  0
 39 45  1  0  0  0
 41 42  1  0  0  0
 41 43  1  0  0  0
 42 44  1  0  0  0
 45 46  1  0  0  0
 46 47  1  0  0  0
 46 49  1  0  0  0
 47 48  2  0  0  0
 47 54  1  0  0  0
 49 50  1  0  0  0
 50 51  1  0  0  0
 51 52  2  0  0  0
 51 53  1  0  0  0
 54 55  1  0  0  0
 55 56  1  0  0  0
 55 58  1  0  0  0
 56 57  2  0  0  0
 56 61  1  0  0  0
 58 59  1  0  0  0
 58 60  1  0  0  0
 61 62  1  0  0  0
 62 63  1  0  0  0
 62 65  1  0  0  0
 63 64  2  0  0  0
 63 69  1  0  0  0
 65 66  1  0  0  0
 66 67  2  0  0  0
 66 68  1  0  0  0
 69 70  1  0  0  0
 70 71  1  0  0  0
 70 73  1  0  0  0
 71 72  1  0  0  0
 71 77  2  0  0  0
 73 74  1  0  0  0
 74 75  1  0  0  0
 74 76  1  0  0  0
  1 78  1  0  0  0
  1 79  1  0  0  0
  1 80  1  0  0  0
  2 81  1  0  0  0
  5 82  1  0  0  0
  5 83  1  0  0  0
  7 84  1  0  0  0
  8 85  1  0  0  0
  9 86  1  0  0  0
 10 87  1  0  0  0
 12 88  1  0  0  0
 13 89  1  0  0  0
 14 90  1  0  0  0
 17 91  1  0  0  0
 17 92  1  0  0  0
 17 93  1  0  0  0
 18 94  1  0  0  0
 19 95  1  0  0  0
 22 96  1  0  0  0
 22 97  1  0  0  0
 23 98  1  0  0  0
 23 99  1  0  0  0
 26100  1  0  0  0
 27101  1  0  0  0
 28102  1  0  0  0
 31103  1  0  0  0
 31104  1  0  0  0
 32105  1  0  0  0
 33106  1  0  0  0
 34107  1  0  0  0
 34108  1  0  0  0
 37109  1  0  0  0
 38110  1  0  0  0
 41111  1  0  0  0
 42112  1  0  0  0
 42113  1  0  0  0
 43114  1  0  0  0
 43115  1  0  0  0
 43116  1  0  0  0
 44117  1  0  0  0
 44118  1  0  0  0
 44119  1  0  0  0
 45120  1  0  0  0
 46121  1  0  0  0
 49122  1  0  0  0
 49123  1  0  0  0
 50124  1  0  0  0
 50125  1  0  0  0
 53126  1  0  0  0
 53127  1  0  0  0
 54128  1  0  0  0
 55129  1  0  0  0
 58130  1  0  0  0
 59131  1  0  0  0
 60132  1  0  0  0
 60133  1  0  0  0
 60134  1  0  0  0
 61135  1  0  0  0
 62136  1  0  0  0
 65137  1  0  0  0
 65138  1  0  0  0
 68139  1  0  0  0
 69140  1  0  0  0
 70141  1  0  0  0
 72142  1  0  0  0
 73143  1  0  0  0
 73144  1  0  0  0
 74145  1  0  0  0
 75146  1  0  0  0
 75147  1  0  0  0
 75148  1  0  0  0
 76149  1  0  0  0
 76150  1  0  0  0
 76151  1  0  0  0
M  END
$$$$
