5zyi_ligand
  -I-interpret- 

 63 66  0  0  0  0  0  0  0  0999 V2000
  -30.0510    6.3240   -7.2760 C   0  0  0  0  0
  -36.3160    2.7820   -5.7110 C   0  0  0  0  0
  -35.7330    1.8060   -4.6740 C   0  0  0  0  0
  -31.7570    0.3990   -5.0440 C   0  0  0  0  0
  -33.4480    1.4470   -3.6530 C   0  0  0  0  0
  -34.3320    1.3210   -4.7300 C   0  0  0  0  0
  -32.6890    0.3080   -6.0870 C   0  0  0  0  0
  -26.5300    5.4050   -6.2920 C   0  0  0  0  0
  -33.9660    0.7530   -5.9380 N   0  0  0  0  0
  -34.1580    3.8270   -6.4080 C   0  0  0  0  0
  -33.3390    4.4930   -7.3520 C   0  0  0  0  0
  -29.4780    5.7800   -6.1430 C   0  0  0  0  0
  -31.4120    4.4460   -5.7420 C   0  0  0  0  0
  -27.7540    6.2030   -4.1730 O   0  0  0  0  0
  -27.8920    6.4330   -5.6260 S   0  0  0  0  0
  -27.8350    7.7650   -6.2620 O   0  0  0  0  0
  -26.3480    5.5100   -7.8190 C   0  0  0  0  0
  -27.2920    4.6710   -8.4380 O   0  0  0  0  0
  -30.1130    4.8310   -5.3240 C   0  0  0  0  0
  -32.0120    4.9450   -6.9210 C   0  0  0  0  0
  -31.3320    5.9000   -7.6980 C   0  0  0  0  0
  -35.4430    3.4180   -6.7670 C   0  0  0  0  0
  -35.8930    3.6110   -8.1030 C   0  0  0  0  0
  -37.3150    3.1750   -8.4500 C   0  0  0  0  0
  -37.2780    1.8230   -9.1950 C   0  0  0  0  0
  -38.7640    1.5020   -9.4430 C   0  0  0  0  0
  -38.9610   -0.0050   -9.3550 C   0  0  0  0  0
  -40.4020   -0.3370   -9.7570 C   0  0  0  0  0
  -35.0990    4.2880   -9.0520 C   0  0  0  0  0
  -33.8000    4.7120   -8.6690 C   0  0  0  0  0
  -36.6060    1.3160   -5.7890 C   0  0  0  0  0
  -32.1420    0.9530   -3.7820 C   0  0  0  0  0
  -29.5142    7.0821   -7.8462 H   0  0  0  0  0
  -36.9025    3.6989   -5.6516 H   0  0  0  0  0
  -35.7202    1.8207   -3.5842 H   0  0  0  0  0
  -30.7365    0.0469   -5.1946 H   0  0  0  0  0
  -33.7699    1.9225   -2.7265 H   0  0  0  0  0
  -32.3841   -0.1287   -7.0380 H   0  0  0  0  0
  -26.7717    4.3661   -6.0675 H   0  0  0  0  0
  -25.6065    5.7579   -5.8329 H   0  0  0  0  0
  -33.7851    3.6341   -5.4021 H   0  0  0  0  0
  -31.9701    3.7373   -5.1302 H   0  0  0  0  0
  -25.3391    5.2041   -8.0960 H   0  0  0  0  0
  -26.4966    6.5404   -8.1421 H   0  0  0  0  0
  -27.1908    4.7258   -9.3911 H   0  0  0  0  0
  -29.6409    4.4203   -4.4315 H   0  0  0  0  0
  -31.7823    6.3040   -8.6047 H   0  0  0  0  0
  -37.7775    3.9271   -9.0892 H   0  0  0  0  0
  -37.8934    3.0662   -7.5326 H   0  0  0  0  0
  -36.7748    1.0453   -8.6205 H   0  0  0  0  0
  -36.7035    1.8735  -10.1199 H   0  0  0  0  0
  -39.0588    1.8562  -10.4308 H   0  0  0  0  0
  -39.3797    1.9996   -8.6937 H   0  0  0  0  0
  -38.7736   -0.3438   -8.3361 H   0  0  0  0  0
  -38.2644   -0.5090  -10.0250 H   0  0  0  0  0
  -41.0920    0.1671   -9.0803 H   0  0  0  0  0
  -40.5801    0.0011  -10.7778 H   0  0  0  0  0
  -40.5553   -1.4145   -9.6978 H   0  0  0  0  0
  -35.4746    4.4811  -10.0568 H   0  0  0  0  0
  -33.1554    5.2087   -9.3941 H   0  0  0  0  0
  -36.5769    0.5316   -6.5452 H   0  0  0  0  0
  -37.4814    0.6762   -5.9006 H   0  0  0  0  0
  -31.4421    0.9898   -2.9472 H   0  0  0  0  0
 12  1  4  0  0  0
  1 21  4  0  0  0
  2  3  1  0  0  0
 22  2  1  0  0  0
  2 31  1  0  0  0
  3  6  1  0  0  0
 31  3  1  0  0  0
  7  4  4  0  0  0
 32  4  4  0  0  0
  6  5  4  0  0  0
  5 32  4  0  0  0
  6  9  4  0  0  0
  9  7  4  0  0  0
 15  8  1  0  0  0
  8 17  1  0  0  0
 11 10  4  0  0  0
 10 22  4  0  0  0
 20 11  1  0  0  0
 11 30  4  0  0  0
 12 15  1  0  0  0
 19 12  4  0  0  0
 13 19  4  0  0  0
 13 20  4  0  0  0
 15 14  2  0  0  0
 15 16  2  0  0  0
 17 18  1  0  0  0
 20 21  4  0  0  0
 22 23  4  0  0  0
 23 24  1  0  0  0
 23 29  4  0  0  0
 24 25  1  0  0  0
 25 26  1  0  0  0
 26 27  1  0  0  0
 27 28  1  0  0  0
 29 30  4  0  0  0
  1 33  1  0  0  0
  2 34  1  0  0  0
  3 35  1  0  0  0
  4 36  1  0  0  0
  5 37  1  0  0  0
  7 38  1  0  0  0
  8 39  1  0  0  0
  8 40  1  0  0  0
 10 41  1  0  0  0
 13 42  1  0  0  0
 17 43  1  0  0  0
 17 44  1  0  0  0
 18 45  1  0  0  0
 19 46  1  0  0  0
 21 47  1  0  0  0
 24 48  1  0  0  0
 24 49  1  0  0  0
 25 50  1  0  0  0
 25 51  1  0  0  0
 26 52  1  0  0  0
 26 53  1  0  0  0
 27 54  1  0  0  0
 27 55  1  0  0  0
 28 56  1  0  0  0
 28 57  1  0  0  0
 28 58  1  0  0  0
 29 59  1  0  0  0
 30 60  1  0  0  0
 31 61  1  0  0  0
 31 62  1  0  0  0
 32 63  1  0  0  0
M  END
$$$$
