3f7h_ligand
  -I-interpret- 

 81 84  0  0  0  0  0  0  0  0999 V2000
   85.3720   62.2020   13.1570 O   0  0  0  0  0
   84.7820   61.7570   14.1440 C   0  0  0  0  0
   85.5940   61.3040   15.3840 C   0  0  0  0  0
   86.9710   60.9420   14.9460 N   0  3  0  0  0
   87.1230   59.7810   14.0340 C   0  0  0  0  0
   85.5830   62.3640   16.5130 C   0  0  0  0  0
   83.4480   61.6480   14.2140 N   0  0  0  0  0
   82.5300   61.9650   13.0860 C   0  0  0  0  0
   82.0500   60.6830   12.2980 C   0  0  0  0  0
   83.2860   59.8370   11.8730 C   0  0  0  0  0
   81.0800   59.7640   13.0970 C   0  0  0  0  0
   81.3260   61.1090   10.9870 C   0  0  0  0  0
   81.3550   62.8040   13.6940 C   0  0  0  0  0
   80.8900   62.4410   14.7930 O   0  0  0  0  0
   80.8200   63.8780   13.0420 N   0  0  0  0  0
   79.5450   64.4970   13.4570 C   0  0  0  0  0
   81.3890   64.5620   11.8670 C   0  0  0  0  0
   80.8250   65.9720   11.9890 C   0  0  0  0  0
   79.4230   65.7550   12.5730 C   0  0  0  0  0
   78.3110   65.4340   11.5520 C   0  0  0  0  0
   78.0580   63.9310   11.6530 C   0  0  0  0  0
   78.3180   63.6100   13.1300 C   0  0  0  0  0
   77.1440   63.9600   13.9590 N   0  0  0  0  0
   76.6100   63.1280   14.8560 C   0  0  0  0  0
   76.9390   61.9450   14.9680 O   0  0  0  0  0
   75.5060   63.7150   15.7820 C   0  0  0  0  0
   75.9150   63.8990   17.2840 C   0  0  0  0  0
   75.0350   64.6350   18.1000 C   0  0  0  0  0
   75.3260   64.8380   19.4430 C   0  0  0  0  0
   76.4880   64.3140   19.9970 C   0  0  0  0  0
   77.3640   63.5830   19.2120 C   0  0  0  0  0
   77.0880   63.3710   17.8640 C   0  0  0  0  0
   74.2470   62.8270   15.5600 C   0  0  0  0  0
   73.8840   61.7930   16.4490 C   0  0  0  0  0
   72.7470   61.0220   16.2070 C   0  0  0  0  0
   71.9680   61.2710   15.0800 C   0  0  0  0  0
   72.3150   62.2880   14.1950 C   0  0  0  0  0
   73.4510   63.0640   14.4280 C   0  0  0  0  0
   85.1223   60.4242   15.8217 H   0  0  0  0  0
   87.4698   60.6864   15.7982 H   0  0  0  0  0
   87.3106   61.7476   14.4207 H   0  0  0  0  0
   86.7320   58.8863   14.5186 H   0  0  0  0  0
   86.5697   59.9686   13.1138 H   0  0  0  0  0
   88.1785   59.6384   13.8022 H   0  0  0  0  0
   86.1176   61.9753   17.3798 H   0  0  0  0  0
   86.0710   63.2729   16.1611 H   0  0  0  0  0
   84.5527   62.5872   16.7900 H   0  0  0  0  0
   83.0378   61.3291   15.0917 H   0  0  0  0  0
   83.0472   62.5435   12.3206 H   0  0  0  0  0
   83.9317   60.4364   11.2312 H   0  0  0  0  0
   83.8380   59.5308   12.7616 H   0  0  0  0  0
   82.9506   58.9536   11.3297 H   0  0  0  0  0
   81.5758   59.4147   14.0027 H   0  0  0  0  0
   80.1860   60.3271   13.3648 H   0  0  0  0  0
   80.8014   58.9090   12.4809 H   0  0  0  0  0
   80.4615   61.7249   11.2346 H   0  0  0  0  0
   82.0135   61.6797   10.3628 H   0  0  0  0  0
   80.9979   60.2195   10.4491 H   0  0  0  0  0
   79.5530   64.6748   14.5324 H   0  0  0  0  0
   81.1236   64.0795   10.9263 H   0  0  0  0  0
   82.4787   64.5415   11.8514 H   0  0  0  0  0
   80.8002   66.4937   11.0323 H   0  0  0  0  0
   81.4423   66.6133   12.6181 H   0  0  0  0  0
   79.1362   66.6835   13.0667 H   0  0  0  0  0
   78.6125   65.7141   10.5427 H   0  0  0  0  0
   77.4047   65.9997   11.7682 H   0  0  0  0  0
   78.7017   63.3577   10.9859 H   0  0  0  0  0
   77.0489   63.6599   11.3425 H   0  0  0  0  0
   78.4955   62.5531   13.3287 H   0  0  0  0  0
   76.7223   64.8811   13.8396 H   0  0  0  0  0
   75.3045   64.7503   15.5072 H   0  0  0  0  0
   74.1200   65.0480   17.6755 H   0  0  0  0  0
   74.6393   65.4114   20.0658 H   0  0  0  0  0
   76.7103   64.4787   21.0513 H   0  0  0  0  0
   78.2730   63.1721   19.6512 H   0  0  0  0  0
   77.7821   62.7938   17.2531 H   0  0  0  0  0
   74.4954   61.5957   17.3296 H   0  0  0  0  0
   72.4690   60.2265   16.8984 H   0  0  0  0  0
   71.0814   60.6661   14.8897 H   0  0  0  0  0
   71.6974   62.4787   13.3173 H   0  0  0  0  0
   73.7211   63.8560   13.7295 H   0  0  0  0  0
  1  2  2  0  0  0
  2  3  1  0  0  0
  2  7  1  0  0  0
  3  4  1  0  0  0
  3  6  1  0  0  0
  4  5  1  0  0  0
  7  8  1  0  0  0
  8  9  1  0  0  0
  8 13  1  0  0  0
  9 10  1  0  0  0
  9 11  1  0  0  0
  9 12  1  0  0  0
 13 14  2  0  0  0
 13 15  1  0  0  0
 15 16  1  0  0  0
 15 17  1  0  0  0
 16 19  1  0  0  0
 16 22  1  0  0  0
 17 18  1  0  0  0
 18 19  1  0  0  0
 19 20  1  0  0  0
 20 21  1  0  0  0
 21 22  1  0  0  0
 22 23  1  0  0  0
 23 24  1  0  0  0
 24 25  2  0  0  0
 24 26  1  0  0  0
 26 27  1  0  0  0
 26 33  1  0  0  0
 27 28  4  0  0  0
 27 32  4  0  0  0
 28 29  4  0  0  0
 29 30  4  0  0  0
 30 31  4  0  0  0
 31 32  4  0  0  0
 33 34  4  0  0  0
 33 38  4  0  0  0
 34 35  4  0  0  0
 35 36  4  0  0  0
 36 37  4  0  0  0
 37 38  4  0  0  0
  3 39  1  0  0  0
  4 40  1  0  0  0
  4 41  1  0  0  0
  5 42  1  0  0  0
  5 43  1  0  0  0
  5 44  1  0  0  0
  6 45  1  0  0  0
  6 46  1  0  0  0
  6 47  1  0  0  0
  7 48  1  0  0  0
  8 49  1  0  0  0
 10 50  1  0  0  0
 10 51  1  0  0  0
 10 52  1  0  0  0
 11 53  1  0  0  0
 11 54  1  0  0  0
 11 55  1  0  0  0
 12 56  1  0  0  0
 12 57  1  0  0  0
 12 58  1  0  0  0
 16 59  1  0  0  0
 17 60  1  0  0  0
 17 61  1  0  0  0
 18 62  1  0  0  0
 18 63  1  0  0  0
 19 64  1  0  0  0
 20 65  1  0  0  0
 20 66  1  0  0  0
 21 67  1  0  0  0
 21 68  1  0  0  0
 22 69  1  0  0  0
 23 70  1  0  0  0
 26 71  1  0  0  0
 28 72  1  0  0  0
 29 73  1  0  0  0
 30 74  1  0  0  0
 31 75  1  0  0  0
 32 76  1  0  0  0
 34 77  1  0  0  0
 35 78  1  0  0  0
 36 79  1  0  0  0
 37 80  1  0  0  0
 38 81  1  0  0  0
M  END
$$$$
