3zq9_ligand
  -I-interpret- 

 46 47  0  0  0  0  0  0  0  0999 V2000
   15.3310   25.3400   12.3550 O   0  0  0  0  0
   14.9640   25.1560   13.7360 C   0  0  0  0  0
   15.4350   26.3530   14.5890 C   0  0  0  0  0
   16.8540   26.5040   14.5440 O   0  0  0  0  0
   15.0090   26.1220   16.0570 C   0  0  0  0  0
   13.5510   25.9310   16.1870 N   0  3  0  0  0
   12.9920   24.8850   15.2970 C   0  0  0  0  0
   13.4300   25.1500   13.8510 C   0  0  0  0  0
   12.7830   24.1700   12.8660 C   0  0  0  0  0
   15.4360   27.1980   16.8910 O   0  0  0  0  0
   13.0640   22.8160   13.2460 O   0  0  0  0  0
   16.4590   24.2860   10.5140 C   0  0  0  0  0
   17.8510   23.9810    9.9750 C   0  0  0  0  0
   18.6930   25.2590   10.0910 C   0  0  0  0  0
   18.8090   25.7430   11.5450 C   0  0  0  0  0
   19.5730   27.0660   11.6110 C   0  0  0  0  0
   16.5960   24.8560   11.9290 C   0  0  0  0  0
   15.6910   23.1150   10.6810 O   0  0  0  0  0
   17.7340   23.6170    8.5760 O   0  0  0  0  0
   19.9580   25.0690    9.4710 O   0  0  0  0  0
   17.4650   25.9550   11.9880 O   0  0  0  0  0
   19.6740   27.4820   12.9720 O   0  0  0  0  0
   15.4165   24.2254   14.0786 H   0  0  0  0  0
   14.9790   27.2571   14.1857 H   0  0  0  0  0
   17.1307   26.6482   13.6361 H   0  0  0  0  0
   15.4981   25.2048   16.3852 H   0  0  0  0  0
   13.1082   26.8130   15.9292 H   0  0  0  0  0
   13.3709   25.6366   17.1468 H   0  0  0  0  0
   11.9037   24.9047   15.3547 H   0  0  0  0  0
   13.3581   23.9080   15.6126 H   0  0  0  0  0
   13.0744   26.1426   13.5744 H   0  0  0  0  0
   13.1886   24.3495   11.8703 H   0  0  0  0  0
   11.7038   24.3226   12.8724 H   0  0  0  0  0
   16.3845   27.3149   16.8001 H   0  0  0  0  0
   12.6519   22.2168   12.6193 H   0  0  0  0  0
   15.9862   24.9648    9.8042 H   0  0  0  0  0
   18.3150   23.1671   10.5322 H   0  0  0  0  0
   18.1808   26.0595    9.5572 H   0  0  0  0  0
   19.3431   25.0189   12.1602 H   0  0  0  0  0
   19.0421   27.8241   11.0352 H   0  0  0  0  0
   20.5713   26.9331   11.1941 H   0  0  0  0  0
   16.9825   24.0497   12.5524 H   0  0  0  0  0
   14.8240   23.3481   11.0209 H   0  0  0  0  0
   18.6053   23.4220    8.2233 H   0  0  0  0  0
   20.4756   25.8737    9.5495 H   0  0  0  0  0
   20.1533   28.3126   13.0168 H   0  0  0  0  0
  1  2  1  0  0  0
 17  1  1  0  0  0
  2  3  1  0  0  0
  2  8  1  0  0  0
  3  4  1  0  0  0
  3  5  1  0  0  0
  5  6  1  0  0  0
  5 10  1  0  0  0
  7  6  1  0  0  0
  8  7  1  0  0  0
  8  9  1  0  0  0
  9 11  1  0  0  0
 12 13  1  0  0  0
 12 17  1  0  0  0
 12 18  1  0  0  0
 13 14  1  0  0  0
 13 19  1  0  0  0
 14 15  1  0  0  0
 14 20  1  0  0  0
 15 16  1  0  0  0
 15 21  1  0  0  0
 16 22  1  0  0  0
 17 21  1  0  0  0
  2 23  1  0  0  0
  3 24  1  0  0  0
  4 25  1  0  0  0
  5 26  1  0  0  0
  6 27  1  0  0  0
  6 28  1  0  0  0
  7 29  1  0  0  0
  7 30  1  0  0  0
  8 31  1  0  0  0
  9 32  1  0  0  0
  9 33  1  0  0  0
 10 34  1  0  0  0
 11 35  1  0  0  0
 12 36  1  0  0  0
 13 37  1  0  0  0
 14 38  1  0  0  0
 15 39  1  0  0  0
 16 40  1  0  0  0
 16 41  1  0  0  0
 17 42  1  0  0  0
 18 43  1  0  0  0
 19 44  1  0  0  0
 20 45  1  0  0  0
 22 46  1  0  0  0
M  END
$$$$
