2c5o_ligand
  -I-interpret- 

 24 25  0  0  0  0  0  0  0  0999 V2000
    3.8840   44.5870    0.4060 C   0  0  0  0  0
    4.1810   45.9910    0.8430 C   0  0  0  0  0
    3.0160   46.8950    1.7010 S   0  0  0  0  0
    5.3820   46.5360    0.5910 N   0  0  0  0  0
    5.4570   47.7790    1.0930 C   0  0  0  0  0
    6.7490   48.5050    0.8480 C   0  0  0  0  0
    4.1810   48.1750    1.7490 C   0  0  0  0  0
    3.9480   49.4090    2.3410 C   0  0  0  0  0
    2.7730   49.6440    2.9390 N   0  0  0  0  0
    4.9380   50.3870    2.3380 C   0  0  0  0  0
    4.6570   51.6080    2.9440 C   0  0  0  0  0
    3.4610   51.7910    3.5180 N   0  0  0  0  0
    2.5320   50.8280    3.5130 C   0  0  0  0  0
    1.2670   51.0780    4.0680 N   0  0  0  0  0
    3.6719   43.9727    1.2810 H   0  0  0  0  0
    3.0183   44.5894   -0.2563 H   0  0  0  0  0
    4.7468   44.1824   -0.1232 H   0  0  0  0  0
    7.5698   47.9445    1.2956 H   0  0  0  0  0
    6.9139   48.5984   -0.2254 H   0  0  0  0  0
    6.6976   49.4971    1.2966 H   0  0  0  0  0
    5.9067   50.2019    1.8739 H   0  0  0  0  0
    5.4007   52.4049    2.9513 H   0  0  0  0  0
    0.5430   50.3605    4.0310 H   0  0  0  0  0
    1.0719   51.9772    4.5082 H   0  0  0  0  0
  1  2  1  0  0  0
  2  3  4  0  0  0
  2  4  4  0  0  0
  3  7  4  0  0  0
  4  5  4  0  0  0
  5  6  1  0  0  0
  5  7  4  0  0  0
  7  8  1  0  0  0
  8  9  4  0  0  0
  8 10  4  0  0  0
  9 13  4  0  0  0
 10 11  4  0  0  0
 11 12  4  0  0  0
 12 13  4  0  0  0
 13 14  1  0  0  0
  1 15  1  0  0  0
  1 16  1  0  0  0
  1 17  1  0  0  0
  6 18  1  0  0  0
  6 19  1  0  0  0
  6 20  1  0  0  0
 10 21  1  0  0  0
 11 22  1  0  0  0
 14 23  1  0  0  0
 14 24  1  0  0  0
M  END
$$$$
