3hzk_ligand
  -I-interpret- 

 64 65  0  0  0  0  0  0  0  0999 V2000
    6.8310   -0.8740   -6.3720 C   0  0  0  0  0
    7.2790   -1.9590   -6.7900 O   0  0  0  0  0
    5.6330   -0.5320   -6.4740 O   0  0  0  0  0
    7.8110    0.0350   -5.5780 C   0  0  0  0  0
    7.4950   -0.1860   -4.0810 C   0  0  0  0  0
    8.4950    0.5140   -3.1460 C   0  0  0  0  0
    8.1050    0.2540   -1.7660 O   0  0  0  0  0
    9.9030    0.0260   -3.5080 C   0  0  0  0  0
    9.9560   -1.3940   -3.3870 O   0  0  0  0  0
   10.1820    0.3620   -4.9650 C   0  0  0  0  0
    9.1950   -0.3110   -5.8070 O   0  0  0  0  0
   11.6630    0.3000   -5.4340 C   0  0  0  0  0
   12.5840    0.6980   -4.4000 O   0  0  0  0  0
   11.8620    1.1440   -6.6980 C   0  0  0  0  0
   11.0150    0.6780   -7.7390 O   0  0  0  0  0
    7.7580    1.4670   -5.8480 O   0  0  0  0  0
    6.4120    1.9070   -6.1590 C   0  0  0  0  0
    5.3060    1.7180   -5.3300 C   0  0  0  0  0
    4.0630    2.1870   -5.7400 C   0  0  0  0  0
   10.2380   -0.1880   -0.5000 C   0  0  0  0  0
   10.1640   -1.3840   -0.8620 O   0  0  0  0  0
   11.2330    0.3650    0.0250 O   0  0  0  0  0
    8.9990    0.6940   -0.7020 C   0  0  0  0  0
    8.1780    0.6800    0.6040 C   0  0  0  0  0
    6.9870    1.6470    0.4530 C   0  0  0  0  0
    6.2340    1.7190    1.6730 O   0  0  0  0  0
    7.5860    3.0230    0.1900 C   0  0  0  0  0
    8.4050    3.3920    1.2860 O   0  0  0  0  0
    8.4270    3.0010   -1.0880 C   0  0  0  0  0
    9.4720    2.0330   -0.9950 O   0  0  0  0  0
    9.0750    4.3540   -1.4180 C   0  0  0  0  0
    8.1620    5.4440   -1.2920 O   0  0  0  0  0
    9.6960    4.2580   -2.8260 C   0  0  0  0  0
   10.3460    5.4730   -3.1970 O   0  0  0  0  0
    5.5155    0.3379   -6.0854 H   0  0  0  0  0
    7.5504   -1.2567   -3.8846 H   0  0  0  0  0
    6.5079    0.2327   -3.8847 H   0  0  0  0  0
    8.4948    1.5977   -3.2630 H   0  0  0  0  0
   10.6277    0.5003   -2.8462 H   0  0  0  0  0
    9.7837   -1.6431   -2.4760 H   0  0  0  0  0
   10.0422    1.4364   -5.0843 H   0  0  0  0  0
   11.8835   -0.7415   -5.6680 H   0  0  0  0  0
   13.4821    0.6438   -4.7348 H   0  0  0  0  0
   12.9001    1.0635   -7.0204 H   0  0  0  0  0
   11.6153    2.1822   -6.4757 H   0  0  0  0  0
   11.1494    1.2145   -8.5237 H   0  0  0  0  0
    6.1608    1.3004   -7.0291 H   0  0  0  0  0
    6.5154    2.9920   -6.1704 H   0  0  0  0  0
    5.4150    1.2088   -4.3724 H   0  0  0  0  0
    3.9615    2.6953   -6.6989 H   0  0  0  0  0
    3.1901    2.0464   -5.1026 H   0  0  0  0  0
   11.0278    1.2852    0.2060 H   0  0  0  0  0
    8.8055    0.9945    1.4379 H   0  0  0  0  0
    7.8126   -0.3281    0.7996 H   0  0  0  0  0
    6.3261    1.3110   -0.3460 H   0  0  0  0  0
    5.4984    2.3250    1.5584 H   0  0  0  0  0
    6.7788    3.7452    0.0683 H   0  0  0  0  0
    8.7840    4.2589    1.1232 H   0  0  0  0  0
    7.7258    2.7491   -1.8836 H   0  0  0  0  0
    9.8592    4.5677   -0.6917 H   0  0  0  0  0
    8.6125    6.2638   -1.5077 H   0  0  0  0  0
    8.8978    4.0618   -3.5419 H   0  0  0  0  0
   10.4367    3.4583   -2.8221 H   0  0  0  0  0
   10.7203    5.3789   -4.0760 H   0  0  0  0  0
  1  2  2  0  0  0
  1  3  1  0  0  0
  4  1  1  0  0  0
  5  4  1  0  0  0
  4 11  1  0  0  0
  4 16  1  0  0  0
  6  5  1  0  0  0
  7  6  1  0  0  0
  6  8  1  0  0  0
 23  7  1  0  0  0
  8  9  1  0  0  0
  8 10  1  0  0  0
 10 11  1  0  0  0
 10 12  1  0  0  0
 12 13  1  0  0  0
 12 14  1  0  0  0
 14 15  1  0  0  0
 16 17  1  0  0  0
 17 18  1  0  0  0
 18 19  2  0  0  0
 20 21  2  0  0  0
 20 22  1  0  0  0
 20 23  1  0  0  0
 23 24  1  0  0  0
 23 30  1  0  0  0
 24 25  1  0  0  0
 25 26  1  0  0  0
 25 27  1  0  0  0
 27 28  1  0  0  0
 27 29  1  0  0  0
 29 30  1  0  0  0
 29 31  1  0  0  0
 31 32  1  0  0  0
 31 33  1  0  0  0
 33 34  1  0  0  0
  3 35  1  0  0  0
  5 36  1  0  0  0
  5 37  1  0  0  0
  6 38  1  0  0  0
  8 39  1  0  0  0
  9 40  1  0  0  0
 10 41  1  0  0  0
 12 42  1  0  0  0
 13 43  1  0  0  0
 14 44  1  0  0  0
 14 45  1  0  0  0
 15 46  1  0  0  0
 17 47  1  0  0  0
 17 48  1  0  0  0
 18 49  1  0  0  0
 19 50  1  0  0  0
 19 51  1  0  0  0
 22 52  1  0  0  0
 24 53  1  0  0  0
 24 54  1  0  0  0
 25 55  1  0  0  0
 26 56  1  0  0  0
 27 57  1  0  0  0
 28 58  1  0  0  0
 29 59  1  0  0  0
 31 60  1  0  0  0
 32 61  1  0  0  0
 33 62  1  0  0  0
 33 63  1  0  0  0
 34 64  1  0  0  0
M  END
$$$$
