5yg3_ligand
  -I-interpret- 

 49 53  0  0  0  0  0  0  0  0999 V2000
  131.2420  -12.2770   97.5730 C   0  0  0  0  0
  131.6450  -13.5470   97.8740 C   0  0  0  0  0
  131.5360  -14.7030   96.8340 C   0  0  0  0  0
  131.3380  -14.1730   95.4280 C   0  0  0  0  0
  130.9380  -12.7830   95.1710 C   0  0  0  0  0
  132.4680  -13.9450  100.1640 N   0  0  0  0  0
  131.4550  -14.7140   94.0230 C   0  0  0  0  0
  130.8050  -12.4690   93.8690 N   0  0  0  0  0
  131.8490  -16.0800   93.4780 C   0  0  0  0  0
  132.5450  -16.6520   97.7280 C   0  0  0  0  0
  134.9320  -16.4830   96.2920 C   0  0  0  0  0
  134.7100  -17.5350   97.2030 C   0  0  0  0  0
  131.1790  -16.5820   98.3620 C   0  0  0  0  0
  136.1910  -16.3590   95.4910 C   0  0  0  0  0
  133.2590  -18.6170   98.8000 F   0  0  0  0  0
  133.5060  -17.6230   97.9240 C   0  0  0  0  0
  130.4280  -15.6820   97.3240 C   0  0  0  0  0
  129.9530  -16.5490   96.1430 C   0  0  0  0  0
  129.1750  -15.0650   97.9890 C   0  0  0  0  0
  137.4620  -16.3350   96.0780 C   0  0  0  0  0
  138.5970  -16.2280   95.2560 C   0  0  0  0  0
  138.4780  -16.1400   93.9060 N   0  0  0  0  0
  137.2700  -16.1600   93.3050 C   0  0  0  0  0
  136.1110  -16.2740   94.0900 C   0  0  0  0  0
  133.9290  -15.5230   96.1190 C   0  0  0  0  0
  132.7380  -15.6170   96.8570 C   0  0  0  0  0
  132.0740  -13.7570   99.0670 C   0  0  0  0  0
  131.3130  -11.2600   98.4640 N   0  0  0  0  0
  131.1250  -13.6760   93.2150 N   0  0  0  0  0
  130.7260  -11.9390   96.2350 O   0  0  0  0  0
  132.8623  -16.3198   93.8002 H   0  0  0  0  0
  131.1582  -16.8336   93.8561 H   0  0  0  0  0
  131.8075  -16.0610   92.3890 H   0  0  0  0  0
  135.4818  -18.2904   97.3507 H   0  0  0  0  0
  131.1789  -16.1860   99.3775 H   0  0  0  0  0
  130.7143  -17.5540   98.5275 H   0  0  0  0  0
  130.8154  -17.0140   95.6654 H   0  0  0  0  0
  129.2783  -17.3225   96.5100 H   0  0  0  0  0
  129.4303  -15.9219   95.4207 H   0  0  0  0  0
  128.5133  -15.8633   98.3250 H   0  0  0  0  0
  129.4792  -14.4599   98.8430 H   0  0  0  0  0
  128.6527  -14.4386   97.2659 H   0  0  0  0  0
  137.5700  -16.3986   97.1608 H   0  0  0  0  0
  139.5883  -16.2154   95.7091 H   0  0  0  0  0
  137.1944  -16.0883   92.2200 H   0  0  0  0  0
  135.1348  -16.2969   93.6057 H   0  0  0  0  0
  134.0717  -14.7045   95.4134 H   0  0  0  0  0
  131.6784  -11.4278   99.4014 H   0  0  0  0  0
  131.0011  -10.3261   98.1978 H   0  0  0  0  0
  2  1  2  0  0  0
  1 28  1  0  0  0
  1 30  1  0  0  0
  3  2  1  0  0  0
  2 27  1  0  0  0
  3  4  1  0  0  0
  3 17  1  0  0  0
 26  3  1  0  0  0
  4  5  4  0  0  0
  4  7  4  0  0  0
  5  8  4  0  0  0
  5 30  1  0  0  0
 27  6  3  0  0  0
  7  9  1  0  0  0
  7 29  4  0  0  0
 29  8  4  0  0  0
 10 13  1  0  0  0
 16 10  4  0  0  0
 10 26  4  0  0  0
 12 11  4  0  0  0
 11 14  1  0  0  0
 11 25  4  0  0  0
 12 16  4  0  0  0
 13 17  1  0  0  0
 14 20  4  0  0  0
 14 24  4  0  0  0
 16 15  1  0  0  0
 17 18  1  0  0  0
 17 19  1  0  0  0
 20 21  4  0  0  0
 21 22  4  0  0  0
 22 23  4  0  0  0
 23 24  4  0  0  0
 25 26  4  0  0  0
  9 31  1  0  0  0
  9 32  1  0  0  0
  9 33  1  0  0  0
 12 34  1  0  0  0
 13 35  1  0  0  0
 13 36  1  0  0  0
 18 37  1  0  0  0
 18 38  1  0  0  0
 18 39  1  0  0  0
 19 40  1  0  0  0
 19 41  1  0  0  0
 19 42  1  0  0  0
 20 43  1  0  0  0
 21 44  1  0  0  0
 23 45  1  0  0  0
 24 46  1  0  0  0
 25 47  1  0  0  0
 28 48  1  0  0  0
 28 49  1  0  0  0
M  END
$$$$
