1g27_ligand
  -I-interpret- 

 54 53  0  0  0  0  0  0  0  0999 V2000
   42.9860    4.0800   14.1010 C   0  0  0  0  0
   44.0920    5.1250   14.0770 C   0  0  0  0  0
   44.0940    5.8880   12.7890 C   0  0  0  0  0
   44.0530    5.2760   11.7210 O   0  0  0  0  0
   44.2840    7.2150   12.8890 N   0  0  0  0  0
   44.4560    8.0710   11.7520 C   0  0  0  0  0
   45.5030    4.5930   14.4520 C   0  0  0  0  0
   46.5220    5.7790   14.6060 C   0  0  0  0  0
   47.9740    5.2550   14.5220 C   0  0  0  0  0
   48.9550    6.2160   15.1830 C   0  0  0  0  0
   42.7730    3.5910   15.4500 N   0  0  0  0  0
   43.4050    2.5010   15.8730 C   0  0  0  0  0
   43.3330    2.1390   17.0500 O   0  0  0  0  0
   42.1440    4.2460   16.4290 O   0  0  0  0  0
   45.6780    8.9080   12.0840 C   0  0  0  0  0
   46.7860    9.0540   11.3330 N   0  0  0  0  0
   47.8470    9.9050   11.8650 C   0  0  0  0  0
   46.9300    8.4250   10.0290 C   0  0  0  0  0
   45.6300    9.4560   13.1870 O   0  0  0  0  0
   43.2340    8.8990   11.3480 C   0  0  0  0  0
   43.5900    9.7580   10.1250 C   0  0  0  0  0
   42.7770    9.8300   12.4930 C   0  0  0  0  0
   42.0820    7.9600   10.9920 C   0  0  0  0  0
   42.0632    4.5348   13.7409 H   0  0  0  0  0
   43.2767    3.2441   13.4646 H   0  0  0  0  0
   43.8483    5.8182   14.8821 H   0  0  0  0  0
   44.3069    7.6332   13.8191 H   0  0  0  0  0
   44.5927    7.4739   10.8504 H   0  0  0  0  0
   45.8513    3.9303   13.6598 H   0  0  0  0  0
   45.4375    4.0598   15.4004 H   0  0  0  0  0
   46.3710    6.2536   15.5756 H   0  0  0  0  0
   46.3561    6.4966   13.8025 H   0  0  0  0  0
   48.2443    5.1552   13.4708 H   0  0  0  0  0
   48.0258    4.2980   15.0413 H   0  0  0  0  0
   48.9075    7.1830   14.6823 H   0  0  0  0  0
   48.6917    6.3362   16.2339 H   0  0  0  0  0
   49.9649    5.8137   15.1039 H   0  0  0  0  0
   43.9968    1.9172   15.1680 H   0  0  0  0  0
   41.7078    5.0202   16.0657 H   0  0  0  0  0
   47.4615   10.9135   12.0145 H   0  0  0  0  0
   48.1916    9.5015   12.8171 H   0  0  0  0  0
   48.6770    9.9329   11.1590 H   0  0  0  0  0
   46.8539    7.3432   10.1385 H   0  0  0  0  0
   46.1411    8.7808    9.3663 H   0  0  0  0  0
   47.9025    8.6814    9.6087 H   0  0  0  0  0
   43.8898    9.1094    9.3019 H   0  0  0  0  0
   42.7202   10.3445    9.8289 H   0  0  0  0  0
   44.4117   10.4275   10.3796 H   0  0  0  0  0
   41.9135   10.4092   12.1659 H   0  0  0  0  0
   42.5056    9.2296   13.3613 H   0  0  0  0  0
   43.5906   10.5057   12.7568 H   0  0  0  0  0
   41.8138    7.3681   11.8671 H   0  0  0  0  0
   41.2217    8.5477   10.6716 H   0  0  0  0  0
   42.3918    7.2969   10.1843 H   0  0  0  0  0
  1 11  1  0  0  0
  1  2  1  0  0  0
  2  7  1  0  0  0
  2  3  1  0  0  0
  3  5  1  0  0  0
  3  4  2  0  0  0
  5  6  1  0  0  0
  6 20  1  0  0  0
  6 15  1  0  0  0
 15 19  2  0  0  0
 15 16  1  0  0  0
 16 18  1  0  0  0
 16 17  1  0  0  0
 20 23  1  0  0  0
 20 22  1  0  0  0
 20 21  1  0  0  0
  7  8  1  0  0  0
  8  9  1  0  0  0
  9 10  1  0  0  0
 11 14  1  0  0  0
 11 12  1  0  0  0
 12 13  2  0  0  0
  1 24  1  0  0  0
  1 25  1  0  0  0
  2 26  1  0  0  0
  5 27  1  0  0  0
  6 28  1  0  0  0
  7 29  1  0  0  0
  7 30  1  0  0  0
  8 31  1  0  0  0
  8 32  1  0  0  0
  9 33  1  0  0  0
  9 34  1  0  0  0
 10 35  1  0  0  0
 10 36  1  0  0  0
 10 37  1  0  0  0
 12 38  1  0  0  0
 14 39  1  0  0  0
 17 40  1  0  0  0
 17 41  1  0  0  0
 17 42  1  0  0  0
 18 43  1  0  0  0
 18 44  1  0  0  0
 18 45  1  0  0  0
 21 46  1  0  0  0
 21 47  1  0  0  0
 21 48  1  0  0  0
 22 49  1  0  0  0
 22 50  1  0  0  0
 22 51  1  0  0  0
 23 52  1  0  0  0
 23 53  1  0  0  0
 23 54  1  0  0  0
M  END
$$$$
