6s4n_ligand
  -I-interpret- 

 62 65  0  0  0  0  0  0  0  0999 V2000
   -4.7650    9.3290    1.9340 C   0  0  0  0  0
   -3.8910    8.3150    1.1730 C   0  0  0  0  0
   -4.8150    7.4230    0.3410 C   0  0  0  0  0
   -1.5530    7.0590    3.9040 C   0  0  0  0  0
   -2.3390    5.9600    4.1430 C   0  0  0  0  0
   -2.2450    4.8330    5.0830 C   0  0  0  0  0
   -2.3790    5.0270    6.4730 C   0  0  0  0  0
   -2.2990    3.9260    7.3180 C   0  0  0  0  0
   -2.1050    2.6490    6.7980 C   0  0  0  0  0
   -1.9840    2.4460    5.4220 C   0  0  0  0  0
   -2.0530    3.5400    4.5650 C   0  0  0  0  0
   -3.4300    5.0580    1.9950 O   0  0  0  0  0
   -0.4010    7.4570    4.5980 N   0  0  0  0  0
    0.3950    6.6230    5.4960 C   0  0  0  0  0
    1.1350    5.5200    4.7200 C   0  0  0  0  0
    1.8930    4.6530    5.7250 C   0  0  0  0  0
    1.3530    7.5240    6.2870 C   0  0  0  0  0
    4.8990    6.2910    6.8910 N   0  0  0  0  0
    6.2090    6.1610    7.0630 C   0  0  0  0  0
    8.5710    4.6680    8.9000 C   0  0  0  0  0
    5.9470    3.7820    7.1930 C   0  0  0  0  0
    4.5830    3.9440    7.0100 C   0  0  0  0  0
   -3.1780    7.5690    2.2200 N   0  0  0  0  0
   -2.0420    7.9280    2.8500 C   0  0  0  0  0
   -1.4470    8.9650    2.5850 O   0  0  0  0  0
   -3.6220    6.1080    2.9270 S   0  0  0  0  0
   -4.8600    6.3160    3.5830 O   0  0  0  0  0
    2.6990    5.4830    6.6610 N   0  0  0  0  0
    2.0810    6.6550    7.3170 C   0  0  0  0  0
    4.0650    5.2430    6.8420 C   0  0  0  0  0
    6.7670    4.9020    7.2150 C   0  0  0  0  0
    8.2500    4.7170    7.4240 C   0  0  0  0  0
    7.7800    5.0130    9.7500 O   0  0  0  0  0
    9.7700    4.2310    9.2940 O   0  0  0  0  0
    3.6120    2.5020    6.9930 Cl  0  0  0  0  0
   -5.4534    8.7943    2.5884 H   0  0  0  0  0
   -4.1270    9.9810    2.5306 H   0  0  0  0  0
   -5.3311    9.9270    1.2198 H   0  0  0  0  0
   -3.1766    8.7645    0.4833 H   0  0  0  0  0
   -4.2263    6.6442   -0.1438 H   0  0  0  0  0
   -5.5592    6.9651    0.9926 H   0  0  0  0  0
   -5.3153    8.0265   -0.4163 H   0  0  0  0  0
   -2.5429    6.0252    6.8790 H   0  0  0  0  0
   -2.3888    4.0634    8.3956 H   0  0  0  0  0
   -2.0468    1.7962    7.4744 H   0  0  0  0  0
   -1.8372    1.4421    5.0237 H   0  0  0  0  0
   -1.9579    3.3942    3.4890 H   0  0  0  0  0
   -0.0896    8.4189    4.4633 H   0  0  0  0  0
   -0.2591    6.1087    6.2002 H   0  0  0  0  0
    1.8317    5.9653    4.0098 H   0  0  0  0  0
    0.4221    4.9114    4.1637 H   0  0  0  0  0
    2.5683    3.9971    5.1755 H   0  0  0  0  0
    1.1679    4.0827    6.3056 H   0  0  0  0  0
    0.7964    8.3154    6.7890 H   0  0  0  0  0
    2.0719    7.9910    5.6138 H   0  0  0  0  0
    6.8459    7.0453    7.0846 H   0  0  0  0  0
    6.3715    2.7859    7.3183 H   0  0  0  0  0
    1.3619    6.3075    8.0588 H   0  0  0  0  0
    2.8625    7.2482    7.7918 H   0  0  0  0  0
    8.5598    3.7798    6.9617 H   0  0  0  0  0
    8.7798    5.5559    6.9728 H   0  0  0  0  0
   10.2914    3.9929    8.5239 H   0  0  0  0  0
  2  1  1  0  0  0
  2  3  1  0  0  0
 23  2  1  0  0  0
  4  5  2  0  0  0
 13  4  1  0  0  0
  4 24  1  0  0  0
  5  6  1  0  0  0
  5 26  1  0  0  0
  6  7  4  0  0  0
  6 11  4  0  0  0
  7  8  4  0  0  0
  8  9  4  0  0  0
 10  9  4  0  0  0
 11 10  4  0  0  0
 26 12  2  0  0  0
 14 13  1  0  0  0
 15 14  1  0  0  0
 17 14  1  0  0  0
 16 15  1  0  0  0
 28 16  1  0  0  0
 29 17  1  0  0  0
 19 18  4  0  0  0
 18 30  4  0  0  0
 31 19  4  0  0  0
 32 20  1  0  0  0
 20 33  2  0  0  0
 20 34  1  0  0  0
 21 22  4  0  0  0
 31 21  4  0  0  0
 22 30  4  0  0  0
 22 35  1  0  0  0
 24 23  1  0  0  0
 23 26  1  0  0  0
 24 25  2  0  0  0
 26 27  2  0  0  0
 28 29  1  0  0  0
 30 28  1  0  0  0
 31 32  1  0  0  0
  1 36  1  0  0  0
  1 37  1  0  0  0
  1 38  1  0  0  0
  2 39  1  0  0  0
  3 40  1  0  0  0
  3 41  1  0  0  0
  3 42  1  0  0  0
  7 43  1  0  0  0
  8 44  1  0  0  0
  9 45  1  0  0  0
 10 46  1  0  0  0
 11 47  1  0  0  0
 13 48  1  0  0  0
 14 49  1  0  0  0
 15 50  1  0  0  0
 15 51  1  0  0  0
 16 52  1  0  0  0
 16 53  1  0  0  0
 17 54  1  0  0  0
 17 55  1  0  0  0
 19 56  1  0  0  0
 21 57  1  0  0  0
 29 58  1  0  0  0
 29 59  1  0  0  0
 32 60  1  0  0  0
 32 61  1  0  0  0
 34 62  1  0  0  0
M  END
$$$$
