6c7j_ligand
  -I-interpret- 

 61 64  0  0  0  0  0  0  0  0999 V2000
    8.8740    6.5700    4.4750 C   0  0  0  0  0
    9.9290    7.4050    4.7630 C   0  0  0  0  0
   10.4710    7.4890    6.0250 C   0  0  0  0  0
    7.3500    4.2790    7.6230 C   0  0  0  0  0
    6.5170    4.5640    4.1990 C   0  0  0  0  0
    5.8800    6.4360    1.0520 C   0  0  0  0  0
    6.4570    5.6240    0.0970 C   0  0  0  0  0
    7.0770    4.4620    0.5020 C   0  0  0  0  0
   12.7190   10.5740    3.0790 C   0  0  0  0  0
   13.1710   11.2150    4.3700 C   0  0  0  0  0
    9.9330    6.7020    7.0290 C   0  0  0  0  0
    5.9140    6.1010    2.3920 C   0  0  0  0  0
    6.5450    4.9440    2.7980 C   0  0  0  0  0
    8.8680    5.8550    6.7790 C   0  0  0  0  0
    8.3560    5.8010    5.4920 C   0  0  0  0  0
    7.1300    4.1310    1.8470 C   0  0  0  0  0
    6.7880    4.1780    6.3210 C   0  0  0  0  0
   10.4430    8.2320    3.6700 C   0  0  0  0  0
    6.7440    3.4280    8.7000 C   0  0  0  0  0
   13.0940   11.4750    1.9270 C   0  0  0  0  0
    3.3760    6.1280    0.2260 C   0  0  0  0  0
    3.1030    8.5380    0.6380 C   0  0  0  0  0
    4.1450    7.7950   -1.4190 C   0  0  0  0  0
   11.2110   10.4390    3.0850 C   0  0  0  0  0
    3.9930    7.4880    0.0450 C   0  0  0  0  0
    5.6380    3.6720    4.5950 N   0  0  0  0  0
    5.7860    3.4210    5.9270 N   0  0  0  0  0
    8.3460    5.0810    7.8310 N   0  0  0  0  0
    7.2810    4.9210    5.2800 N   0  0  0  0  0
   10.7320    9.5060    4.0720 N   0  0  0  0  0
   10.5480    7.8220    2.5260 O   0  0  0  0  0
    5.2690    7.6240    0.6880 O   0  0  0  0  0
    7.9220    2.6670    2.3390 Cl  0  0  0  0  0
    8.4595    6.5189    3.4682 H   0  0  0  0  0
   11.3052    8.1601    6.2296 H   0  0  0  0  0
    6.4230    5.8967   -0.9578 H   0  0  0  0  0
    7.5275    3.8006   -0.2381 H   0  0  0  0  0
   13.1896    9.5960    2.9787 H   0  0  0  0  0
   14.2520   11.3531    4.3466 H   0  0  0  0  0
   12.6822   12.1825    4.4844 H   0  0  0  0  0
   12.9038   10.5703    5.2073 H   0  0  0  0  0
   10.3553    6.7505    8.0327 H   0  0  0  0  0
    5.4420    6.7514    3.1284 H   0  0  0  0  0
    5.6914    3.6861    8.8160 H   0  0  0  0  0
    6.8336    2.3772    8.4245 H   0  0  0  0  0
    7.2684    3.6047    9.6391 H   0  0  0  0  0
   12.6055   12.4417    2.0495 H   0  0  0  0  0
   14.1752   11.6122    1.9118 H   0  0  0  0  0
   12.7711   11.0193    0.9910 H   0  0  0  0  0
    3.2447    5.9286    1.2895 H   0  0  0  0  0
    2.4070    6.1008   -0.2724 H   0  0  0  0  0
    4.0308    5.3726   -0.2084 H   0  0  0  0  0
    2.1336    8.5143    0.1402 H   0  0  0  0  0
    2.9713    8.3421    1.7021 H   0  0  0  0  0
    3.5591    9.5185    0.5015 H   0  0  0  0  0
    4.7873    7.0455   -1.8813 H   0  0  0  0  0
    3.1650    7.7795   -1.8958 H   0  0  0  0  0
    4.5926    8.7818   -1.5374 H   0  0  0  0  0
   10.9073   10.0702    2.1053 H   0  0  0  0  0
   10.7916   11.4168    3.3220 H   0  0  0  0  0
   10.6117    9.7883    5.0447 H   0  0  0  0  0
  1  2  4  0  0  0
 15  1  4  0  0  0
  2  3  4  0  0  0
  2 18  1  0  0  0
 11  3  4  0  0  0
 17  4  4  0  0  0
  4 19  1  0  0  0
  4 28  4  0  0  0
 13  5  1  0  0  0
  5 26  4  0  0  0
  5 29  4  0  0  0
  6  7  4  0  0  0
  6 12  4  0  0  0
 32  6  1  0  0  0
  7  8  4  0  0  0
  8 16  4  0  0  0
  9 10  1  0  0  0
  9 20  1  0  0  0
 24  9  1  0  0  0
 14 11  4  0  0  0
 12 13  4  0  0  0
 13 16  4  0  0  0
 15 14  4  0  0  0
 14 28  4  0  0  0
 29 15  4  0  0  0
 16 33  1  0  0  0
 17 27  4  0  0  0
 29 17  4  0  0  0
 18 30  1  0  0  0
 18 31  2  0  0  0
 25 21  1  0  0  0
 25 22  1  0  0  0
 25 23  1  0  0  0
 30 24  1  0  0  0
 25 32  1  0  0  0
 26 27  4  0  0  0
  1 34  1  0  0  0
  3 35  1  0  0  0
  7 36  1  0  0  0
  8 37  1  0  0  0
  9 38  1  0  0  0
 10 39  1  0  0  0
 10 40  1  0  0  0
 10 41  1  0  0  0
 11 42  1  0  0  0
 12 43  1  0  0  0
 19 44  1  0  0  0
 19 45  1  0  0  0
 19 46  1  0  0  0
 20 47  1  0  0  0
 20 48  1  0  0  0
 20 49  1  0  0  0
 21 50  1  0  0  0
 21 51  1  0  0  0
 21 52  1  0  0  0
 22 53  1  0  0  0
 22 54  1  0  0  0
 22 55  1  0  0  0
 23 56  1  0  0  0
 23 57  1  0  0  0
 23 58  1  0  0  0
 24 59  1  0  0  0
 24 60  1  0  0  0
 30 61  1  0  0  0
M  END
$$$$
