3g5k_ligand
  -I-interpret- 

 62 62  0  0  0  0  0  0  0  0999 V2000
   33.3760   12.8130   12.0480 C   0  0  0  0  0
   31.9010   12.9620   12.0570 C   0  0  0  0  0
   31.0180   12.2060   12.5790 O   0  0  0  0  0
   31.2830   13.8200   11.3500 N   0  0  0  0  0
   29.8530   13.7860   11.4270 O   0  0  0  0  0
   33.7960   11.8750   10.8610 C   0  0  0  0  0
   35.1290   11.4290   11.0940 C   0  0  0  0  0
   36.0550   12.1480   10.8560 O   0  0  0  0  0
   33.7260   12.4420    9.4330 C   0  0  0  0  0
   34.1960   11.4750    8.2700 C   0  0  0  0  0
   33.3820   10.1690    8.2320 C   0  0  0  0  0
   33.7410    9.3870    6.9400 C   0  0  0  0  0
   35.2730    8.9950    6.8200 C   0  0  0  0  0
   35.4310   10.0850   11.3730 N   0  0  0  0  0
   36.8270    9.5770   11.4930 C   0  0  0  0  0
   37.0490    9.1710   12.9770 C   0  0  0  0  0
   36.1330    8.0580   13.3450 C   0  0  0  0  0
   37.1240   10.4620   13.7410 C   0  0  0  0  0
   36.9100    8.3580   10.5090 C   0  0  0  0  0
   35.8670    7.7390   10.1260 O   0  0  0  0  0
   38.1140    7.8940   10.1780 N   0  0  0  0  0
   38.3630    6.7580    9.2960 C   0  0  0  0  0
   39.3660    8.6750   10.5210 C   0  0  0  0  0
   40.5010    8.0330    9.7660 C   0  0  0  0  0
   39.8470    7.0250    8.8090 C   0  0  0  0  0
   38.3570    5.4860   10.1450 C   0  0  0  0  0
   38.3070    4.4310    9.1070 O   0  0  0  0  0
   33.7043   12.3767   12.9914 H   0  0  0  0  0
   33.8406   13.7909   11.9220 H   0  0  0  0  0
   31.7765   14.4925   10.7629 H   0  0  0  0  0
   29.4868   14.4688   10.8602 H   0  0  0  0  0
   33.0439   11.0861   10.8718 H   0  0  0  0  0
   34.4046   13.2948    9.4115 H   0  0  0  0  0
   32.6744   12.6566    9.2429 H   0  0  0  0  0
   35.2406   11.2176    8.4453 H   0  0  0  0  0
   34.0513   11.9916    7.3212 H   0  0  0  0  0
   32.3167   10.3996    8.2380 H   0  0  0  0  0
   33.6188    9.5627    9.1063 H   0  0  0  0  0
   33.5089   10.0370    6.0963 H   0  0  0  0  0
   33.1723    8.4573    6.9589 H   0  0  0  0  0
   35.8799    9.9004    6.8249 H   0  0  0  0  0
   35.5525    8.3642    7.6638 H   0  0  0  0  0
   35.4359    8.4519    5.8891 H   0  0  0  0  0
   34.6608    9.4283   11.4989 H   0  0  0  0  0
   37.5983   10.3030   11.2360 H   0  0  0  0  0
   37.9854    8.6787   13.2395 H   0  0  0  0  0
   35.1002    8.3802   13.2123 H   0  0  0  0  0
   36.3320    7.1986   12.7047 H   0  0  0  0  0
   36.2980    7.7826   14.3866 H   0  0  0  0  0
   37.9542   11.0587   13.3630 H   0  0  0  0  0
   36.1918   11.0125   13.6141 H   0  0  0  0  0
   37.2802   10.2484   14.7984 H   0  0  0  0  0
   37.6400    6.6488    8.4876 H   0  0  0  0  0
   39.5539    8.6536   11.5945 H   0  0  0  0  0
   39.2579    9.7227   10.2405 H   0  0  0  0  0
   41.2008    7.5422   10.4424 H   0  0  0  0  0
   41.0864    8.7746    9.2225 H   0  0  0  0  0
   39.8392    7.4258    7.7954 H   0  0  0  0  0
   40.4116    6.0926    8.8085 H   0  0  0  0  0
   37.5282    5.4395   10.8514 H   0  0  0  0  0
   39.2183    5.4024   10.8077 H   0  0  0  0  0
   38.2990    3.5687    9.5289 H   0  0  0  0  0
  1  2  1  0  0  0
  1  6  1  0  0  0
  2  3  2  0  0  0
  2  4  1  0  0  0
  4  5  1  0  0  0
  6  7  1  0  0  0
  6  9  1  0  0  0
  7  8  2  0  0  0
  7 14  1  0  0  0
  9 10  1  0  0  0
 10 11  1  0  0  0
 11 12  1  0  0  0
 12 13  1  0  0  0
 14 15  1  0  0  0
 15 16  1  0  0  0
 15 19  1  0  0  0
 16 17  1  0  0  0
 16 18  1  0  0  0
 19 20  2  0  0  0
 19 21  1  0  0  0
 21 22  1  0  0  0
 21 23  1  0  0  0
 22 25  1  0  0  0
 22 26  1  0  0  0
 23 24  1  0  0  0
 24 25  1  0  0  0
 26 27  1  0  0  0
  1 28  1  0  0  0
  1 29  1  0  0  0
  4 30  1  0  0  0
  5 31  1  0  0  0
  6 32  1  0  0  0
  9 33  1  0  0  0
  9 34  1  0  0  0
 10 35  1  0  0  0
 10 36  1  0  0  0
 11 37  1  0  0  0
 11 38  1  0  0  0
 12 39  1  0  0  0
 12 40  1  0  0  0
 13 41  1  0  0  0
 13 42  1  0  0  0
 13 43  1  0  0  0
 14 44  1  0  0  0
 15 45  1  0  0  0
 16 46  1  0  0  0
 17 47  1  0  0  0
 17 48  1  0  0  0
 17 49  1  0  0  0
 18 50  1  0  0  0
 18 51  1  0  0  0
 18 52  1  0  0  0
 22 53  1  0  0  0
 23 54  1  0  0  0
 23 55  1  0  0  0
 24 56  1  0  0  0
 24 57  1  0  0  0
 25 58  1  0  0  0
 25 59  1  0  0  0
 26 60  1  0  0  0
 26 61  1  0  0  0
 27 62  1  0  0  0
M  END
$$$$
