### 
### Created by X-TOOL on Mon Sep 10 21:12:56 2018
### 

@<TRIPOS>MOLECULE
2uzn_ligand
   37    39     1     0     0
SMALL
GAST_HUCK


@<TRIPOS>ATOM
      1 O4          7.1480   60.4530    6.6830 O.2       1 C96        -0.1508
      2 S2          6.0470   60.1670    7.5640 S.o2      1 C96         0.0648
      3 O3          5.3600   58.9900    7.1040 O.2       1 C96        -0.1508
      4 N6          6.5970   59.9180    9.0460 N.am      1 C96        -0.2612
      5 C16         4.9310   61.5280    7.5700 C.ar      1 C96         0.1056
      6 C15         3.8930   61.5590    8.4930 C.ar      1 C96        -0.0370
      7 C14         2.9940   62.6130    8.4840 C.ar      1 C96        -0.0522
      8 C13         3.1320   63.6430    7.5600 C.ar      1 C96         0.0116
      9 C18         4.1640   63.6120    6.6280 C.ar      1 C96        -0.0522
     10 C17         5.0630   62.5480    6.6310 C.ar      1 C96        -0.0370
     11 C4          2.1380   64.7620    7.5700 C.2       1 C96         0.1240
     12 O2          1.0230   64.8010    8.3590 O.3       1 C96        -0.2541
     13 C3          2.1460   65.9030    6.7740 C.2       1 C96        -0.0467
     14 C2          1.0280   66.6570    7.1180 C.2       1 C96        -0.0471
     15 C1          0.3480   65.9650    8.1190 C.2       1 C96         0.1236
     16 C6         -0.9170   66.3640    8.7800 C.2       1 C96         0.0158
     17 C7         -1.3890   65.6360    9.8090 C.2       1 C96         0.1144
     18 S1         -0.5580   64.3950   10.5270 S.3       1 C96         0.0215
     19 C9         -1.7530   64.1700   11.6560 C.2       1 C96         0.1879
     20 N3         -1.7060   63.2880   12.5690 N.2       1 C96        -0.3861
     21 N2         -2.7660   65.0290   11.4980 N.am      1 C96        -0.1935
     22 C8         -2.5900   65.8730   10.4730 C.2       1 C96         0.2385
     23 C20        -1.5870   67.6560    8.3970 C.3       1 C96        -0.0282
     24 O1         -3.4000   66.7390   10.1550 O.2       1 C96        -0.3831
     25 H1          7.1024   60.6393    9.5195 H         1 C96         0.1634
     26 H2          6.4353   59.0411    9.4986 H         1 C96         0.1634
     27 H3          3.7868   60.7605    9.2184 H         1 C96         0.0630
     28 H4          2.1802   62.6349    9.1997 H         1 C96         0.0606
     29 H5          4.2681   64.4114    5.9033 H         1 C96         0.0606
     30 H6          5.8651   62.5139    5.9027 H         1 C96         0.0630
     31 H7          2.8898   66.1589    6.0208 H         1 C96         0.0418
     32 H8          0.7375   67.6128    6.6845 H         1 C96         0.0425
     33 H9         -2.4657   63.2016   13.2259 H         1 C96         0.0536
     34 H10        -3.5744   65.0400   12.0866 H         1 C96         0.2431
     35 H11        -1.0609   68.1018    7.5400 H         1 C96         0.0391
     36 H12        -1.5559   68.3517    9.2485 H         1 C96         0.0391
     37 H13        -2.6338   67.4589    8.1225 H         1 C96         0.0391
@<TRIPOS>BOND
     1    1    2 2  
     2    2    3 2  
     3    2    4 am 
     4    2    5 1  
     5    5    6 ar 
     6    5   10 ar 
     7    6    7 ar 
     8    7    8 ar 
     9    8    9 ar 
    10    8   11 1  
    11    9   10 ar 
    12   11   12 1  
    13   11   13 2  
    14   12   15 1  
    15   13   14 1  
    16   14   15 2  
    17   15   16 1  
    18   16   17 2  
    19   16   23 1  
    20   17   18 1  
    21   17   22 1  
    22   18   19 1  
    23   19   20 2  
    24   19   21 1  
    25   21   22 am 
    26   22   24 2  
    27    4   25 1  
    28    4   26 1  
    29    6   27 1  
    30    7   28 1  
    31    9   29 1  
    32   10   30 1  
    33   13   31 1  
    34   14   32 1  
    35   20   33 1  
    36   21   34 1  
    37   23   35 1  
    38   23   36 1  
    39   23   37 1  
@<TRIPOS>SUBSTRUCTURE
     1 C96         1

