2uzn_ligand
  -I-interpret- 

 37 39  0  0  0  0  0  0  0  0999 V2000
    7.1480   60.4530    6.6830 O   0  0  0  0  0
    6.0470   60.1670    7.5640 S   0  0  0  0  0
    5.3600   58.9900    7.1040 O   0  0  0  0  0
    6.5970   59.9180    9.0460 N   0  0  0  0  0
    4.9310   61.5280    7.5700 C   0  0  0  0  0
    3.8930   61.5590    8.4930 C   0  0  0  0  0
    2.9940   62.6130    8.4840 C   0  0  0  0  0
    3.1320   63.6430    7.5600 C   0  0  0  0  0
    4.1640   63.6120    6.6280 C   0  0  0  0  0
    5.0630   62.5480    6.6310 C   0  0  0  0  0
    2.1380   64.7620    7.5700 C   0  0  0  0  0
    1.0230   64.8010    8.3590 O   0  0  0  0  0
    2.1460   65.9030    6.7740 C   0  0  0  0  0
    1.0280   66.6570    7.1180 C   0  0  0  0  0
    0.3480   65.9650    8.1190 C   0  0  0  0  0
   -0.9170   66.3640    8.7800 C   0  0  0  0  0
   -1.3890   65.6360    9.8090 C   0  0  0  0  0
   -0.5580   64.3950   10.5270 S   0  0  0  0  0
   -1.7530   64.1700   11.6560 C   0  0  0  0  0
   -1.7060   63.2880   12.5690 N   0  0  0  0  0
   -2.7660   65.0290   11.4980 N   0  0  0  0  0
   -2.5900   65.8730   10.4730 C   0  0  0  0  0
   -1.5870   67.6560    8.3970 C   0  0  0  0  0
   -3.4000   66.7390   10.1550 O   0  0  0  0  0
    7.5976   59.9761    9.2351 H   0  0  0  0  0
    5.9469   59.7012    9.8015 H   0  0  0  0  0
    3.7863   60.7560    9.2224 H   0  0  0  0  0
    2.1757   62.6350    9.2037 H   0  0  0  0  0
    4.2687   64.4158    5.8993 H   0  0  0  0  0
    5.8696   62.5137    5.8986 H   0  0  0  0  0
    2.8904   66.1591    6.0201 H   0  0  0  0  0
    0.7372   67.6137    6.6841 H   0  0  0  0  0
   -0.8995   62.6672   12.6374 H   0  0  0  0  0
   -3.5905   65.0402   12.0984 H   0  0  0  0  0
   -2.6241   67.4594    8.1253 H   0  0  0  0  0
   -1.5556   68.3444    9.2415 H   0  0  0  0  0
   -1.0649   68.0967    7.5478 H   0  0  0  0  0
  1  2  2  0  0  0
  2  3  2  0  0  0
  2  4  1  0  0  0
  2  5  1  0  0  0
  5  6  4  0  0  0
  5 10  4  0  0  0
  6  7  4  0  0  0
  7  8  4  0  0  0
  8  9  4  0  0  0
  8 11  1  0  0  0
  9 10  4  0  0  0
 11 12  4  0  0  0
 11 13  4  0  0  0
 12 15  4  0  0  0
 13 14  4  0  0  0
 14 15  4  0  0  0
 15 16  1  0  0  0
 16 17  2  0  0  0
 16 23  1  0  0  0
 17 18  1  0  0  0
 17 22  1  0  0  0
 18 19  1  0  0  0
 19 20  2  0  0  0
 19 21  1  0  0  0
 21 22  1  0  0  0
 22 24  2  0  0  0
  4 25  1  0  0  0
  4 26  1  0  0  0
  6 27  1  0  0  0
  7 28  1  0  0  0
  9 29  1  0  0  0
 10 30  1  0  0  0
 13 31  1  0  0  0
 14 32  1  0  0  0
 20 33  1  0  0  0
 21 34  1  0  0  0
 23 35  1  0  0  0
 23 36  1  0  0  0
 23 37  1  0  0  0
M  END
$$$$
