3bxe_ligand
  -I-interpret- 

 17 16  0  0  0  0  0  0  0  0999 V2000
  -43.0440    4.4020    4.7760 P   0  0  0  0  0
  -44.4530    4.5630    5.3160 O   0  0  0  0  0
  -41.9090    4.6880    5.7580 O   0  0  0  0  0
  -42.8640    5.0660    3.4200 O   0  0  0  0  0
  -42.8990    2.8190    4.4800 O   0  0  0  0  0
  -43.0600    1.8880    5.5780 C   0  0  0  0  0
  -42.3320    0.5840    5.3600 C   0  0  0  0  0
  -41.5340    0.4550    4.4390 O   0  0  0  0  0
  -42.6000   -0.5740    6.2970 C   0  0  0  0  0
  -42.0420   -1.7950    5.7660 O   0  0  0  0  0
  -41.0660    4.5573    5.3178 H   0  0  0  0  0
  -41.9611    4.9384    3.1198 H   0  0  0  0  0
  -44.1227    1.6630    5.6684 H   0  0  0  0  0
  -42.6442    2.3542    6.4713 H   0  0  0  0  0
  -43.6773   -0.6967    6.4087 H   0  0  0  0  0
  -42.1370   -0.3634    7.2611 H   0  0  0  0  0
  -42.2211   -2.5175    6.3722 H   0  0  0  0  0
  1  2  2  0  0  0
  1  3  1  0  0  0
  1  4  1  0  0  0
  1  5  1  0  0  0
  5  6  1  0  0  0
  6  7  1  0  0  0
  7  8  2  0  0  0
  7  9  1  0  0  0
  9 10  1  0  0  0
  3 11  1  0  0  0
  4 12  1  0  0  0
  6 13  1  0  0  0
  6 14  1  0  0  0
  9 15  1  0  0  0
  9 16  1  0  0  0
 10 17  1  0  0  0
M  END
$$$$
