5fxs_ligand
  -I-interpret- 

 67 71  0  0  0  0  0  0  0  0999 V2000
   16.2790   -4.3860   52.8210 C   0  0  0  0  0
   14.2750   -1.2270   55.3720 C   0  0  0  0  0
   14.9330   -4.1590   53.1770 C   0  0  0  0  0
   10.2670   -2.5660   53.4770 C   0  0  0  0  0
   14.9850   -2.2050   54.7280 C   0  0  0  0  0
   14.3010   -3.0900   53.9240 C   0  0  0  0  0
   14.2550   -5.1930   52.5800 C   0  0  0  0  0
   10.5180   -2.8650   52.0990 C   0  0  0  0  0
    9.1080   -3.1690   53.7670 C   0  0  0  0  0
   12.3950   -1.9870   54.4310 C   0  0  0  0  0
   12.9140   -5.5880   52.5150 C   0  0  0  0  0
   12.5490   -6.7070   51.8160 C   0  0  0  0  0
   13.4880   -7.4660   51.1600 C   0  0  0  0  0
   14.8110   -7.0950   51.2170 C   0  0  0  0  0
    3.3750   -5.5590   49.5330 C   0  0  0  0  0
    6.3210   -3.6400   51.9660 C   0  0  0  0  0
    7.4440   -5.7250   51.6850 C   0  0  0  0  0
    4.9990   -4.3190   52.1230 C   0  0  0  0  0
    6.1480   -6.4610   51.7960 C   0  0  0  0  0
    7.3900   -4.5040   52.5060 C   0  0  0  0  0
   11.6380   -2.4630   51.1940 C   0  0  0  0  0
    8.2760   -3.0540   55.0100 C   0  0  0  0  0
    3.1720   -7.1820   51.3030 C   0  0  0  0  0
    1.2210   -6.5760   49.8900 C   0  0  0  0  0
    4.8300   -5.4630   49.9680 C   0  0  0  0  0
   12.9640   -1.0880   55.2370 N   0  0  0  0  0
   16.4430   -5.4590   52.0790 N   0  0  0  0  0
   12.9920   -2.9820   53.7700 N   0  0  0  0  0
    9.5310   -3.6210   51.6130 N   0  0  0  0  0
   15.1920   -5.9890   51.9130 N   0  0  0  0  0
    8.6710   -3.8120   52.6780 N   0  0  0  0  0
    4.9480   -5.6360   51.4160 N   0  3  0  0  0
   11.0460   -1.8290   54.2840 N   0  0  0  0  0
    2.6100   -6.4180   50.2270 N   0  0  0  0  0
    2.9070   -4.9010   48.6190 O   0  0  0  0  0
   16.6830   -2.2670   54.9590 Cl  0  0  0  0  0
   17.0994   -3.7380   53.1296 H   0  0  0  0  0
   14.8099   -0.5347   56.0221 H   0  0  0  0  0
   12.1526   -4.9988   53.0260 H   0  0  0  0  0
   11.4997   -6.9998   51.7793 H   0  0  0  0  0
   13.1876   -8.3521   50.6008 H   0  0  0  0  0
   15.5618   -7.6924   50.6998 H   0  0  0  0  0
    6.3096   -2.6956   52.5101 H   0  0  0  0  0
    6.5076   -3.4514   50.9088 H   0  0  0  0  0
    7.6188   -5.4541   50.6438 H   0  0  0  0  0
    8.2544   -6.3631   52.0375 H   0  0  0  0  0
    4.2345   -3.6737   51.6902 H   0  0  0  0  0
    4.8364   -4.4997   53.1855 H   0  0  0  0  0
    6.0265   -6.7507   52.8397 H   0  0  0  0  0
    6.1934   -7.3056   51.1084 H   0  0  0  0  0
    7.1530   -4.7933   53.5298 H   0  0  0  0  0
   11.6707   -1.3761   51.1192 H   0  0  0  0  0
   12.5809   -2.8290   51.6002 H   0  0  0  0  0
   11.4761   -2.8918   50.2051 H   0  0  0  0  0
    8.8622   -3.3795   55.8694 H   0  0  0  0  0
    7.9723   -2.0163   55.1477 H   0  0  0  0  0
    7.3911   -3.6830   54.9129 H   0  0  0  0  0
    3.9818   -7.8037   50.9212 H   0  0  0  0  0
    3.5599   -6.5048   52.0639 H   0  0  0  0  0
    2.3999   -7.8161   51.7387 H   0  0  0  0  0
    0.7107   -5.6191   49.9996 H   0  0  0  0  0
    1.1353   -6.9189   48.8589 H   0  0  0  0  0
    0.7678   -7.3094   50.5569 H   0  0  0  0  0
    5.2150   -4.4798   49.6976 H   0  0  0  0  0
    5.3994   -6.2486   49.4712 H   0  0  0  0  0
    4.1108   -6.1385   51.7109 H   0  0  0  0  0
   10.5961   -1.0941   54.8298 H   0  0  0  0  0
  3  1  4  0  0  0
  1 27  4  0  0  0
  2  5  4  0  0  0
 26  2  4  0  0  0
  6  3  1  0  0  0
  3  7  4  0  0  0
  4  8  4  0  0  0
  9  4  4  0  0  0
  4 33  1  0  0  0
  6  5  4  0  0  0
  5 36  1  0  0  0
 28  6  4  0  0  0
  7 11  4  0  0  0
  7 30  4  0  0  0
  8 21  1  0  0  0
  8 29  4  0  0  0
  9 22  1  0  0  0
 31  9  4  0  0  0
 10 26  4  0  0  0
 10 28  4  0  0  0
 33 10  1  0  0  0
 11 12  4  0  0  0
 12 13  4  0  0  0
 14 13  4  0  0  0
 30 14  4  0  0  0
 25 15  1  0  0  0
 15 34  1  0  0  0
 15 35  2  0  0  0
 18 16  1  0  0  0
 16 20  1  0  0  0
 19 17  1  0  0  0
 17 20  1  0  0  0
 32 18  1  0  0  0
 32 19  1  0  0  0
 20 31  1  0  0  0
 34 23  1  0  0  0
 34 24  1  0  0  0
 25 32  1  0  0  0
 27 30  4  0  0  0
 29 31  4  0  0  0
  1 37  1  0  0  0
  2 38  1  0  0  0
 11 39  1  0  0  0
 12 40  1  0  0  0
 13 41  1  0  0  0
 14 42  1  0  0  0
 16 43  1  0  0  0
 16 44  1  0  0  0
 17 45  1  0  0  0
 17 46  1  0  0  0
 18 47  1  0  0  0
 18 48  1  0  0  0
 19 49  1  0  0  0
 19 50  1  0  0  0
 20 51  1  0  0  0
 21 52  1  0  0  0
 21 53  1  0  0  0
 21 54  1  0  0  0
 22 55  1  0  0  0
 22 56  1  0  0  0
 22 57  1  0  0  0
 23 58  1  0  0  0
 23 59  1  0  0  0
 23 60  1  0  0  0
 24 61  1  0  0  0
 24 62  1  0  0  0
 24 63  1  0  0  0
 25 64  1  0  0  0
 25 65  1  0  0  0
 32 66  1  0  0  0
 33 67  1  0  0  0
M  END
$$$$
