4uyd_ligand
  -I-interpret- 

 26 27  0  0  0  0  0  0  0  0999 V2000
   22.8660   50.8540   -1.9700 C   0  0  0  0  0
   23.7930   50.2860   -0.9990 N   0  0  0  0  0
   25.1080   50.6870   -0.7900 C   0  0  0  0  0
   25.8740   51.6750   -1.3870 C   0  0  0  0  0
   27.1790   51.8510   -0.9560 C   0  0  0  0  0
   27.7280   51.0480    0.0490 C   0  0  0  0  0
   26.9460   50.0560    0.6540 C   0  0  0  0  0
   25.6390   49.8860    0.2120 C   0  0  0  0  0
   24.6240   49.0000    0.5950 N   0  0  0  0  0
   24.7280   47.9630    1.6210 C   0  0  0  0  0
   23.4910   49.2380   -0.1570 C   0  0  0  0  0
   22.4210   48.6550   -0.0740 O   0  0  0  0  0
   29.1450   51.2630    0.5130 C   0  0  0  0  0
   29.9240   52.0770   -0.1960 N   0  0  0  0  0
   29.5400   50.7120    1.5480 O   0  0  0  0  0
   22.5655   50.0819   -2.6783 H   0  0  0  0  0
   21.9864   51.2349   -1.4510 H   0  0  0  0  0
   23.3553   51.6684   -2.5042 H   0  0  0  0  0
   25.4594   52.2999   -2.1780 H   0  0  0  0  0
   27.7903   52.6312   -1.4094 H   0  0  0  0  0
   27.3519   49.4331    1.4511 H   0  0  0  0  0
   25.5165   47.2616    1.3482 H   0  0  0  0  0
   24.9660   48.4245    2.5794 H   0  0  0  0  0
   23.7787   47.4328    1.6974 H   0  0  0  0  0
   30.8792   52.2631    0.1096 H   0  0  0  0  0
   29.5657   52.5146   -1.0448 H   0  0  0  0  0
  1  2  1  0  0  0
  2  3  1  0  0  0
  2 11  1  0  0  0
  3  4  4  0  0  0
  3  8  4  0  0  0
  4  5  4  0  0  0
  5  6  4  0  0  0
  6  7  4  0  0  0
  6 13  1  0  0  0
  7  8  4  0  0  0
  8  9  1  0  0  0
  9 10  1  0  0  0
  9 11  1  0  0  0
 11 12  2  0  0  0
 13 14  1  0  0  0
 13 15  2  0  0  0
  1 16  1  0  0  0
  1 17  1  0  0  0
  1 18  1  0  0  0
  4 19  1  0  0  0
  5 20  1  0  0  0
  7 21  1  0  0  0
 10 22  1  0  0  0
 10 23  1  0  0  0
 10 24  1  0  0  0
 14 25  1  0  0  0
 14 26  1  0  0  0
M  END
$$$$
