4o37_ligand
  -I-interpret- 

242245  0  0  0  0  0  0  0  0999 V2000
  -13.9150    9.3620   19.4840 N   0  3  0  0  0
  -13.1050    8.5210   18.5720 C   0  0  0  0  0
  -13.5240    7.0140   18.6770 C   0  0  0  0  0
  -13.6960    6.4600   19.7780 O   0  0  0  0  0
  -11.6240    8.6550   18.9130 C   0  0  0  0  0
  -10.7490    8.9210   17.7040 C   0  0  0  0  0
   -9.2770    8.6330   18.0320 C   0  0  0  0  0
   -8.5450    9.8310   18.6630 C   0  0  0  0  0
   -7.0960    9.5660   18.9550 N   0  3  0  0  0
  -13.7580    6.4060   17.5300 N   0  0  0  0  0
  -13.9920    4.9610   17.4850 C   0  0  0  0  0
  -12.6360    4.2830   17.6730 C   0  0  0  0  0
  -11.6820    4.6900   17.0460 O   0  0  0  0  0
  -14.5510    4.6430   16.1160 C   0  0  0  0  0
  -14.8540    3.1700   15.9570 C   0  0  0  0  0
  -15.4260    2.8180   14.5570 C   0  0  0  0  0
  -14.9370    3.3030   13.5510 O   0  0  0  0  0
  -16.4040    2.0340   14.4910 O   0  0  0  0  0
  -12.5700    3.2540   18.5150 N   0  0  0  0  0
  -11.2760    2.5720   18.6650 C   0  0  0  0  0
  -11.0080    1.6700   17.4470 C   0  0  0  0  0
  -11.9190    1.3320   16.6820 O   0  0  0  0  0
  -11.2910    1.6440   19.8900 C   0  0  0  0  0
  -12.2830    0.6250   19.6930 O   0  0  0  0  0
  -11.5930    2.4580   21.1630 C   0  0  0  0  0
   -9.7810    1.2020   17.3080 N   0  0  0  0  0
   -9.4210    0.2420   16.1890 C   0  0  0  0  0
  -10.1770   -1.0690   16.3920 C   0  0  0  0  0
  -10.7150   -1.6170   15.4110 O   0  0  0  0  0
   -7.9200   -0.0160   16.1220 C   0  0  0  0  0
  -10.3940   -1.5010   17.6220 N   0  0  0  0  0
  -11.1180   -2.7540   17.8140 C   0  0  0  0  0
  -12.5550   -2.6090   17.4030 C   0  0  0  0  0
  -13.2120   -3.5020   16.8620 O   0  0  0  0  0
  -11.0570   -3.2030   19.2800 C   0  0  0  0  0
  -13.1550   -1.4450   17.7370 N   0  0  0  0  0
  -14.5470   -1.2280   17.3340 C   0  0  0  0  0
  -14.7190   -1.0590   15.8210 C   0  0  0  0  0
  -15.6770   -1.5830   15.2610 O   0  0  0  0  0
  -15.0660    0.0740   18.0470 C   0  0  0  0  0
  -13.7410   -0.3890   15.2300 N   0  0  0  0  0
  -13.7600   -0.2910   13.7670 C   0  0  0  0  0
  -13.8490   -1.6660   13.0790 C   0  0  0  0  0
  -14.5540   -1.9760   12.1450 O   0  0  0  0  0
  -12.6140    0.5630   13.3340 C   0  0  0  0  0
  -12.3980    0.7970   11.8670 C   0  0  0  0  0
  -11.9100   -0.2330   11.0250 C   0  0  0  0  0
  -11.7290   -0.0290    9.7200 N   0  0  0  0  0
  -11.9650    1.2190    9.1240 C   0  0  0  0  0
  -12.4350    2.2270    9.9510 C   0  0  0  0  0
  -12.6800    2.0460   11.3030 C   0  0  0  0  0
  -12.8580   -2.5440   13.6210 N   0  0  0  0  0
  -12.8270   -3.9180   13.0100 C   0  0  0  0  0
  -14.1750   -4.5900   13.1710 C   0  0  0  0  0
  -14.6310   -5.2660   12.2750 O   0  0  0  0  0
  -11.7520   -4.7120   13.8110 C   0  0  0  0  0
  -11.7320   -6.2060   13.4360 C   0  0  0  0  0
  -12.5910   -7.0660   14.0740 C   0  0  0  0  0
  -10.8830   -6.6590   12.3950 C   0  0  0  0  0
  -12.6490   -8.4270   13.7000 C   0  0  0  0  0
  -10.9420   -8.0130   12.0490 C   0  0  0  0  0
  -11.8030   -8.8720   12.6760 C   0  0  0  0  0
  -14.8120   -4.4600   14.3290 N   0  0  0  0  0
  -16.0900   -5.1320   14.5440 C   0  0  0  0  0
  -17.1930   -4.6300   13.6120 C   0  0  0  0  0
  -17.9670   -5.3620   12.9600 O   0  0  0  0  0
  -16.5790   -5.0210   16.0150 C   0  0  0  0  0
  -15.6400   -5.7870   16.9400 C   0  0  0  0  0
  -15.7670   -5.3360   18.3710 C   0  0  0  0  0
  -16.2090   -4.1940   18.6780 O   0  0  0  0  0
  -15.2010   -6.0660   19.2190 O   0  0  0  0  0
  -17.2540   -3.2930   13.5240 N   0  0  0  0  0
  -18.2890   -2.7320   12.6620 C   0  0  0  0  0
  -18.0890   -3.1360   11.1550 C   0  0  0  0  0
  -19.0450   -3.3570   10.4700 O   0  0  0  0  0
  -18.2120   -1.1810   12.8560 C   0  0  0  0  0
  -19.1740   -0.4400   11.9540 C   0  0  0  0  0
  -19.1520    1.0840   12.2360 C   0  0  0  0  0
  -17.8570    1.7340   12.1410 N   0  0  0  0  0
  -17.3990    2.3650   11.0760 C   0  0  0  0  0
  -18.1620    2.3670    9.9670 N   0  0  0  0  0
  -16.2460    3.0290   11.0810 N   0  0  0  0  0
  -16.7870   -3.0670   10.7900 N   0  0  0  0  0
  -16.4750   -3.5170    9.3770 C   0  0  0  0  0
  -16.6000   -4.9940    9.0930 C   0  0  0  0  0
  -16.9390   -5.4140    7.9730 O   0  0  0  0  0
  -15.0180   -3.1420    9.0230 C   0  0  0  0  0
  -14.9520   -1.7130    8.5570 C   0  0  0  0  0
  -14.3110   -1.5510    7.3640 C   0  0  0  0  0
  -14.2070   -0.3070    6.7970 N   0  0  0  0  0
  -14.6190    0.8110    7.4530 C   0  0  0  0  0
  -15.2220    0.6490    8.7190 C   0  0  0  0  0
  -15.4260   -0.6420    9.3200 C   0  0  0  0  0
  -16.2980   -5.8480   10.1390 N   0  0  0  0  0
  -16.0740   -7.2920    9.7700 C   0  0  0  0  0
  -16.8810   -8.2690   10.5220 C   0  0  0  0  0
  -16.7440   -9.4600   10.1170 O   0  0  0  0  0
  -14.5810   -7.6080    9.8930 C   0  0  0  0  0
  -13.7080   -6.7440    9.0790 C   0  0  0  0  0
  -13.7260   -6.7640    7.7030 N   0  0  0  0  0
  -12.7970   -5.7950    9.4310 C   0  0  0  0  0
  -12.8720   -5.8610    7.2380 C   0  0  0  0  0
  -12.2620   -5.2860    8.2730 N   0  0  0  0  0
  -17.6420   -7.9470   11.5630 N   0  0  0  0  0
  -18.3630   -8.9680   12.2470 C   0  0  0  0  0
  -19.7800   -9.0250   11.8670 C   0  0  0  0  0
  -20.4830   -7.9500   11.8910 O   0  0  0  0  0
  -18.3240   -8.7020   13.7930 C   0  0  0  0  0
  -16.9990   -8.9510   14.4770 C   0  0  0  0  0
  -16.5790  -10.4110   14.3250 C   0  0  0  0  0
  -17.6660  -11.3980   14.6880 C   0  0  0  0  0
  -20.3540  -10.1690   11.5480 N   0  0  0  0  0
  -21.7890  -10.3280   11.3730 C   0  0  0  0  0
  -22.1850  -11.6930   11.8760 C   0  0  0  0  0
  -22.4810  -12.5720   11.0620 O   0  0  0  0  0
  -22.2130  -10.1200    9.8940 C   0  0  0  0  0
  -23.7300  -10.2120    9.6740 C   0  0  0  0  0
  -24.4410  -10.0140   10.6250 O   0  0  0  0  0
  -24.0600  -10.5210    8.5250 O   0  0  0  0  0
  -22.2150  -11.8700   13.1800 N   0  0  0  0  0
  -22.4040  -13.1560   13.7890 C   0  0  0  0  0
  -23.7010  -13.7410   13.4270 C   0  0  0  0  0
  -24.7450  -13.0460   13.4240 O   0  0  0  0  0
  -22.2610  -12.9940   15.3270 C   0  0  0  0  0
  -21.0280  -12.3990   15.7120 O   0  0  0  0  0
  -23.6340  -15.0050   13.1190 O   0  0  0  0  0
  -14.9023    9.2648   19.2472 H   0  0  0  0  0
  -13.7638    9.0606   20.4467 H   0  0  0  0  0
  -13.6346   10.3376   19.3838 H   0  0  0  0  0
  -13.2813    8.8650   17.5528 H   0  0  0  0  0
  -11.3010    7.7104   19.3507 H   0  0  0  0  0
  -11.5180    9.5041   19.5883 H   0  0  0  0  0
  -10.8497    9.9678   17.4173 H   0  0  0  0  0
  -11.0641    8.2699   16.8886 H   0  0  0  0  0
   -8.7722    8.3960   17.0955 H   0  0  0  0  0
   -9.2551    7.8172   18.7546 H   0  0  0  0  0
   -9.0345   10.0495   19.6121 H   0  0  0  0  0
   -8.5889   10.6533   17.9488 H   0  0  0  0  0
   -6.6762   10.3981   19.3695 H   0  0  0  0  0
   -7.0190    8.7846   19.6060 H   0  0  0  0  0
   -6.6120    9.3360   18.0871 H   0  0  0  0  0
  -13.7761    6.9476   16.6659 H   0  0  0  0  0
  -14.6856    4.6206   18.2538 H   0  0  0  0  0
  -13.8059    4.9205   15.3704 H   0  0  0  0  0
  -15.4805    5.1981   15.9897 H   0  0  0  0  0
  -15.6052    2.9027   16.7002 H   0  0  0  0  0
  -13.9197    2.6227   16.0820 H   0  0  0  0  0
  -16.6501    1.7560   15.3763 H   0  0  0  0  0
  -13.3902    2.9487   19.0389 H   0  0  0  0  0
  -10.5142    3.3448   18.7675 H   0  0  0  0  0
  -10.3149    1.1741   20.0103 H   0  0  0  0  0
  -12.2970    0.0419   20.4555 H   0  0  0  0  0
  -10.8238    3.2185   21.2974 H   0  0  0  0  0
  -12.5666    2.9378   21.0635 H   0  0  0  0  0
  -11.6014    1.7915   22.0254 H   0  0  0  0  0
   -9.0590    1.4922   17.9675 H   0  0  0  0  0
   -9.7104    0.6955   15.2410 H   0  0  0  0  0
   -7.3984    0.9248   15.9464 H   0  0  0  0  0
   -7.5845   -0.4484   17.0646 H   0  0  0  0  0
   -7.7076   -0.7082   15.3073 H   0  0  0  0  0
  -10.0608   -0.9672   18.4247 H   0  0  0  0  0
  -10.6390   -3.5071   17.1884 H   0  0  0  0  0
  -10.0168   -3.3507   19.5704 H   0  0  0  0  0
  -11.5069   -2.4374   19.9122 H   0  0  0  0  0
  -11.6041   -4.1387   19.3951 H   0  0  0  0  0
  -12.6483   -0.7308   18.2599 H   0  0  0  0  0
  -15.1150   -2.1120   17.6239 H   0  0  0  0  0
  -15.0035   -0.0555   19.1275 H   0  0  0  0  0
  -14.4509    0.9218   17.7452 H   0  0  0  0  0
  -16.1021    0.2550   17.7608 H   0  0  0  0  0
  -12.9972    0.0456   15.7761 H   0  0  0  0  0
  -14.6752    0.2001   13.4364 H   0  0  0  0  0
  -11.7236    0.0306   13.6686 H   0  0  0  0  0
  -12.8247    1.5488   13.7486 H   0  0  0  0  0
  -11.6786   -1.2090   11.4517 H   0  0  0  0  0
  -11.7873    1.3877    8.0619 H   0  0  0  0  0
  -12.6209    3.2095    9.5171 H   0  0  0  0  0
  -13.0821    2.8560   11.9115 H   0  0  0  0  0
  -12.2209   -2.2598   14.3652 H   0  0  0  0  0
  -12.5982   -3.8768   11.9451 H   0  0  0  0  0
  -11.9916   -4.6318   14.8713 H   0  0  0  0  0
  -10.7746   -4.2905   13.5764 H   0  0  0  0  0
  -13.2323   -6.6964   14.8741 H   0  0  0  0  0
  -10.2070   -5.9752   11.8815 H   0  0  0  0  0
  -13.3350   -9.1138   14.1959 H   0  0  0  0  0
  -10.2883   -8.3918   11.2633 H   0  0  0  0  0
  -11.8310   -9.9189   12.3739 H   0  0  0  0  0
  -14.4070   -3.8887   15.0706 H   0  0  0  0  0
  -15.8944   -6.1792   14.3132 H   0  0  0  0  0
  -17.5802   -5.4450   16.0915 H   0  0  0  0  0
  -16.5921   -3.9714   16.3088 H   0  0  0  0  0
  -14.6160   -5.6039   16.6143 H   0  0  0  0  0
  -15.9006   -6.8443   16.8912 H   0  0  0  0  0
  -16.6061   -3.7872   17.9044 H   0  0  0  0  0
  -16.6059   -2.6952   14.0367 H   0  0  0  0  0
  -19.2713   -3.1199   12.9318 H   0  0  0  0  0
  -17.2005   -0.8594   12.6079 H   0  0  0  0  0
  -18.4766   -0.9563   13.8892 H   0  0  0  0  0
  -20.1812   -0.8125   12.1410 H   0  0  0  0  0
  -18.8755   -0.6052   10.9188 H   0  0  0  0  0
  -19.4801    1.2077   13.2681 H   0  0  0  0  0
  -19.7806    1.5441   11.4735 H   0  0  0  0  0
  -17.2534    1.7003   12.9625 H   0  0  0  0  0
  -17.8551    2.8754    9.1377 H   0  0  0  0  0
  -19.0471    1.8602    9.9560 H   0  0  0  0  0
  -15.6809    3.0633   11.9295 H   0  0  0  0  0
  -16.0623   -2.7334   11.4256 H   0  0  0  0  0
  -17.2324   -3.0085    8.7803 H   0  0  0  0  0
  -14.6635   -3.7955    8.2259 H   0  0  0  0  0
  -14.3928   -3.2594    9.9081 H   0  0  0  0  0
  -13.8792   -2.4150    6.8588 H   0  0  0  0  0
  -14.4877    1.8005    7.0151 H   0  0  0  0  0
  -15.5457    1.5367    9.2624 H   0  0  0  0  0
  -15.9092   -0.7738   10.2881 H   0  0  0  0  0
  -16.2310   -5.5198   11.1024 H   0  0  0  0  0
  -16.4174   -7.4012    8.7413 H   0  0  0  0  0
  -14.4397   -8.6295    9.5400 H   0  0  0  0  0
  -14.3052   -7.4506   10.9357 H   0  0  0  0  0
  -12.5394   -5.4942   10.4465 H   0  0  0  0  0
  -12.6990   -5.6291    6.1871 H   0  0  0  0  0
  -17.7093   -6.9766   11.8698 H   0  0  0  0  0
  -17.8817   -9.9071   11.9740 H   0  0  0  0  0
  -19.0342   -9.3973   14.2405 H   0  0  0  0  0
  -18.5421   -7.6424   13.9262 H   0  0  0  0  0
  -17.1017   -8.7226   15.5378 H   0  0  0  0  0
  -16.2408   -8.3167   14.0178 H   0  0  0  0  0
  -15.7438  -10.5820   15.0042 H   0  0  0  0  0
  -16.3310  -10.5710   13.2757 H   0  0  0  0  0
  -17.9567  -11.2502   15.7281 H   0  0  0  0  0
  -18.5295  -11.2394   14.0420 H   0  0  0  0  0
  -17.2924  -12.4133   14.5546 H   0  0  0  0  0
  -19.7588  -10.9869   11.4169 H   0  0  0  0  0
  -22.3099   -9.5632   11.9490 H   0  0  0  0  0
  -21.7477  -10.9105    9.3052 H   0  0  0  0  0
  -21.8992   -9.1182    9.6007 H   0  0  0  0  0
  -23.2742  -10.6120    7.9811 H   0  0  0  0  0
  -22.0987  -11.0569   13.7848 H   0  0  0  0  0
  -21.6458  -13.8477   13.4218 H   0  0  0  0  0
  -22.3019  -13.9889   15.7705 H   0  0  0  0  0
  -23.0648  -12.3415   15.6679 H   0  0  0  0  0
  -20.9950  -12.3241   16.6685 H   0  0  0  0  0
  -22.7255  -15.3049   13.1987 H   0  0  0  0  0
  1  2  1  0  0  0
  2  3  1  0  0  0
  2  5  1  0  0  0
  3  4  2  0  0  0
  3 10  1  0  0  0
  5  6  1  0  0  0
  6  7  1  0  0  0
  7  8  1  0  0  0
  8  9  1  0  0  0
 10 11  1  0  0  0
 11 12  1  0  0  0
 11 14  1  0  0  0
 12 13  2  0  0  0
 12 19  1  0  0  0
 14 15  1  0  0  0
 15 16  1  0  0  0
 16 17  2  0  0  0
 16 18  1  0  0  0
 19 20  1  0  0  0
 20 21  1  0  0  0
 20 23  1  0  0  0
 21 22  2  0  0  0
 21 26  1  0  0  0
 23 24  1  0  0  0
 23 25  1  0  0  0
 26 27  1  0  0  0
 27 28  1  0  0  0
 27 30  1  0  0  0
 28 29  2  0  0  0
 28 31  1  0  0  0
 31 32  1  0  0  0
 32 33  1  0  0  0
 32 35  1  0  0  0
 33 34  2  0  0  0
 33 36  1  0  0  0
 36 37  1  0  0  0
 37 38  1  0  0  0
 37 40  1  0  0  0
 38 39  2  0  0  0
 38 41  1  0  0  0
 41 42  1  0  0  0
 42 43  1  0  0  0
 42 45  1  0  0  0
 43 44  2  0  0  0
 43 52  1  0  0  0
 45 46  1  0  0  0
 46 47  4  0  0  0
 46 51  4  0  0  0
 47 48  4  0  0  0
 48 49  4  0  0  0
 49 50  4  0  0  0
 50 51  4  0  0  0
 52 53  1  0  0  0
 53 54  1  0  0  0
 53 56  1  0  0  0
 54 55  2  0  0  0
 54 63  1  0  0  0
 56 57  1  0  0  0
 57 58  4  0  0  0
 57 59  4  0  0  0
 58 60  4  0  0  0
 59 61  4  0  0  0
 60 62  4  0  0  0
 61 62  4  0  0  0
 63 64  1  0  0  0
 64 65  1  0  0  0
 64 67  1  0  0  0
 65 66  2  0  0  0
 65 72  1  0  0  0
 67 68  1  0  0  0
 68 69  1  0  0  0
 69 70  1  0  0  0
 69 71  2  0  0  0
 72 73  1  0  0  0
 73 74  1  0  0  0
 73 76  1  0  0  0
 74 75  2  0  0  0
 74 83  1  0  0  0
 76 77  1  0  0  0
 77 78  1  0  0  0
 78 79  1  0  0  0
 79 80  1  0  0  0
 80 81  1  0  0  0
 80 82  2  0  0  0
 83 84  1  0  0  0
 84 85  1  0  0  0
 84 87  1  0  0  0
 85 86  2  0  0  0
 85 94  1  0  0  0
 87 88  1  0  0  0
 88 89  4  0  0  0
 88 93  4  0  0  0
 89 90  4  0  0  0
 90 91  4  0  0  0
 91 92  4  0  0  0
 92 93  4  0  0  0
 94 95  1  0  0  0
 95 96  1  0  0  0
 95 98  1  0  0  0
 96 97  2  0  0  0
 96104  1  0  0  0
 98 99  1  0  0  0
 99100  4  0  0  0
 99101  4  0  0  0
100102  4  0  0  0
101103  4  0  0  0
102103  4  0  0  0
104105  1  0  0  0
105106  1  0  0  0
105108  1  0  0  0
106107  2  0  0  0
106112  1  0  0  0
108109  1  0  0  0
109110  1  0  0  0
110111  1  0  0  0
112113  1  0  0  0
113114  1  0  0  0
113116  1  0  0  0
114115  2  0  0  0
114120  1  0  0  0
116117  1  0  0  0
117118  2  0  0  0
117119  1  0  0  0
120121  1  0  0  0
121122  1  0  0  0
121124  1  0  0  0
122123  2  0  0  0
122126  1  0  0  0
124125  1  0  0  0
  1127  1  0  0  0
  1128  1  0  0  0
  1129  1  0  0  0
  2130  1  0  0  0
  5131  1  0  0  0
  5132  1  0  0  0
  6133  1  0  0  0
  6134  1  0  0  0
  7135  1  0  0  0
  7136  1  0  0  0
  8137  1  0  0  0
  8138  1  0  0  0
  9139  1  0  0  0
  9140  1  0  0  0
  9141  1  0  0  0
 10142  1  0  0  0
 11143  1  0  0  0
 14144  1  0  0  0
 14145  1  0  0  0
 15146  1  0  0  0
 15147  1  0  0  0
 18148  1  0  0  0
 19149  1  0  0  0
 20150  1  0  0  0
 23151  1  0  0  0
 24152  1  0  0  0
 25153  1  0  0  0
 25154  1  0  0  0
 25155  1  0  0  0
 26156  1  0  0  0
 27157  1  0  0  0
 30158  1  0  0  0
 30159  1  0  0  0
 30160  1  0  0  0
 31161  1  0  0  0
 32162  1  0  0  0
 35163  1  0  0  0
 35164  1  0  0  0
 35165  1  0  0  0
 36166  1  0  0  0
 37167  1  0  0  0
 40168  1  0  0  0
 40169  1  0  0  0
 40170  1  0  0  0
 41171  1  0  0  0
 42172  1  0  0  0
 45173  1  0  0  0
 45174  1  0  0  0
 47175  1  0  0  0
 49176  1  0  0  0
 50177  1  0  0  0
 51178  1  0  0  0
 52179  1  0  0  0
 53180  1  0  0  0
 56181  1  0  0  0
 56182  1  0  0  0
 58183  1  0  0  0
 59184  1  0  0  0
 60185  1  0  0  0
 61186  1  0  0  0
 62187  1  0  0  0
 63188  1  0  0  0
 64189  1  0  0  0
 67190  1  0  0  0
 67191  1  0  0  0
 68192  1  0  0  0
 68193  1  0  0  0
 70194  1  0  0  0
 72195  1  0  0  0
 73196  1  0  0  0
 76197  1  0  0  0
 76198  1  0  0  0
 77199  1  0  0  0
 77200  1  0  0  0
 78201  1  0  0  0
 78202  1  0  0  0
 79203  1  0  0  0
 81204  1  0  0  0
 81205  1  0  0  0
 82206  1  0  0  0
 83207  1  0  0  0
 84208  1  0  0  0
 87209  1  0  0  0
 87210  1  0  0  0
 89211  1  0  0  0
 91212  1  0  0  0
 92213  1  0  0  0
 93214  1  0  0  0
 94215  1  0  0  0
 95216  1  0  0  0
 98217  1  0  0  0
 98218  1  0  0  0
101219  1  0  0  0
102220  1  0  0  0
104221  1  0  0  0
105222  1  0  0  0
108223  1  0  0  0
108224  1  0  0  0
109225  1  0  0  0
109226  1  0  0  0
110227  1  0  0  0
110228  1  0  0  0
111229  1  0  0  0
111230  1  0  0  0
111231  1  0  0  0
112232  1  0  0  0
113233  1  0  0  0
116234  1  0  0  0
116235  1  0  0  0
119236  1  0  0  0
120237  1  0  0  0
121238  1  0  0  0
124239  1  0  0  0
124240  1  0  0  0
125241  1  0  0  0
126242  1  0  0  0
M  END
$$$$
