### 
### Created by X-TOOL on Mon Sep 10 21:13:17 2018
### 

@<TRIPOS>MOLECULE
4o37_ligand
  240   243     1     0     0
SMALL
GAST_HUCK


@<TRIPOS>ATOM
      1 N         -13.9150    9.3620   19.4840 N.4       1 LYS         0.2379
      2 CA        -13.1050    8.5210   18.5720 C.3       1 LYS         0.0650
      3 C         -13.5240    7.0140   18.6770 C.2       1 LYS         0.2267
      4 O         -13.6960    6.4600   19.7780 O.2       1 LYS        -0.3907
      5 CB        -11.6240    8.6550   18.9130 C.3       1 LYS         0.0080
      6 CG        -10.7490    8.9210   17.7040 C.3       1 LYS        -0.0410
      7 CD         -9.2770    8.6330   18.0320 C.3       1 LYS        -0.0123
      8 CE         -8.5450    9.8310   18.6630 C.3       1 LYS        -0.0354
      9 NZ         -7.0960    9.5660   18.9550 N.4       1 LYS         0.2185
     10 N         -13.7580    6.4060   17.5300 N.am      1 GLU        -0.2609
     11 CA        -13.9920    4.9610   17.4850 C.3       1 GLU         0.1326
     12 C         -12.6360    4.2830   17.6730 C.2       1 GLU         0.2041
     13 O         -11.6820    4.6900   17.0460 O.2       1 GLU        -0.3944
     14 CB        -14.5510    4.6430   16.1160 C.3       1 GLU        -0.0008
     15 CG        -14.8540    3.1700   15.9570 C.3       1 GLU         0.0044
     16 CD        -15.4260    2.8180   14.5570 C.2       1 GLU         0.0350
     17 OE1       -14.9370    3.3030   13.5510 O.co2     1 GLU        -0.5690
     18 OE2       -16.4040    2.0340   14.4910 O.co2     1 GLU        -0.5690
     19 N         -12.5700    3.2540   18.5150 N.am      1 THR        -0.2613
     20 CA        -11.2760    2.5720   18.6650 C.3       1 THR         0.1565
     21 C         -11.0080    1.6700   17.4470 C.2       1 THR         0.2065
     22 O         -11.9190    1.3320   16.6820 O.2       1 THR        -0.3943
     23 CB        -11.2910    1.6440   19.8900 C.3       1 THR         0.0924
     24 OG1       -12.2830    0.6250   19.6930 O.3       1 THR        -0.3874
     25 CG2       -11.5930    2.4580   21.1630 C.3       1 THR        -0.0346
     26 N          -9.7810    1.2020   17.3080 N.am      1 ALA        -0.2639
     27 CA         -9.4210    0.2420   16.1890 C.3       1 ALA         0.1282
     28 C         -10.1770   -1.0690   16.3920 C.2       1 ALA         0.2036
     29 O         -10.7150   -1.6170   15.4110 O.2       1 ALA        -0.3944
     30 CB         -7.9200   -0.0160   16.1220 C.3       1 ALA        -0.0244
     31 N         -10.3940   -1.5010   17.6220 N.am      1 ALA        -0.2640
     32 CA        -11.1180   -2.7540   17.8140 C.3       1 ALA         0.1282
     33 C         -12.5550   -2.6090   17.4030 C.2       1 ALA         0.2036
     34 O         -13.2120   -3.5020   16.8620 O.2       1 ALA        -0.3944
     35 CB        -11.0570   -3.2030   19.2800 C.3       1 ALA        -0.0244
     36 N         -13.1550   -1.4450   17.7370 N.am      1 ALA        -0.2640
     37 CA        -14.5470   -1.2280   17.3340 C.3       1 ALA         0.1282
     38 C         -14.7190   -1.0590   15.8210 C.2       1 ALA         0.2037
     39 O         -15.6770   -1.5830   15.2610 O.2       1 ALA        -0.3944
     40 CB        -15.0660    0.0740   18.0470 C.3       1 ALA        -0.0244
     41 N         -13.7410   -0.3890   15.2300 N.am      1 1MH        -0.2618
     42 CA        -13.7600   -0.2910   13.7670 C.3       1 1MH         0.1416
     43 C         -13.8490   -1.6660   13.0790 C.2       1 1MH         0.2062
     44 O         -14.5540   -1.9760   12.1450 O.2       1 1MH        -0.3942
     45 CB        -12.6140    0.5630   13.3340 C.3       1 1MH         0.0277
     46 C6        -12.3980    0.7970   11.8670 C.ar      1 1MH        -0.0106
     47 C7        -11.9100   -0.2330   11.0250 C.ar      1 1MH         0.0127
     48 N8        -11.7290   -0.0290    9.7200 N.ar      1 1MH        -0.3044
     49 C9        -11.9650    1.2190    9.1240 C.ar      1 1MH         0.0042
     50 C10       -12.4350    2.2270    9.9510 C.ar      1 1MH        -0.0404
     51 C11       -12.6800    2.0460   11.3030 C.ar      1 1MH        -0.0402
     52 N         -12.8580   -2.5440   13.6210 N.am      1 PHE        -0.2618
     53 CA        -12.8270   -3.9180   13.0100 C.3       1 PHE         0.1404
     54 C         -14.1750   -4.5900   13.1710 C.2       1 PHE         0.2060
     55 O         -14.6310   -5.2660   12.2750 O.2       1 PHE        -0.3942
     56 CB        -11.7520   -4.7120   13.8110 C.3       1 PHE         0.0214
     57 CG        -11.7320   -6.2060   13.4360 C.ar      1 PHE        -0.0386
     58 CD1       -12.5910   -7.0660   14.0740 C.ar      1 PHE        -0.0601
     59 CD2       -10.8830   -6.6590   12.3950 C.ar      1 PHE        -0.0601
     60 CE1       -12.6490   -8.4270   13.7000 C.ar      1 PHE        -0.0686
     61 CE2       -10.9420   -8.0130   12.0490 C.ar      1 PHE        -0.0686
     62 CZ        -11.8030   -8.8720   12.6760 C.ar      1 PHE        -0.0687
     63 N         -14.8120   -4.4600   14.3290 N.am      1 GLU        -0.2635
     64 CA        -16.0900   -5.1320   14.5440 C.3       1 GLU         0.1325
     65 C         -17.1930   -4.6300   13.6120 C.2       1 GLU         0.2040
     66 O         -17.9670   -5.3620   12.9600 O.2       1 GLU        -0.3944
     67 CB        -16.5790   -5.0210   16.0150 C.3       1 GLU        -0.0008
     68 CG        -15.6400   -5.7870   16.9400 C.3       1 GLU         0.0044
     69 CD        -15.7670   -5.3360   18.3710 C.2       1 GLU         0.0350
     70 OE1       -16.2090   -4.1940   18.6780 O.co2     1 GLU        -0.5690
     71 OE2       -15.2010   -6.0660   19.2190 O.co2     1 GLU        -0.5690
     72 N         -17.2540   -3.2930   13.5240 N.am      1 ARG        -0.2637
     73 CA        -18.2890   -2.7320   12.6620 C.3       1 ARG         0.1311
     74 C         -18.0890   -3.1360   11.1550 C.2       1 ARG         0.2040
     75 O         -19.0450   -3.3570   10.4700 O.2       1 ARG        -0.3944
     76 CB        -18.2120   -1.1810   12.8560 C.3       1 ARG        -0.0092
     77 CG        -19.1740   -0.4400   11.9540 C.3       1 ARG        -0.0156
     78 CD        -19.1520    1.0840   12.2360 C.3       1 ARG         0.0627
     79 NE        -17.8570    1.7340   12.1410 N.pl3     1 ARG        -0.2723
     80 CZ        -17.3990    2.3650   11.0760 C.cat     1 ARG         0.2882
     81 NH1       -18.1620    2.3670    9.9670 N.pl3     1 ARG        -0.2849
     82 NH2       -16.2460    3.0290   11.0810 N.pl3     1 ARG        -0.2849
     83 N         -16.7870   -3.0670   10.7900 N.am      1 1MH        -0.2618
     84 CA        -16.4750   -3.5170    9.3770 C.3       1 1MH         0.1416
     85 C         -16.6000   -4.9940    9.0930 C.2       1 1MH         0.2062
     86 O         -16.9390   -5.4140    7.9730 O.2       1 1MH        -0.3942
     87 CB        -15.0180   -3.1420    9.0230 C.3       1 1MH         0.0277
     88 C6        -14.9520   -1.7130    8.5570 C.ar      1 1MH        -0.0106
     89 C7        -14.3110   -1.5510    7.3640 C.ar      1 1MH         0.0127
     90 N8        -14.2070   -0.3070    6.7970 N.ar      1 1MH        -0.3044
     91 C9        -14.6190    0.8110    7.4530 C.ar      1 1MH         0.0042
     92 C10       -15.2220    0.6490    8.7190 C.ar      1 1MH        -0.0404
     93 C11       -15.4260   -0.6420    9.3200 C.ar      1 1MH        -0.0402
     94 N         -16.2980   -5.8480   10.1390 N.am      1 HIS        -0.2623
     95 CA        -16.0740   -7.2920    9.7700 C.3       1 HIS         0.1369
     96 C         -16.8810   -8.2690   10.5220 C.2       1 HIS         0.2054
     97 O         -16.7440   -9.4600   10.1170 O.2       1 HIS        -0.3942
     98 CB        -14.5810   -7.6080    9.8930 C.3       1 HIS         0.0145
     99 CG        -13.7080   -6.7440    9.0790 C.2       1 HIS        -0.0027
    100 ND1       -13.7260   -6.7640    7.7030 N.2       1 HIS        -0.3252
    101 CD2       -12.7970   -5.7950    9.4310 C.2       1 HIS         0.0291
    102 CE1       -12.8720   -5.8610    7.2380 C.2       1 HIS         0.0907
    103 NE2       -12.2620   -5.2860    8.2730 N.pl3     1 HIS        -0.2752
    104 N         -17.6420   -7.9470   11.5630 N.am      1 NLE        -0.2636
    105 CA        -18.3630   -8.9680   12.2470 C.3       1 NLE         0.1310
    106 C         -19.7800   -9.0250   11.8670 C.2       1 NLE         0.2040
    107 O         -20.4830   -7.9500   11.8910 O.2       1 NLE        -0.3944
    108 CB        -18.3240   -8.7020   13.7930 C.3       1 NLE        -0.0124
    109 CG        -16.9990   -8.9510   14.4770 C.3       1 NLE        -0.0491
    110 CD        -16.5790  -10.4110   14.3250 C.3       1 NLE        -0.0557
    111 CE        -17.6660  -11.3980   14.6880 C.3       1 NLE        -0.0653
    112 N         -20.3540  -10.1690   11.5480 N.am      1 ASP        -0.2622
    113 CA        -21.7890  -10.3280   11.3730 C.3       1 ASP         0.1423
    114 C         -22.1850  -11.6930   11.8760 C.2       1 ASP         0.2051
    115 O         -22.4810  -12.5720   11.0620 O.2       1 ASP        -0.3943
    116 CB        -22.2130  -10.1200    9.8940 C.3       1 ASP         0.0406
    117 CG        -23.7300  -10.2120    9.6740 C.2       1 ASP         0.0393
    118 OD1       -24.4410  -10.0140   10.6250 O.co2     1 ASP        -0.5688
    119 OD2       -24.0600  -10.5210    8.5250 O.co2     1 ASP        -0.5688
    120 N         -22.2150  -11.8700   13.1800 N.am      1 SER        -0.2671
    121 CA        -22.4040  -13.1560   13.7890 C.3       1 SER         0.1173
    122 C         -23.7010  -13.7410   13.4270 C.2       1 SER         0.0623
    123 O         -24.7450  -13.0460   13.4240 O.co2     1 SER        -0.5665
    124 CB        -22.2610  -12.9940   15.3270 C.3       1 SER         0.0789
    125 OG        -21.0280  -12.3990   15.7120 O.3       1 SER        -0.3910
    126 OXT       -23.6340  -15.0050   13.1190 O.co2     1 SER        -0.5665
    127 H         -13.6272   10.3242   19.3981 H         1 LYS         0.2015
    128 H         -13.7793    9.0543   20.4342 H         1 LYS         0.2015
    129 H         -14.8896    9.2798   19.2401 H         1 LYS         0.2015
    130 H         -13.2676    8.8638   17.5395 H         1 LYS         0.1098
    131 H         -11.2893    7.7203   19.3866 H         1 LYS         0.0346
    132 H         -11.5032    9.4883   19.6208 H         1 LYS         0.0346
    133 H         -10.8540    9.9746   17.4059 H         1 LYS         0.0270
    134 H         -11.0690    8.2719   16.8756 H         1 LYS         0.0270
    135 H          -8.7594    8.3595   17.1007 H         1 LYS         0.0317
    136 H          -9.2354    7.7889   18.7361 H         1 LYS         0.0317
    137 H          -9.0483   10.0879   19.6068 H         1 LYS         0.0813
    138 H          -8.6096   10.6823   17.9694 H         1 LYS         0.0813
    139 H          -6.6801   10.3877   19.3647 H         1 LYS         0.1994
    140 H          -6.6166    9.3386   18.0980 H         1 LYS         0.1994
    141 H          -7.0186    8.7939   19.5984 H         1 LYS         0.1994
    142 H         -13.7758    6.9370   16.6828 H         1 GLU         0.1885
    143 H         -14.6939    4.6466   18.2714 H         1 GLU         0.0801
    144 H         -13.8147    4.9385   15.3541 H         1 GLU         0.0330
    145 H         -15.4794    5.2145   15.9698 H         1 GLU         0.0330
    146 H         -15.5906    2.8789   16.7203 H         1 GLU         0.0433
    147 H         -13.9243    2.6021   16.1091 H         1 GLU         0.0433
    148 H         -13.3741    2.9547   19.0286 H         1 THR         0.1884
    149 H         -10.4777    3.3219   18.7670 H         1 THR         0.0826
    150 H         -10.3044    1.1694   19.9967 H         1 THR         0.0639
    151 H         -12.2968    0.0480   20.4476 H         1 THR         0.2101
    152 H         -11.6018    1.7864   22.0341 H         1 THR         0.0257
    153 H         -12.5754    2.9427   21.0638 H         1 THR         0.0257
    154 H         -10.8174    3.2259   21.2999 H         1 THR         0.0257
    155 H          -9.0732    1.4865   17.9546 H         1 ALA         0.1883
    156 H          -9.7358    0.6874   15.2338 H         1 ALA         0.0797
    157 H          -7.7044   -0.7145   15.3001 H         1 ALA         0.0277
    158 H          -7.5802   -0.4525   17.0728 H         1 ALA         0.0277
    159 H          -7.3924    0.9328   15.9447 H         1 ALA         0.0277
    160 H         -10.0673   -0.9776   18.4090 H         1 ALA         0.1883
    161 H         -10.6473   -3.5264   17.1881 H         1 ALA         0.0797
    162 H         -11.6089   -4.1473   19.3975 H         1 ALA         0.0277
    163 H         -11.5108   -2.4312   19.9191 H         1 ALA         0.0277
    164 H         -10.0077   -3.3525   19.5744 H         1 ALA         0.0277
    165 H         -12.6582   -0.7448   18.2497 H         1 ALA         0.1883
    166 H         -15.1463   -2.0908   17.6603 H         1 ALA         0.0797
    167 H         -16.1116    0.2578   17.7590 H         1 ALA         0.0277
    168 H         -14.4461    0.9304   17.7432 H         1 ALA         0.0277
    169 H         -15.0035   -0.0554   19.1376 H         1 ALA         0.0277
    170 H         -13.0117    0.0371   15.7654 H         1 1MH         0.1885
    171 H         -14.6786    0.2461   13.4882 H         1 1MH         0.0825
    172 H         -11.6978    0.0964   13.7249 H         1 1MH         0.0489
    173 H         -12.7514    1.5492   13.8015 H         1 1MH         0.0489
    174 H         -11.6799   -1.2036   11.4493 H         1 1MH         0.0765
    175 H         -11.7883    1.3867    8.0677 H         1 1MH         0.0767
    176 H         -12.6199    3.2041    9.5195 H         1 1MH         0.0693
    177 H         -13.0799    2.8516   11.9081 H         1 1MH         0.0678
    178 H         -12.2334   -2.2654   14.3506 H         1 PHE         0.1885
    179 H         -12.5596   -3.8637   11.9444 H         1 PHE         0.0823
    180 H         -11.9706   -4.6194   14.8851 H         1 PHE         0.0474
    181 H         -10.7625   -4.2806   13.5996 H         1 PHE         0.0474
    182 H         -13.2288   -6.6984   14.8697 H         1 PHE         0.0557
    183 H         -10.2108   -5.9790   11.8844 H         1 PHE         0.0557
    184 H         -13.3312   -9.1100   14.1931 H         1 PHE         0.0599
    185 H         -10.2919   -8.3898   11.2677 H         1 PHE         0.0599
    186 H         -11.8309   -9.9132   12.3756 H         1 PHE         0.0559
    187 H         -14.4149   -3.8999   15.0561 H         1 GLU         0.1883
    188 H         -15.9309   -6.1982   14.3251 H         1 GLU         0.0801
    189 H         -17.5917   -5.4431   16.0943 H         1 GLU         0.0330
    190 H         -16.5987   -3.9622   16.3127 H         1 GLU         0.0330
    191 H         -14.6040   -5.6258   16.6074 H         1 GLU         0.0433
    192 H         -15.8810   -6.8587   16.8826 H         1 GLU         0.0433
    193 H         -16.6186   -2.7069   14.0267 H         1 ARG         0.1883
    194 H         -19.2743   -3.0954   12.9893 H         1 ARG         0.0800
    195 H         -17.1883   -0.8470   12.6314 H         1 ARG         0.0313
    196 H         -18.4540   -0.9431   13.9023 H         1 ARG         0.0313
    197 H         -20.1915   -0.8212   12.1254 H         1 ARG         0.0301
    198 H         -18.8888   -0.6144   10.9060 H         1 ARG         0.0301
    199 H         -19.5332    1.2424   13.2556 H         1 ARG         0.0689
    200 H         -19.8249    1.5690   11.5135 H         1 ARG         0.0689
    201 H         -17.2474    1.7000   12.9706 H         1 ARG         0.2642
    202 H         -17.8352    2.8498    9.1179 H         1 ARG         0.2615
    203 H         -19.0726    1.8857    9.9675 H         1 ARG         0.2615
    204 H         -15.6570    3.0319   11.9260 H         1 ARG         0.2615
    205 H         -15.9424    3.5401   10.2399 H         1 ARG         0.2615
    206 H         -16.0765   -2.7399   11.4131 H         1 1MH         0.1885
    207 H         -17.1633   -2.9830    8.7054 H         1 1MH         0.0825
    208 H         -14.6562   -3.8032    8.2218 H         1 1MH         0.0489
    209 H         -14.3840   -3.2641    9.9135 H         1 1MH         0.0489
    210 H         -13.8816   -2.4102    6.8616 H         1 1MH         0.0765
    211 H         -14.4885    1.7951    7.0175 H         1 1MH         0.0767
    212 H         -15.5439    1.5318    9.2594 H         1 1MH         0.0693
    213 H         -15.9065   -0.7731   10.2828 H         1 1MH         0.0678
    214 H         -16.2323   -5.5262   11.0835 H         1 HIS         0.1885
    215 H         -16.3558   -7.4003    8.7122 H         1 HIS         0.0817
    216 H         -14.4227   -8.6504    9.5794 H         1 HIS         0.0420
    217 H         -14.2908   -7.4944   10.9479 H         1 HIS         0.0420
    218 H         -12.5396   -5.4945   10.4456 H         1 HIS         0.0729
    219 H         -12.6992   -5.6293    6.1880 H         1 HIS         0.1199
    220 H         -11.5152   -4.5790    8.2148 H         1 HIS         0.2361
    221 H         -17.7080   -6.9956   11.8638 H         1 NLE         0.1883
    222 H         -17.8915   -9.9365   12.0243 H         1 NLE         0.0800
    223 H         -19.0738   -9.3537   14.2653 H         1 NLE         0.0312
    224 H         -18.5959   -7.6493   13.9600 H         1 NLE         0.0312
    225 H         -17.0943   -8.7122   15.5465 H         1 NLE         0.0267
    226 H         -16.2319   -8.3057   14.0241 H         1 NLE         0.0267
    227 H         -15.7128  -10.5929   14.9781 H         1 NLE         0.0263
    228 H         -16.2906  -10.5820   13.2774 H         1 NLE         0.0263
    229 H         -17.2902  -12.4231   14.5538 H         1 NLE         0.0230
    230 H         -18.5381  -11.2390   14.0367 H         1 NLE         0.0230
    231 H         -17.9603  -11.2499   15.7375 H         1 NLE         0.0230
    232 H         -19.7705  -10.9709   11.4195 H         1 ASP         0.1884
    233 H         -22.3014   -9.5686   11.9819 H         1 ASP         0.0819
    234 H         -21.7246  -10.8909    9.2799 H         1 ASP         0.0478
    235 H         -21.8739   -9.1246    9.5711 H         1 ASP         0.0478
    236 H         -22.1010  -11.0729   13.7729 H         1 SER         0.1876
    237 H         -21.6142  -13.8333   13.4319 H         1 SER         0.0749
    238 H         -22.3302  -13.9885   15.7919 H         1 SER         0.0599
    239 H         -23.0839  -12.3611   15.6906 H         1 SER         0.0599
    240 H         -20.3083  -12.9411   15.4106 H         1 SER         0.2096
@<TRIPOS>BOND
     1    1    2 1  
     2    2    3 1  
     3    2    5 1  
     4    3    4 2  
     5    3   10 am 
     6    5    6 1  
     7    6    7 1  
     8    7    8 1  
     9    8    9 1  
    10   10   11 1  
    11   11   12 1  
    12   11   14 1  
    13   12   13 2  
    14   12   19 am 
    15   14   15 1  
    16   15   16 1  
    17   16   17 ar 
    18   16   18 ar 
    19   19   20 1  
    20   20   21 1  
    21   20   23 1  
    22   21   22 2  
    23   21   26 am 
    24   23   24 1  
    25   23   25 1  
    26   26   27 1  
    27   27   28 1  
    28   27   30 1  
    29   28   29 2  
    30   28   31 am 
    31   31   32 1  
    32   32   33 1  
    33   32   35 1  
    34   33   34 2  
    35   33   36 am 
    36   36   37 1  
    37   37   38 1  
    38   37   40 1  
    39   38   39 2  
    40   38   41 am 
    41   41   42 1  
    42   42   43 1  
    43   42   45 1  
    44   43   44 2  
    45   43   52 am 
    46   45   46 1  
    47   46   47 ar 
    48   46   51 ar 
    49   47   48 ar 
    50   48   49 ar 
    51   49   50 ar 
    52   50   51 ar 
    53   52   53 1  
    54   53   54 1  
    55   53   56 1  
    56   54   55 2  
    57   54   63 am 
    58   56   57 1  
    59   57   58 ar 
    60   57   59 ar 
    61   58   60 ar 
    62   59   61 ar 
    63   60   62 ar 
    64   61   62 ar 
    65   63   64 1  
    66   64   65 1  
    67   64   67 1  
    68   65   66 2  
    69   65   72 am 
    70   67   68 1  
    71   68   69 1  
    72   69   70 ar 
    73   69   71 ar 
    74   72   73 1  
    75   73   74 1  
    76   73   76 1  
    77   74   75 2  
    78   74   83 am 
    79   76   77 1  
    80   77   78 1  
    81   78   79 1  
    82   79   80 ar 
    83   80   81 ar 
    84   80   82 ar 
    85   83   84 1  
    86   84   85 1  
    87   84   87 1  
    88   85   86 2  
    89   85   94 am 
    90   87   88 1  
    91   88   89 ar 
    92   88   93 ar 
    93   89   90 ar 
    94   90   91 ar 
    95   91   92 ar 
    96   92   93 ar 
    97   94   95 1  
    98   95   96 1  
    99   95   98 1  
   100   96   97 2  
   101   96  104 am 
   102   98   99 1  
   103   99  100 1  
   104   99  101 2  
   105  100  102 2  
   106  101  103 1  
   107  102  103 1  
   108  104  105 1  
   109  105  106 1  
   110  105  108 1  
   111  106  107 2  
   112  106  112 am 
   113  108  109 1  
   114  109  110 1  
   115  110  111 1  
   116  112  113 1  
   117  113  114 1  
   118  113  116 1  
   119  114  115 2  
   120  114  120 am 
   121  116  117 1  
   122  117  118 ar 
   123  117  119 ar 
   124  120  121 1  
   125  121  122 1  
   126  121  124 1  
   127  122  123 ar 
   128  122  126 ar 
   129  124  125 1  
   130    1  127 1  
   131    1  128 1  
   132    1  129 1  
   133    2  130 1  
   134    5  131 1  
   135    5  132 1  
   136    6  133 1  
   137    6  134 1  
   138    7  135 1  
   139    7  136 1  
   140    8  137 1  
   141    8  138 1  
   142    9  139 1  
   143    9  140 1  
   144    9  141 1  
   145   10  142 1  
   146   11  143 1  
   147   14  144 1  
   148   14  145 1  
   149   15  146 1  
   150   15  147 1  
   151   19  148 1  
   152   20  149 1  
   153   23  150 1  
   154   24  151 1  
   155   25  152 1  
   156   25  153 1  
   157   25  154 1  
   158   26  155 1  
   159   27  156 1  
   160   30  157 1  
   161   30  158 1  
   162   30  159 1  
   163   31  160 1  
   164   32  161 1  
   165   35  162 1  
   166   35  163 1  
   167   35  164 1  
   168   36  165 1  
   169   37  166 1  
   170   40  167 1  
   171   40  168 1  
   172   40  169 1  
   173   41  170 1  
   174   42  171 1  
   175   45  172 1  
   176   45  173 1  
   177   47  174 1  
   178   49  175 1  
   179   50  176 1  
   180   51  177 1  
   181   52  178 1  
   182   53  179 1  
   183   56  180 1  
   184   56  181 1  
   185   58  182 1  
   186   59  183 1  
   187   60  184 1  
   188   61  185 1  
   189   62  186 1  
   190   63  187 1  
   191   64  188 1  
   192   67  189 1  
   193   67  190 1  
   194   68  191 1  
   195   68  192 1  
   196   72  193 1  
   197   73  194 1  
   198   76  195 1  
   199   76  196 1  
   200   77  197 1  
   201   77  198 1  
   202   78  199 1  
   203   78  200 1  
   204   79  201 1  
   205   81  202 1  
   206   81  203 1  
   207   82  204 1  
   208   82  205 1  
   209   83  206 1  
   210   84  207 1  
   211   87  208 1  
   212   87  209 1  
   213   89  210 1  
   214   91  211 1  
   215   92  212 1  
   216   93  213 1  
   217   94  214 1  
   218   95  215 1  
   219   98  216 1  
   220   98  217 1  
   221  101  218 1  
   222  102  219 1  
   223  103  220 1  
   224  104  221 1  
   225  105  222 1  
   226  108  223 1  
   227  108  224 1  
   228  109  225 1  
   229  109  226 1  
   230  110  227 1  
   231  110  228 1  
   232  111  229 1  
   233  111  230 1  
   234  111  231 1  
   235  112  232 1  
   236  113  233 1  
   237  116  234 1  
   238  116  235 1  
   239  120  236 1  
   240  121  237 1  
   241  124  238 1  
   242  124  239 1  
   243  125  240 1  
@<TRIPOS>SUBSTRUCTURE
     1 LYS         1

