### 
### Created by X-TOOL on Mon Sep 10 21:13:29 2018
### 

@<TRIPOS>MOLECULE
5kyj_ligand
   52    55     1     0     0
SMALL
GAST_HUCK


@<TRIPOS>ATOM
      1 C10         6.2610   46.3320  -26.5330 C.ar      1 6Y8        -0.0645
      2 C12         6.6230   42.3490  -23.8760 C.2       1 6Y8         0.0594
      3 C13         6.1750   42.0970  -22.6090 C.2       1 6Y8        -0.0012
      4 C15         5.6170   41.2240  -19.1600 C.ar      1 6Y8         0.1577
      5 C19         4.2260   42.2610  -14.9500 C.3       1 6Y8         0.0669
      6 F           6.3680   38.8920  -19.6680 F         1 6Y8        -0.1858
      7 C16         6.0670   39.8600  -18.7940 C.ar      1 6Y8         0.1879
      8 C17         6.1480   39.5500  -17.4600 C.ar      1 6Y8         0.0359
      9 N3          5.8590   40.4700  -16.5530 N.ar      1 6Y8        -0.2646
     10 C18         5.4760   41.7010  -16.8950 C.ar      1 6Y8         0.2259
     11 O2          5.2220   42.5740  -15.8980 O.3       1 6Y8        -0.2863
     12 N4          5.3670   42.0960  -18.1690 N.ar      1 6Y8        -0.2310
     13 N2          5.5430   41.7040  -20.4630 N.pl3     1 6Y8        -0.2701
     14 C3          5.1860   43.1160  -20.6990 C.3       1 6Y8         0.0825
     15 C1          3.6760   43.2720  -20.6410 C.3       1 6Y8        -0.0143
     16 C2          3.2980   44.7480  -20.7610 C.3       1 6Y8        -0.0589
     17 C           2.9300   42.4290  -21.6750 C.3       1 6Y8        -0.0589
     18 C14         6.0140   40.9730  -21.6560 C.3       1 6Y8         0.0535
     19 C4          5.7020   43.3210  -22.0460 C.2       1 6Y8         0.0411
     20 N1          6.4360   43.6770  -24.0290 N.pl3     1 6Y8        -0.1801
     21 N           5.8390   44.3130  -22.9310 N.2       1 6Y8        -0.2163
     22 C5          6.6990   44.3550  -25.1720 C.ar      1 6Y8         0.1071
     23 C11         6.0880   45.5870  -25.3930 C.ar      1 6Y8        -0.0265
     24 C9          7.0650   45.8470  -27.5330 C.ar      1 6Y8        -0.0443
     25 C7          7.6940   44.6290  -27.3740 C.ar      1 6Y8         0.0835
     26 C6          7.5070   43.8940  -26.2130 C.ar      1 6Y8        -0.0018
     27 S           8.6170   44.1190  -28.5660 S.o2      1 6Y8        -0.0074
     28 O           7.9400   44.4680  -29.7680 O.2       1 6Y8        -0.1697
     29 O1          8.8580   42.7160  -28.3840 O.2       1 6Y8        -0.1697
     30 C8         10.0600   44.9380  -28.5330 C.3       1 6Y8         0.0594
     31 H1          5.7684   47.2915  -26.6416 H         1 6Y8         0.0599
     32 H2          7.0351   41.6423  -24.5948 H         1 6Y8         0.0877
     33 H3          4.1511   43.0755  -14.2144 H         1 6Y8         0.0589
     34 H4          4.4906   41.3255  -14.4354 H         1 6Y8         0.0589
     35 H5          3.2595   42.1380  -15.4606 H         1 6Y8         0.0589
     36 H6          6.4475   38.5554  -17.1498 H         1 6Y8         0.0831
     37 H7          5.6635   43.7918  -19.9742 H         1 6Y8         0.0709
     38 H8          3.3519   42.9236  -19.6493 H         1 6Y8         0.0338
     39 H9          2.2037   44.8509  -20.7180 H         1 6Y8         0.0234
     40 H10         3.6661   45.1441  -21.7189 H         1 6Y8         0.0234
     41 H11         3.7520   45.3113  -19.9325 H         1 6Y8         0.0234
     42 H12         3.2204   41.3736  -21.5661 H         1 6Y8         0.0234
     43 H13         3.1867   42.7774  -22.6863 H         1 6Y8         0.0234
     44 H14         1.8461   42.5292  -21.5167 H         1 6Y8         0.0234
     45 H15         6.9682   40.4590  -21.4679 H         1 6Y8         0.0610
     46 H16         5.2684   40.2448  -22.0077 H         1 6Y8         0.0610
     47 H17         5.4380   45.9805  -24.6198 H         1 6Y8         0.0582
     48 H18         7.2056   46.4177  -28.4438 H         1 6Y8         0.0573
     49 H19         8.0019   42.9350  -26.1109 H         1 6Y8         0.0601
     50 H20        10.6997   44.5870  -29.3562 H         1 6Y8         0.0468
     51 H21        10.5642   44.7540  -27.5728 H         1 6Y8         0.0468
     52 H22         9.8726   46.0158  -28.6482 H         1 6Y8         0.0468
@<TRIPOS>BOND
     1   23    1 ar 
     2    1   24 ar 
     3    2    3 2  
     4   20    2 1  
     5    3   18 1  
     6   19    3 1  
     7    4    7 ar 
     8    4   12 ar 
     9   13    4 1  
    10   11    5 1  
    11    7    6 1  
    12    7    8 ar 
    13    8    9 ar 
    14   10    9 ar 
    15   10   11 1  
    16   12   10 ar 
    17   14   13 1  
    18   18   13 1  
    19   14   15 1  
    20   19   14 1  
    21   15   16 1  
    22   15   17 1  
    23   21   19 2  
    24   20   21 1  
    25   22   20 1  
    26   22   23 ar 
    27   22   26 ar 
    28   24   25 ar 
    29   25   26 ar 
    30   25   27 1  
    31   27   28 2  
    32   27   29 2  
    33   27   30 1  
    34    1   31 1  
    35    2   32 1  
    36    5   33 1  
    37    5   34 1  
    38    5   35 1  
    39    8   36 1  
    40   14   37 1  
    41   15   38 1  
    42   16   39 1  
    43   16   40 1  
    44   16   41 1  
    45   17   42 1  
    46   17   43 1  
    47   17   44 1  
    48   18   45 1  
    49   18   46 1  
    50   23   47 1  
    51   24   48 1  
    52   26   49 1  
    53   30   50 1  
    54   30   51 1  
    55   30   52 1  
@<TRIPOS>SUBSTRUCTURE
     1 6Y8         1

