5kyj_ligand
  -I-interpret- 

 52 55  0  0  0  0  0  0  0  0999 V2000
    6.2610   46.3320  -26.5330 C   0  0  0  0  0
    6.6230   42.3490  -23.8760 C   0  0  0  0  0
    6.1750   42.0970  -22.6090 C   0  0  0  0  0
    5.6170   41.2240  -19.1600 C   0  0  0  0  0
    4.2260   42.2610  -14.9500 C   0  0  0  0  0
    6.3680   38.8920  -19.6680 F   0  0  0  0  0
    6.0670   39.8600  -18.7940 C   0  0  0  0  0
    6.1480   39.5500  -17.4600 C   0  0  0  0  0
    5.8590   40.4700  -16.5530 N   0  0  0  0  0
    5.4760   41.7010  -16.8950 C   0  0  0  0  0
    5.2220   42.5740  -15.8980 O   0  0  0  0  0
    5.3670   42.0960  -18.1690 N   0  0  0  0  0
    5.5430   41.7040  -20.4630 N   0  0  0  0  0
    5.1860   43.1160  -20.6990 C   0  0  0  0  0
    3.6760   43.2720  -20.6410 C   0  0  0  0  0
    3.2980   44.7480  -20.7610 C   0  0  0  0  0
    2.9300   42.4290  -21.6750 C   0  0  0  0  0
    6.0140   40.9730  -21.6560 C   0  0  0  0  0
    5.7020   43.3210  -22.0460 C   0  0  0  0  0
    6.4360   43.6770  -24.0290 N   0  0  0  0  0
    5.8390   44.3130  -22.9310 N   0  0  0  0  0
    6.6990   44.3550  -25.1720 C   0  0  0  0  0
    6.0880   45.5870  -25.3930 C   0  0  0  0  0
    7.0650   45.8470  -27.5330 C   0  0  0  0  0
    7.6940   44.6290  -27.3740 C   0  0  0  0  0
    7.5070   43.8940  -26.2130 C   0  0  0  0  0
    8.6170   44.1190  -28.5660 S   0  0  0  0  0
    7.9400   44.4680  -29.7680 O   0  0  0  0  0
    8.8580   42.7160  -28.3840 O   0  0  0  0  0
   10.0600   44.9380  -28.5330 C   0  0  0  0  0
    5.7657   47.2968  -26.6422 H   0  0  0  0  0
    7.0354   41.6417  -24.5955 H   0  0  0  0  0
    3.2689   42.1394  -15.4572 H   0  0  0  0  0
    4.4893   41.3338  -14.4409 H   0  0  0  0  0
    4.1527   43.0687  -14.2218 H   0  0  0  0  0
    6.4492   38.5499  -17.1481 H   0  0  0  0  0
    5.5827   43.8275  -19.9748 H   0  0  0  0  0
    3.3595   42.8907  -19.6702 H   0  0  0  0  0
    3.7485   45.3051  -19.9395 H   0  0  0  0  0
    3.6634   45.1393  -21.7105 H   0  0  0  0  0
    2.2135   44.8486  -20.7183 H   0  0  0  0  0
    3.2482   42.7191  -22.6763 H   0  0  0  0  0
    3.1541   41.3748  -21.5123 H   0  0  0  0  0
    1.8576   42.5941  -21.5711 H   0  0  0  0  0
    6.9205   40.3897  -21.4946 H   0  0  0  0  0
    5.3368   40.1901  -21.9975 H   0  0  0  0  0
    5.4344   45.9826  -24.6155 H   0  0  0  0  0
    7.2064   46.4209  -28.4488 H   0  0  0  0  0
    8.0046   42.9297  -26.1104 H   0  0  0  0  0
   10.6580   44.6530  -29.3986 H   0  0  0  0  0
    9.8682   46.0107  -28.5596 H   0  0  0  0  0
   10.5983   44.6864  -27.6192 H   0  0  0  0  0
 23  1  4  0  0  0
  1 24  4  0  0  0
  2  3  4  0  0  0
 20  2  4  0  0  0
  3 18  1  0  0  0
 19  3  4  0  0  0
  4  7  4  0  0  0
  4 12  4  0  0  0
 13  4  1  0  0  0
 11  5  1  0  0  0
  7  6  1  0  0  0
  7  8  4  0  0  0
  8  9  4  0  0  0
 10  9  4  0  0  0
 10 11  1  0  0  0
 12 10  4  0  0  0
 14 13  1  0  0  0
 18 13  1  0  0  0
 14 15  1  0  0  0
 19 14  1  0  0  0
 15 16  1  0  0  0
 15 17  1  0  0  0
 21 19  4  0  0  0
 20 21  4  0  0  0
 22 20  1  0  0  0
 22 23  4  0  0  0
 22 26  4  0  0  0
 24 25  4  0  0  0
 25 26  4  0  0  0
 25 27  1  0  0  0
 27 28  2  0  0  0
 27 29  2  0  0  0
 27 30  1  0  0  0
  1 31  1  0  0  0
  2 32  1  0  0  0
  5 33  1  0  0  0
  5 34  1  0  0  0
  5 35  1  0  0  0
  8 36  1  0  0  0
 14 37  1  0  0  0
 15 38  1  0  0  0
 16 39  1  0  0  0
 16 40  1  0  0  0
 16 41  1  0  0  0
 17 42  1  0  0  0
 17 43  1  0  0  0
 17 44  1  0  0  0
 18 45  1  0  0  0
 18 46  1  0  0  0
 23 47  1  0  0  0
 24 48  1  0  0  0
 26 49  1  0  0  0
 30 50  1  0  0  0
 30 51  1  0  0  0
 30 52  1  0  0  0
M  END
$$$$
