3ppj_ligand
  -I-interpret- 

 40 43  0  0  0  0  0  0  0  0999 V2000
   80.7940   10.7900   -8.1510 C   0  0  0  0  0
   81.5050   11.8130   -8.6870 N   0  0  0  0  0
   82.8350   11.6500   -8.8860 C   0  0  0  0  0
   83.4480   10.4550   -8.5550 C   0  0  0  0  0
   82.7610    9.4550   -8.0230 C   0  0  0  0  0
   81.4090    9.5810   -7.8140 C   0  0  0  0  0
   83.7170    8.3820   -7.8090 C   0  0  0  0  0
   84.9270    8.8810   -8.2280 C   0  0  0  0  0
   84.7660   10.1680   -8.6970 O   0  0  0  0  0
   86.3230    8.3450   -8.2780 C   0  0  0  0  0
   87.2930    8.9610   -8.7150 O   0  0  0  0  0
   86.3890    7.0690   -7.7540 O   0  0  0  0  0
   87.6990    6.4910   -7.7540 C   0  0  0  0  0
   83.5280    7.1410   -7.2890 N   0  0  0  0  0
   82.3480    6.4100   -7.0230 C   0  0  0  0  0
   82.2530    5.6710   -5.8810 C   0  0  0  0  0
   81.1050    4.9620   -5.6370 C   0  0  0  0  0
   80.0750    5.0180   -6.5190 C   0  0  0  0  0
   80.1560    5.7100   -7.6170 C   0  0  0  0  0
   81.2780    6.4330   -7.9080 C   0  0  0  0  0
   78.9210    5.6260   -8.4490 C   0  0  0  0  0
   78.0180    4.6950   -7.6280 C   0  0  0  0  0
   78.8560    4.3540   -6.4190 C   0  0  0  0  0
   78.5340    3.5980   -5.4140 N   0  0  0  0  0
   77.2440    3.0770   -5.5790 O   0  0  0  0  0
   79.7245   10.9128   -7.9801 H   0  0  0  0  0
   83.4244   12.4637   -9.3086 H   0  0  0  0  0
   80.8299    8.7579   -7.3954 H   0  0  0  0  0
   88.0688    6.4322   -8.7777 H   0  0  0  0  0
   88.3688    7.1123   -7.1595 H   0  0  0  0  0
   87.6531    5.4901   -7.3249 H   0  0  0  0  0
   84.3894    6.6506   -7.0482 H   0  0  0  0  0
   83.0795    5.6442   -5.1708 H   0  0  0  0  0
   81.0198    4.3544   -4.7361 H   0  0  0  0  0
   81.3328    7.0211   -8.8241 H   0  0  0  0  0
   79.1125    5.2517   -9.4547 H   0  0  0  0  0
   78.4682    6.6000   -8.6344 H   0  0  0  0  0
   77.7172    3.8093   -8.1875 H   0  0  0  0  0
   77.0727    5.1658   -7.3582 H   0  0  0  0  0
   77.0256    2.5220   -4.8267 H   0  0  0  0  0
  1  2  4  0  0  0
  1  6  4  0  0  0
  2  3  4  0  0  0
  3  4  4  0  0  0
  4  5  4  0  0  0
  4  9  4  0  0  0
  5  6  4  0  0  0
  5  7  4  0  0  0
  7  8  4  0  0  0
  7 14  1  0  0  0
  8  9  4  0  0  0
  8 10  1  0  0  0
 10 11  2  0  0  0
 10 12  1  0  0  0
 12 13  1  0  0  0
 14 15  1  0  0  0
 15 16  4  0  0  0
 15 20  4  0  0  0
 16 17  4  0  0  0
 17 18  4  0  0  0
 18 19  4  0  0  0
 18 23  1  0  0  0
 19 20  4  0  0  0
 19 21  1  0  0  0
 21 22  1  0  0  0
 22 23  1  0  0  0
 23 24  2  0  0  0
 24 25  1  0  0  0
  1 26  1  0  0  0
  3 27  1  0  0  0
  6 28  1  0  0  0
 13 29  1  0  0  0
 13 30  1  0  0  0
 13 31  1  0  0  0
 14 32  1  0  0  0
 16 33  1  0  0  0
 17 34  1  0  0  0
 20 35  1  0  0  0
 21 36  1  0  0  0
 21 37  1  0  0  0
 22 38  1  0  0  0
 22 39  1  0  0  0
 25 40  1  0  0  0
M  END
$$$$
