5za1_ligand
  -I-interpret- 

 61 63  0  0  0  0  0  0  0  0999 V2000
  -14.0260   23.7430  -29.8280 C   0  0  0  0  0
  -15.4300   24.2490  -29.6370 C   0  0  0  0  0
  -17.8060   24.1030  -30.5690 C   0  0  0  0  0
  -18.4550   24.8570  -29.6500 C   0  0  0  0  0
  -23.0190   26.8960  -30.0390 O   0  0  0  0  0
  -22.3020   26.4210  -30.8950 C   0  0  0  0  0
  -21.6560   27.2300  -31.8950 N   0  0  0  0  0
  -21.7690   28.6440  -31.9530 C   0  0  0  0  0
  -20.6350   29.3600  -32.2860 C   0  0  0  0  0
  -20.6740   30.7230  -32.3660 C   0  0  0  0  0
  -21.8390   31.4060  -32.1270 C   0  0  0  0  0
  -22.9930   30.7130  -31.7920 C   0  0  0  0  0
  -22.9520   29.3260  -31.7130 C   0  0  0  0  0
  -22.0810   24.9090  -30.9500 C   0  0  0  0  0
  -22.7060   24.2350  -29.7110 C   0  0  0  0  0
  -22.7590   24.4440  -32.2390 C   0  0  0  0  0
  -20.5700   24.5970  -30.8880 C   0  0  0  0  0
  -19.8120   25.0840  -29.8300 C   0  0  0  0  0
  -19.9030   23.8420  -31.8210 C   0  0  0  0  0
  -18.5540   23.6080  -31.6510 C   0  0  0  0  0
  -16.4120   23.7460  -30.5480 N   0  0  0  0  0
  -15.6820   25.0470  -28.7470 O   0  0  0  0  0
  -13.3180   24.7880  -30.6220 C   0  0  0  0  0
  -12.4140   25.6230  -29.9240 C   0  0  0  0  0
  -11.7480   26.5820  -30.6230 C   0  0  0  0  0
  -13.5560   24.9350  -31.9880 C   0  0  0  0  0
  -12.8460   25.9220  -32.6620 C   0  0  0  0  0
  -11.9320   26.7500  -31.9980 C   0  0  0  0  0
  -11.0710   28.1120  -32.8020 S   0  0  0  0  0
  -11.1210   28.0360  -34.2230 O   0  0  0  0  0
   -9.6840   28.0840  -32.4560 O   0  0  0  0  0
  -11.5820   29.6690  -32.1670 C   0  0  0  0  0
  -13.0760   29.7960  -32.2070 C   0  0  0  0  0
  -14.0188   22.7826  -30.3434 H   0  0  0  0  0
  -13.5336   23.5730  -28.8706 H   0  0  0  0  0
  -17.9261   25.2739  -28.7929 H   0  0  0  0  0
  -21.0863   26.7622  -32.6000 H   0  0  0  0  0
  -19.7021   28.8330  -32.4864 H   0  0  0  0  0
  -19.7692   31.2739  -32.6226 H   0  0  0  0  0
  -21.8581   32.4934  -32.2003 H   0  0  0  0  0
  -23.9206   31.2497  -31.5931 H   0  0  0  0  0
  -23.8556   28.7709  -31.4608 H   0  0  0  0  0
  -23.7648   24.4881  -29.6566 H   0  0  0  0  0
  -22.5933   23.1538  -29.7915 H   0  0  0  0  0
  -22.2000   24.5885  -28.8126 H   0  0  0  0  0
  -22.6467   23.3643  -32.3380 H   0  0  0  0  0
  -23.8182   24.6986  -32.2031 H   0  0  0  0  0
  -22.2937   24.9387  -33.0916 H   0  0  0  0  0
  -20.3233   25.6917  -29.0834 H   0  0  0  0  0
  -20.4312   23.4338  -32.6827 H   0  0  0  0  0
  -18.0389   23.0047  -32.3986 H   0  0  0  0  0
  -16.0952   23.0732  -31.2461 H   0  0  0  0  0
  -12.2549   25.5011  -28.8526 H   0  0  0  0  0
  -11.0529   27.2361  -30.0966 H   0  0  0  0  0
  -14.2725   24.2993  -32.5083 H   0  0  0  0  0
  -13.0043   26.0546  -33.7323 H   0  0  0  0  0
  -11.1456   30.4585  -32.7788 H   0  0  0  0  0
  -11.2497   29.7529  -31.1323 H   0  0  0  0  0
  -13.4195   29.7062  -33.2375 H   0  0  0  0  0
  -13.5228   29.0059  -31.6035 H   0  0  0  0  0
  -13.3675   30.7679  -31.8089 H   0  0  0  0  0
  2  1  1  0  0  0
  1 23  1  0  0  0
 21  2  1  0  0  0
  2 22  2  0  0  0
  4  3  4  0  0  0
  3 20  4  0  0  0
  3 21  1  0  0  0
 18  4  4  0  0  0
  6  5  2  0  0  0
  6  7  1  0  0  0
 14  6  1  0  0  0
  7  8  1  0  0  0
  8  9  4  0  0  0
  8 13  4  0  0  0
  9 10  4  0  0  0
 10 11  4  0  0  0
 12 11  4  0  0  0
 13 12  4  0  0  0
 14 15  1  0  0  0
 14 16  1  0  0  0
 17 14  1  0  0  0
 17 18  4  0  0  0
 17 19  4  0  0  0
 19 20  4  0  0  0
 23 24  4  0  0  0
 23 26  4  0  0  0
 24 25  4  0  0  0
 25 28  4  0  0  0
 26 27  4  0  0  0
 27 28  4  0  0  0
 28 29  1  0  0  0
 29 30  2  0  0  0
 29 31  2  0  0  0
 29 32  1  0  0  0
 32 33  1  0  0  0
  1 34  1  0  0  0
  1 35  1  0  0  0
  4 36  1  0  0  0
  7 37  1  0  0  0
  9 38  1  0  0  0
 10 39  1  0  0  0
 11 40  1  0  0  0
 12 41  1  0  0  0
 13 42  1  0  0  0
 15 43  1  0  0  0
 15 44  1  0  0  0
 15 45  1  0  0  0
 16 46  1  0  0  0
 16 47  1  0  0  0
 16 48  1  0  0  0
 18 49  1  0  0  0
 19 50  1  0  0  0
 20 51  1  0  0  0
 21 52  1  0  0  0
 24 53  1  0  0  0
 25 54  1  0  0  0
 26 55  1  0  0  0
 27 56  1  0  0  0
 32 57  1  0  0  0
 32 58  1  0  0  0
 33 59  1  0  0  0
 33 60  1  0  0  0
 33 61  1  0  0  0
M  END
$$$$
