5fdr_ligand
  -I-interpret- 

 70 74  0  0  0  0  0  0  0  0999 V2000
   39.5660   -0.7550   20.0080 C   0  0  0  0  0
   37.2410   -0.1750   20.6150 N   0  0  0  0  0
   36.3030    0.7370   20.3480 C   0  0  0  0  0
   35.9880    2.6950   19.0170 C   0  0  0  0  0
   34.1880    1.8910   20.4050 C   0  0  0  0  0
   34.4410   -0.1850   21.7970 C   0  0  0  0  0
   34.1440   -1.5340   21.4530 C   0  0  0  0  0
   34.3650   -2.1780   20.0840 C   0  0  0  0  0
   34.1730    1.1960   23.9990 C   0  0  0  0  0
   39.1980    1.8700   18.2190 C   0  0  0  0  0
   40.8440   -7.6030   16.3110 O   0  0  0  0  0
   41.4090   -6.8630   17.1720 C   0  0  0  0  0
   40.6710   -5.6740   17.7950 C   0  0  0  0  0
   39.5800   -4.9630   17.2630 C   0  0  0  0  0
   39.2870   -3.9720   18.2590 C   0  0  0  0  0
   40.2400   -4.1850   19.2700 C   0  0  0  0  0
   40.3800   -3.2710   20.8240 S   0  0  0  0  0
   39.8740   -4.3050   22.0020 O   0  0  0  0  0
   39.2690   -2.0170   20.6590 N   0  0  0  0  0
   38.3370    0.1270   19.9530 C   0  0  0  0  0
   36.8160    1.6480   19.4470 C   0  0  0  0  0
   34.6760    2.8170   19.4970 C   0  0  0  0  0
   32.5250    2.0440   21.0130 Cl  0  0  0  0  0
   34.9960    0.8600   20.8360 C   0  0  0  0  0
   33.6630   -2.1340   22.5140 N   0  0  0  0  0
   33.6300   -1.2490   23.5180 N   0  0  0  0  0
   34.0740   -0.0660   23.1460 C   0  0  0  0  0
   38.1480    1.2470   19.1630 C   0  0  0  0  0
   40.0050    2.9560   18.9170 C   0  0  0  0  0
   39.1680    4.2180   18.9180 C   0  0  0  0  0
   38.6220    4.4110   17.6330 O   0  0  0  0  0
   38.0100    5.6870   17.5350 C   0  0  0  0  0
   37.8440    6.4280   18.6950 C   0  0  0  0  0
   37.2470    7.6700   18.6490 C   0  0  0  0  0
   37.0290    8.5160   19.9120 C   0  0  0  0  0
   37.5940    6.1880   16.3110 C   0  0  0  0  0
   37.0020    7.4360   16.2610 C   0  0  0  0  0
   36.5230    8.0360   14.9370 C   0  0  0  0  0
   36.8340    8.1660   17.4330 C   0  0  0  0  0
   36.0830    9.7720   17.4090 Cl  0  0  0  0  0
   40.6190   -0.4560   19.5160 O   0  0  0  0  0
   41.8880   -2.7280   21.1710 O   0  0  0  0  0
   41.0030   -5.1710   18.9490 O   0  0  0  0  0
   42.5770   -7.1150   17.5720 O   0  0  0  0  0
   36.3689    3.4230   18.3008 H   0  0  0  0  0
   33.7832   -1.6425   19.3338 H   0  0  0  0  0
   35.4233   -2.1295   19.8277 H   0  0  0  0  0
   34.0455   -3.2196   20.1180 H   0  0  0  0  0
   35.2121    1.5222   24.0437 H   0  0  0  0  0
   33.5628    1.9823   23.5545 H   0  0  0  0  0
   33.8145    0.9816   25.0058 H   0  0  0  0  0
   38.6774    2.3181   17.3727 H   0  0  0  0  0
   39.8824    1.0844   17.8989 H   0  0  0  0  0
   39.9653   -7.2635   16.1262 H   0  0  0  0  0
   39.0732   -5.1271   16.3121 H   0  0  0  0  0
   38.4987   -3.2196   18.2364 H   0  0  0  0  0
   38.3322   -2.1524   21.0390 H   0  0  0  0  0
   34.0429    3.6367   19.1573 H   0  0  0  0  0
   40.9471    3.1246   18.3954 H   0  0  0  0  0
   40.2431    2.6565   19.9376 H   0  0  0  0  0
   39.7921    5.0714   19.1829 H   0  0  0  0  0
   38.3637    4.1237   19.6475 H   0  0  0  0  0
   38.1873    6.0265   19.6485 H   0  0  0  0  0
   36.3972    7.9675   20.6106 H   0  0  0  0  0
   37.9918    8.7253   20.3782 H   0  0  0  0  0
   36.5438    9.4535   19.6405 H   0  0  0  0  0
   37.7320    5.6054   15.4002 H   0  0  0  0  0
   37.3686    8.1315   14.2558 H   0  0  0  0  0
   35.7705    7.3830   14.4948 H   0  0  0  0  0
   36.0899    9.0193   15.1207 H   0  0  0  0  0
  1 19  1  0  0  0
 20  1  1  0  0  0
  1 41  2  0  0  0
  2  3  4  0  0  0
 20  2  4  0  0  0
  3 21  4  0  0  0
  3 24  4  0  0  0
 21  4  4  0  0  0
  4 22  4  0  0  0
  5 22  4  0  0  0
  5 23  1  0  0  0
 24  5  4  0  0  0
  6  7  4  0  0  0
 24  6  1  0  0  0
  6 27  4  0  0  0
  7  8  1  0  0  0
  7 25  4  0  0  0
 27  9  1  0  0  0
 28 10  1  0  0  0
 10 29  1  0  0  0
 12 11  1  0  0  0
 13 12  1  0  0  0
 12 44  2  0  0  0
 13 14  4  0  0  0
 43 13  4  0  0  0
 15 14  4  0  0  0
 16 15  4  0  0  0
 17 16  1  0  0  0
 16 43  4  0  0  0
 17 18  2  0  0  0
 19 17  1  0  0  0
 17 42  2  0  0  0
 20 28  4  0  0  0
 21 28  4  0  0  0
 25 26  4  0  0  0
 26 27  4  0  0  0
 29 30  1  0  0  0
 30 31  1  0  0  0
 31 32  1  0  0  0
 32 33  4  0  0  0
 32 36  4  0  0  0
 33 34  4  0  0  0
 34 35  1  0  0  0
 34 39  4  0  0  0
 36 37  4  0  0  0
 37 38  1  0  0  0
 37 39  4  0  0  0
 39 40  1  0  0  0
  4 45  1  0  0  0
  8 46  1  0  0  0
  8 47  1  0  0  0
  8 48  1  0  0  0
  9 49  1  0  0  0
  9 50  1  0  0  0
  9 51  1  0  0  0
 10 52  1  0  0  0
 10 53  1  0  0  0
 11 54  1  0  0  0
 14 55  1  0  0  0
 15 56  1  0  0  0
 19 57  1  0  0  0
 22 58  1  0  0  0
 29 59  1  0  0  0
 29 60  1  0  0  0
 30 61  1  0  0  0
 30 62  1  0  0  0
 33 63  1  0  0  0
 35 64  1  0  0  0
 35 65  1  0  0  0
 35 66  1  0  0  0
 36 67  1  0  0  0
 38 68  1  0  0  0
 38 69  1  0  0  0
 38 70  1  0  0  0
M  END
$$$$
