6qgj_ligand
  -I-interpret- 

120127  0  0  0  0  0  0  0  0999 V2000
    3.4730   -7.0040   -1.7630 C   0  0  0  0  0
    4.3060   -7.0810   -3.0320 C   0  0  0  0  0
    4.8460   -5.7730   -3.5140 O   0  0  0  0  0
    5.2630   -4.8050   -2.4980 C   0  0  0  0  0
    4.3790   -4.7360   -1.2210 C   0  0  0  0  0
    4.0080   -6.0820   -0.7360 N   0  3  0  0  0
    2.9760   -6.0080    0.3150 C   0  0  0  0  0
    3.6850   -5.7100    1.6520 C   0  0  0  0  0
    2.9950   -6.2950    2.9020 C   0  0  0  0  0
    1.6670   -5.6200    3.3030 C   0  0  0  0  0
    2.0540   -3.8650    3.6210 S   0  0  0  0  0
    2.0410   -3.8070    5.4400 C   0  0  0  0  0
    2.9940   -3.0110    6.0870 C   0  0  0  0  0
    3.0910   -2.8800    7.4750 C   0  0  0  0  0
    2.2180   -3.5490    8.3230 C   0  0  0  0  0
    1.2550   -4.3430    7.6960 C   0  0  0  0  0
    1.1700   -4.4710    6.3050 C   0  0  0  0  0
    3.9000   -6.1700    4.0540 N   0  0  0  0  0
    3.5330   -6.8330    5.2260 C   0  0  0  0  0
    4.3810   -6.6940    6.3110 C   0  0  0  0  0
    4.0980   -7.3190    7.5080 C   0  0  0  0  0
    5.8250   -5.7280    6.1890 S   0  0  0  0  0
    5.5350   -4.5670    5.3270 O   0  0  0  0  0
    6.2820   -5.4620    7.5940 O   0  0  0  0  0
    7.0380   -6.8360    5.3830 C   0  0  0  0  0
    6.3330   -7.4010    4.4050 F   0  0  0  0  0
    7.4220   -7.7820    6.2500 F   0  0  0  0  0
    8.1550   -6.2330    4.9670 F   0  0  0  0  0
    2.3700   -7.6100    5.3260 C   0  0  0  0  0
    2.0520   -8.2570    6.5180 C   0  0  0  0  0
    2.9380   -8.0850    7.5790 C   0  0  0  0  0
    2.6850   -8.8210    9.1100 S   0  0  0  0  0
    4.0270   -9.2500    9.5960 O   0  0  0  0  0
    1.9410  -10.1150    8.8880 O   0  0  0  0  0
    2.0660   -7.8490   10.1430 N   0  0  0  0  0
    0.8280   -7.4640    9.9250 C   0  0  0  0  0
    0.3170   -7.8630    8.8950 O   0  0  0  0  0
    0.2830   -6.4200   10.8800 C   0  0  0  0  0
    0.9840   -6.0790   12.0280 C   0  0  0  0  0
    0.5040   -5.1220   12.9160 C   0  0  0  0  0
   -0.9240   -5.7670   10.6390 C   0  0  0  0  0
   -1.4170   -4.8120   11.5200 C   0  0  0  0  0
   -0.7000   -4.4820   12.6730 C   0  0  0  0  0
   -1.1630   -3.4660   13.6500 C   0  0  0  0  0
   -2.1190   -2.5500   13.2380 C   0  0  0  0  0
   -2.5800   -1.5730   14.1140 C   0  0  0  0  0
   -0.7000   -3.3540   14.9570 C   0  0  0  0  0
   -1.1500   -2.3860   15.8510 C   0  0  0  0  0
   -2.1100   -1.4840   15.4170 C   0  0  0  0  0
   -2.6650   -0.3790   16.3170 C   0  0  0  0  0
   -3.3840   -0.7770   17.5930 C   0  0  0  0  0
   -4.8060   -0.5890   17.2980 N   0  3  0  0  0
   -5.2050    0.6820   17.9170 C   0  0  0  0  0
   -5.6410    0.2420   19.3180 C   0  0  0  0  0
   -5.3660   -1.2690   19.3660 C   0  0  0  0  0
   -5.5510   -1.6940   17.9110 C   0  0  0  0  0
   -1.4870    0.5780   16.5020 C   0  0  0  0  0
   -1.4330    1.5430   15.5020 C   0  0  0  0  0
   -0.4090    2.4780   15.5500 C   0  0  0  0  0
   -0.1270    3.5370   14.6850 O   0  0  0  0  0
    1.3080    3.7620   14.9120 C   0  0  0  0  0
    1.4060    3.4760   16.3540 O   0  0  0  0  0
    0.5250    2.4280   16.5790 C   0  0  0  0  0
    0.5010    1.4770   17.5890 C   0  0  0  0  0
   -0.5360    0.5470   17.5300 C   0  0  0  0  0
   -0.5910   -0.4000   18.5080 O   0  0  0  0  0
   -0.3730    0.0060   19.8810 C   0  0  0  0  0
    3.4650   -8.0018   -1.3243 H   0  0  0  0  0
    2.4896   -6.6299   -2.0479 H   0  0  0  0  0
    3.6501   -7.4588   -3.8164 H   0  0  0  0  0
    5.1655   -7.7122   -2.8062 H   0  0  0  0  0
    5.2017   -3.8229   -2.9668 H   0  0  0  0  0
    6.2546   -5.1148   -2.1681 H   0  0  0  0  0
    3.4643   -4.1964   -1.4666 H   0  0  0  0  0
    4.9475   -4.2346   -0.4378 H   0  0  0  0  0
    4.8959   -6.4524   -0.3970 H   0  0  0  0  0
    2.4312   -6.9500    0.3774 H   0  0  0  0  0
    2.2570   -5.2219    0.0846 H   0  0  0  0  0
    3.6868   -4.6266    1.7721 H   0  0  0  0  0
    4.6717   -6.1695    1.5937 H   0  0  0  0  0
    2.7641   -7.3263    2.6351 H   0  0  0  0  0
    1.2405   -6.0924    4.1879 H   0  0  0  0  0
    0.9241   -5.7189    2.5115 H   0  0  0  0  0
    3.7038   -2.4597    5.4703 H   0  0  0  0  0
    3.8656   -2.2414    7.8996 H   0  0  0  0  0
    2.2803   -3.4602    9.4076 H   0  0  0  0  0
    0.5405   -4.8851    8.3154 H   0  0  0  0  0
    0.3963   -5.1119    5.8823 H   0  0  0  0  0
    4.7588   -5.6225    3.9990 H   0  0  0  0  0
    4.7597   -7.2165    8.3681 H   0  0  0  0  0
    1.7097   -7.7085    4.4644 H   0  0  0  0  0
    1.1544   -8.8676    6.6156 H   0  0  0  0  0
    2.5928   -7.5230   10.9533 H   0  0  0  0  0
    1.9327   -6.5725   12.2388 H   0  0  0  0  0
    1.0788   -4.8743   13.8084 H   0  0  0  0  0
   -1.4929   -6.0101    9.7416 H   0  0  0  0  0
   -2.3662   -4.3187   11.3109 H   0  0  0  0  0
   -2.5113   -2.5959   12.2221 H   0  0  0  0  0
   -3.3286   -0.8598   13.7689 H   0  0  0  0  0
    0.0551   -4.0616   15.2994 H   0  0  0  0  0
   -0.7575   -2.3383   16.8668 H   0  0  0  0  0
   -3.5224    0.0874   15.8318 H   0  0  0  0  0
   -3.0637   -0.1746   18.4431 H   0  0  0  0  0
   -3.1622   -1.8052   17.8789 H   0  0  0  0  0
   -4.9906   -0.5732   16.2950 H   0  0  0  0  0
   -5.9912    1.1984   17.3662 H   0  0  0  0  0
   -4.4046    1.4218   17.9302 H   0  0  0  0  0
   -6.6915    0.4668   19.5026 H   0  0  0  0  0
   -5.0958    0.7760   20.0963 H   0  0  0  0  0
   -6.0289   -1.7990   20.0500 H   0  0  0  0  0
   -4.3760   -1.5075   19.7547 H   0  0  0  0  0
   -5.2058   -2.6972   17.6608 H   0  0  0  0  0
   -6.5818   -1.8153   17.5781 H   0  0  0  0  0
   -2.1742    1.5642   14.7031 H   0  0  0  0  0
    1.6501    4.7587   14.6333 H   0  0  0  0  0
    1.9573    3.1437   14.2922 H   0  0  0  0  0
    1.2488    1.4581   18.3818 H   0  0  0  0  0
    0.6202    0.4450   19.9754 H   0  0  0  0  0
   -1.1254    0.7419   20.1648 H   0  0  0  0  0
   -0.4504   -0.8644   20.5326 H   0  0  0  0  0
  1  2  1  0  0  0
  1  6  1  0  0  0
  2  3  1  0  0  0
  3  4  1  0  0  0
  4  5  1  0  0  0
  5  6  1  0  0  0
  6  7  1  0  0  0
  7  8  1  0  0  0
  8  9  1  0  0  0
  9 10  1  0  0  0
  9 18  1  0  0  0
 10 11  1  0  0  0
 11 12  1  0  0  0
 12 13  4  0  0  0
 12 17  4  0  0  0
 13 14  4  0  0  0
 14 15  4  0  0  0
 15 16  4  0  0  0
 16 17  4  0  0  0
 18 19  1  0  0  0
 19 20  4  0  0  0
 19 29  4  0  0  0
 20 21  4  0  0  0
 20 22  1  0  0  0
 21 31  4  0  0  0
 22 23  2  0  0  0
 22 24  2  0  0  0
 22 25  1  0  0  0
 25 26  1  0  0  0
 25 27  1  0  0  0
 25 28  1  0  0  0
 29 30  4  0  0  0
 30 31  4  0  0  0
 31 32  1  0  0  0
 32 33  2  0  0  0
 32 34  2  0  0  0
 32 35  1  0  0  0
 35 36  1  0  0  0
 36 37  2  0  0  0
 36 38  1  0  0  0
 38 39  4  0  0  0
 38 41  4  0  0  0
 39 40  4  0  0  0
 40 43  4  0  0  0
 41 42  4  0  0  0
 42 43  4  0  0  0
 43 44  1  0  0  0
 44 45  4  0  0  0
 44 47  4  0  0  0
 45 46  4  0  0  0
 46 49  4  0  0  0
 47 48  4  0  0  0
 48 49  4  0  0  0
 49 50  1  0  0  0
 50 51  1  0  0  0
 50 57  1  0  0  0
 51 52  1  0  0  0
 52 53  1  0  0  0
 52 56  1  0  0  0
 53 54  1  0  0  0
 54 55  1  0  0  0
 55 56  1  0  0  0
 57 58  4  0  0  0
 57 65  4  0  0  0
 58 59  4  0  0  0
 59 60  1  0  0  0
 59 63  4  0  0  0
 60 61  1  0  0  0
 61 62  1  0  0  0
 62 63  1  0  0  0
 63 64  4  0  0  0
 64 65  4  0  0  0
 65 66  1  0  0  0
 66 67  1  0  0  0
  1 68  1  0  0  0
  1 69  1  0  0  0
  2 70  1  0  0  0
  2 71  1  0  0  0
  4 72  1  0  0  0
  4 73  1  0  0  0
  5 74  1  0  0  0
  5 75  1  0  0  0
  6 76  1  0  0  0
  7 77  1  0  0  0
  7 78  1  0  0  0
  8 79  1  0  0  0
  8 80  1  0  0  0
  9 81  1  0  0  0
 10 82  1  0  0  0
 10 83  1  0  0  0
 13 84  1  0  0  0
 14 85  1  0  0  0
 15 86  1  0  0  0
 16 87  1  0  0  0
 17 88  1  0  0  0
 18 89  1  0  0  0
 21 90  1  0  0  0
 29 91  1  0  0  0
 30 92  1  0  0  0
 35 93  1  0  0  0
 39 94  1  0  0  0
 40 95  1  0  0  0
 41 96  1  0  0  0
 42 97  1  0  0  0
 45 98  1  0  0  0
 46 99  1  0  0  0
 47100  1  0  0  0
 48101  1  0  0  0
 50102  1  0  0  0
 51103  1  0  0  0
 51104  1  0  0  0
 52105  1  0  0  0
 53106  1  0  0  0
 53107  1  0  0  0
 54108  1  0  0  0
 54109  1  0  0  0
 55110  1  0  0  0
 55111  1  0  0  0
 56112  1  0  0  0
 56113  1  0  0  0
 58114  1  0  0  0
 61115  1  0  0  0
 61116  1  0  0  0
 64117  1  0  0  0
 67118  1  0  0  0
 67119  1  0  0  0
 67120  1  0  0  0
M  END
$$$$
