### 
### Created by X-TOOL on Mon Sep 10 21:13:27 2018
### 

@<TRIPOS>MOLECULE
5ih2_ligand
  194   196     1     0     0
SMALL
GAST_HUCK


@<TRIPOS>ATOM
      1 C         -21.6640  -13.7640  -12.8800 C.2       1 ACE         0.1752
      2 O         -20.7850  -14.3800  -12.3830 O.2       1 ACE        -0.3972
      3 CH3       -21.3110  -12.9460  -14.0810 C.3       1 ACE         0.0258
      4 N         -23.0720  -13.8100  -12.4910 N.am      1 TYR        -0.2643
      5 CA        -24.1850  -13.2080  -13.2600 C.3       1 TYR         0.1389
      6 C         -24.6630  -11.8190  -12.7860 C.2       1 TYR         0.2057
      7 O         -24.6630  -10.8850  -13.5880 O.2       1 TYR        -0.3942
      8 CB        -25.3790  -14.1760  -13.3020 C.3       1 TYR         0.0163
      9 CG        -26.5850  -13.5980  -14.0240 C.ar      1 TYR        -0.0493
     10 CD1       -26.5980  -13.4420  -15.4290 C.ar      1 TYR        -0.0685
     11 CD2       -27.7180  -13.1940  -13.3080 C.ar      1 TYR        -0.0685
     12 CE1       -27.7100  -12.8970  -16.0780 C.ar      1 TYR        -0.0398
     13 CE2       -28.8310  -12.6640  -13.9510 C.ar      1 TYR        -0.0398
     14 CZ        -28.8270  -12.5170  -15.3250 C.ar      1 TYR         0.0805
     15 OH        -29.9530  -11.9770  -15.9060 O.3       1 TYR        -0.3376
     16 N         -25.1270  -11.6630  -11.5340 N.am      1 GLU        -0.2635
     17 CA        -25.5060  -10.2910  -11.0930 C.3       1 GLU         0.1325
     18 C         -24.3080   -9.5060  -10.5590 C.2       1 GLU         0.2040
     19 O         -23.4940   -9.9700   -9.7420 O.2       1 GLU        -0.3944
     20 CB        -26.7500  -10.1370  -10.1770 C.3       1 GLU        -0.0008
     21 CG        -27.0480  -11.1890   -9.1200 C.3       1 GLU         0.0044
     22 CD        -28.3190  -10.8370   -8.3330 C.2       1 GLU         0.0350
     23 OE1       -29.3740  -11.4840   -8.4900 O.co2     1 GLU        -0.5690
     24 OE2       -28.2700   -9.8680   -7.5790 O.co2     1 GLU        -0.5690
     25 N         -24.2640   -8.2780  -11.0250 N.am      1 LYS        -0.2637
     26 CA        -23.1520   -7.3950  -10.8370 C.3       1 LYS         0.1312
     27 C         -23.2090   -6.9120   -9.3890 C.2       1 LYS         0.2064
     28 O         -24.2890   -6.5580   -8.9290 O.2       1 LYS        -0.3942
     29 CB        -23.3780   -6.2570  -11.8280 C.3       1 LYS        -0.0122
     30 CG        -22.1510   -5.5940  -12.2990 C.3       1 LYS        -0.0440
     31 CD        -22.3370   -5.0080  -13.6840 C.3       1 LYS        -0.0124
     32 CE        -21.1960   -4.0700  -13.9030 C.3       1 LYS        -0.0354
     33 NZ        -21.0990   -3.5730  -15.2600 N.4       1 LYS         0.2185
     34 N         -22.0790   -6.9170   -8.6480 N.am      1 PRO        -0.2498
     35 CA        -22.0470   -6.3580   -7.3240 C.3       1 PRO         0.1338
     36 C         -22.3680   -4.9050   -7.3380 C.2       1 PRO         0.2041
     37 O         -22.3100   -4.2380   -8.3960 O.2       1 PRO        -0.3944
     38 CB        -20.5810   -6.5030   -6.9140 C.3       1 PRO        -0.0104
     39 CG        -20.1110   -7.6100   -7.6850 C.3       1 PRO        -0.0281
     40 CD        -20.7540   -7.4680   -9.0140 C.3       1 PRO         0.0369
     41 N         -22.6710   -4.4040   -6.1530 N.am      1 ALA        -0.2640
     42 CA        -22.9050   -2.9720   -5.9700 C.3       1 ALA         0.1282
     43 C         -21.6050   -2.2340   -6.3140 C.2       1 ALA         0.2036
     44 O         -20.5320   -2.6890   -5.9410 O.2       1 ALA        -0.3944
     45 CB        -23.2820   -2.6970   -4.5280 C.3       1 ALA        -0.0244
     46 N         -21.7140   -1.1350   -7.0420 N.am      1 LEU        -0.2637
     47 CA        -20.5770   -0.2860   -7.2990 C.3       1 LEU         0.1314
     48 C         -20.2400    0.4420   -5.9870 C.2       1 LEU         0.2064
     49 O         -21.1090    1.1370   -5.4230 O.2       1 LEU        -0.3942
     50 CB        -20.9610    0.6870   -8.3870 C.3       1 LEU        -0.0101
     51 CG        -19.8220    1.4580   -9.0240 C.3       1 LEU        -0.0425
     52 CD1       -18.7390    0.5670   -9.6840 C.3       1 LEU        -0.0625
     53 CD2       -20.3920    2.4510  -10.0310 C.3       1 LEU        -0.0625
     54 N         -19.0420    0.2560   -5.4320 N.am      1 PRO        -0.2498
     55 CA        -18.8320    0.6730   -4.0530 C.3       1 PRO         0.1338
     56 C         -18.6420    2.1650   -3.8610 C.2       1 PRO         0.2041
     57 O         -18.1700    2.8740   -4.7430 O.2       1 PRO        -0.3944
     58 CB        -17.5730   -0.0930   -3.6250 C.3       1 PRO        -0.0104
     59 CG        -16.8750   -0.3040   -4.8810 C.3       1 PRO        -0.0281
     60 CD        -17.9190   -0.5400   -5.9310 C.3       1 PRO         0.0369
     61 N         -18.9940    2.6540   -2.6670 N.am      1 ARG        -0.2637
     62 CA        -18.8410    4.0490   -2.3530 C.3       1 ARG         0.1311
     63 C         -17.3750    4.4330   -2.3160 C.2       1 ARG         0.2039
     64 O         -16.5180    3.6500   -1.8520 O.2       1 ARG        -0.3944
     65 CB        -19.4610    4.3600   -0.9850 C.3       1 ARG        -0.0092
     66 CG        -20.9740    4.2810   -1.0710 C.3       1 ARG        -0.0156
     67 CD        -21.5980    5.5360   -1.6800 C.3       1 ARG         0.0627
     68 NE        -23.0300    5.3580   -1.7830 N.pl3     1 ARG        -0.2723
     69 CZ        -23.9280    5.6310   -0.8190 C.cat     1 ARG         0.2882
     70 NH1       -23.5960    6.1740    0.3440 N.pl3     1 ARG        -0.2849
     71 NH2       -25.2020    5.3550   -1.0350 N.pl3     1 ARG        -0.2849
     72 N         -17.1090    5.6210   -2.8120 N.am      1 LYS        -0.2637
     73 CA        -15.7840    6.2180   -2.6710 C.3       1 LYS         0.1310
     74 C         -15.6720    6.9950   -1.3700 C.2       1 LYS         0.2039
     75 O         -16.6670    7.4510   -0.7910 O.2       1 LYS        -0.3944
     76 CB        -15.5480    7.1260   -3.8890 C.3       1 LYS        -0.0122
     77 CG        -15.2610    6.3120   -5.1240 C.3       1 LYS        -0.0440
     78 CD        -14.8160    7.1880   -6.2540 C.3       1 LYS        -0.0124
     79 CE        -14.3900    6.3370   -7.4470 C.3       1 LYS        -0.0354
     80 NZ        -13.9110    7.2460   -8.5480 N.4       1 LYS         0.2185
     81 N         -14.4480    7.2100   -0.9080 N.am      1 ARG        -0.2637
     82 CA        -14.2700    8.0420    0.3110 C.3       1 ARG         0.1307
     83 C         -14.9480    9.4330    0.1920 C.2       1 ARG         0.1992
     84 O         -15.5220   10.0400    1.1890 O.2       1 ARG        -0.3947
     85 CB        -12.7790    8.1360    0.6430 C.3       1 ARG        -0.0092
     86 CG        -12.3610    9.3090    1.5330 C.3       1 ARG        -0.0156
     87 CD        -10.9190    9.0770    2.0270 C.3       1 ARG         0.0627
     88 NE         -9.9630    8.9020    0.9120 N.pl3     1 ARG        -0.2723
     89 CZ         -9.3140    9.8730    0.2850 C.cat     1 ARG         0.2882
     90 NH1        -9.4770   11.1440    0.6430 N.pl3     1 ARG        -0.2849
     91 NH2        -8.4860    9.5740   -0.7380 N.pl3     1 ARG        -0.2849
     92 N         -14.7200   10.1560   -1.0910 N.am      1 NH2        -0.2990
     93 H1        -22.2083  -12.4251  -14.4465 H         1 ACE         0.0467
     94 H2        -20.9217  -13.6044  -14.8716 H         1 ACE         0.0467
     95 H3        -20.5434  -12.2067  -13.8085 H         1 ACE         0.0467
     96 H4        -23.3012  -14.2841  -11.6409 H         1 TYR         0.1884
     97 H5        -23.8198  -13.0799  -14.2897 H         1 TYR         0.0821
     98 H6        -25.6711  -14.4179  -12.2694 H         1 TYR         0.0453
     99 H7        -25.0675  -15.0951  -13.8198 H         1 TYR         0.0453
    100 H8        -25.7357  -13.7485  -16.0100 H         1 TYR         0.0530
    101 H9        -27.7278  -13.2966  -12.2289 H         1 TYR         0.0530
    102 H10       -27.7071  -12.7699  -17.1545 H         1 TYR         0.0525
    103 H11       -29.7002  -12.3667  -13.3756 H         1 TYR         0.0525
    104 H12       -30.1003  -11.1052  -15.5584 H         1 TYR         0.2458
    105 H13       -25.2152  -12.4448  -10.9167 H         1 GLU         0.1883
    106 H14       -25.7942   -9.7815  -12.0243 H         1 GLU         0.0801
    107 H15       -27.6281  -10.0927  -10.8380 H         1 GLU         0.0330
    108 H16       -26.6396   -9.1783   -9.6492 H         1 GLU         0.0330
    109 H17       -26.1990  -11.2488   -8.4232 H         1 GLU         0.0433
    110 H18       -27.1881  -12.1629   -9.6118 H         1 GLU         0.0433
    111 H19       -25.0519   -7.9408  -11.5403 H         1 LYS         0.1883
    112 H20       -22.1940   -7.8981  -11.0347 H         1 LYS         0.0800
    113 H21       -24.0103   -5.5000  -11.3410 H         1 LYS         0.0312
    114 H22       -23.9036   -6.6655  -12.7037 H         1 LYS         0.0312
    115 H23       -21.3347   -6.3307  -12.3287 H         1 LYS         0.0269
    116 H24       -21.8901   -4.7855  -11.6003 H         1 LYS         0.0269
    117 H25       -23.2919   -4.4651  -13.7421 H         1 LYS         0.0317
    118 H26       -22.3228   -5.8069  -14.4400 H         1 LYS         0.0317
    119 H27       -20.2619   -4.5975  -13.6595 H         1 LYS         0.0813
    120 H28       -21.3189   -3.2109  -13.2272 H         1 LYS         0.0813
    121 H29       -20.3107   -2.9491  -15.3338 H         1 LYS         0.1994
    122 H30       -21.9436   -3.0766  -15.4972 H         1 LYS         0.1994
    123 H31       -20.9751   -4.3473  -15.8934 H         1 LYS         0.1994
    124 H32       -22.7239   -6.8967   -6.6446 H         1 PRO         0.0802
    125 H33       -20.4955   -6.7127   -5.8376 H         1 PRO         0.0313
    126 H34       -20.0159   -5.5908   -7.1559 H         1 PRO         0.0313
    127 H35       -20.4063   -8.5594   -7.2145 H         1 PRO         0.0287
    128 H36       -19.0159   -7.5738   -7.7819 H         1 PRO         0.0287
    129 H37       -20.1947   -6.7735   -9.6580 H         1 PRO         0.0524
    130 H38       -20.8496   -8.4404   -9.5193 H         1 PRO         0.0524
    131 H39       -22.7417   -5.0165   -5.3657 H         1 ALA         0.1883
    132 H40       -23.7149   -2.6357   -6.6340 H         1 ALA         0.0797
    133 H41       -23.4572   -1.6193   -4.3940 H         1 ALA         0.0277
    134 H42       -22.4643   -3.0205   -3.8671 H         1 ALA         0.0277
    135 H43       -24.1981   -3.2515   -4.2763 H         1 ALA         0.0277
    136 H44       -22.6049   -0.8873   -7.4227 H         1 LEU         0.1883
    137 H45       -19.7141   -0.8853   -7.6250 H         1 LEU         0.0800
    138 H46       -21.6602    1.4172   -7.9535 H         1 LEU         0.0315
    139 H47       -21.4687    0.1200   -9.1812 H         1 LEU         0.0315
    140 H48       -19.3261    2.0294   -8.2255 H         1 LEU         0.0298
    141 H49       -17.9550    1.2043  -10.1189 H         1 LEU         0.0232
    142 H50       -19.1982   -0.0418  -10.4767 H         1 LEU         0.0232
    143 H51       -18.2951   -0.0937   -8.9248 H         1 LEU         0.0232
    144 H52       -21.1571    3.0714   -9.5413 H         1 LEU         0.0232
    145 H53       -20.8461    1.9029  -10.8697 H         1 LEU         0.0232
    146 H54       -19.5841    3.0951  -10.4084 H         1 LEU         0.0232
    147 H55       -19.6921    0.3590   -3.4434 H         1 PRO         0.0802
    148 H56       -17.8349   -1.0513   -3.1527 H         1 PRO         0.0313
    149 H57       -16.9642    0.5041   -2.9301 H         1 PRO         0.0313
    150 H58       -16.2138   -1.1796   -4.8028 H         1 PRO         0.0287
    151 H59       -16.2784    0.5845   -5.1351 H         1 PRO         0.0287
    152 H60       -17.5828   -0.1828   -6.9155 H         1 PRO         0.0524
    153 H61       -18.1837   -1.6055   -5.9983 H         1 PRO         0.0524
    154 H62       -19.3718    2.0361   -1.9775 H         1 ARG         0.1883
    155 H63       -19.3506    4.6439   -3.1252 H         1 ARG         0.0800
    156 H64       -19.1663    5.3729   -0.6732 H         1 ARG         0.0313
    157 H65       -19.0995    3.6293   -0.2466 H         1 ARG         0.0313
    158 H66       -21.3772    4.1446   -0.0567 H         1 ARG         0.0301
    159 H67       -21.2461    3.4157   -1.6932 H         1 ARG         0.0301
    160 H68       -21.1763    5.7068   -2.6815 H         1 ARG         0.0689
    161 H69       -21.3810    6.4025   -1.0381 H         1 ARG         0.0689
    162 H70       -23.3944    4.9896   -2.6732 H         1 ARG         0.2642
    163 H71       -24.3218    6.3635    1.0498 H         1 ARG         0.2615
    164 H72       -22.6122    6.4063    0.5418 H         1 ARG         0.2615
    165 H73       -25.4932    4.9327   -1.9282 H         1 ARG         0.2615
    166 H74       -25.9039    5.5621   -0.3102 H         1 ARG         0.2615
    167 H75       -17.8262    6.1243   -3.2940 H         1 LYS         0.1883
    168 H76       -15.0271    5.4198   -2.6656 H         1 LYS         0.0800
    169 H77       -14.6908    7.7847   -3.6856 H         1 LYS         0.0312
    170 H78       -16.4466    7.7364   -4.0618 H         1 LYS         0.0312
    171 H79       -16.1746    5.7769   -5.4223 H         1 LYS         0.0269
    172 H80       -14.4671    5.5847   -4.8988 H         1 LYS         0.0269
    173 H81       -13.9651    7.8021   -5.9239 H         1 LYS         0.0317
    174 H82       -15.6468    7.8435   -6.5540 H         1 LYS         0.0317
    175 H83       -15.2462    5.7452   -7.8030 H         1 LYS         0.0813
    176 H84       -13.5763    5.6606   -7.1464 H         1 LYS         0.0813
    177 H85       -13.6272    6.6924   -9.3411 H         1 LYS         0.1994
    178 H86       -13.1275    7.7882   -8.2191 H         1 LYS         0.1994
    179 H87       -14.6577    7.8657   -8.8208 H         1 LYS         0.1994
    180 H88       -13.6548    6.8175   -1.3736 H         1 ARG         0.1883
    181 H89       -14.7620    7.5184    1.1439 H         1 ARG         0.0800
    182 H90       -12.2280    8.2204   -0.3053 H         1 ARG         0.0313
    183 H91       -12.4890    7.2061    1.1541 H         1 ARG         0.0313
    184 H92       -13.0397    9.3771    2.3960 H         1 ARG         0.0301
    185 H93       -12.4068   10.2442    0.9558 H         1 ARG         0.0301
    186 H94       -10.9011    8.1727    2.6530 H         1 ARG         0.0689
    187 H95       -10.6071    9.9446    2.6270 H         1 ARG         0.0689
    188 H96        -9.7855    7.9385    0.5940 H         1 ARG         0.2642
    189 H97        -8.9663   11.8883    0.1470 H         1 ARG         0.2615
    190 H98       -10.1139   11.3836    1.4162 H         1 ARG         0.2615
    191 H99        -8.3529    8.5932   -1.0230 H         1 ARG         0.2615
    192 H100       -7.9872   10.3266   -1.2337 H         1 ARG         0.2615
    193 H101      -15.1273   11.0577   -1.2360 H         1 NH2         0.1815
    194 H102      -14.1597    9.7394   -1.8069 H         1 NH2         0.1815
@<TRIPOS>BOND
     1    1    2 2  
     2    1    3 1  
     3    1    4 am 
     4    4    5 1  
     5    5    6 1  
     6    5    8 1  
     7    6    7 2  
     8    6   16 am 
     9    8    9 1  
    10    9   10 ar 
    11    9   11 ar 
    12   10   12 ar 
    13   11   13 ar 
    14   12   14 ar 
    15   13   14 ar 
    16   14   15 1  
    17   16   17 1  
    18   17   18 1  
    19   17   20 1  
    20   18   19 2  
    21   18   25 am 
    22   20   21 1  
    23   21   22 1  
    24   22   23 ar 
    25   22   24 ar 
    26   25   26 1  
    27   26   27 1  
    28   26   29 1  
    29   27   28 2  
    30   27   34 am 
    31   29   30 1  
    32   30   31 1  
    33   31   32 1  
    34   32   33 1  
    35   34   35 1  
    36   34   40 1  
    37   35   36 1  
    38   35   38 1  
    39   36   37 2  
    40   36   41 am 
    41   38   39 1  
    42   39   40 1  
    43   41   42 1  
    44   42   43 1  
    45   42   45 1  
    46   43   44 2  
    47   43   46 am 
    48   46   47 1  
    49   47   48 1  
    50   47   50 1  
    51   48   49 2  
    52   48   54 am 
    53   50   51 1  
    54   51   52 1  
    55   51   53 1  
    56   54   55 1  
    57   54   60 1  
    58   55   56 1  
    59   55   58 1  
    60   56   57 2  
    61   56   61 am 
    62   58   59 1  
    63   59   60 1  
    64   61   62 1  
    65   62   63 1  
    66   62   65 1  
    67   63   64 2  
    68   63   72 am 
    69   65   66 1  
    70   66   67 1  
    71   67   68 1  
    72   68   69 ar 
    73   69   70 ar 
    74   69   71 ar 
    75   72   73 1  
    76   73   74 1  
    77   73   76 1  
    78   74   75 2  
    79   74   81 am 
    80   76   77 1  
    81   77   78 1  
    82   78   79 1  
    83   79   80 1  
    84   81   82 1  
    85   82   83 1  
    86   82   85 1  
    87   83   84 2  
    88   83   92 am 
    89   85   86 1  
    90   86   87 1  
    91   87   88 1  
    92   88   89 ar 
    93   89   90 ar 
    94   89   91 ar 
    95    3   93 1  
    96    3   94 1  
    97    3   95 1  
    98    4   96 1  
    99    5   97 1  
   100    8   98 1  
   101    8   99 1  
   102   10  100 1  
   103   11  101 1  
   104   12  102 1  
   105   13  103 1  
   106   15  104 1  
   107   16  105 1  
   108   17  106 1  
   109   20  107 1  
   110   20  108 1  
   111   21  109 1  
   112   21  110 1  
   113   25  111 1  
   114   26  112 1  
   115   29  113 1  
   116   29  114 1  
   117   30  115 1  
   118   30  116 1  
   119   31  117 1  
   120   31  118 1  
   121   32  119 1  
   122   32  120 1  
   123   33  121 1  
   124   33  122 1  
   125   33  123 1  
   126   35  124 1  
   127   38  125 1  
   128   38  126 1  
   129   39  127 1  
   130   39  128 1  
   131   40  129 1  
   132   40  130 1  
   133   41  131 1  
   134   42  132 1  
   135   45  133 1  
   136   45  134 1  
   137   45  135 1  
   138   46  136 1  
   139   47  137 1  
   140   50  138 1  
   141   50  139 1  
   142   51  140 1  
   143   52  141 1  
   144   52  142 1  
   145   52  143 1  
   146   53  144 1  
   147   53  145 1  
   148   53  146 1  
   149   55  147 1  
   150   58  148 1  
   151   58  149 1  
   152   59  150 1  
   153   59  151 1  
   154   60  152 1  
   155   60  153 1  
   156   61  154 1  
   157   62  155 1  
   158   65  156 1  
   159   65  157 1  
   160   66  158 1  
   161   66  159 1  
   162   67  160 1  
   163   67  161 1  
   164   68  162 1  
   165   70  163 1  
   166   70  164 1  
   167   71  165 1  
   168   71  166 1  
   169   72  167 1  
   170   73  168 1  
   171   76  169 1  
   172   76  170 1  
   173   77  171 1  
   174   77  172 1  
   175   78  173 1  
   176   78  174 1  
   177   79  175 1  
   178   79  176 1  
   179   80  177 1  
   180   80  178 1  
   181   80  179 1  
   182   81  180 1  
   183   82  181 1  
   184   85  182 1  
   185   85  183 1  
   186   86  184 1  
   187   86  185 1  
   188   87  186 1  
   189   87  187 1  
   190   88  188 1  
   191   90  189 1  
   192   90  190 1  
   193   91  191 1  
   194   91  192 1  
   195   92  193 1  
   196   92  194 1  
@<TRIPOS>SUBSTRUCTURE
     1 ACE         1

