5ih2_ligand
  -I-interpret- 

193195  0  0  0  0  0  0  0  0999 V2000
  -21.6640  -13.7640  -12.8800 C   0  0  0  0  0
  -20.7850  -14.3800  -12.3830 O   0  0  0  0  0
  -21.3110  -12.9460  -14.0810 C   0  0  0  0  0
  -23.0720  -13.8100  -12.4910 N   0  0  0  0  0
  -24.1850  -13.2080  -13.2600 C   0  0  0  0  0
  -24.6630  -11.8190  -12.7860 C   0  0  0  0  0
  -24.6630  -10.8850  -13.5880 O   0  0  0  0  0
  -25.3790  -14.1760  -13.3020 C   0  0  0  0  0
  -26.5850  -13.5980  -14.0240 C   0  0  0  0  0
  -26.5980  -13.4420  -15.4290 C   0  0  0  0  0
  -27.7180  -13.1940  -13.3080 C   0  0  0  0  0
  -27.7100  -12.8970  -16.0780 C   0  0  0  0  0
  -28.8310  -12.6640  -13.9510 C   0  0  0  0  0
  -28.8270  -12.5170  -15.3250 C   0  0  0  0  0
  -29.9530  -11.9770  -15.9060 O   0  0  0  0  0
  -25.1270  -11.6630  -11.5340 N   0  0  0  0  0
  -25.5060  -10.2910  -11.0930 C   0  0  0  0  0
  -24.3080   -9.5060  -10.5590 C   0  0  0  0  0
  -23.4940   -9.9700   -9.7420 O   0  0  0  0  0
  -26.7500  -10.1370  -10.1770 C   0  0  0  0  0
  -27.0480  -11.1890   -9.1200 C   0  0  0  0  0
  -28.3190  -10.8370   -8.3330 C   0  0  0  0  0
  -29.3740  -11.4840   -8.4900 O   0  0  0  0  0
  -28.2700   -9.8680   -7.5790 O   0  0  0  0  0
  -24.2640   -8.2780  -11.0250 N   0  0  0  0  0
  -23.1520   -7.3950  -10.8370 C   0  0  0  0  0
  -23.2090   -6.9120   -9.3890 C   0  0  0  0  0
  -24.2890   -6.5580   -8.9290 O   0  0  0  0  0
  -23.3780   -6.2570  -11.8280 C   0  0  0  0  0
  -22.1510   -5.5940  -12.2990 C   0  0  0  0  0
  -22.3370   -5.0080  -13.6840 C   0  0  0  0  0
  -21.1960   -4.0700  -13.9030 C   0  0  0  0  0
  -21.0990   -3.5730  -15.2600 N   0  3  0  0  0
  -22.0790   -6.9170   -8.6480 N   0  0  0  0  0
  -22.0470   -6.3580   -7.3240 C   0  0  0  0  0
  -22.3680   -4.9050   -7.3380 C   0  0  0  0  0
  -22.3100   -4.2380   -8.3960 O   0  0  0  0  0
  -20.5810   -6.5030   -6.9140 C   0  0  0  0  0
  -20.1110   -7.6100   -7.6850 C   0  0  0  0  0
  -20.7540   -7.4680   -9.0140 C   0  0  0  0  0
  -22.6710   -4.4040   -6.1530 N   0  0  0  0  0
  -22.9050   -2.9720   -5.9700 C   0  0  0  0  0
  -21.6050   -2.2340   -6.3140 C   0  0  0  0  0
  -20.5320   -2.6890   -5.9410 O   0  0  0  0  0
  -23.2820   -2.6970   -4.5280 C   0  0  0  0  0
  -21.7140   -1.1350   -7.0420 N   0  0  0  0  0
  -20.5770   -0.2860   -7.2990 C   0  0  0  0  0
  -20.2400    0.4420   -5.9870 C   0  0  0  0  0
  -21.1090    1.1370   -5.4230 O   0  0  0  0  0
  -20.9610    0.6870   -8.3870 C   0  0  0  0  0
  -19.8220    1.4580   -9.0240 C   0  0  0  0  0
  -18.7390    0.5670   -9.6840 C   0  0  0  0  0
  -20.3920    2.4510  -10.0310 C   0  0  0  0  0
  -19.0420    0.2560   -5.4320 N   0  0  0  0  0
  -18.8320    0.6730   -4.0530 C   0  0  0  0  0
  -18.6420    2.1650   -3.8610 C   0  0  0  0  0
  -18.1700    2.8740   -4.7430 O   0  0  0  0  0
  -17.5730   -0.0930   -3.6250 C   0  0  0  0  0
  -16.8750   -0.3040   -4.8810 C   0  0  0  0  0
  -17.9190   -0.5400   -5.9310 C   0  0  0  0  0
  -18.9940    2.6540   -2.6670 N   0  0  0  0  0
  -18.8410    4.0490   -2.3530 C   0  0  0  0  0
  -17.3750    4.4330   -2.3160 C   0  0  0  0  0
  -16.5180    3.6500   -1.8520 O   0  0  0  0  0
  -19.4610    4.3600   -0.9850 C   0  0  0  0  0
  -20.9740    4.2810   -1.0710 C   0  0  0  0  0
  -21.5980    5.5360   -1.6800 C   0  0  0  0  0
  -23.0300    5.3580   -1.7830 N   0  0  0  0  0
  -23.9280    5.6310   -0.8190 C   0  0  0  0  0
  -23.5960    6.1740    0.3440 N   0  0  0  0  0
  -25.2020    5.3550   -1.0350 N   0  0  0  0  0
  -17.1090    5.6210   -2.8120 N   0  0  0  0  0
  -15.7840    6.2180   -2.6710 C   0  0  0  0  0
  -15.6720    6.9950   -1.3700 C   0  0  0  0  0
  -16.6670    7.4510   -0.7910 O   0  0  0  0  0
  -15.5480    7.1260   -3.8890 C   0  0  0  0  0
  -15.2610    6.3120   -5.1240 C   0  0  0  0  0
  -14.8160    7.1880   -6.2540 C   0  0  0  0  0
  -14.3900    6.3370   -7.4470 C   0  0  0  0  0
  -13.9110    7.2460   -8.5480 N   0  3  0  0  0
  -14.4480    7.2100   -0.9080 N   0  0  0  0  0
  -14.2700    8.0420    0.3110 C   0  0  0  0  0
  -14.9480    9.4330    0.1920 C   0  0  0  0  0
  -15.5220   10.0400    1.1890 O   0  0  0  0  0
  -12.7790    8.1360    0.6430 C   0  0  0  0  0
  -12.3610    9.3090    1.5330 C   0  0  0  0  0
  -10.9190    9.0770    2.0270 C   0  0  0  0  0
   -9.9630    8.9020    0.9120 N   0  0  0  0  0
   -9.3140    9.8730    0.2850 C   0  0  0  0  0
   -9.4770   11.1440    0.6430 N   0  0  0  0  0
   -8.4860    9.5740   -0.7380 N   0  0  0  0  0
  -14.7200   10.1560   -1.0910 N   0  0  0  0  0
  -20.5503  -12.2140  -13.8096 H   0  0  0  0  0
  -20.9254  -13.5995  -14.8635 H   0  0  0  0  0
  -22.2008  -12.4304  -14.4422 H   0  0  0  0  0
  -23.3058  -14.2936  -11.6239 H   0  0  0  0  0
  -23.7692  -13.0387  -14.2533 H   0  0  0  0  0
  -25.6750  -14.3838  -12.2738 H   0  0  0  0  0
  -25.0644  -15.0689  -13.8422 H   0  0  0  0  0
  -25.7309  -13.7502  -16.0132 H   0  0  0  0  0
  -27.7279  -13.2972  -12.2229 H   0  0  0  0  0
  -27.7071  -12.7692  -17.1605 H   0  0  0  0  0
  -29.7050  -12.3650  -13.3724 H   0  0  0  0  0
  -30.6020  -11.7847  -15.2253 H   0  0  0  0  0
  -25.2170  -12.4604  -10.9044 H   0  0  0  0  0
  -25.8494   -9.8443  -12.0261 H   0  0  0  0  0
  -27.5991  -10.1862  -10.8587 H   0  0  0  0  0
  -26.5607   -9.2256   -9.6098 H   0  0  0  0  0
  -26.2089  -11.2336   -8.4258 H   0  0  0  0  0
  -27.1987  -12.1483   -9.6152 H   0  0  0  0  0
  -29.2198  -12.1995   -9.1112 H   0  0  0  0  0
  -25.0676   -7.9340  -11.5506 H   0  0  0  0  0
  -22.1751   -7.8476  -11.0069 H   0  0  0  0  0
  -23.9675   -5.5000  -11.3108 H   0  0  0  0  0
  -23.8584   -6.6920  -12.7044 H   0  0  0  0  0
  -21.3515   -6.3337  -12.3403 H   0  0  0  0  0
  -21.9082   -4.7849  -11.6102 H   0  0  0  0  0
  -23.2914   -4.4874  -13.7630 H   0  0  0  0  0
  -22.3493   -5.7918  -14.4414 H   0  0  0  0  0
  -20.2787   -4.6197  -13.6921 H   0  0  0  0  0
  -21.3534   -3.2097  -13.2525 H   0  0  0  0  0
  -20.3011   -2.9419  -15.3334 H   0  0  0  0  0
  -20.9737   -4.3573  -15.8999 H   0  0  0  0  0
  -21.9542   -3.0710  -15.4989 H   0  0  0  0  0
  -22.7639   -6.8481   -6.6652 H   0  0  0  0  0
  -20.4674   -6.6693   -5.8428 H   0  0  0  0  0
  -20.0082   -5.5954   -7.1047 H   0  0  0  0  0
  -20.3669   -8.5605   -7.2168 H   0  0  0  0  0
  -19.0239   -7.6085   -7.7648 H   0  0  0  0  0
  -20.1946   -6.8344   -9.7023 H   0  0  0  0  0
  -20.8107   -8.4028   -9.5718 H   0  0  0  0  0
  -22.7431   -5.0287   -5.3499 H   0  0  0  0  0
  -23.7166   -2.6333   -6.6140 H   0  0  0  0  0
  -24.1898   -3.2470   -4.2799 H   0  0  0  0  0
  -22.4710   -3.0180   -3.8742 H   0  0  0  0  0
  -23.4554   -1.6289   -4.3965 H   0  0  0  0  0
  -22.6227   -0.8824   -7.4303 H   0  0  0  0  0
  -19.7029   -0.8477   -7.6285 H   0  0  0  0  0
  -21.6078    1.4290   -7.9188 H   0  0  0  0  0
  -21.4106    0.0933   -9.1829 H   0  0  0  0  0
  -19.3062    1.9808   -8.2186 H   0  0  0  0  0
  -18.3000   -0.0872   -8.9307 H   0  0  0  0  0
  -19.1953   -0.0358  -10.4692 H   0  0  0  0  0
  -17.9628    1.1996  -10.1145 H   0  0  0  0  0
  -20.9443    1.9104  -10.7997 H   0  0  0  0  0
  -21.0616    3.1420   -9.5188 H   0  0  0  0  0
  -19.5762    3.0080  -10.4918 H   0  0  0  0  0
  -19.7167    0.4540   -3.4551 H   0  0  0  0  0
  -17.8014   -1.0247   -3.1074 H   0  0  0  0  0
  -16.9742    0.4530   -2.8960 H   0  0  0  0  0
  -16.2021   -1.1584   -4.8085 H   0  0  0  0  0
  -16.2651    0.5636   -5.1328 H   0  0  0  0  0
  -17.5969   -0.2506   -6.9313 H   0  0  0  0  0
  -18.1641   -1.5935   -6.0655 H   0  0  0  0  0
  -19.3794    2.0237   -1.9637 H   0  0  0  0  0
  -19.3489    4.6209   -3.1296 H   0  0  0  0  0
  -19.1711    5.3655   -0.6801 H   0  0  0  0  0
  -19.1047    3.6322   -0.2560 H   0  0  0  0  0
  -21.3611    4.1734   -0.0577 H   0  0  0  0  0
  -21.2286    3.4367   -1.7116 H   0  0  0  0  0
  -21.1797    5.7062   -2.6721 H   0  0  0  0  0
  -21.3824    6.3951   -1.0447 H   0  0  0  0  0
  -23.3908    4.9932   -2.6646 H   0  0  0  0  0
  -24.3155    6.3667    1.0408 H   0  0  0  0  0
  -22.6210    6.3991    0.5420 H   0  0  0  0  0
  -25.4911    4.9416   -1.9215 H   0  0  0  0  0
  -17.8405    6.1344   -3.3036 H   0  0  0  0  0
  -15.0209    5.4405   -2.6344 H   0  0  0  0  0
  -14.6897    7.7665   -3.6858 H   0  0  0  0  0
  -16.4466    7.7182   -4.0623 H   0  0  0  0  0
  -16.1733    5.7949   -5.4213 H   0  0  0  0  0
  -14.4650    5.6026   -4.8976 H   0  0  0  0  0
  -13.9688    7.7901   -5.9255 H   0  0  0  0  0
  -15.6435    7.8314   -6.5530 H   0  0  0  0  0
  -15.2356    5.7459   -7.7988 H   0  0  0  0  0
  -13.5869    5.6624   -7.1504 H   0  0  0  0  0
  -13.6241    6.6848   -9.3499 H   0  0  0  0  0
  -14.6673    7.8726   -8.8231 H   0  0  0  0  0
  -13.1183    7.7941   -8.2140 H   0  0  0  0  0
  -13.6389    6.8097   -1.3829 H   0  0  0  0  0
  -14.7806    7.5554    1.1420 H   0  0  0  0  0
  -12.2625    8.2739   -0.3069 H   0  0  0  0  0
  -12.5312    7.2297    1.1956 H   0  0  0  0  0
  -13.0346    9.3801    2.3870 H   0  0  0  0  0
  -12.4091   10.2372    0.9636 H   0  0  0  0  0
  -10.9098    8.1661    2.6256 H   0  0  0  0  0
  -10.6133    9.9528    2.5993 H   0  0  0  0  0
   -9.7872    7.9479    0.5971 H   0  0  0  0  0
  -10.1077   11.3813    1.4087 H   0  0  0  0  0
   -7.9921   10.3193   -1.2289 H   0  0  0  0  0
   -8.3541    8.6027   -1.0202 H   0  0  0  0  0
  -15.0141   11.1278   -1.1880 H   0  0  0  0  0
  -14.2698    9.6790   -1.8722 H   0  0  0  0  0
  1  2  2  0  0  0
  1  3  1  0  0  0
  1  4  1  0  0  0
  4  5  1  0  0  0
  5  6  1  0  0  0
  5  8  1  0  0  0
  6  7  2  0  0  0
  6 16  1  0  0  0
  8  9  1  0  0  0
  9 10  4  0  0  0
  9 11  4  0  0  0
 10 12  4  0  0  0
 11 13  4  0  0  0
 12 14  4  0  0  0
 13 14  4  0  0  0
 14 15  1  0  0  0
 16 17  1  0  0  0
 17 18  1  0  0  0
 17 20  1  0  0  0
 18 19  2  0  0  0
 18 25  1  0  0  0
 20 21  1  0  0  0
 21 22  1  0  0  0
 22 23  1  0  0  0
 22 24  2  0  0  0
 25 26  1  0  0  0
 26 27  1  0  0  0
 26 29  1  0  0  0
 27 28  2  0  0  0
 27 34  1  0  0  0
 29 30  1  0  0  0
 30 31  1  0  0  0
 31 32  1  0  0  0
 32 33  1  0  0  0
 34 35  1  0  0  0
 34 40  1  0  0  0
 35 36  1  0  0  0
 35 38  1  0  0  0
 36 37  2  0  0  0
 36 41  1  0  0  0
 38 39  1  0  0  0
 39 40  1  0  0  0
 41 42  1  0  0  0
 42 43  1  0  0  0
 42 45  1  0  0  0
 43 44  2  0  0  0
 43 46  1  0  0  0
 46 47  1  0  0  0
 47 48  1  0  0  0
 47 50  1  0  0  0
 48 49  2  0  0  0
 48 54  1  0  0  0
 50 51  1  0  0  0
 51 52  1  0  0  0
 51 53  1  0  0  0
 54 55  1  0  0  0
 54 60  1  0  0  0
 55 56  1  0  0  0
 55 58  1  0  0  0
 56 57  2  0  0  0
 56 61  1  0  0  0
 58 59  1  0  0  0
 59 60  1  0  0  0
 61 62  1  0  0  0
 62 63  1  0  0  0
 62 65  1  0  0  0
 63 64  2  0  0  0
 63 72  1  0  0  0
 65 66  1  0  0  0
 66 67  1  0  0  0
 67 68  1  0  0  0
 68 69  1  0  0  0
 69 70  1  0  0  0
 69 71  2  0  0  0
 72 73  1  0  0  0
 73 74  1  0  0  0
 73 76  1  0  0  0
 74 75  2  0  0  0
 74 81  1  0  0  0
 76 77  1  0  0  0
 77 78  1  0  0  0
 78 79  1  0  0  0
 79 80  1  0  0  0
 81 82  1  0  0  0
 82 83  1  0  0  0
 82 85  1  0  0  0
 83 84  2  0  0  0
 83 92  1  0  0  0
 85 86  1  0  0  0
 86 87  1  0  0  0
 87 88  1  0  0  0
 88 89  1  0  0  0
 89 90  2  0  0  0
 89 91  1  0  0  0
  3 93  1  0  0  0
  3 94  1  0  0  0
  3 95  1  0  0  0
  4 96  1  0  0  0
  5 97  1  0  0  0
  8 98  1  0  0  0
  8 99  1  0  0  0
 10100  1  0  0  0
 11101  1  0  0  0
 12102  1  0  0  0
 13103  1  0  0  0
 15104  1  0  0  0
 16105  1  0  0  0
 17106  1  0  0  0
 20107  1  0  0  0
 20108  1  0  0  0
 21109  1  0  0  0
 21110  1  0  0  0
 23111  1  0  0  0
 25112  1  0  0  0
 26113  1  0  0  0
 29114  1  0  0  0
 29115  1  0  0  0
 30116  1  0  0  0
 30117  1  0  0  0
 31118  1  0  0  0
 31119  1  0  0  0
 32120  1  0  0  0
 32121  1  0  0  0
 33122  1  0  0  0
 33123  1  0  0  0
 33124  1  0  0  0
 35125  1  0  0  0
 38126  1  0  0  0
 38127  1  0  0  0
 39128  1  0  0  0
 39129  1  0  0  0
 40130  1  0  0  0
 40131  1  0  0  0
 41132  1  0  0  0
 42133  1  0  0  0
 45134  1  0  0  0
 45135  1  0  0  0
 45136  1  0  0  0
 46137  1  0  0  0
 47138  1  0  0  0
 50139  1  0  0  0
 50140  1  0  0  0
 51141  1  0  0  0
 52142  1  0  0  0
 52143  1  0  0  0
 52144  1  0  0  0
 53145  1  0  0  0
 53146  1  0  0  0
 53147  1  0  0  0
 55148  1  0  0  0
 58149  1  0  0  0
 58150  1  0  0  0
 59151  1  0  0  0
 59152  1  0  0  0
 60153  1  0  0  0
 60154  1  0  0  0
 61155  1  0  0  0
 62156  1  0  0  0
 65157  1  0  0  0
 65158  1  0  0  0
 66159  1  0  0  0
 66160  1  0  0  0
 67161  1  0  0  0
 67162  1  0  0  0
 68163  1  0  0  0
 70164  1  0  0  0
 70165  1  0  0  0
 71166  1  0  0  0
 72167  1  0  0  0
 73168  1  0  0  0
 76169  1  0  0  0
 76170  1  0  0  0
 77171  1  0  0  0
 77172  1  0  0  0
 78173  1  0  0  0
 78174  1  0  0  0
 79175  1  0  0  0
 79176  1  0  0  0
 80177  1  0  0  0
 80178  1  0  0  0
 80179  1  0  0  0
 81180  1  0  0  0
 82181  1  0  0  0
 85182  1  0  0  0
 85183  1  0  0  0
 86184  1  0  0  0
 86185  1  0  0  0
 87186  1  0  0  0
 87187  1  0  0  0
 88188  1  0  0  0
 90189  1  0  0  0
 91190  1  0  0  0
 91191  1  0  0  0
 92192  1  0  0  0
 92193  1  0  0  0
M  END
$$$$
