5wb3_ligand
  -I-interpret- 

 69 73  0  0  0  0  0  0  0  0999 V2000
  130.4030  106.2630  286.9620 C   0  0  0  0  0
  133.2130   99.8450  279.6460 C   0  0  0  0  0
  134.8170   99.8340  282.9230 C   0  0  0  0  0
  135.8220   97.6800  282.8730 C   0  0  0  0  0
  135.3920  100.6890  283.8500 C   0  0  0  0  0
  135.4790  102.0410  283.5430 C   0  0  0  0  0
  136.0460  103.1770  284.3510 C   0  0  0  0  0
  130.2380  104.1150  285.9100 C   0  0  0  0  0
  129.4920  102.8240  285.6510 C   0  0  0  0  0
  129.8930  102.2570  283.2740 C   0  0  0  0  0
  130.6680  101.4380  282.2620 C   0  0  0  0  0
  131.6460  106.3960  286.3490 C   0  0  0  0  0
  131.0240  103.4520  280.2480 C   0  0  0  0  0
  131.5330  104.2120  281.3020 C   0  0  0  0  0
  132.0810  105.4570  281.0550 C   0  0  0  0  0
  132.1310  105.9530  279.7700 C   0  0  0  0  0
  131.6370  105.2140  278.7180 C   0  0  0  0  0
  131.0850  103.9710  278.9580 C   0  0  0  0  0
  130.9690  100.9610  285.1210 C   0  0  0  0  0
  130.9580  101.2310  286.6100 C   0  0  0  0  0
  129.5710  101.8210  286.8130 C   0  0  0  0  0
  132.1260  105.3950  285.5610 C   0  0  0  0  0
  133.4690  105.5290  284.9030 C   0  0  0  0  0
  135.2860  104.3860  283.7700 C   0  0  0  0  0
  135.2210  104.0190  282.2770 C   0  0  0  0  0
  134.9910  102.5320  282.3370 C   0  0  0  0  0
  134.4150  101.6870  281.4020 C   0  0  0  0  0
  134.3210  100.3330  281.6960 C   0  0  0  0  0
  133.9430  104.4340  284.3140 N   0  0  0  0  0
  131.4380  104.2640  285.3420 N   0  0  0  0  0
  130.1140  102.0270  284.5790 N   0  0  0  0  0
  129.7170  105.0930  286.7170 N   0  0  0  0  0
  129.9000  107.1280  287.6940 O   0  0  0  0  0
  132.3140  107.5310  286.5930 O   0  0  0  0  0
  133.7760   99.3880  280.8720 O   0  0  0  0  0
  134.6650   98.4830  283.0890 O   0  0  0  0  0
  134.1010  106.5830  284.9260 O   0  0  0  0  0
  129.0820  103.1030  282.9100 O   0  0  0  0  0
  130.3170  101.8550  280.5290 S   0  0  0  0  0
  130.4680  103.0680  277.6160 Cl  0  0  0  0  0
  132.4082  100.5491  279.8574 H   0  0  0  0  0
  133.9843  100.3394  279.0555 H   0  0  0  0  0
  132.8171   98.9950  279.0903 H   0  0  0  0  0
  136.1717   97.8168  281.8497 H   0  0  0  0  0
  136.6055   97.9792  283.5692 H   0  0  0  0  0
  135.5707   96.6319  283.0354 H   0  0  0  0  0
  135.7680  100.3086  284.7998 H   0  0  0  0  0
  137.1294  103.2670  284.2723 H   0  0  0  0  0
  135.9106  103.0550  285.4257 H   0  0  0  0  0
  128.4829  103.1794  285.4426 H   0  0  0  0  0
  130.3784  100.3969  282.4048 H   0  0  0  0  0
  131.7258  101.6397  282.4309 H   0  0  0  0  0
  131.4985  103.8240  282.3200 H   0  0  0  0  0
  132.4755  106.0493  281.8806 H   0  0  0  0  0
  132.5641  106.9360  279.5853 H   0  0  0  0  0
  131.6814  105.6076  277.7025 H   0  0  0  0  0
  130.6059   99.9639  284.8722 H   0  0  0  0  0
  131.9740  100.9733  284.6992 H   0  0  0  0  0
  131.7609  101.8927  286.9351 H   0  0  0  0  0
  131.1413  100.3409  287.2119 H   0  0  0  0  0
  128.7744  101.0771  286.8024 H   0  0  0  0  0
  129.4296  102.2765  287.7931 H   0  0  0  0  0
  135.7491  105.3496  283.9824 H   0  0  0  0  0
  136.1167  104.2978  281.7219 H   0  0  0  0  0
  134.4457  104.5566  281.7311 H   0  0  0  0  0
  134.0431  102.0772  280.4546 H   0  0  0  0  0
  133.3474  103.6089  284.2436 H   0  0  0  0  0
  128.8021  104.9518  287.1453 H   0  0  0  0  0
  131.7905  108.0913  287.1706 H   0  0  0  0  0
 12  1  1  0  0  0
  1 32  1  0  0  0
  1 33  2  0  0  0
 35  2  1  0  0  0
  3  5  4  0  0  0
 28  3  4  0  0  0
  3 36  1  0  0  0
 36  4  1  0  0  0
  5  6  4  0  0  0
  6  7  1  0  0  0
 26  6  4  0  0  0
 24  7  1  0  0  0
  8  9  1  0  0  0
 30  8  2  0  0  0
  8 32  1  0  0  0
  9 21  1  0  0  0
  9 31  1  0  0  0
 10 11  1  0  0  0
 31 10  1  0  0  0
 10 38  2  0  0  0
 11 39  1  0  0  0
 22 12  2  0  0  0
 12 34  1  0  0  0
 13 14  4  0  0  0
 13 18  4  0  0  0
 39 13  1  0  0  0
 14 15  4  0  0  0
 15 16  4  0  0  0
 17 16  4  0  0  0
 18 17  4  0  0  0
 18 40  1  0  0  0
 19 20  1  0  0  0
 31 19  1  0  0  0
 21 20  1  0  0  0
 23 22  1  0  0  0
 22 30  1  0  0  0
 29 23  1  0  0  0
 23 37  2  0  0  0
 25 24  1  0  0  0
 24 29  1  0  0  0
 26 25  1  0  0  0
 27 26  4  0  0  0
 28 27  4  0  0  0
 28 35  1  0  0  0
  2 41  1  0  0  0
  2 42  1  0  0  0
  2 43  1  0  0  0
  4 44  1  0  0  0
  4 45  1  0  0  0
  4 46  1  0  0  0
  5 47  1  0  0  0
  7 48  1  0  0  0
  7 49  1  0  0  0
  9 50  1  0  0  0
 11 51  1  0  0  0
 11 52  1  0  0  0
 14 53  1  0  0  0
 15 54  1  0  0  0
 16 55  1  0  0  0
 17 56  1  0  0  0
 19 57  1  0  0  0
 19 58  1  0  0  0
 20 59  1  0  0  0
 20 60  1  0  0  0
 21 61  1  0  0  0
 21 62  1  0  0  0
 24 63  1  0  0  0
 25 64  1  0  0  0
 25 65  1  0  0  0
 27 66  1  0  0  0
 29 67  1  0  0  0
 32 68  1  0  0  0
 34 69  1  0  0  0
M  END
$$$$
