1gvx_ligand
  -I-interpret- 

129131  0  0  0  0  0  0  0  0999 V2000
    3.2120   24.9030   22.0330 N   0  3  0  0  0
    3.3150   25.2870   20.6090 C   0  0  0  0  0
    3.4820   26.7870   20.3460 C   0  0  0  0  0
    2.9720   27.5510   21.2060 O   0  0  0  0  0
    1.9610   24.8390   20.0330 C   0  0  0  0  0
    1.5210   23.6970   20.8660 C   0  0  0  0  0
    2.1420   23.9000   22.2210 C   0  0  0  0  0
    4.1790   27.2140   19.2900 N   0  0  0  0  0
    4.3720   28.6190   18.8770 C   0  0  0  0  0
    3.5220   28.9530   17.6360 C   0  0  0  0  0
    3.1590   28.0090   16.8220 O   0  0  0  0  0
    5.8770   28.8830   18.5580 C   0  0  0  0  0
    6.1910   28.1510   17.3690 O   0  0  0  0  0
    6.7790   28.3240   19.6400 C   0  0  0  0  0
    3.2110   30.2350   17.4400 N   0  0  0  0  0
    2.4980   30.7410   16.2280 C   0  0  0  0  0
    3.1950   32.0120   15.7130 C   0  0  0  0  0
    2.5570   33.1050   15.6020 O   0  0  0  0  0
    0.9910   31.0140   16.4550 C   0  0  0  0  0
    0.2080   29.7350   16.8360 C   0  0  0  0  0
   -1.2090   30.0900   17.2880 C   0  0  0  0  0
   -2.0280   30.4060   16.4360 O   0  0  0  0  0
   -1.4220   30.0410   18.5020 O   0  0  0  0  0
    4.4940   31.9280   15.2950 N   0  0  0  0  0
    5.2900   33.0910   14.9050 C   0  0  0  0  0
    5.2060   33.4120   13.3870 C   0  0  0  0  0
    6.8140   32.9110   15.2700 C   0  0  0  0  0
    7.1910   32.6490   16.7300 C   0  0  0  0  0
    8.2800   31.7980   17.0120 C   0  0  0  0  0
    6.5500   33.2160   17.8050 C   0  0  0  0  0
    8.6950   31.5060   18.3320 C   0  0  0  0  0
    6.9530   32.9520   19.1220 C   0  0  0  0  0
    8.0470   32.1540   19.3840 C   0  0  0  0  0
    3.7810   33.4720   12.8670 N   0  3  0  0  0
    3.4800   34.6400   11.9890 C   0  0  0  0  0
    3.3770   35.9070   12.8430 C   0  0  0  0  0
    2.9620   35.8850   14.0190 O   0  0  0  0  0
    2.1660   34.4130   11.1760 C   0  0  0  0  0
    0.8810   34.0960   12.0030 C   0  0  0  0  0
    0.6020   32.7830   12.3650 C   0  0  0  0  0
    0.0040   35.0640   12.4810 C   0  0  0  0  0
   -0.5300   32.4460   13.1280 C   0  0  0  0  0
   -1.1730   34.7540   13.1760 C   0  0  0  0  0
   -1.3770   33.4360   13.5400 C   0  0  0  0  0
    3.7860   37.0730   12.2150 N   0  0  0  0  0
    3.4990   38.4110   12.8100 C   0  0  0  0  0
    1.9770   38.7070   12.8140 C   0  0  0  0  0
    1.3150   38.4850   11.7880 O   0  0  0  0  0
    4.2470   39.5160   12.0070 C   0  0  0  0  0
    3.9640   40.9110   12.5920 C   0  0  0  0  0
    4.5950   42.0880   11.8490 C   0  0  0  0  0
    3.9770   43.3310   12.3570 N   0  0  0  0  0
    3.8790   44.4520   11.6730 C   0  0  0  0  0
    4.4330   44.5030   10.4680 N   0  0  0  0  0
    3.2610   45.5390   12.1820 N   0  0  0  0  0
    1.4670   39.2000   13.9330 N   0  0  0  0  0
    0.0940   39.7610   13.9970 C   0  0  0  0  0
    0.1460   41.3150   13.9800 C   0  0  0  0  0
   -0.9730   41.8680   13.7430 O   0  0  0  0  0
   -0.7210   39.1720   15.1440 C   0  0  0  0  0
   -2.2330   39.2710   14.9660 C   0  0  0  0  0
   -3.0460   38.0070   15.1360 C   0  0  0  0  0
   -4.2750   38.0740   15.4150 O   0  0  0  0  0
   -2.4810   36.8970   14.9770 O   0  0  0  0  0
    1.2042   41.9680   14.1833 O   0  0  0  0  0
    2.9910   25.7317   22.5851 H   0  0  0  0  0
    4.1001   24.5013   22.3336 H   0  0  0  0  0
    4.2035   24.8347   20.1684 H   0  0  0  0  0
    2.0532   24.5513   18.9857 H   0  0  0  0  0
    1.2332   25.6500   20.0588 H   0  0  0  0  0
    1.8342   22.7489   20.4289 H   0  0  0  0  0
    0.4339   23.6572   20.9346 H   0  0  0  0  0
    2.5415   22.9660   22.6160 H   0  0  0  0  0
    1.4037   24.2417   22.9464 H   0  0  0  0  0
    4.6216   26.4997   18.7118 H   0  0  0  0  0
    4.0538   29.2572   19.7014 H   0  0  0  0  0
    6.0303   29.9584   18.4683 H   0  0  0  0  0
    7.1133   28.2911   17.1425 H   0  0  0  0  0
    6.5388   28.7974   20.5920 H   0  0  0  0  0
    6.6256   27.2478   19.7190 H   0  0  0  0  0
    7.8192   28.5262   19.3845 H   0  0  0  0  0
    3.4750   30.9089   18.1587 H   0  0  0  0  0
    2.5496   29.9469   15.4831 H   0  0  0  0  0
    0.5748   31.3982   15.5237 H   0  0  0  0  0
    0.8978   31.7230   17.2777 H   0  0  0  0  0
    0.7254   29.2331   17.6536 H   0  0  0  0  0
    0.1490   29.0828   15.9646 H   0  0  0  0  0
   -0.6215   29.7668   18.9554 H   0  0  0  0  0
    4.9302   31.0069   15.2530 H   0  0  0  0  0
    4.8574   33.9178   15.4683 H   0  0  0  0  0
    5.7199   32.6138   12.8514 H   0  0  0  0  0
    5.6563   34.3923   13.2311 H   0  0  0  0  0
    7.2802   33.8647   15.0227 H   0  0  0  0  0
    7.1324   32.0195   14.7297 H   0  0  0  0  0
    8.8225   31.3481   16.1805 H   0  0  0  0  0
    5.7087   33.8866   17.6300 H   0  0  0  0  0
    9.4986   30.7946   18.5222 H   0  0  0  0  0
    6.3930   33.3841   19.9514 H   0  0  0  0  0
    8.4032   32.0304   20.4067 H   0  0  0  0  0
    3.1728   33.5514   13.6820 H   0  0  0  0  0
    3.6375   32.6344   12.3029 H   0  0  0  0  0
    4.2916   34.7559   11.2707 H   0  0  0  0  0
    2.3455   33.5386   10.5504 H   0  0  0  0  0
    1.9669   35.3503   10.6566 H   0  0  0  0  0
    1.2809   31.9914   12.0480 H   0  0  0  0  0
    0.2433   36.1131   12.3069 H   0  0  0  0  0
   -0.7297   31.4065   13.3880 H   0  0  0  0  0
   -1.9026   35.5258   13.4211 H   0  0  0  0  0
   -2.2306   33.1814   14.1682 H   0  0  0  0  0
    4.2918   37.0155   11.3311 H   0  0  0  0  0
    3.8488   38.4067   13.8423 H   0  0  0  0  0
    3.8995   39.4931   10.9741 H   0  0  0  0  0
    5.3185   39.3242   12.0635 H   0  0  0  0  0
    4.3924   40.9159   13.5943 H   0  0  0  0  0
    2.8851   41.0547   12.5340 H   0  0  0  0  0
    4.4239   41.9926   10.7767 H   0  0  0  0  0
    5.6719   42.1063   12.0167 H   0  0  0  0  0
    3.5997   43.3196   13.3046 H   0  0  0  0  0
    4.9186   43.6872   10.0950 H   0  0  0  0  0
    3.2190   46.4022   11.6402 H   0  0  0  0  0
    2.8361   45.4971   13.1083 H   0  0  0  0  0
    2.0369   39.1939   14.7789 H   0  0  0  0  0
   -0.4498   39.4591   13.1019 H   0  0  0  0  0
   -1.6430   41.1917   13.6189 H   0  0  0  0  0
   -0.4683   39.7412   16.0386 H   0  0  0  0  0
   -0.4758   38.1112   15.1962 H   0  0  0  0  0
   -2.3851   39.5783   13.9313 H   0  0  0  0  0
   -2.5753   39.9454   15.7510 H   0  0  0  0  0
   -4.5331   38.9948   15.4994 H   0  0  0  0  0
  2  1  1  0  0  0
  2  5  1  0  0  0
  3  2  1  0  0  0
  3  4  2  0  0  0
  5  6  1  0  0  0
  6  7  1  0  0  0
  1  7  1  0  0  0
 10  9  1  0  0  0
  9 12  1  0  0  0
  9  8  1  0  0  0
 12 13  1  0  0  0
 12 14  1  0  0  0
 10 11  2  0  0  0
 17 16  1  0  0  0
 16 19  1  0  0  0
 16 15  1  0  0  0
 19 20  1  0  0  0
 20 21  1  0  0  0
 21 22  2  0  0  0
 21 23  1  0  0  0
 17 18  2  0  0  0
 25 24  1  0  0  0
 25 27  1  0  0  0
 26 25  1  0  0  0
 34 26  1  0  0  0
 35 34  1  0  0  0
 35 38  1  0  0  0
 36 35  1  0  0  0
 36 37  2  0  0  0
 38 39  1  0  0  0
 39 41  4  0  0  0
 39 40  4  0  0  0
 40 42  4  0  0  0
 42 44  4  0  0  0
 43 44  4  0  0  0
 41 43  4  0  0  0
 27 28  1  0  0  0
 28 30  4  0  0  0
 28 29  4  0  0  0
 29 31  4  0  0  0
 31 33  4  0  0  0
 32 33  4  0  0  0
 30 32  4  0  0  0
 46 47  1  0  0  0
 46 49  1  0  0  0
 45 46  1  0  0  0
 49 50  1  0  0  0
 50 51  1  0  0  0
 51 52  1  0  0  0
 52 53  1  0  0  0
 53 54  2  0  0  0
 53 55  1  0  0  0
 47 48  2  0  0  0
 57 58  1  0  0  0
 57 60  1  0  0  0
 56 57  1  0  0  0
 60 61  1  0  0  0
 61 62  1  0  0  0
 62 63  1  0  0  0
 62 64  2  0  0  0
 58 65  2  0  0  0
 58 59  1  0  0  0
  8  3  1  0  0  0
 15 10  1  0  0  0
 47 56  1  0  0  0
 24 17  1  0  0  0
 36 45  1  0  0  0
  1 66  1  0  0  0
  1 67  1  0  0  0
  2 68  1  0  0  0
  5 69  1  0  0  0
  5 70  1  0  0  0
  6 71  1  0  0  0
  6 72  1  0  0  0
  7 73  1  0  0  0
  7 74  1  0  0  0
  8 75  1  0  0  0
  9 76  1  0  0  0
 12 77  1  0  0  0
 13 78  1  0  0  0
 14 79  1  0  0  0
 14 80  1  0  0  0
 14 81  1  0  0  0
 15 82  1  0  0  0
 16 83  1  0  0  0
 19 84  1  0  0  0
 19 85  1  0  0  0
 20 86  1  0  0  0
 20 87  1  0  0  0
 23 88  1  0  0  0
 24 89  1  0  0  0
 25 90  1  0  0  0
 26 91  1  0  0  0
 26 92  1  0  0  0
 27 93  1  0  0  0
 27 94  1  0  0  0
 29 95  1  0  0  0
 30 96  1  0  0  0
 31 97  1  0  0  0
 32 98  1  0  0  0
 33 99  1  0  0  0
 34100  1  0  0  0
 34101  1  0  0  0
 35102  1  0  0  0
 38103  1  0  0  0
 38104  1  0  0  0
 40105  1  0  0  0
 41106  1  0  0  0
 42107  1  0  0  0
 43108  1  0  0  0
 44109  1  0  0  0
 45110  1  0  0  0
 46111  1  0  0  0
 49112  1  0  0  0
 49113  1  0  0  0
 50114  1  0  0  0
 50115  1  0  0  0
 51116  1  0  0  0
 51117  1  0  0  0
 52118  1  0  0  0
 54119  1  0  0  0
 55120  1  0  0  0
 55121  1  0  0  0
 56122  1  0  0  0
 57123  1  0  0  0
 59124  1  0  0  0
 60125  1  0  0  0
 60126  1  0  0  0
 61127  1  0  0  0
 61128  1  0  0  0
 63129  1  0  0  0
M  END
$$$$
