1l5s_ligand
  -I-interpret- 

 16 17  0  0  0  0  0  0  0  0999 V2000
   38.2170  -59.8000   98.3950 N   0  0  0  0  0
   36.8790  -59.8580   98.2720 C   0  0  0  0  0
   38.8200  -59.2600   99.4670 C   0  0  0  0  0
   36.0750  -59.3720   99.2250 N   0  0  0  0  0
   36.3880  -60.3650   97.2760 O   0  0  0  0  0
   36.5840  -58.8190  100.3250 C   0  0  0  0  0
   37.9180  -58.7230  100.5210 C   0  0  0  0  0
   36.0360  -58.2870  101.3770 N   0  0  0  0  0
   40.0320  -59.1930   99.6130 O   0  0  0  0  0
   38.1010  -58.1470  101.6710 N   0  0  0  0  0
   36.9450  -57.8660  102.2240 C   0  0  0  0  0
   36.7530  -57.3270  103.3000 O   0  0  0  0  0
   38.7957  -60.1804   97.6461 H   0  0  0  0  0
   35.0631  -59.4254   99.1081 H   0  0  0  0  0
   35.0299  -58.2073  101.5247 H   0  0  0  0  0
   39.0111  -57.9429  102.0839 H   0  0  0  0  0
  1  2  1  0  0  0
  1  3  1  0  0  0
  2  4  1  0  0  0
  2  5  2  0  0  0
  3  7  1  0  0  0
  3  9  2  0  0  0
  4  6  1  0  0  0
  6  7  2  0  0  0
  6  8  1  0  0  0
  7 10  1  0  0  0
  8 11  1  0  0  0
 10 11  1  0  0  0
 11 12  2  0  0  0
  1 13  1  0  0  0
  4 14  1  0  0  0
  8 15  1  0  0  0
 10 16  1  0  0  0
M  END
$$$$
