4zyf_ligand
  -I-interpret- 

 95100  0  0  0  0  0  0  0  0999 V2000
  -21.7040   -7.8800   -6.0020 C   0  0  0  0  0
   -5.2110  -14.6160   -1.5050 C   0  0  0  0  0
   -6.2030  -14.2090   -0.5900 C   0  0  0  0  0
   -9.0020  -10.9940   -2.7120 C   0  0  0  0  0
   -9.3180  -12.3150   -3.0850 C   0  0  0  0  0
  -10.5760  -12.8010   -2.7320 C   0  0  0  0  0
  -11.5260  -12.0120   -2.0490 C   0  0  0  0  0
  -11.1870  -10.6920   -1.6790 C   0  0  0  0  0
   -9.9310  -10.1960   -2.0230 C   0  0  0  0  0
  -13.7780  -11.8610   -1.0250 C   0  0  0  0  0
  -14.7300  -11.0470   -1.9170 C   0  0  0  0  0
  -15.7550  -10.3120   -0.9860 C   0  0  0  0  0
   -6.8160  -10.5590   -1.8480 C   0  0  0  0  0
   -7.3810   -9.9000   -4.2010 C   0  0  0  0  0
   -6.0080   -9.3300   -4.4450 C   0  0  0  0  0
   -5.2590   -8.9980   -3.1360 C   0  0  0  0  0
   -5.6380   -9.5910   -1.9170 C   0  0  0  0  0
   -4.9680   -9.3080   -0.7190 C   0  0  0  0  0
   -3.8710   -8.4160   -0.7160 C   0  0  0  0  0
   -3.4730   -7.8180   -1.9180 C   0  0  0  0  0
   -4.1570   -8.1020   -3.1440 C   0  0  0  0  0
   -1.8240   -6.2570   -2.9220 C   0  0  0  0  0
   -4.4870  -16.2250   -1.4770 Cl  0  0  0  0  0
   -6.7350  -12.8900   -0.6840 C   0  0  0  0  0
   -6.2610  -12.0020   -1.6940 C   0  0  0  0  0
   -5.2720  -12.4480   -2.6020 C   0  0  0  0  0
   -4.7420  -13.7480   -2.5100 C   0  0  0  0  0
   -7.7350  -10.4500   -3.0090 N   0  0  0  0  0
   -2.3840   -6.9550   -1.7890 O   0  0  0  0  0
   -3.1590   -8.0960    0.4550 O   0  0  0  0  0
   -3.4870   -8.6750    1.7420 C   0  0  0  0  0
   -2.9080   -7.7230    2.8210 C   0  0  0  0  0
   -2.8910  -10.0910    1.9590 C   0  0  0  0  0
   -8.1810   -9.8490   -5.1180 O   0  0  0  0  0
  -12.7080  -12.5810   -1.7270 N   0  0  0  0  0
  -16.8050   -9.5210   -1.8420 C   0  0  0  0  0
  -17.5270  -10.4100   -2.9300 C   0  0  0  0  0
  -16.4380  -11.0540   -3.8470 C   0  0  0  0  0
  -15.4790  -11.9220   -2.9710 C   0  0  0  0  0
  -18.6220   -9.6970   -3.6940 N   0  3  0  0  0
  -19.8640   -9.2410   -2.9800 C   0  0  0  0  0
  -21.0340   -9.1660   -4.0030 C   0  0  0  0  0
  -20.6400   -8.3990   -5.1930 N   0  0  0  0  0
  -19.3330   -8.1560   -5.5510 C   0  0  0  0  0
  -18.1930   -8.6930   -4.7130 C   0  0  0  0  0
  -18.9940   -7.5080   -6.5420 O   0  0  0  0  0
  -12.9380  -14.0120   -2.0390 C   0  0  0  0  0
  -22.3159   -8.7045   -6.3679 H   0  0  0  0  0
  -22.3186   -7.2073   -5.4038 H   0  0  0  0  0
  -21.2835   -7.3350   -6.8471 H   0  0  0  0  0
   -6.5587  -14.8941    0.1795 H   0  0  0  0  0
   -8.6053  -12.9343   -3.6295 H   0  0  0  0  0
  -10.8351  -13.8271   -2.9929 H   0  0  0  0  0
  -11.8968  -10.0707   -1.1328 H   0  0  0  0  0
   -9.6652   -9.1738   -1.7536 H   0  0  0  0  0
  -14.3881  -12.6181   -0.5324 H   0  0  0  0  0
  -13.2874  -11.1464   -0.3642 H   0  0  0  0  0
  -14.1386  -10.3332   -2.4904 H   0  0  0  0  0
  -15.2157   -9.6102   -0.3498 H   0  0  0  0  0
  -16.2774  -11.0524   -0.3801 H   0  0  0  0  0
   -7.4229  -10.2959   -0.9817 H   0  0  0  0  0
   -6.1254   -8.4037   -5.0075 H   0  0  0  0  0
   -5.4259  -10.0782   -4.9830 H   0  0  0  0  0
   -5.2927   -9.7756    0.2105 H   0  0  0  0  0
   -3.8348   -7.6348   -4.0746 H   0  0  0  0  0
   -1.4759   -6.9819   -3.6579 H   0  0  0  0  0
   -2.5881   -5.6214   -3.3695 H   0  0  0  0  0
   -0.9867   -5.6426   -2.5910 H   0  0  0  0  0
   -7.5033  -12.5605    0.0154 H   0  0  0  0  0
   -4.9161  -11.7759   -3.3828 H   0  0  0  0  0
   -3.9755  -14.0803   -3.2101 H   0  0  0  0  0
   -4.5698   -8.7859    1.8001 H   0  0  0  0  0
   -1.8281   -7.6461    2.6941 H   0  0  0  0  0
   -3.3590   -6.7366    2.7131 H   0  0  0  0  0
   -3.1314   -8.1197    3.8114 H   0  0  0  0  0
   -3.2721  -10.7656    1.1923 H   0  0  0  0  0
   -1.8042  -10.0404    1.8927 H   0  0  0  0  0
   -3.1795  -10.4582    2.9439 H   0  0  0  0  0
  -16.2707   -8.7293   -2.3671 H   0  0  0  0  0
  -17.5707   -9.1497   -1.1609 H   0  0  0  0  0
  -18.0747  -11.2009   -2.4175 H   0  0  0  0  0
  -15.8690  -10.2698   -4.3463 H   0  0  0  0  0
  -16.9165  -11.6818   -4.5986 H   0  0  0  0  0
  -16.0709  -12.6705   -2.4443 H   0  0  0  0  0
  -14.7409  -12.3900   -3.6224 H   0  0  0  0  0
  -18.9286  -10.5351   -4.1880 H   0  0  0  0  0
  -19.6961   -8.2583   -2.5393 H   0  0  0  0  0
  -20.1128   -9.9456   -2.1864 H   0  0  0  0  0
  -21.8820   -8.6701   -3.5307 H   0  0  0  0  0
  -21.2979  -10.1782   -4.3093 H   0  0  0  0  0
  -17.4964   -9.1897   -5.3884 H   0  0  0  0  0
  -17.7554   -7.8503   -4.1778 H   0  0  0  0  0
  -12.8485  -14.1671   -3.1142 H   0  0  0  0  0
  -12.1965  -14.6194   -1.5201 H   0  0  0  0  0
  -13.9375  -14.2979   -1.7113 H   0  0  0  0  0
 43  1  1  0  0  0
  3  2  4  0  0  0
  2 23  1  0  0  0
 27  2  4  0  0  0
 24  3  4  0  0  0
  5  4  4  0  0  0
  9  4  4  0  0  0
  4 28  1  0  0  0
  6  5  4  0  0  0
  7  6  4  0  0  0
  7  8  4  0  0  0
 35  7  1  0  0  0
  8  9  4  0  0  0
 11 10  1  0  0  0
 10 35  1  0  0  0
 12 11  1  0  0  0
 39 11  1  0  0  0
 36 12  1  0  0  0
 13 17  1  0  0  0
 13 25  1  0  0  0
 28 13  1  0  0  0
 14 15  1  0  0  0
 28 14  1  0  0  0
 14 34  2  0  0  0
 15 16  1  0  0  0
 17 16  4  0  0  0
 16 21  4  0  0  0
 17 18  4  0  0  0
 18 19  4  0  0  0
 19 20  4  0  0  0
 19 30  1  0  0  0
 21 20  4  0  0  0
 20 29  1  0  0  0
 29 22  1  0  0  0
 25 24  4  0  0  0
 25 26  4  0  0  0
 26 27  4  0  0  0
 30 31  1  0  0  0
 31 32  1  0  0  0
 31 33  1  0  0  0
 35 47  1  0  0  0
 37 36  1  0  0  0
 37 38  1  0  0  0
 40 37  1  0  0  0
 38 39  1  0  0  0
 41 40  1  0  0  0
 40 45  1  0  0  0
 42 41  1  0  0  0
 42 43  1  0  0  0
 43 44  1  0  0  0
 44 45  1  0  0  0
 44 46  2  0  0  0
  1 48  1  0  0  0
  1 49  1  0  0  0
  1 50  1  0  0  0
  3 51  1  0  0  0
  5 52  1  0  0  0
  6 53  1  0  0  0
  8 54  1  0  0  0
  9 55  1  0  0  0
 10 56  1  0  0  0
 10 57  1  0  0  0
 11 58  1  0  0  0
 12 59  1  0  0  0
 12 60  1  0  0  0
 13 61  1  0  0  0
 15 62  1  0  0  0
 15 63  1  0  0  0
 18 64  1  0  0  0
 21 65  1  0  0  0
 22 66  1  0  0  0
 22 67  1  0  0  0
 22 68  1  0  0  0
 24 69  1  0  0  0
 26 70  1  0  0  0
 27 71  1  0  0  0
 31 72  1  0  0  0
 32 73  1  0  0  0
 32 74  1  0  0  0
 32 75  1  0  0  0
 33 76  1  0  0  0
 33 77  1  0  0  0
 33 78  1  0  0  0
 36 79  1  0  0  0
 36 80  1  0  0  0
 37 81  1  0  0  0
 38 82  1  0  0  0
 38 83  1  0  0  0
 39 84  1  0  0  0
 39 85  1  0  0  0
 40 86  1  0  0  0
 41 87  1  0  0  0
 41 88  1  0  0  0
 42 89  1  0  0  0
 42 90  1  0  0  0
 45 91  1  0  0  0
 45 92  1  0  0  0
 47 93  1  0  0  0
 47 94  1  0  0  0
 47 95  1  0  0  0
M  END
$$$$
