5ljj_ligand
  -I-interpret- 

 55 59  0  0  0  0  0  0  0  0999 V2000
  -37.5730  -14.8780  -13.5640 C   0  0  0  0  0
  -37.4730  -13.3810  -13.2890 C   0  0  0  0  0
  -36.1450  -12.8320  -13.7720 C   0  0  0  0  0
  -34.9760  -13.6100  -13.1940 C   0  0  0  0  0
  -35.1270  -15.1200  -13.3900 C   0  0  0  0  0
  -36.4570  -15.6050  -12.8460 C   0  0  0  0  0
  -36.5950  -17.0590  -12.9580 N   0  0  0  0  0
  -36.0150  -17.9710  -12.1430 C   0  0  0  0  0
  -35.2760  -17.5180  -11.1180 N   0  0  0  0  0
  -36.1330  -19.3630  -12.3170 C   0  0  0  0  0
  -36.8070  -20.1360  -13.2560 N   0  0  0  0  0
  -36.5320  -21.3670  -12.8930 C   0  0  0  0  0
  -35.7440  -21.4540  -11.7890 N   0  0  0  0  0
  -35.4770  -20.1720  -11.4090 C   0  0  0  0  0
  -34.7270  -19.7350  -10.3700 N   0  0  0  0  0
  -34.6610  -18.3920  -10.2780 C   0  0  0  0  0
  -33.9020  -17.8990   -9.2600 N   0  0  0  0  0
  -33.6790  -16.5630   -8.8520 C   0  0  0  0  0
  -33.3710  -16.3610   -7.5120 C   0  0  0  0  0
  -33.1480  -15.0980   -7.0350 C   0  0  0  0  0
  -33.7410  -15.4670   -9.7110 C   0  0  0  0  0
  -33.5180  -14.1990   -9.2390 C   0  0  0  0  0
  -33.2080  -13.9850   -7.8890 C   0  0  0  0  0
  -32.9920  -12.6910   -7.3850 N   0  0  0  0  0
  -33.9870  -11.6380   -7.5360 C   0  0  0  0  0
  -33.3130  -10.3520   -7.9450 C   0  0  0  0  0
  -32.2720  -10.0040   -7.0390 O   0  0  0  0  0
  -31.2610  -11.0090   -7.0360 C   0  0  0  0  0
  -31.8020  -12.3540   -6.6120 C   0  0  0  0  0
  -37.4876  -15.0546  -14.6362 H   0  0  0  0  0
  -38.5338  -15.2475  -13.2055 H   0  0  0  0  0
  -37.5518  -13.2151  -12.2146 H   0  0  0  0  0
  -38.2775  -12.8718  -13.8196 H   0  0  0  0  0
  -36.0625  -11.7946  -13.4479 H   0  0  0  0  0
  -36.1117  -12.9163  -14.8582 H   0  0  0  0  0
  -34.9349  -13.4112  -12.1231 H   0  0  0  0  0
  -34.0704  -13.2916  -13.7104 H   0  0  0  0  0
  -34.3235  -15.6254  -12.8543 H   0  0  0  0  0
  -35.0822  -15.3416  -14.4563 H   0  0  0  0  0
  -36.5099  -15.3798  -11.7808 H   0  0  0  0  0
  -37.1783  -17.4149  -13.7153 H   0  0  0  0  0
  -36.9023  -22.2410  -13.4288 H   0  0  0  0  0
  -33.4182  -18.6043   -8.7043 H   0  0  0  0  0
  -33.3066  -17.2141   -6.8366 H   0  0  0  0  0
  -32.9209  -14.9541   -5.9787 H   0  0  0  0  0
  -33.9685  -15.6191  -10.7661 H   0  0  0  0  0
  -33.5824  -13.3501   -9.9197 H   0  0  0  0  0
  -34.5008  -11.4891   -6.5863 H   0  0  0  0  0
  -34.7049  -11.9282   -8.3032 H   0  0  0  0  0
  -34.0561   -9.5545   -7.9432 H   0  0  0  0  0
  -32.8801  -10.4867   -8.9363 H   0  0  0  0  0
  -30.4883  -10.7132   -6.3264 H   0  0  0  0  0
  -30.8703  -11.1026   -8.0493 H   0  0  0  0  0
  -31.0397  -13.1136   -6.7852 H   0  0  0  0  0
  -32.0654  -12.3132   -5.5551 H   0  0  0  0  0
  1  2  1  0  0  0
  1  6  1  0  0  0
  2  3  1  0  0  0
  3  4  1  0  0  0
  4  5  1  0  0  0
  5  6  1  0  0  0
  6  7  1  0  0  0
  7  8  1  0  0  0
  8  9  4  0  0  0
  8 10  4  0  0  0
  9 16  4  0  0  0
 10 11  4  0  0  0
 10 14  4  0  0  0
 11 12  4  0  0  0
 12 13  4  0  0  0
 13 14  4  0  0  0
 14 15  4  0  0  0
 15 16  4  0  0  0
 16 17  1  0  0  0
 17 18  1  0  0  0
 18 19  4  0  0  0
 18 21  4  0  0  0
 19 20  4  0  0  0
 20 23  4  0  0  0
 21 22  4  0  0  0
 22 23  4  0  0  0
 23 24  1  0  0  0
 24 25  1  0  0  0
 24 29  1  0  0  0
 25 26  1  0  0  0
 26 27  1  0  0  0
 27 28  1  0  0  0
 28 29  1  0  0  0
  1 30  1  0  0  0
  1 31  1  0  0  0
  2 32  1  0  0  0
  2 33  1  0  0  0
  3 34  1  0  0  0
  3 35  1  0  0  0
  4 36  1  0  0  0
  4 37  1  0  0  0
  5 38  1  0  0  0
  5 39  1  0  0  0
  6 40  1  0  0  0
  7 41  1  0  0  0
 12 42  1  0  0  0
 17 43  1  0  0  0
 19 44  1  0  0  0
 20 45  1  0  0  0
 21 46  1  0  0  0
 22 47  1  0  0  0
 25 48  1  0  0  0
 25 49  1  0  0  0
 26 50  1  0  0  0
 26 51  1  0  0  0
 28 52  1  0  0  0
 28 53  1  0  0  0
 29 54  1  0  0  0
 29 55  1  0  0  0
M  END
$$$$
