5d9k_ligand
  -I-interpret- 

 51 53  0  0  0  0  0  0  0  0999 V2000
   -3.3840   14.3050   29.9230 C   0  0  0  0  0
   -4.9880   15.2660   28.5910 C   0  0  0  0  0
   -4.8700   16.4910   29.3100 C   0  0  0  0  0
   -7.4020   18.3950   27.6560 O   0  0  0  0  0
   -2.8970    8.3100   27.7560 O   0  0  0  0  0
   -9.0340   11.6080   26.8680 C   0  0  0  0  0
   -7.0450   11.6000   25.3660 C   0  0  0  0  0
   -5.9840   18.6060   29.9880 C   0  0  0  0  0
   -2.6040   11.9330   29.7140 C   0  0  0  0  0
   -3.8240   11.2630   29.6850 C   0  0  0  0  0
   -3.8830   10.0230   29.1070 C   0  0  0  0  0
   -2.7980    9.4260   28.5070 C   0  0  0  0  0
   -1.5900   10.0900   28.5830 C   0  0  0  0  0
   -1.4670   11.3250   29.1820 C   0  0  0  0  0
   -3.1520   15.4200   30.6280 N   0  0  0  0  0
   -4.2740   14.1740   28.9210 N   0  0  0  0  0
   -3.9000   16.4830   30.3050 C   0  0  0  0  0
   -2.5960   13.2370   30.2490 N   0  0  0  0  0
   -5.7690   15.2340   27.4440 N   0  0  0  0  0
   -6.0460   13.9620   26.7770 C   0  0  0  0  0
   -7.4640   13.4670   27.0280 C   0  0  0  0  0
   -7.5850   12.0020   26.7290 C   0  0  0  0  0
   -6.3370   16.4530   26.8350 C   0  0  0  0  0
   -6.5520   17.5420   27.8650 C   0  0  0  0  0
   -5.7870   17.5270   29.0160 N   0  0  0  0  0
   -5.4660   16.9920   25.7030 C   0  0  0  0  0
   -5.0240    9.3120   29.1820 F   0  0  0  0  0
   -0.5040    9.5090   28.0150 F   0  0  0  0  0
   -2.0266    8.0636   27.4347 H   0  0  0  0  0
   -9.6204   12.1063   26.0960 H   0  0  0  0  0
   -9.1277   10.5278   26.7567 H   0  0  0  0  0
   -9.3975   11.9062   27.8514 H   0  0  0  0  0
   -7.5920   12.1330   24.5883 H   0  0  0  0  0
   -5.9866   11.8538   25.3066 H   0  0  0  0  0
   -7.1706   10.5259   25.2292 H   0  0  0  0  0
   -5.7661   19.5636   29.5151 H   0  0  0  0  0
   -7.0175   18.5972   30.3342 H   0  0  0  0  0
   -5.3144   18.4569   30.8351 H   0  0  0  0  0
   -4.7166   11.7175   30.1149 H   0  0  0  0  0
   -0.4969   11.8187   29.2391 H   0  0  0  0  0
   -3.7365   17.4060   30.8613 H   0  0  0  0  0
   -1.9064   13.4072   30.9810 H   0  0  0  0  0
   -5.3554   13.2176   27.1733 H   0  0  0  0  0
   -5.9280   14.1128   25.7040 H   0  0  0  0  0
   -8.1450   14.0137   26.3757 H   0  0  0  0  0
   -7.7101   13.6305   28.0772 H   0  0  0  0  0
   -6.9625   11.4674   27.4465 H   0  0  0  0  0
   -7.3011   16.1608   26.4187 H   0  0  0  0  0
   -4.4774   17.2362   26.0917 H   0  0  0  0  0
   -5.3748   16.2348   24.9243 H   0  0  0  0  0
   -5.9261   17.8886   25.2876 H   0  0  0  0  0
  1 15  4  0  0  0
 16  1  4  0  0  0
  1 18  1  0  0  0
  2  3  4  0  0  0
  2 16  4  0  0  0
 19  2  1  0  0  0
  3 17  4  0  0  0
  3 25  1  0  0  0
 24  4  2  0  0  0
 12  5  1  0  0  0
 22  6  1  0  0  0
 22  7  1  0  0  0
 25  8  1  0  0  0
  9 10  4  0  0  0
  9 14  4  0  0  0
 18  9  1  0  0  0
 10 11  4  0  0  0
 11 12  4  0  0  0
 11 27  1  0  0  0
 13 12  4  0  0  0
 14 13  4  0  0  0
 13 28  1  0  0  0
 17 15  4  0  0  0
 19 20  1  0  0  0
 23 19  1  0  0  0
 20 21  1  0  0  0
 21 22  1  0  0  0
 23 24  1  0  0  0
 23 26  1  0  0  0
 24 25  1  0  0  0
  5 29  1  0  0  0
  6 30  1  0  0  0
  6 31  1  0  0  0
  6 32  1  0  0  0
  7 33  1  0  0  0
  7 34  1  0  0  0
  7 35  1  0  0  0
  8 36  1  0  0  0
  8 37  1  0  0  0
  8 38  1  0  0  0
 10 39  1  0  0  0
 14 40  1  0  0  0
 17 41  1  0  0  0
 18 42  1  0  0  0
 20 43  1  0  0  0
 20 44  1  0  0  0
 21 45  1  0  0  0
 21 46  1  0  0  0
 22 47  1  0  0  0
 23 48  1  0  0  0
 26 49  1  0  0  0
 26 50  1  0  0  0
 26 51  1  0  0  0
M  END
$$$$
