4mk2_ligand
  -I-interpret- 

 24 25  0  0  0  0  0  0  0  0999 V2000
    9.0400   19.7670   -8.3890 O   0  0  0  0  0
    9.5940   20.4300   -9.2560 C   0  0  0  0  0
   10.0510   21.7500   -8.9540 C   0  0  0  0  0
    9.8610   22.2290   -7.6990 O   0  0  0  0  0
   10.6940   22.5550   -9.9440 C   0  0  0  0  0
   10.8930   22.0060  -11.2460 C   0  0  0  0  0
   11.5590   22.8120  -12.3050 C   0  0  0  0  0
   12.5840   23.6860  -11.9830 C   0  0  0  0  0
   13.1840   24.4320  -12.9840 C   0  0  0  0  0
   12.7630   24.3090  -14.2980 C   0  0  0  0  0
   11.7370   23.4330  -14.6180 C   0  0  0  0  0
   11.2690   23.2820  -16.0280 C   0  0  0  0  0
   10.8900   23.1460  -17.0990 N   0  0  0  0  0
   11.1310   22.6830  -13.6210 C   0  0  0  0  0
   10.4500   20.6910  -11.5510 C   0  0  0  0  0
    9.8040   19.9010  -10.5440 N   0  0  0  0  0
    9.4184   21.5634   -7.1673 H   0  0  0  0  0
   11.0254   23.5666   -9.7097 H   0  0  0  0  0
   12.9160   23.7860  -10.9496 H   0  0  0  0  0
   13.9923   25.1200  -12.7363 H   0  0  0  0  0
   13.2383   24.9008  -15.0803 H   0  0  0  0  0
   10.3224   21.9952  -13.8686 H   0  0  0  0  0
   10.6012   20.2829  -12.5503 H   0  0  0  0  0
    9.4957   18.9533  -10.7611 H   0  0  0  0  0
  1  2  2  0  0  0
  2  3  1  0  0  0
  2 16  1  0  0  0
  3  4  1  0  0  0
  3  5  2  0  0  0
  5  6  1  0  0  0
  6  7  1  0  0  0
  6 15  2  0  0  0
  7  8  4  0  0  0
  7 14  4  0  0  0
  8  9  4  0  0  0
  9 10  4  0  0  0
 10 11  4  0  0  0
 11 12  1  0  0  0
 11 14  4  0  0  0
 12 13  3  0  0  0
 15 16  1  0  0  0
  4 17  1  0  0  0
  5 18  1  0  0  0
  8 19  1  0  0  0
  9 20  1  0  0  0
 10 21  1  0  0  0
 14 22  1  0  0  0
 15 23  1  0  0  0
 16 24  1  0  0  0
M  END
$$$$
