4fcd_ligand
  -I-interpret- 

 40 43  0  0  0  0  0  0  0  0999 V2000
   21.2100  -12.7090  -30.8710 C   0  0  0  0  0
   20.9560  -12.0520  -32.1650 C   0  0  0  0  0
   21.3450  -12.4640  -33.4220 C   0  0  0  0  0
   22.0390  -13.5480  -33.8570 N   0  0  0  0  0
   22.2950  -13.7470  -35.0730 N   0  0  0  0  0
   21.8440  -12.8130  -36.0430 C   0  0  0  0  0
   21.1110  -11.6600  -35.6720 C   0  0  0  0  0
   20.8670  -11.5040  -34.2900 N   0  0  0  0  0
   20.2100  -10.5450  -33.5220 C   0  0  0  0  0
   20.2600  -10.8740  -32.2410 N   0  0  0  0  0
   19.5330   -9.3360  -33.9910 C   0  0  0  0  0
   20.0210   -8.0580  -33.6560 C   0  0  0  0  0
   19.3590   -6.9090  -34.1100 C   0  0  0  0  0
   18.2040   -7.0200  -34.8930 C   0  0  0  0  0
   17.7040   -8.2840  -35.2250 C   0  0  0  0  0
   18.3680   -9.4360  -34.7710 C   0  0  0  0  0
   17.7450  -10.9990  -35.1970 Cl  0  0  0  0  0
   20.6810  -10.7560  -36.6380 C   0  0  0  0  0
   20.9660  -10.9680  -37.9870 C   0  0  0  0  0
   21.6890  -12.1130  -38.3750 C   0  0  0  0  0
   22.1360  -13.0410  -37.4070 C   0  0  0  0  0
   22.8560  -14.1960  -37.6620 O   0  0  0  0  0
   23.5150  -14.3730  -38.9160 C   0  0  0  0  0
   20.4520   -9.9620  -38.7680 O   0  0  0  0  0
   20.7630   -9.9050  -40.1540 C   0  0  0  0  0
   20.7686  -13.7056  -30.8781 H   0  0  0  0  0
   22.2851  -12.7876  -30.7097 H   0  0  0  0  0
   20.7635  -12.1182  -30.0712 H   0  0  0  0  0
   20.9163   -7.9622  -33.0417 H   0  0  0  0  0
   19.7458   -5.9232  -33.8518 H   0  0  0  0  0
   17.6945   -6.1225  -35.2438 H   0  0  0  0  0
   16.8038   -8.3745  -35.8329 H   0  0  0  0  0
   20.1159   -9.8735  -36.3379 H   0  0  0  0  0
   21.9053  -12.2846  -39.4294 H   0  0  0  0  0
   22.7790  -14.3419  -39.7194 H   0  0  0  0  0
   24.2436  -13.5749  -39.0579 H   0  0  0  0  0
   24.0238  -15.3369  -38.9248 H   0  0  0  0  0
   21.8416   -9.8102  -40.2794 H   0  0  0  0  0
   20.4182  -10.8176  -40.6403 H   0  0  0  0  0
   20.2668   -9.0437  -40.6013 H   0  0  0  0  0
  1  2  1  0  0  0
  2  3  4  0  0  0
  2 10  4  0  0  0
  3  4  4  0  0  0
  3  8  4  0  0  0
  4  5  4  0  0  0
  5  6  4  0  0  0
  6  7  4  0  0  0
  6 21  4  0  0  0
  7  8  4  0  0  0
  7 18  4  0  0  0
  8  9  4  0  0  0
  9 10  4  0  0  0
  9 11  1  0  0  0
 11 12  4  0  0  0
 11 16  4  0  0  0
 12 13  4  0  0  0
 13 14  4  0  0  0
 14 15  4  0  0  0
 15 16  4  0  0  0
 16 17  1  0  0  0
 18 19  4  0  0  0
 19 20  4  0  0  0
 19 24  1  0  0  0
 20 21  4  0  0  0
 21 22  1  0  0  0
 22 23  1  0  0  0
 24 25  1  0  0  0
  1 26  1  0  0  0
  1 27  1  0  0  0
  1 28  1  0  0  0
 12 29  1  0  0  0
 13 30  1  0  0  0
 14 31  1  0  0  0
 15 32  1  0  0  0
 18 33  1  0  0  0
 20 34  1  0  0  0
 23 35  1  0  0  0
 23 36  1  0  0  0
 23 37  1  0  0  0
 25 38  1  0  0  0
 25 39  1  0  0  0
 25 40  1  0  0  0
M  END
$$$$
