3vye_ligand
  -I-interpret- 

 67 69  0  0  0  0  0  0  0  0999 V2000
  179.7930  202.1500  100.7210 C   0  0  0  0  0
  179.4240  203.6160  100.5170 C   0  0  0  0  0
  179.5100  204.0200   99.1220 N   0  3  0  0  0
  178.6230  203.2160   98.2830 C   0  0  0  0  0
  178.9560  201.7290   98.3620 C   0  0  0  0  0
  178.9910  201.2090   99.8010 C   0  0  0  0  0
  178.1080  200.9350   97.4740 N   0  3  0  0  0
  176.7920  200.5940   97.9520 C   0  0  0  0  0
  175.8500  200.0060   96.8830 C   0  0  0  0  0
  176.4170  199.6350   95.6740 N   0  0  0  0  0
  177.8600  199.7850   95.3910 C   0  0  0  0  0
  178.7460  199.9750   96.6020 C   0  0  0  0  0
  174.6600  199.8850   97.1190 O   0  0  0  0  0
  180.1180  200.5000   96.1500 C   0  0  0  0  0
  178.9310  198.6410   97.3400 C   0  0  0  0  0
  175.6030  199.1090   94.6860 C   0  0  0  0  0
  175.3040  197.7630   94.5850 C   0  0  0  0  0
  174.4870  197.2520   93.5920 C   0  0  0  0  0
  173.9500  198.1350   92.6610 C   0  0  0  0  0
  174.2380  199.4970   92.7400 C   0  0  0  0  0
  175.0670  199.9860   93.7540 C   0  0  0  0  0
  175.9620  196.6730   95.7350 Cl  0  0  0  0  0
  179.6450  201.7510  102.1970 C   0  0  0  0  0
  178.7060  201.0650  102.5920 O   0  0  0  0  0
  180.6350  202.2230  102.9770 N   0  0  0  0  0
  180.6000  201.9030  104.3970 C   0  0  0  0  0
  181.0380  200.4520  104.6060 C   0  0  0  0  0
  182.5190  200.3000  104.9620 C   0  0  0  0  0
  183.0970  198.9570  104.5150 C   0  0  0  0  0
  183.3890  201.4870  104.5340 C   0  0  0  0  0
  180.8404  202.0394  100.4402 H   0  0  0  0  0
  180.1262  204.2234  101.0881 H   0  0  0  0  0
  178.3937  203.7535  100.8453 H   0  0  0  0  0
  180.4695  203.8863   98.8029 H   0  0  0  0  0
  179.2296  204.9980   99.0484 H   0  0  0  0  0
  178.7459  203.5388   97.2492 H   0  0  0  0  0
  177.6009  203.3560   98.6348 H   0  0  0  0  0
  179.9744  201.6085   97.9927 H   0  0  0  0  0
  177.9680  201.1514  100.1727 H   0  0  0  0  0
  179.4717  200.2307   99.8035 H   0  0  0  0  0
  177.8885  201.6615   96.7925 H   0  0  0  0  0
  176.3336  201.5179   98.3048 H   0  0  0  0  0
  176.9211  199.8280   98.7167 H   0  0  0  0  0
  177.9652  200.6854   94.7857 H   0  0  0  0  0
  178.1804  198.8583   94.9149 H   0  0  0  0  0
  179.9872  201.4395   95.6131 H   0  0  0  0  0
  180.7486  200.6642   97.0238 H   0  0  0  0  0
  180.5878  199.7673   95.4938 H   0  0  0  0  0
  179.5541  198.7977   98.2205 H   0  0  0  0  0
  177.9573  198.2584   97.6459 H   0  0  0  0  0
  179.4124  197.9234   96.6756 H   0  0  0  0  0
  174.2698  196.1851   93.5407 H   0  0  0  0  0
  173.3025  197.7613   91.8678 H   0  0  0  0  0
  173.8146  200.1841   92.0073 H   0  0  0  0  0
  175.2912  201.0511   93.8121 H   0  0  0  0  0
  181.3879  202.7884  102.5848 H   0  0  0  0  0
  179.5852  202.0331  104.7731 H   0  0  0  0  0
  181.2765  202.5670  104.9351 H   0  0  0  0  0
  180.8732  199.9238  103.6669 H   0  0  0  0  0
  180.4603  200.0547  105.4405 H   0  0  0  0  0
  182.5485  200.3063  106.0516 H   0  0  0  0  0
  182.5510  198.1482  105.0006 H   0  0  0  0  0
  183.0011  198.8636  103.4332 H   0  0  0  0  0
  184.1495  198.9051  104.7936 H   0  0  0  0  0
  183.3287  201.6088  103.4525 H   0  0  0  0  0
  183.0315  202.3930  105.0234 H   0  0  0  0  0
  184.4234  201.3005  104.8228 H   0  0  0  0  0
  1  2  1  0  0  0
  1  6  1  0  0  0
  1 23  1  0  0  0
  2  3  1  0  0  0
  3  4  1  0  0  0
  4  5  1  0  0  0
  5  6  1  0  0  0
  5  7  1  0  0  0
  7  8  1  0  0  0
  7 12  1  0  0  0
  8  9  1  0  0  0
  9 10  1  0  0  0
  9 13  2  0  0  0
 10 11  1  0  0  0
 10 16  1  0  0  0
 11 12  1  0  0  0
 12 14  1  0  0  0
 12 15  1  0  0  0
 16 17  4  0  0  0
 16 21  4  0  0  0
 17 18  4  0  0  0
 17 22  1  0  0  0
 18 19  4  0  0  0
 19 20  4  0  0  0
 20 21  4  0  0  0
 23 24  2  0  0  0
 23 25  1  0  0  0
 25 26  1  0  0  0
 26 27  1  0  0  0
 27 28  1  0  0  0
 28 29  1  0  0  0
 28 30  1  0  0  0
  1 31  1  0  0  0
  2 32  1  0  0  0
  2 33  1  0  0  0
  3 34  1  0  0  0
  3 35  1  0  0  0
  4 36  1  0  0  0
  4 37  1  0  0  0
  5 38  1  0  0  0
  6 39  1  0  0  0
  6 40  1  0  0  0
  7 41  1  0  0  0
  8 42  1  0  0  0
  8 43  1  0  0  0
 11 44  1  0  0  0
 11 45  1  0  0  0
 14 46  1  0  0  0
 14 47  1  0  0  0
 14 48  1  0  0  0
 15 49  1  0  0  0
 15 50  1  0  0  0
 15 51  1  0  0  0
 18 52  1  0  0  0
 19 53  1  0  0  0
 20 54  1  0  0  0
 21 55  1  0  0  0
 25 56  1  0  0  0
 26 57  1  0  0  0
 26 58  1  0  0  0
 27 59  1  0  0  0
 27 60  1  0  0  0
 28 61  1  0  0  0
 29 62  1  0  0  0
 29 63  1  0  0  0
 29 64  1  0  0  0
 30 65  1  0  0  0
 30 66  1  0  0  0
 30 67  1  0  0  0
M  END
$$$$
