### 
### Created by X-TOOL on Mon Sep 10 21:13:11 2018
### 

@<TRIPOS>MOLECULE
3vye_ligand
   66    68     1     0     0
SMALL
GAST_HUCK


@<TRIPOS>ATOM
      1 C1        179.7930  202.1500  100.7210 C.3       1 VYE         0.0869
      2 C2        179.4240  203.6160  100.5170 C.3       1 VYE        -0.0139
      3 N3        179.5100  204.0200   99.1220 N.4       1 VYE         0.2276
      4 C4        178.6230  203.2160   98.2830 C.3       1 VYE        -0.0492
      5 C5        178.9560  201.7290   98.3620 C.3       1 VYE        -0.0521
      6 C6        178.9910  201.2090   99.8010 C.3       1 VYE        -0.0391
      7 N7        178.1080  200.9350   97.4740 N.4       1 VYE         0.4254
      8 C8        176.7920  200.5940   97.9520 C.3       1 VYE        -0.0101
      9 C9        175.8500  200.0060   96.8830 C.2       1 VYE         0.1859
     10 N10       176.4170  199.6350   95.6740 N.am      1 VYE        -0.2222
     11 C11       177.8600  199.7850   95.3910 C.3       1 VYE         0.0426
     12 C12       178.7460  199.9750   96.6020 C.3       1 VYE        -0.0635
     13 O13       174.6600  199.8850   97.1190 O.2       1 VYE        -0.3868
     14 C14       180.1180  200.5000   96.1500 C.3       1 VYE        -0.0762
     15 C15       178.9310  198.6410   97.3400 C.3       1 VYE        -0.0762
     16 C16       175.6030  199.1090   94.6860 C.ar      1 VYE         0.0830
     17 C17       175.3040  197.7630   94.5850 C.ar      1 VYE         0.0596
     18 C18       174.4870  197.2520   93.5920 C.ar      1 VYE        -0.0616
     19 C19       173.9500  198.1350   92.6610 C.ar      1 VYE        -0.0766
     20 C20       174.2380  199.4970   92.7400 C.ar      1 VYE        -0.0753
     21 C21       175.0670  199.9860   93.7540 C.ar      1 VYE        -0.0404
     22 CL1       175.9620  196.6730   95.7350 Cl        1 VYE        -0.0830
     23 C23       179.6450  201.7510  102.1970 C.2       1 VYE         0.1841
     24 O24       178.7060  201.0650  102.5920 O.2       1 VYE        -0.3966
     25 N25       180.6350  202.2230  102.9770 N.am      1 VYE        -0.2866
     26 C26       180.6000  201.9030  104.3970 C.3       1 VYE         0.0311
     27 C27       181.0380  200.4520  104.6060 C.3       1 VYE        -0.0304
     28 C28       182.5190  200.3000  104.9620 C.3       1 VYE        -0.0449
     29 C29       183.0970  198.9570  104.5150 C.3       1 VYE        -0.0626
     30 C30       183.3890  201.4870  104.5340 C.3       1 VYE        -0.0626
     31 H         180.8404  202.0394  100.4402 H         1 VYE         0.0591
     32 H         180.1262  204.2234  101.0881 H         1 VYE         0.0842
     33 H         178.3937  203.7535  100.8453 H         1 VYE         0.0842
     34 H         180.4695  203.8863   98.8029 H         1 VYE         0.2014
     35 H         179.2296  204.9980   99.0484 H         1 VYE         0.2014
     36 H         178.7459  203.5388   97.2492 H         1 VYE         0.0796
     37 H         177.6009  203.3560   98.6348 H         1 VYE         0.0796
     38 H         179.9744  201.6085   97.9927 H         1 VYE         0.0109
     39 H         177.9680  201.1514  100.1727 H         1 VYE         0.0279
     40 H         179.4717  200.2307   99.8035 H         1 VYE         0.0279
     41 H         176.3336  201.5179   98.3048 H         1 VYE         0.0263
     42 H         176.9211  199.8280   98.7167 H         1 VYE         0.0263
     43 H         177.9652  200.6854   94.7857 H         1 VYE         0.0571
     44 H         178.1804  198.8583   94.9149 H         1 VYE         0.0571
     45 H         179.9872  201.4395   95.6131 H         1 VYE         0.0216
     46 H         180.7486  200.6642   97.0238 H         1 VYE         0.0216
     47 H         180.5878  199.7673   95.4938 H         1 VYE         0.0216
     48 H         179.5541  198.7977   98.2205 H         1 VYE         0.0216
     49 H         177.9573  198.2584   97.6459 H         1 VYE         0.0216
     50 H         179.4124  197.9234   96.6756 H         1 VYE         0.0216
     51 H         174.2698  196.1851   93.5407 H         1 VYE         0.0583
     52 H         173.3025  197.7613   91.8678 H         1 VYE         0.0488
     53 H         173.8146  200.1841   92.0073 H         1 VYE         0.0579
     54 H         175.2912  201.0511   93.8121 H         1 VYE         0.0502
     55 H         181.3879  202.7884  102.5848 H         1 VYE         0.1851
     56 H         179.5852  202.0331  104.7731 H         1 VYE         0.0520
     57 H         181.2765  202.5670  104.9351 H         1 VYE         0.0520
     58 H         180.8732  199.9238  103.6669 H         1 VYE         0.0287
     59 H         180.4603  200.0547  105.4405 H         1 VYE         0.0287
     60 H         182.5485  200.3063  106.0516 H         1 VYE         0.0296
     61 H         182.5510  198.1482  105.0006 H         1 VYE         0.0232
     62 H         183.0011  198.8636  103.4332 H         1 VYE         0.0232
     63 H         184.1495  198.9051  104.7936 H         1 VYE         0.0232
     64 H         183.3287  201.6088  103.4525 H         1 VYE         0.0232
     65 H         183.0315  202.3930  105.0234 H         1 VYE         0.0232
     66 H         184.4234  201.3005  104.8228 H         1 VYE         0.0232
@<TRIPOS>BOND
     1    1    2 1  
     2    1    6 1  
     3    1   23 1  
     4    2    3 1  
     5    3    4 1  
     6    4    5 1  
     7    5    6 1  
     8    5    7 1  
     9    7    8 1  
    10    7   12 1  
    11    8    9 1  
    12    9   10 am 
    13    9   13 2  
    14   10   11 1  
    15   10   16 1  
    16   11   12 1  
    17   12   14 1  
    18   12   15 1  
    19   16   17 ar 
    20   16   21 ar 
    21   17   18 ar 
    22   17   22 1  
    23   18   19 ar 
    24   19   20 ar 
    25   20   21 ar 
    26   23   24 2  
    27   23   25 am 
    28   25   26 1  
    29   26   27 1  
    30   27   28 1  
    31   28   29 1  
    32   28   30 1  
    33    1   31 1  
    34    2   32 1  
    35    2   33 1  
    36    3   34 1  
    37    3   35 1  
    38    4   36 1  
    39    4   37 1  
    40    5   38 1  
    41    6   39 1  
    42    6   40 1  
    43    8   41 1  
    44    8   42 1  
    45   11   43 1  
    46   11   44 1  
    47   14   45 1  
    48   14   46 1  
    49   14   47 1  
    50   15   48 1  
    51   15   49 1  
    52   15   50 1  
    53   18   51 1  
    54   19   52 1  
    55   20   53 1  
    56   21   54 1  
    57   25   55 1  
    58   26   56 1  
    59   26   57 1  
    60   27   58 1  
    61   27   59 1  
    62   28   60 1  
    63   29   61 1  
    64   29   62 1  
    65   29   63 1  
    66   30   64 1  
    67   30   65 1  
    68   30   66 1  
@<TRIPOS>SUBSTRUCTURE
     1 VYE         1

