6bg5_ligand
  -I-interpret- 

 62 65  0  0  0  0  0  0  0  0999 V2000
   14.4160  -12.0060   -3.4880 F   0  0  0  0  0
   14.4220  -10.7370   -3.0920 C   0  0  0  0  0
   14.4880  -10.7390   -1.7610 F   0  0  0  0  0
   13.1990  -10.2890   -3.3920 F   0  0  0  0  0
   15.5230   -9.9500   -3.7570 C   0  0  0  0  0
   15.5140   -9.8400   -5.1560 C   0  0  0  0  0
   16.5310   -9.4050   -2.9620 C   0  0  0  0  0
   17.5660   -8.6960   -3.5920 C   0  0  0  0  0
   17.5800   -8.5640   -4.9910 C   0  0  0  0  0
   16.5420   -9.1340   -5.7530 C   0  0  0  0  0
   16.6310   -9.0650   -7.1580 N   0  0  0  0  0
   15.5380   -8.9030   -7.9690 C   0  0  0  0  0
   14.4370   -8.6680   -7.5540 O   0  0  0  0  0
   15.7960   -9.0330   -9.3610 N   0  0  0  0  0
   14.7540   -8.6400  -10.3920 C   0  0  0  0  0
   14.6650   -7.2020  -10.2890 C   0  0  0  0  0
   13.7820   -6.6060  -11.4040 C   0  0  0  0  0
   13.4620   -9.2530  -10.3540 C   0  0  0  0  0
   12.5790   -8.6440  -11.4580 C   0  0  0  0  0
   12.4520   -7.2010  -11.3380 N   0  3  0  0  0
   11.5950   -6.6980  -12.2060 C   0  0  0  0  0
   11.2060   -5.2390  -12.0720 C   0  0  0  0  0
   10.1670   -4.7750  -13.1180 C   0  0  0  0  0
   17.0940   -9.4110   -9.8620 C   0  0  0  0  0
   16.8450  -10.7080  -10.7820 C   0  0  0  0  0
   17.3770  -10.6530  -12.0850 C   0  0  0  0  0
   17.2200  -11.7430  -12.9070 C   0  0  0  0  0
   17.6190  -11.9810  -14.1870 O   0  0  0  0  0
   17.1990  -13.2080  -14.5600 C   0  0  0  0  0
   16.5400  -13.7890  -13.5560 O   0  0  0  0  0
   16.5210  -12.8980  -12.4920 C   0  0  0  0  0
   15.9670  -12.9570  -11.1870 C   0  0  0  0  0
   16.1440  -11.8610  -10.3330 C   0  0  0  0  0
   14.7232  -10.2958   -5.7519 H   0  0  0  0  0
   16.5156   -9.5265   -1.8789 H   0  0  0  0  0
   18.3600   -8.2472   -2.9951 H   0  0  0  0  0
   18.3889   -8.0240   -5.4830 H   0  0  0  0  0
   17.5514   -9.1391   -7.5913 H   0  0  0  0  0
   15.0981   -9.0211  -11.3535 H   0  0  0  0  0
   15.6683   -6.7872  -10.3859 H   0  0  0  0  0
   14.2186   -6.9529   -9.3263 H   0  0  0  0  0
   14.2285   -6.8191  -12.3752 H   0  0  0  0  0
   13.7053   -5.5270  -11.2702 H   0  0  0  0  0
   13.0030   -9.0781   -9.3809 H   0  0  0  0  0
   13.5618  -10.3262  -10.5163 H   0  0  0  0  0
   11.5829   -9.0774  -11.3687 H   0  0  0  0  0
   13.0451   -8.8614  -12.4190 H   0  0  0  0  0
   12.0484   -6.9660  -10.4312 H   0  0  0  0  0
   10.6712   -7.2555  -12.0516 H   0  0  0  0  0
   12.0905   -6.7740  -13.1739 H   0  0  0  0  0
   12.1079   -4.6458  -12.2229 H   0  0  0  0  0
   10.7571   -5.1103  -11.0871 H   0  0  0  0  0
   10.5752   -4.9123  -14.1193 H   0  0  0  0  0
    9.2571   -5.3655  -13.0111 H   0  0  0  0  0
    9.9386   -3.7212  -12.9587 H   0  0  0  0  0
   17.7864   -9.6276   -9.0485 H   0  0  0  0  0
   17.5515   -8.6018  -10.4312 H   0  0  0  0  0
   17.9024   -9.7641  -12.4342 H   0  0  0  0  0
   18.0629  -13.8184  -14.8229 H   0  0  0  0  0
   16.5342  -13.1140  -15.4187 H   0  0  0  0  0
   15.4152  -13.8368  -10.8560 H   0  0  0  0  0
   15.7428  -11.8920   -9.3200 H   0  0  0  0  0
  1  2  1  0  0  0
  2  3  1  0  0  0
  2  4  1  0  0  0
  2  5  1  0  0  0
  5  6  4  0  0  0
  5  7  4  0  0  0
  6 10  4  0  0  0
  7  8  4  0  0  0
  8  9  4  0  0  0
  9 10  4  0  0  0
 10 11  1  0  0  0
 11 12  1  0  0  0
 12 13  2  0  0  0
 12 14  1  0  0  0
 14 15  1  0  0  0
 14 24  1  0  0  0
 15 16  1  0  0  0
 15 18  1  0  0  0
 16 17  1  0  0  0
 17 20  1  0  0  0
 18 19  1  0  0  0
 19 20  1  0  0  0
 20 21  1  0  0  0
 21 22  1  0  0  0
 22 23  1  0  0  0
 24 25  1  0  0  0
 25 26  4  0  0  0
 25 33  4  0  0  0
 26 27  4  0  0  0
 27 28  1  0  0  0
 27 31  4  0  0  0
 28 29  1  0  0  0
 29 30  1  0  0  0
 30 31  1  0  0  0
 31 32  4  0  0  0
 32 33  4  0  0  0
  6 34  1  0  0  0
  7 35  1  0  0  0
  8 36  1  0  0  0
  9 37  1  0  0  0
 11 38  1  0  0  0
 15 39  1  0  0  0
 16 40  1  0  0  0
 16 41  1  0  0  0
 17 42  1  0  0  0
 17 43  1  0  0  0
 18 44  1  0  0  0
 18 45  1  0  0  0
 19 46  1  0  0  0
 19 47  1  0  0  0
 20 48  1  0  0  0
 21 49  1  0  0  0
 21 50  1  0  0  0
 22 51  1  0  0  0
 22 52  1  0  0  0
 23 53  1  0  0  0
 23 54  1  0  0  0
 23 55  1  0  0  0
 24 56  1  0  0  0
 24 57  1  0  0  0
 26 58  1  0  0  0
 29 59  1  0  0  0
 29 60  1  0  0  0
 32 61  1  0  0  0
 33 62  1  0  0  0
M  END
$$$$
