3pju_ligand
  -I-interpret- 

 70 76  0  0  0  0  0  0  0  0999 V2000
   29.1140   33.4840    4.7330 P   0  0  0  0  0
   28.8680   32.8920    6.1040 O   0  0  0  0  0
   28.4860   32.5680    3.7030 O   0  0  0  0  0
   28.3360   34.8690    4.7310 O   0  0  0  0  0
   28.0560   35.4950    3.5200 C   0  0  0  0  0
   29.0650   36.5020    3.0370 C   0  0  0  0  0
   28.6810   36.9540    1.7660 O   0  0  0  0  0
   29.1450   37.7670    3.8590 C   0  0  0  0  0
   30.3150   38.4630    3.5660 O   0  0  0  0  0
   28.0330   38.4800    3.3750 C   0  0  0  0  0
   28.0920   39.9030    3.5380 O   0  0  0  0  0
   27.9360   38.1220    1.9710 C   0  0  0  0  0
   26.4970   37.9580    1.3460 N   0  0  0  0  0
   25.4030   37.5840    2.0440 C   0  0  0  0  0
   24.3820   37.4890    1.1790 N   0  0  0  0  0
   24.8450   37.7870   -0.0590 C   0  0  0  0  0
   24.2240   37.8420   -1.3090 C   0  0  0  0  0
   22.8660   37.5800   -1.4450 O   0  0  0  0  0
   24.9740   38.1950   -2.3740 N   0  0  0  0  0
   26.2860   38.4770   -2.2530 C   0  0  0  0  0
   27.0180   38.8320   -3.4330 N   0  0  0  0  0
   26.9130   38.4230   -1.0610 N   0  0  0  0  0
   26.2140   38.0910    0.0420 C   0  0  0  0  0
   31.4350   38.5310    4.6700 P   0  0  0  0  0
   30.8090   38.5990    6.0450 O   0  0  0  0  0
   32.4010   39.6740    4.4880 O   0  0  0  0  0
   32.3780   37.3130    4.5310 O   0  0  0  0  0
   31.9660   36.3290    5.3590 C   0  0  0  0  0
   32.4760   35.0500    4.8860 C   0  0  0  0  0
   33.7570   34.8980    5.5700 O   0  0  0  0  0
   31.4870   34.0790    5.4110 C   0  0  0  0  0
   30.6590   33.5220    4.4310 O   0  0  0  0  0
   32.2880   33.1830    6.2630 C   0  0  0  0  0
   32.5690   32.0200    5.6200 O   0  0  0  0  0
   33.5320   34.0000    6.6120 C   0  0  0  0  0
   33.5320   34.5560    8.1020 N   0  0  0  0  0
   32.6950   35.4980    8.5710 C   0  0  0  0  0
   32.7980   35.5730    9.9100 N   0  0  0  0  0
   33.7110   34.6570   10.3010 C   0  0  0  0  0
   34.2340   34.2770   11.5380 C   0  0  0  0  0
   33.7770   34.8690   12.6960 O   0  0  0  0  0
   35.1580   33.2900   11.5830 N   0  0  0  0  0
   35.5890   32.6710   10.4770 C   0  0  0  0  0
   36.6160   31.6810   10.5560 N   0  0  0  0  0
   35.0890   33.0300    9.2810 N   0  0  0  0  0
   34.1640   34.0040    9.1520 C   0  0  0  0  0
   28.6320   32.9278    2.8250 H   0  0  0  0  0
   27.1279   36.0460    3.6720 H   0  0  0  0  0
   28.0341   34.7050    2.7693 H   0  0  0  0  0
   30.0191   35.9768    3.0811 H   0  0  0  0  0
   29.1481   37.6010    4.9363 H   0  0  0  0  0
   27.1549   38.2052    3.9595 H   0  0  0  0  0
   27.2939   40.2984    3.1797 H   0  0  0  0  0
   28.3289   38.9886    1.4393 H   0  0  0  0  0
   25.3578   37.3937    3.1163 H   0  0  0  0  0
   24.5366   38.2497   -3.2938 H   0  0  0  0  0
   28.0138   39.0439   -3.3710 H   0  0  0  0  0
   26.5431   38.8727   -4.3348 H   0  0  0  0  0
   30.1957   37.8683    6.1527 H   0  0  0  0  0
   30.8765   36.3014    5.3760 H   0  0  0  0  0
   32.3411   36.5199    6.3644 H   0  0  0  0  0
   32.6075   34.9382    3.8098 H   0  0  0  0  0
   30.6993   34.5260    6.0174 H   0  0  0  0  0
   31.7649   32.8688    7.1662 H   0  0  0  0  0
   33.0904   31.4555    6.1954 H   0  0  0  0  0
   34.4221   33.3731    6.6652 H   0  0  0  0  0
   32.0325   36.1091    7.9581 H   0  0  0  0  0
   35.5378   33.0089   12.4870 H   0  0  0  0  0
   36.9710   31.2454    9.7048 H   0  0  0  0  0
   36.9942   31.4098   11.4636 H   0  0  0  0  0
  1  2  2  0  0  0
  1  3  1  0  0  0
  1  4  1  0  0  0
  1 32  1  0  0  0
  4  5  1  0  0  0
  5  6  1  0  0  0
  6  7  1  0  0  0
  6  8  1  0  0  0
  7 12  1  0  0  0
  8  9  1  0  0  0
  8 10  1  0  0  0
  9 24  1  0  0  0
 10 11  1  0  0  0
 10 12  1  0  0  0
 12 13  1  0  0  0
 13 14  4  0  0  0
 13 23  4  0  0  0
 14 15  4  0  0  0
 15 16  4  0  0  0
 16 17  1  0  0  0
 16 23  4  0  0  0
 17 18  2  0  0  0
 17 19  1  0  0  0
 19 20  1  0  0  0
 20 21  1  0  0  0
 20 22  2  0  0  0
 22 23  1  0  0  0
 24 25  1  0  0  0
 24 26  2  0  0  0
 24 27  1  0  0  0
 27 28  1  0  0  0
 28 29  1  0  0  0
 29 30  1  0  0  0
 29 31  1  0  0  0
 30 35  1  0  0  0
 31 32  1  0  0  0
 31 33  1  0  0  0
 33 34  1  0  0  0
 33 35  1  0  0  0
 35 36  1  0  0  0
 36 37  4  0  0  0
 36 46  4  0  0  0
 37 38  4  0  0  0
 38 39  4  0  0  0
 39 40  1  0  0  0
 39 46  4  0  0  0
 40 41  2  0  0  0
 40 42  1  0  0  0
 42 43  1  0  0  0
 43 44  1  0  0  0
 43 45  2  0  0  0
 45 46  1  0  0  0
  3 47  1  0  0  0
  5 48  1  0  0  0
  5 49  1  0  0  0
  6 50  1  0  0  0
  8 51  1  0  0  0
 10 52  1  0  0  0
 11 53  1  0  0  0
 12 54  1  0  0  0
 14 55  1  0  0  0
 19 56  1  0  0  0
 21 57  1  0  0  0
 21 58  1  0  0  0
 25 59  1  0  0  0
 28 60  1  0  0  0
 28 61  1  0  0  0
 29 62  1  0  0  0
 31 63  1  0  0  0
 33 64  1  0  0  0
 34 65  1  0  0  0
 35 66  1  0  0  0
 37 67  1  0  0  0
 42 68  1  0  0  0
 44 69  1  0  0  0
 44 70  1  0  0  0
M  END
$$$$
