4cqf_ligand
  -I-interpret- 

 39 39  0  0  0  0  0  0  0  0999 V2000
   46.1650   33.5440   86.2490 O   0  0  0  0  0
   46.0930   32.9900   85.1640 C   0  0  0  0  0
   47.2660   32.2200   84.6740 C   0  0  0  0  0
   48.0730   31.0510   85.7180 S   0  0  0  0  0
   44.9210   33.0910   84.3400 N   0  0  0  0  0
   43.7630   33.8680   84.6820 C   0  0  0  0  0
   42.9230   34.3090   83.5290 C   0  0  0  0  0
   43.0060   35.6520   82.8860 C   0  0  0  0  0
   41.8240   36.5430   83.1060 C   0  0  0  0  0
   41.0410   37.0460   81.9350 C   0  0  0  0  0
   41.3440   38.4020   81.3720 C   0  0  0  0  0
   41.3170   38.5360   80.1540 O   0  0  0  0  0
   41.6600   39.4970   82.2600 N   0  0  0  0  0
   41.9680   40.8580   81.8820 C   0  0  0  0  0
   41.0780   41.5760   81.0650 C   0  0  0  0  0
   41.3530   42.8990   80.6970 C   0  0  0  0  0
   42.5110   43.5190   81.1670 C   0  0  0  0  0
   43.3950   42.8190   81.9980 C   0  0  0  0  0
   43.1120   41.5030   82.3740 C   0  0  0  0  0
   48.0250   32.9796   84.4866 H   0  0  0  0  0
   46.8683   31.6185   83.8566 H   0  0  0  0  0
   49.0858   30.4954   85.0589 H   0  0  0  0  0
   44.9106   32.5793   83.4577 H   0  0  0  0  0
   44.1283   34.7743   85.1651 H   0  0  0  0  0
   43.1318   33.2297   85.3003 H   0  0  0  0  0
   41.9202   34.3139   83.9562 H   0  0  0  0  0
   43.2519   33.6445   82.7300 H   0  0  0  0  0
   43.0700   35.4793   81.8117 H   0  0  0  0  0
   43.8636   36.1573   83.3301 H   0  0  0  0  0
   42.2400   37.4411   83.5626 H   0  0  0  0  0
   41.1176   35.9274   83.6629 H   0  0  0  0  0
   40.0162   37.1201   82.2987 H   0  0  0  0  0
   41.2750   36.3525   81.1273 H   0  0  0  0  0
   41.6665   39.2879   83.2583 H   0  0  0  0  0
   40.1636   41.0979   80.7139 H   0  0  0  0  0
   40.6662   43.4412   80.0471 H   0  0  0  0  0
   42.7282   44.5498   80.8871 H   0  0  0  0  0
   44.3058   43.3018   82.3523 H   0  0  0  0  0
   43.7830   40.9759   83.0523 H   0  0  0  0  0
  1  2  2  0  0  0
  2  3  1  0  0  0
  2  5  1  0  0  0
  3  4  1  0  0  0
  5  6  1  0  0  0
  6  7  1  0  0  0
  7  8  1  0  0  0
  8  9  1  0  0  0
  9 10  1  0  0  0
 10 11  1  0  0  0
 11 12  2  0  0  0
 11 13  1  0  0  0
 13 14  1  0  0  0
 14 15  4  0  0  0
 14 19  4  0  0  0
 15 16  4  0  0  0
 16 17  4  0  0  0
 17 18  4  0  0  0
 18 19  4  0  0  0
  3 20  1  0  0  0
  3 21  1  0  0  0
  4 22  1  0  0  0
  5 23  1  0  0  0
  6 24  1  0  0  0
  6 25  1  0  0  0
  7 26  1  0  0  0
  7 27  1  0  0  0
  8 28  1  0  0  0
  8 29  1  0  0  0
  9 30  1  0  0  0
  9 31  1  0  0  0
 10 32  1  0  0  0
 10 33  1  0  0  0
 13 34  1  0  0  0
 15 35  1  0  0  0
 16 36  1  0  0  0
 17 37  1  0  0  0
 18 38  1  0  0  0
 19 39  1  0  0  0
M  END
$$$$
