4oyb_ligand
  -I-interpret- 

 34 35  0  0  0  0  0  0  0  0999 V2000
   15.1710   27.0360   -7.8260 C   0  0  0  0  0
   15.1270   27.0880   -6.3040 C   0  0  0  0  0
   18.0410   27.7980   -4.1320 C   0  0  0  0  0
   18.6520   26.8360   -2.0070 C   0  0  0  0  0
   20.0990   25.8840   -0.3630 C   0  0  0  0  0
   19.5060   24.6530   -0.5500 C   0  0  0  0  0
   18.4770   24.5050   -1.4700 C   0  0  0  0  0
   18.0560   25.6140   -2.1970 C   0  0  0  0  0
   17.7870   23.2100   -1.7290 C   0  0  0  0  0
   18.2930   21.9080   -1.2070 C   0  0  0  0  0
   16.4560   27.4220   -5.8100 O   0  0  0  0  0
   16.5960   27.5820   -4.4800 C   0  0  0  0  0
   15.6870   27.5550   -3.6850 O   0  0  0  0  0
   18.2440   27.9610   -2.7250 O   0  0  0  0  0
   19.6710   26.9800   -1.0930 C   0  0  0  0  0
   16.7600   23.2200   -2.4000 O   0  0  0  0  0
   19.5320   21.6910   -0.8640 N   0  0  0  0  0
   19.5630   20.3680   -0.4440 O   0  0  0  0  0
   18.3490   19.7820   -0.5310 N   0  0  0  0  0
   17.5550   20.7030   -0.9950 C   0  0  0  0  0
   16.2380   20.4870   -1.2200 N   0  0  0  0  0
   15.4771   28.0080   -8.2128 H   0  0  0  0  0
   15.8860   26.2763   -8.1418 H   0  0  0  0  0
   14.1812   26.7867   -8.2085 H   0  0  0  0  0
   14.8173   26.1204   -5.9091 H   0  0  0  0  0
   14.4107   27.8429   -5.9797 H   0  0  0  0  0
   18.3754   28.7087   -4.6290 H   0  0  0  0  0
   18.6007   26.9199   -4.4543 H   0  0  0  0  0
   20.9063   25.9944    0.3610 H   0  0  0  0  0
   19.8465   23.7931    0.0267 H   0  0  0  0  0
   17.2482   25.5120   -2.9217 H   0  0  0  0  0
   20.1392   27.9530   -0.9444 H   0  0  0  0  0
   15.6528   21.2388   -1.5844 H   0  0  0  0  0
   15.8306   19.5724   -1.0252 H   0  0  0  0  0
  2  1  1  0  0  0
 11  2  1  0  0  0
 12  3  1  0  0  0
  3 14  1  0  0  0
  4  8  4  0  0  0
 14  4  1  0  0  0
  4 15  4  0  0  0
  5  6  4  0  0  0
 15  5  4  0  0  0
  7  6  4  0  0  0
  8  7  4  0  0  0
  7  9  1  0  0  0
  9 10  1  0  0  0
  9 16  2  0  0  0
 10 17  4  0  0  0
 10 20  4  0  0  0
 11 12  1  0  0  0
 12 13  2  0  0  0
 17 18  4  0  0  0
 18 19  4  0  0  0
 19 20  4  0  0  0
 20 21  1  0  0  0
  1 22  1  0  0  0
  1 23  1  0  0  0
  1 24  1  0  0  0
  2 25  1  0  0  0
  2 26  1  0  0  0
  3 27  1  0  0  0
  3 28  1  0  0  0
  5 29  1  0  0  0
  6 30  1  0  0  0
  8 31  1  0  0  0
 15 32  1  0  0  0
 21 33  1  0  0  0
 21 34  1  0  0  0
M  END
$$$$
