2rcw_ligand
  -I-interpret- 

 43 45  0  0  0  0  0  0  0  0999 V2000
  -24.8700   64.2680   26.2490 C   0  0  0  0  0
  -24.8790   65.1870   25.2770 N   0  0  0  0  0
  -26.1880   65.2880   24.8200 C   0  0  0  0  0
  -26.9610   64.3500   25.6060 C   0  0  0  0  0
  -26.0850   63.7380   26.4860 N   0  0  0  0  0
  -26.8180   66.0740   23.8240 C   0  0  0  0  0
  -28.2260   65.9160   23.6140 C   0  0  0  0  0
  -28.9780   64.9920   24.3890 C   0  0  0  0  0
  -28.3310   64.2120   25.3860 C   0  0  0  0  0
  -26.0900   67.0640   22.9750 C   0  0  0  0  0
  -24.7680   67.1630   23.1620 N   0  0  0  0  0
  -26.6380   67.7780   22.1380 O   0  0  0  0  0
  -23.6070   63.8700   27.0030 C   0  0  0  0  0
  -23.1630   65.0110   27.9420 C   0  0  0  0  0
  -21.9360   64.5860   28.7820 C   0  0  0  0  0
  -22.1970   63.3540   29.5870 N   0  3  0  0  0
  -22.6400   62.2200   28.7170 C   0  0  0  0  0
  -23.8530   62.5720   27.8200 C   0  0  0  0  0
  -21.0040   62.9840   30.4080 C   0  0  0  0  0
  -19.7140   62.6330   29.6230 C   0  0  0  0  0
  -18.5410   62.2900   30.5470 C   0  0  0  0  0
  -28.7268   66.5115   22.8507 H   0  0  0  0  0
  -30.0490   64.8816   24.2192 H   0  0  0  0  0
  -28.9079   63.5036   25.9805 H   0  0  0  0  0
  -24.2234   67.8273   22.6119 H   0  0  0  0  0
  -24.3054   66.5742   23.8546 H   0  0  0  0  0
  -22.8146   63.6830   26.2782 H   0  0  0  0  0
  -23.9848   65.2503   28.6169 H   0  0  0  0  0
  -22.8923   65.8773   27.3384 H   0  0  0  0  0
  -21.7019   65.3968   29.4719 H   0  0  0  0  0
  -21.1150   64.3741   28.0971 H   0  0  0  0  0
  -22.9609   63.5584   30.2313 H   0  0  0  0  0
  -22.9409   61.4016   29.3710 H   0  0  0  0  0
  -21.8083   61.9647   28.0604 H   0  0  0  0  0
  -24.0121   61.7513   27.1206 H   0  0  0  0  0
  -24.7200   62.7295   28.4616 H   0  0  0  0  0
  -21.2801   62.0839   30.9572 H   0  0  0  0  0
  -20.7649   63.8611   31.0094 H   0  0  0  0  0
  -19.4327   63.5040   29.0311 H   0  0  0  0  0
  -19.9229   61.7593   29.0057 H   0  0  0  0  0
  -18.3231   63.1444   31.1878 H   0  0  0  0  0
  -18.8047   61.4302   31.1629 H   0  0  0  0  0
  -17.6637   62.0523   29.9454 H   0  0  0  0  0
  1  2  4  0  0  0
  1  5  4  0  0  0
  1 13  1  0  0  0
  2  3  4  0  0  0
  3  4  4  0  0  0
  3  6  4  0  0  0
  4  5  4  0  0  0
  4  9  4  0  0  0
  6  7  4  0  0  0
  6 10  1  0  0  0
  7  8  4  0  0  0
  8  9  4  0  0  0
 10 11  1  0  0  0
 10 12  2  0  0  0
 13 14  1  0  0  0
 13 18  1  0  0  0
 14 15  1  0  0  0
 15 16  1  0  0  0
 16 17  1  0  0  0
 16 19  1  0  0  0
 17 18  1  0  0  0
 19 20  1  0  0  0
 20 21  1  0  0  0
  7 22  1  0  0  0
  8 23  1  0  0  0
  9 24  1  0  0  0
 11 25  1  0  0  0
 11 26  1  0  0  0
 13 27  1  0  0  0
 14 28  1  0  0  0
 14 29  1  0  0  0
 15 30  1  0  0  0
 15 31  1  0  0  0
 16 32  1  0  0  0
 17 33  1  0  0  0
 17 34  1  0  0  0
 18 35  1  0  0  0
 18 36  1  0  0  0
 19 37  1  0  0  0
 19 38  1  0  0  0
 20 39  1  0  0  0
 20 40  1  0  0  0
 21 41  1  0  0  0
 21 42  1  0  0  0
 21 43  1  0  0  0
M  END
$$$$
