4i4e_ligand
  -I-interpret- 

 58 62  0  0  0  0  0  0  0  0999 V2000
    9.2900    3.4580   24.3610 C   0  0  0  0  0
    7.9180    3.5940   24.8730 N   0  0  0  0  0
    7.3540    2.5910   25.6880 C   0  0  0  0  0
    8.2010    1.7770   26.4590 C   0  0  0  0  0
    7.6730    0.7900   27.2720 C   0  0  0  0  0
    6.2810    0.5680   27.3440 C   0  0  0  0  0
    5.4260    1.3740   26.5940 C   0  0  0  0  0
    5.9640    2.3770   25.7800 C   0  0  0  0  0
    5.0340    3.1940   25.0070 C   0  0  0  0  0
    3.7360    2.9960   24.7620 N   0  0  0  0  0
    3.2890    4.0610   23.9630 N   0  0  0  0  0
    4.2890    4.8980   23.7520 C   0  0  0  0  0
    5.3860    4.3870   24.3980 C   0  0  0  0  0
    7.0420    4.9810   24.5140 S   0  0  0  0  0
    7.1160    5.8300   25.6570 O   0  0  0  0  0
    7.3800    5.4510   23.2180 O   0  0  0  0  0
    5.7200   -0.4780   28.2450 C   0  0  0  0  0
    4.3310   -0.6890   28.3610 C   0  0  0  0  0
    3.8390   -1.6640   29.2170 C   0  0  0  0  0
    4.7420   -2.4360   29.9700 C   0  0  0  0  0
    6.1170   -2.2000   29.8750 C   0  0  0  0  0
    6.6030   -1.2370   29.0130 C   0  0  0  0  0
    4.2970   -3.4650   30.9370 C   0  0  0  0  0
    3.7140   -3.0740   31.9320 O   0  0  0  0  0
    4.5330   -4.7850   30.7920 N   0  0  0  0  0
    4.0670   -5.7290   31.8260 C   0  0  0  0  0
    3.2840   -6.9060   31.2240 C   0  0  0  0  0
    3.9280   -7.4240   29.9340 C   0  0  0  0  0
    2.9990   -8.4420   29.2780 C   0  0  0  0  0
    3.7490   -9.7720   29.3060 C   0  0  0  0  0
    4.3370   -9.9710   28.0200 O   0  0  0  0  0
    4.2230   -6.2780   28.9580 C   0  0  0  0  0
    5.2290   -5.3440   29.6210 C   0  0  0  0  0
    9.2754    3.4957   23.2718 H   0  0  0  0  0
    9.9025    4.2733   24.7458 H   0  0  0  0  0
    9.7054    2.5045   24.6873 H   0  0  0  0  0
    9.2802    1.9240   26.4163 H   0  0  0  0  0
    8.3446    0.1722   27.8681 H   0  0  0  0  0
    4.3474    1.2242   26.6412 H   0  0  0  0  0
    4.2498    5.8210   23.1735 H   0  0  0  0  0
    3.6398   -0.0830   27.7752 H   0  0  0  0  0
    2.7653   -1.8297   29.3049 H   0  0  0  0  0
    6.8095   -2.7798   30.4852 H   0  0  0  0  0
    7.6771   -1.0699   28.9327 H   0  0  0  0  0
    3.4041   -5.1909   32.5035 H   0  0  0  0  0
    4.9412   -6.1295   32.3393 H   0  0  0  0  0
    2.2776   -6.5605   30.9876 H   0  0  0  0  0
    3.2767   -7.7180   31.9512 H   0  0  0  0  0
    4.8761   -7.8980   30.1879 H   0  0  0  0  0
    2.7493   -8.1500   28.2580 H   0  0  0  0  0
    2.0500   -8.5117   29.8096 H   0  0  0  0  0
    3.0637  -10.5872   29.5381 H   0  0  0  0  0
    4.5208   -9.7542   30.0755 H   0  0  0  0  0
    4.8153  -10.8034   28.0134 H   0  0  0  0  0
    3.3060   -5.7382   28.7218 H   0  0  0  0  0
    4.6304   -6.6712   28.0266 H   0  0  0  0  0
    6.1362   -5.8743   29.9107 H   0  0  0  0  0
    5.5564   -4.5597   28.9385 H   0  0  0  0  0
  1  2  1  0  0  0
  2  3  1  0  0  0
  2 14  1  0  0  0
  3  4  4  0  0  0
  3  8  4  0  0  0
  4  5  4  0  0  0
  5  6  4  0  0  0
  6  7  4  0  0  0
  6 17  1  0  0  0
  7  8  4  0  0  0
  8  9  1  0  0  0
  9 10  4  0  0  0
  9 13  4  0  0  0
 10 11  4  0  0  0
 11 12  4  0  0  0
 12 13  4  0  0  0
 13 14  1  0  0  0
 14 15  2  0  0  0
 14 16  2  0  0  0
 17 18  4  0  0  0
 17 22  4  0  0  0
 18 19  4  0  0  0
 19 20  4  0  0  0
 20 21  4  0  0  0
 20 23  1  0  0  0
 21 22  4  0  0  0
 23 24  2  0  0  0
 23 25  1  0  0  0
 25 26  1  0  0  0
 25 33  1  0  0  0
 26 27  1  0  0  0
 27 28  1  0  0  0
 28 29  1  0  0  0
 28 32  1  0  0  0
 29 30  1  0  0  0
 30 31  1  0  0  0
 32 33  1  0  0  0
  1 34  1  0  0  0
  1 35  1  0  0  0
  1 36  1  0  0  0
  4 37  1  0  0  0
  5 38  1  0  0  0
  7 39  1  0  0  0
 12 40  1  0  0  0
 18 41  1  0  0  0
 19 42  1  0  0  0
 21 43  1  0  0  0
 22 44  1  0  0  0
 26 45  1  0  0  0
 26 46  1  0  0  0
 27 47  1  0  0  0
 27 48  1  0  0  0
 28 49  1  0  0  0
 29 50  1  0  0  0
 29 51  1  0  0  0
 30 52  1  0  0  0
 30 53  1  0  0  0
 31 54  1  0  0  0
 32 55  1  0  0  0
 32 56  1  0  0  0
 33 57  1  0  0  0
 33 58  1  0  0  0
M  END
$$$$
