2mwy_ligand
  -I-interpret- 

252255  0  0  0  0  0  0  0  0999 V2000
    8.6350   15.3540   23.1990 N   0  3  0  0  0
    8.8020   16.7970   23.3310 C   0  0  0  0  0
    9.3260   17.4040   22.0330 C   0  0  0  0  0
    9.0590   18.5650   21.7270 O   0  0  0  0  0
    9.7600   17.1170   24.4800 C   0  0  0  0  0
   10.9150   17.7910   24.0090 O   0  0  0  0  0
   10.0740   16.6080   21.2750 N   0  0  0  0  0
   10.6360   17.0670   20.0100 C   0  0  0  0  0
    9.6630   16.8240   18.8610 C   0  0  0  0  0
    8.9700   15.8070   18.8280 O   0  0  0  0  0
   11.9620   16.3560   19.7300 C   0  0  0  0  0
   13.0990   16.8150   20.6280 C   0  0  0  0  0
   13.1590   18.3230   20.7700 C   0  0  0  0  0
   13.0790   18.8570   21.8760 O   0  0  0  0  0
   13.3000   19.0190   19.6480 N   0  0  0  0  0
    9.6150   17.7640   17.9230 N   0  0  0  0  0
    8.7250   17.6510   16.7740 C   0  0  0  0  0
    9.4680   17.9620   15.4780 C   0  0  0  0  0
    9.7610   17.0660   14.6850 O   0  0  0  0  0
    7.5320   18.5970   16.9300 C   0  0  0  0  0
    7.5700   19.4190   18.2080 C   0  0  0  0  0
    6.2390   20.0740   18.5190 C   0  0  0  0  0
    5.4810   20.3620   17.5690 O   0  0  0  0  0
    5.9540   20.2980   19.7150 O   0  0  0  0  0
    9.7700   19.2400   15.2670 N   0  0  0  0  0
   10.4760   19.6710   14.0680 C   0  0  0  0  0
   10.0150   18.8840   12.8460 C   0  0  0  0  0
    8.8830   18.4040   12.7950 O   0  0  0  0  0
   12.0000   19.5070   14.2240 C   0  0  0  0  0
   12.3520   19.4970   15.6120 O   0  0  0  0  0
   12.7400   20.6320   13.5160 C   0  0  0  0  0
   10.9000   18.7560   11.8620 N   0  0  0  0  0
   10.5830   18.0270   10.6390 C   0  0  0  0  0
    9.7250   16.8020   10.9430 C   0  0  0  0  0
    8.7550   16.5200   10.2400 O   0  0  0  0  0
   11.8680   17.6000    9.9270 C   0  0  0  0  0
   11.7700   17.6550    8.4300 C   0  0  0  0  0
   10.5340   17.6940    7.8040 C   0  0  0  0  0
   12.9130   17.6670    7.6470 C   0  0  0  0  0
   10.4400   17.7450    6.4260 C   0  0  0  0  0
   12.8260   17.7180    6.2690 C   0  0  0  0  0
   11.5880   17.7560    5.6570 C   0  0  0  0  0
   10.0910   16.0770   11.9950 N   0  0  0  0  0
    9.3580   14.8800   12.3900 C   0  0  0  0  0
    7.8590   15.1560   12.4560 C   0  0  0  0  0
    7.0470   14.3500   12.0020 O   0  0  0  0  0
    9.8550   14.3760   13.7470 C   0  0  0  0  0
   10.1510   12.9910   13.7000 O   0  0  0  0  0
    7.5000   16.3020   13.0240 N   0  0  0  0  0
    6.1000   16.6880   13.1490 C   0  0  0  0  0
    5.3760   16.5480   11.8140 C   0  0  0  0  0
    4.4750   15.7210   11.6670 O   0  0  0  0  0
    5.9880   18.1270   13.6560 C   0  0  0  0  0
    4.6490   18.4080   14.3090 C   0  0  0  0  0
    3.6240   17.9090   13.8000 O   0  0  0  0  0
    4.6250   19.1280   15.3290 O   0  0  0  0  0
    5.7750   17.3630   10.8430 N   0  0  0  0  0
    5.1640   17.3310    9.5190 C   0  0  0  0  0
    5.6690   16.1380    8.7140 C   0  0  0  0  0
    4.8810   15.3260    8.2290 O   0  0  0  0  0
    5.4610   18.6300    8.7670 C   0  0  0  0  0
    5.5490   19.8950    9.6220 C   0  0  0  0  0
    5.7710   21.1170    8.7450 C   0  0  0  0  0
    4.2900   20.0600   10.4610 C   0  0  0  0  0
    6.9870   16.0370    8.5790 N   0  0  0  0  0
    7.5970   14.9410    7.8350 C   0  0  0  0  0
    6.7900   13.6580    7.9960 C   0  0  0  0  0
    6.3420   13.0670    7.0130 O   0  0  0  0  0
    9.0350   14.7160    8.3070 C   0  0  0  0  0
    9.8430   13.8740    7.3670 C   0  0  0  0  0
   10.4860   12.7050    7.6600 C   0  0  0  0  0
   10.0960   14.1370    5.9820 C   0  0  0  0  0
   11.1230   12.2260    6.5410 N   0  0  0  0  0
   10.8990   13.0850    5.4990 C   0  0  0  0  0
    9.7220   15.1570    5.1040 C   0  0  0  0  0
   11.3330   13.0280    4.1770 C   0  0  0  0  0
   10.1530   15.0990    3.7930 C   0  0  0  0  0
   10.9510   14.0400    3.3390 C   0  0  0  0  0
    6.6060   13.2320    9.2410 N   0  0  0  0  0
    5.8500   12.0190    9.5310 C   0  0  0  0  0
    4.5990   11.9370    8.6630 C   0  0  0  0  0
    4.2780   10.8800    8.1160 O   0  0  0  0  0
    5.4610   11.9770   11.0100 C   0  0  0  0  0
    4.9640   10.6180   11.4710 C   0  0  0  0  0
    5.4580   10.2880   12.8690 C   0  0  0  0  0
    6.8510    9.6770   12.8390 C   0  0  0  0  0
    7.1900    9.0060   14.1250 N   0  3  0  0  0
    3.8960   13.0570    8.5380 N   0  0  0  0  0
    2.6800   13.1120    7.7340 C   0  0  0  0  0
    2.8580   12.3520    6.4240 C   0  0  0  0  0
    2.0060   11.5510    6.0370 O   0  0  0  0  0
    2.3000   14.5660    7.4470 C   0  0  0  0  0
    0.8450   14.8130    7.0500 C   0  0  0  0  0
    0.3900   16.1870    7.5180 C   0  0  0  0  0
    0.6720   14.6770    5.5440 C   0  0  0  0  0
    3.9720   12.6070    5.7450 N   0  0  0  0  0
    4.2640   11.9450    4.4790 C   0  0  0  0  0
    3.9220   10.4610    4.5480 C   0  0  0  0  0
    4.6580    9.6550    5.1180 O   0  0  0  0  0
    5.7390   12.1240    4.1160 C   0  0  0  0  0
    6.0870   13.3820    3.3200 C   0  0  0  0  0
    6.7950   14.3960    4.2060 C   0  0  0  0  0
    6.9480   13.0300    2.1150 C   0  0  0  0  0
    2.7790   10.0880    3.9530 N   0  0  0  0  0
    2.3150    8.6980    3.9310 C   0  0  0  0  0
    3.1810    7.8110    3.0430 C   0  0  0  0  0
    2.9340    7.6890    1.8440 O   0  0  0  0  0
    0.8990    8.8060    3.3600 C   0  0  0  0  0
    0.9110   10.0570    2.5510 C   0  0  0  0  0
    1.8530   10.9950    3.2540 C   0  0  0  0  0
    4.1960    7.1940    3.6400 N   0  0  0  0  0
    5.0980    6.3190    2.9020 C   0  0  0  0  0
    4.3350    5.4990    1.8660 C   0  0  0  0  0
    4.8530    5.1970    0.7920 O   0  0  0  0  0
    5.8390    5.3860    3.8620 C   0  0  0  0  0
    5.0350    5.0230    5.0990 C   0  0  0  0  0
    5.4210    5.8510    6.3100 C   0  0  0  0  0
    6.4560    5.5380    6.9360 O   0  0  0  0  0
    4.6900    6.8110    6.6310 O   0  0  0  0  0
    3.0990    5.1400    2.1990 N   0  0  0  0  0
    2.2630    4.3540    1.2990 C   0  0  0  0  0
    1.4950    5.2580    0.3400 C   0  0  0  0  0
    2.0100    5.6490   -0.7070 O   0  0  0  0  0
    1.2840    3.4930    2.1000 C   0  0  0  0  0
    1.8090    3.1540    3.4820 C   0  0  0  0  0
    2.4970    2.1490    3.6660 O   0  0  0  0  0
    1.4870    3.9910    4.4600 N   0  0  0  0  0
    0.3450    5.6150    0.5940 O   0  0  0  0  0
    7.9946   15.1560   22.4302 H   0  0  0  0  0
    9.5402   14.9242   23.0084 H   0  0  0  0  0
    8.2538   14.9763   24.0664 H   0  0  0  0  0
    7.8268   17.2329   23.5479 H   0  0  0  0  0
   10.0683   16.1820   24.9477 H   0  0  0  0  0
    9.2463   17.7619   25.1930 H   0  0  0  0  0
   11.4979   17.9795   24.7482 H   0  0  0  0  0
   10.2591   15.6542   21.5854 H   0  0  0  0  0
   10.8153   18.1393   20.0887 H   0  0  0  0  0
   12.2446   16.5837   18.7022 H   0  0  0  0  0
   11.8084   15.2927   19.9144 H   0  0  0  0  0
   14.0352   16.4833   20.1790 H   0  0  0  0  0
   12.9351   16.3915   21.6189 H   0  0  0  0  0
   13.3460   20.0374   19.6819 H   0  0  0  0  0
   13.3623   18.5352   18.7522 H   0  0  0  0  0
   10.2152   18.5842   18.0090 H   0  0  0  0  0
    8.3620   16.6243   16.7274 H   0  0  0  0  0
    6.6311   17.9842   16.9623 H   0  0  0  0  0
    7.5560   19.2940   16.0923 H   0  0  0  0  0
    8.3101   20.2085   18.0773 H   0  0  0  0  0
    7.8143   18.7480   19.0315 H   0  0  0  0  0
    6.6737   19.9991   20.2757 H   0  0  0  0  0
    9.5004   19.9359   15.9623 H   0  0  0  0  0
   10.2437   20.7265   13.9267 H   0  0  0  0  0
   12.2901   18.5598   13.7694 H   0  0  0  0  0
   13.3025   19.3945   15.6992 H   0  0  0  0  0
   12.4913   20.6174   12.4548 H   0  0  0  0  0
   12.4430   21.5881   13.9469 H   0  0  0  0  0
   13.8140   20.4937   13.6407 H   0  0  0  0  0
   11.8230   19.1778   11.9648 H   0  0  0  0  0
   10.0177   18.6915    9.9856 H   0  0  0  0  0
   12.0677   16.5650   10.2043 H   0  0  0  0  0
   12.6550   18.2909   10.2293 H   0  0  0  0  0
    9.6252   17.6843    8.4057 H   0  0  0  0  0
   13.8927   17.6358    8.1239 H   0  0  0  0  0
    9.4616   17.7765    5.9465 H   0  0  0  0  0
   13.7334   17.7282    5.6652 H   0  0  0  0  0
   11.5170   17.7946    4.5700 H   0  0  0  0  0
   10.9043   16.3648   12.5392 H   0  0  0  0  0
    9.5352   14.1118   11.6373 H   0  0  0  0  0
    9.0725   14.5404   14.4878 H   0  0  0  0  0
   10.7637   14.9180   14.0087 H   0  0  0  0  0
   10.4598   12.7015   14.5617 H   0  0  0  0  0
    8.2221   16.9274   13.3816 H   0  0  0  0  0
    5.6280   16.0199   13.8694 H   0  0  0  0  0
    6.0925   18.7947   12.8008 H   0  0  0  0  0
    6.7664   18.2826   14.4030 H   0  0  0  0  0
    5.5188   19.4027   15.5465 H   0  0  0  0  0
    6.5268   18.0270   11.0282 H   0  0  0  0  0
    4.0862   17.2297    9.6463 H   0  0  0  0  0
    4.6290   18.7826    8.0796 H   0  0  0  0  0
    6.4419   18.5012    8.3094 H   0  0  0  0  0
    6.4003   19.7970   10.2956 H   0  0  0  0  0
    6.7012   20.9995    8.1891 H   0  0  0  0  0
    4.9396   21.2179    8.0474 H   0  0  0  0  0
    5.8308   22.0066    9.3720 H   0  0  0  0  0
    3.4240   20.1359    9.8034 H   0  0  0  0  0
    4.1757   19.1964   11.1161 H   0  0  0  0  0
    4.3717   20.9655   11.0623 H   0  0  0  0  0
    7.5866   16.7431    9.0060 H   0  0  0  0  0
    7.6061   15.2120    6.7793 H   0  0  0  0  0
    8.9900   14.1926    9.2620 H   0  0  0  0  0
    9.5167   15.6916    8.3720 H   0  0  0  0  0
   10.4927   12.2232    8.6377 H   0  0  0  0  0
    9.1009   15.9843    5.4474 H   0  0  0  0  0
   11.9551   12.2062    3.8223 H   0  0  0  0  0
    9.8677   15.8902    3.0997 H   0  0  0  0  0
   11.2736   14.0222    2.2980 H   0  0  0  0  0
    7.0035   13.7667   10.0133 H   0  0  0  0  0
    6.4849   11.1625    9.3043 H   0  0  0  0  0
    4.6474   12.6880   11.1538 H   0  0  0  0  0
    6.3542   12.2115   11.5891 H   0  0  0  0  0
    5.3426    9.8612   10.7840 H   0  0  0  0  0
    3.8743   10.6362   11.4857 H   0  0  0  0  0
    4.7741    9.5660   13.3152 H   0  0  0  0  0
    5.4984   11.2109   13.4475 H   0  0  0  0  0
    7.5719   10.4769   12.6701 H   0  0  0  0  0
    6.8801    8.9303   12.0454 H   0  0  0  0  0
    8.1284    8.6109   14.0639 H   0  0  0  0  0
    7.1557    9.6882   14.8825 H   0  0  0  0  0
    6.5172    8.2610   14.3061 H   0  0  0  0  0
    4.2144   13.8998    9.0162 H   0  0  0  0  0
    1.8779   12.6386    8.3002 H   0  0  0  0  0
    2.9063   14.8785    6.5968 H   0  0  0  0  0
    2.4607   15.1132    8.3759 H   0  0  0  0  0
    0.2235   14.0612    7.5364 H   0  0  0  0  0
    0.4764   16.2469    8.6029 H   0  0  0  0  0
    1.0171   16.9516    7.0596 H   0  0  0  0  0
   -0.6483   16.3436    7.2257 H   0  0  0  0  0
    1.3057   15.4063    5.0394 H   0  0  0  0  0
    0.9575   13.6711    5.2361 H   0  0  0  0  0
   -0.3706   14.8565    5.2817 H   0  0  0  0  0
    4.6389   13.2823    6.1187 H   0  0  0  0  0
    3.6474   12.4047    3.7066 H   0  0  0  0  0
    6.0022   11.2781    3.4810 H   0  0  0  0  0
    6.2788   12.2006    5.0598 H   0  0  0  0  0
    5.1602   13.8291    2.9607 H   0  0  0  0  0
    6.1425   14.6705    5.0349 H   0  0  0  0  0
    7.7140   13.9576    4.5951 H   0  0  0  0  0
    7.0340   15.2838    3.6206 H   0  0  0  0  0
    7.8704   12.5588    2.4544 H   0  0  0  0  0
    6.4030   12.3414    1.4693 H   0  0  0  0  0
    7.1850   13.9386    1.5615 H   0  0  0  0  0
    2.3576    8.2387    4.9186 H   0  0  0  0  0
    0.1450    8.8379    4.1465 H   0  0  0  0  0
    0.6358    7.9358    2.7587 H   0  0  0  0  0
   -0.0879   10.4860    2.4718 H   0  0  0  0  0
    1.2359    9.8634    1.5287 H   0  0  0  0  0
    2.3652   11.6676    2.5660 H   0  0  0  0  0
    1.3382   11.6736    3.9342 H   0  0  0  0  0
    4.3471    7.3364    4.6386 H   0  0  0  0  0
    5.8238    6.9442    2.3820 H   0  0  0  0  0
    6.7362    5.9067    4.1965 H   0  0  0  0  0
    6.0464    4.4610    3.3239 H   0  0  0  0  0
    5.2321    3.9765    5.3318 H   0  0  0  0  0
    3.9837    5.2141    4.8835 H   0  0  0  0  0
    6.8619    4.7742    6.5195 H   0  0  0  0  0
    2.7264    5.4211    3.1059 H   0  0  0  0  0
    2.9141    3.7042    0.7143 H   0  0  0  0  0
    1.1344    2.5594    1.5577 H   0  0  0  0  0
    0.3589    4.0569    2.2197 H   0  0  0  0  0
    1.8119    3.8139    5.4105 H   0  0  0  0  0
    0.9145    4.8115    4.2613 H   0  0  0  0  0
    0.0727    5.2391    1.4343 H   0  0  0  0  0
  1  2  1  0  0  0
  2  3  1  0  0  0
  2  5  1  0  0  0
  3  4  2  0  0  0
  3  7  1  0  0  0
  5  6  1  0  0  0
  7  8  1  0  0  0
  8  9  1  0  0  0
  8 11  1  0  0  0
  9 10  2  0  0  0
  9 16  1  0  0  0
 11 12  1  0  0  0
 12 13  1  0  0  0
 13 14  2  0  0  0
 13 15  1  0  0  0
 16 17  1  0  0  0
 17 18  1  0  0  0
 17 20  1  0  0  0
 18 19  2  0  0  0
 18 25  1  0  0  0
 20 21  1  0  0  0
 21 22  1  0  0  0
 22 23  2  0  0  0
 22 24  1  0  0  0
 25 26  1  0  0  0
 26 27  1  0  0  0
 26 29  1  0  0  0
 27 28  2  0  0  0
 27 32  1  0  0  0
 29 30  1  0  0  0
 29 31  1  0  0  0
 32 33  1  0  0  0
 33 34  1  0  0  0
 33 36  1  0  0  0
 34 35  2  0  0  0
 34 43  1  0  0  0
 36 37  1  0  0  0
 37 38  4  0  0  0
 37 39  4  0  0  0
 38 40  4  0  0  0
 39 41  4  0  0  0
 40 42  4  0  0  0
 41 42  4  0  0  0
 43 44  1  0  0  0
 44 45  1  0  0  0
 44 47  1  0  0  0
 45 46  2  0  0  0
 45 49  1  0  0  0
 47 48  1  0  0  0
 49 50  1  0  0  0
 50 51  1  0  0  0
 50 53  1  0  0  0
 51 52  2  0  0  0
 51 57  1  0  0  0
 53 54  1  0  0  0
 54 55  2  0  0  0
 54 56  1  0  0  0
 57 58  1  0  0  0
 58 59  1  0  0  0
 58 61  1  0  0  0
 59 60  2  0  0  0
 59 65  1  0  0  0
 61 62  1  0  0  0
 62 63  1  0  0  0
 62 64  1  0  0  0
 65 66  1  0  0  0
 66 67  1  0  0  0
 66 69  1  0  0  0
 67 68  2  0  0  0
 67 79  1  0  0  0
 69 70  1  0  0  0
 70 71  4  0  0  0
 70 72  4  0  0  0
 71 73  4  0  0  0
 72 74  4  0  0  0
 72 75  4  0  0  0
 73 74  4  0  0  0
 74 76  4  0  0  0
 75 77  4  0  0  0
 76 78  4  0  0  0
 77 78  4  0  0  0
 79 80  1  0  0  0
 80 81  1  0  0  0
 80 83  1  0  0  0
 81 82  2  0  0  0
 81 88  1  0  0  0
 83 84  1  0  0  0
 84 85  1  0  0  0
 85 86  1  0  0  0
 86 87  1  0  0  0
 88 89  1  0  0  0
 89 90  1  0  0  0
 89 92  1  0  0  0
 90 91  2  0  0  0
 90 96  1  0  0  0
 92 93  1  0  0  0
 93 94  1  0  0  0
 93 95  1  0  0  0
 96 97  1  0  0  0
 97 98  1  0  0  0
 97100  1  0  0  0
 98 99  2  0  0  0
 98104  1  0  0  0
100101  1  0  0  0
101102  1  0  0  0
101103  1  0  0  0
104105  1  0  0  0
104110  1  0  0  0
105106  1  0  0  0
105108  1  0  0  0
106107  2  0  0  0
106111  1  0  0  0
108109  1  0  0  0
109110  1  0  0  0
111112  1  0  0  0
112113  1  0  0  0
112115  1  0  0  0
113114  2  0  0  0
113120  1  0  0  0
115116  1  0  0  0
116117  1  0  0  0
117118  1  0  0  0
117119  2  0  0  0
120121  1  0  0  0
121122  1  0  0  0
121124  1  0  0  0
122123  2  0  0  0
122128  1  0  0  0
124125  1  0  0  0
125126  2  0  0  0
125127  1  0  0  0
  1129  1  0  0  0
  1130  1  0  0  0
  1131  1  0  0  0
  2132  1  0  0  0
  5133  1  0  0  0
  5134  1  0  0  0
  6135  1  0  0  0
  7136  1  0  0  0
  8137  1  0  0  0
 11138  1  0  0  0
 11139  1  0  0  0
 12140  1  0  0  0
 12141  1  0  0  0
 15142  1  0  0  0
 15143  1  0  0  0
 16144  1  0  0  0
 17145  1  0  0  0
 20146  1  0  0  0
 20147  1  0  0  0
 21148  1  0  0  0
 21149  1  0  0  0
 24150  1  0  0  0
 25151  1  0  0  0
 26152  1  0  0  0
 29153  1  0  0  0
 30154  1  0  0  0
 31155  1  0  0  0
 31156  1  0  0  0
 31157  1  0  0  0
 32158  1  0  0  0
 33159  1  0  0  0
 36160  1  0  0  0
 36161  1  0  0  0
 38162  1  0  0  0
 39163  1  0  0  0
 40164  1  0  0  0
 41165  1  0  0  0
 42166  1  0  0  0
 43167  1  0  0  0
 44168  1  0  0  0
 47169  1  0  0  0
 47170  1  0  0  0
 48171  1  0  0  0
 49172  1  0  0  0
 50173  1  0  0  0
 53174  1  0  0  0
 53175  1  0  0  0
 56176  1  0  0  0
 57177  1  0  0  0
 58178  1  0  0  0
 61179  1  0  0  0
 61180  1  0  0  0
 62181  1  0  0  0
 63182  1  0  0  0
 63183  1  0  0  0
 63184  1  0  0  0
 64185  1  0  0  0
 64186  1  0  0  0
 64187  1  0  0  0
 65188  1  0  0  0
 66189  1  0  0  0
 69190  1  0  0  0
 69191  1  0  0  0
 71192  1  0  0  0
 75193  1  0  0  0
 76194  1  0  0  0
 77195  1  0  0  0
 78196  1  0  0  0
 79197  1  0  0  0
 80198  1  0  0  0
 83199  1  0  0  0
 83200  1  0  0  0
 84201  1  0  0  0
 84202  1  0  0  0
 85203  1  0  0  0
 85204  1  0  0  0
 86205  1  0  0  0
 86206  1  0  0  0
 87207  1  0  0  0
 87208  1  0  0  0
 87209  1  0  0  0
 88210  1  0  0  0
 89211  1  0  0  0
 92212  1  0  0  0
 92213  1  0  0  0
 93214  1  0  0  0
 94215  1  0  0  0
 94216  1  0  0  0
 94217  1  0  0  0
 95218  1  0  0  0
 95219  1  0  0  0
 95220  1  0  0  0
 96221  1  0  0  0
 97222  1  0  0  0
100223  1  0  0  0
100224  1  0  0  0
101225  1  0  0  0
102226  1  0  0  0
102227  1  0  0  0
102228  1  0  0  0
103229  1  0  0  0
103230  1  0  0  0
103231  1  0  0  0
105232  1  0  0  0
108233  1  0  0  0
108234  1  0  0  0
109235  1  0  0  0
109236  1  0  0  0
110237  1  0  0  0
110238  1  0  0  0
111239  1  0  0  0
112240  1  0  0  0
115241  1  0  0  0
115242  1  0  0  0
116243  1  0  0  0
116244  1  0  0  0
118245  1  0  0  0
120246  1  0  0  0
121247  1  0  0  0
124248  1  0  0  0
124249  1  0  0  0
127250  1  0  0  0
127251  1  0  0  0
128252  1  0  0  0
M  END
$$$$
