### 
### Created by X-TOOL on Mon Sep 10 21:13:30 2018
### 

@<TRIPOS>MOLECULE
2mwy_ligand
  249   252     1     0     0
SMALL
GAST_HUCK


@<TRIPOS>ATOM
      1 N           8.6350   15.3540   23.1990 N.4       1 SER         0.2396
      2 CA          8.8020   16.7970   23.3310 C.3       1 SER         0.0885
      3 C           9.3260   17.4040   22.0330 C.2       1 SER         0.2290
      4 O           9.0590   18.5650   21.7270 O.2       1 SER        -0.3906
      5 CB          9.7600   17.1170   24.4800 C.3       1 SER         0.1041
      6 OG         10.9150   17.7910   24.0090 O.3       1 SER        -0.3870
      7 N          10.0740   16.6080   21.2750 N.am      1 GLN        -0.2608
      8 CA         10.6360   17.0670   20.0100 C.3       1 GLN         0.1331
      9 C           9.6630   16.8240   18.8610 C.2       1 GLN         0.2040
     10 O           8.9700   15.8070   18.8280 O.2       1 GLN        -0.3944
     11 CB         11.9620   16.3560   19.7300 C.3       1 GLN         0.0045
     12 CG         13.0990   16.8150   20.6280 C.3       1 GLN         0.0412
     13 CD         13.1590   18.3230   20.7700 C.2       1 GLN         0.1737
     14 OE1        13.0790   18.8570   21.8760 O.2       1 GLN        -0.3973
     15 NE2        13.3000   19.0190   19.6480 N.am      1 GLN        -0.3009
     16 N           9.6150   17.7640   17.9230 N.am      1 GLU        -0.2636
     17 CA          8.7250   17.6510   16.7740 C.3       1 GLU         0.1325
     18 C           9.4680   17.9620   15.4780 C.2       1 GLU         0.2041
     19 O           9.7610   17.0660   14.6850 O.2       1 GLU        -0.3944
     20 CB          7.5320   18.5970   16.9300 C.3       1 GLU        -0.0008
     21 CG          7.5700   19.4190   18.2080 C.3       1 GLU         0.0044
     22 CD          6.2390   20.0740   18.5190 C.2       1 GLU         0.0350
     23 OE1         5.4810   20.3620   17.5690 O.co2     1 GLU        -0.5690
     24 OE2         5.9540   20.2980   19.7150 O.co2     1 GLU        -0.5690
     25 N           9.7700   19.2400   15.2670 N.am      1 THR        -0.2613
     26 CA         10.4760   19.6710   14.0680 C.3       1 THR         0.1565
     27 C          10.0150   18.8840   12.8460 C.2       1 THR         0.2066
     28 O           8.8830   18.4040   12.7950 O.2       1 THR        -0.3943
     29 CB         12.0000   19.5070   14.2240 C.3       1 THR         0.0924
     30 OG1        12.3520   19.4970   15.6120 O.3       1 THR        -0.3874
     31 CG2        12.7400   20.6320   13.5160 C.3       1 THR        -0.0346
     32 N          10.9000   18.7560   11.8620 N.am      1 PHE        -0.2619
     33 CA         10.5830   18.0270   10.6390 C.3       1 PHE         0.1404
     34 C           9.7250   16.8020   10.9430 C.2       1 PHE         0.2060
     35 O           8.7550   16.5200   10.2400 O.2       1 PHE        -0.3942
     36 CB         11.8680   17.6000    9.9270 C.3       1 PHE         0.0214
     37 CG         11.7700   17.6550    8.4300 C.ar      1 PHE        -0.0386
     38 CD1        10.5340   17.6940    7.8040 C.ar      1 PHE        -0.0601
     39 CD2        12.9130   17.6670    7.6470 C.ar      1 PHE        -0.0601
     40 CE1        10.4400   17.7450    6.4260 C.ar      1 PHE        -0.0686
     41 CE2        12.8260   17.7180    6.2690 C.ar      1 PHE        -0.0686
     42 CZ         11.5880   17.7560    5.6570 C.ar      1 PHE        -0.0687
     43 N          10.0910   16.0770   11.9950 N.am      1 SER        -0.2614
     44 CA          9.3580   14.8800   12.3900 C.3       1 SER         0.1539
     45 C           7.8590   15.1560   12.4560 C.2       1 SER         0.2063
     46 O           7.0470   14.3500   12.0020 O.2       1 SER        -0.3943
     47 CB          9.8550   14.3760   13.7470 C.3       1 SER         0.0843
     48 OG         10.1510   12.9910   13.7000 O.3       1 SER        -0.3903
     49 N           7.5000   16.3020   13.0240 N.am      1 ASP        -0.2621
     50 CA          6.1000   16.6880   13.1490 C.3       1 ASP         0.1423
     51 C           5.3760   16.5480   11.8140 C.2       1 ASP         0.2056
     52 O           4.4750   15.7210   11.6670 O.2       1 ASP        -0.3943
     53 CB          5.9880   18.1270   13.6560 C.3       1 ASP         0.0406
     54 CG          4.6490   18.4080   14.3090 C.2       1 ASP         0.0393
     55 OD1         3.6240   17.9090   13.8000 O.co2     1 ASP        -0.5688
     56 OD2         4.6250   19.1280   15.3290 O.co2     1 ASP        -0.5688
     57 N           5.7750   17.3630   10.8430 N.am      1 LEU        -0.2636
     58 CA          5.1640   17.3310    9.5190 C.3       1 LEU         0.1312
     59 C           5.6690   16.1380    8.7140 C.2       1 LEU         0.2040
     60 O           4.8810   15.3260    8.2290 O.2       1 LEU        -0.3944
     61 CB          5.4610   18.6300    8.7670 C.3       1 LEU        -0.0101
     62 CG          5.5490   19.8950    9.6220 C.3       1 LEU        -0.0425
     63 CD1         5.7710   21.1170    8.7450 C.3       1 LEU        -0.0625
     64 CD2         4.2900   20.0600   10.4610 C.3       1 LEU        -0.0625
     65 N           6.9870   16.0370    8.5790 N.am      1 TRP        -0.2627
     66 CA          7.5970   14.9410    7.8350 C.3       1 TRP         0.1352
     67 C           6.7900   13.6580    7.9960 C.2       1 TRP         0.2052
     68 O           6.3420   13.0670    7.0130 O.2       1 TRP        -0.3942
     69 CB          9.0350   14.7160    8.3070 C.3       1 TRP         0.0042
     70 CG          9.8430   13.8740    7.3670 C.2       1 TRP        -0.0418
     71 CD1        10.4860   12.7050    7.6600 C.2       1 TRP         0.0167
     72 CD2        10.0960   14.1370    5.9820 C.ar      1 TRP        -0.0214
     73 NE1        11.1230   12.2260    6.5410 N.pl3     1 TRP        -0.2890
     74 CE2        10.8990   13.0850    5.4990 C.ar      1 TRP         0.0603
     75 CE3         9.7220   15.1570    5.1040 C.ar      1 TRP        -0.0747
     76 CZ2        11.3330   13.0280    4.1770 C.ar      1 TRP        -0.0443
     77 CZ3        10.1530   15.0990    3.7930 C.ar      1 TRP        -0.0792
     78 CH2        10.9510   14.0400    3.3390 C.ar      1 TRP        -0.0768
     79 N           6.6060   13.2320    9.2410 N.am      1 LYS        -0.2636
     80 CA          5.8500   12.0190    9.5310 C.3       1 LYS         0.1310
     81 C           4.5990   11.9370    8.6630 C.2       1 LYS         0.2039
     82 O           4.2780   10.8800    8.1160 O.2       1 LYS        -0.3944
     83 CB          5.4610   11.9770   11.0100 C.3       1 LYS        -0.0122
     84 CG          4.9640   10.6180   11.4710 C.3       1 LYS        -0.0440
     85 CD          5.4580   10.2880   12.8690 C.3       1 LYS        -0.0124
     86 CE          6.8510    9.6770   12.8390 C.3       1 LYS        -0.0354
     87 NZ          7.1900    9.0060   14.1250 N.4       1 LYS         0.2185
     88 N           3.8960   13.0570    8.5380 N.am      1 LEU        -0.2637
     89 CA          2.6800   13.1120    7.7340 C.3       1 LEU         0.1312
     90 C           2.8580   12.3520    6.4240 C.2       1 LEU         0.2039
     91 O           2.0060   11.5510    6.0370 O.2       1 LEU        -0.3944
     92 CB          2.3000   14.5660    7.4470 C.3       1 LEU        -0.0101
     93 CG          0.8450   14.8130    7.0500 C.3       1 LEU        -0.0425
     94 CD1         0.3900   16.1870    7.5180 C.3       1 LEU        -0.0625
     95 CD2         0.6720   14.6770    5.5440 C.3       1 LEU        -0.0625
     96 N           3.9720   12.6070    5.7450 N.am      1 LEU        -0.2637
     97 CA          4.2640   11.9450    4.4790 C.3       1 LEU         0.1314
     98 C           3.9220   10.4610    4.5480 C.2       1 LEU         0.2064
     99 O           4.6580    9.6550    5.1180 O.2       1 LEU        -0.3942
    100 CB          5.7390   12.1240    4.1160 C.3       1 LEU        -0.0101
    101 CG          6.0870   13.3820    3.3200 C.3       1 LEU        -0.0425
    102 CD1         6.7950   14.3960    4.2060 C.3       1 LEU        -0.0625
    103 CD2         6.9480   13.0300    2.1150 C.3       1 LEU        -0.0625
    104 N           2.7790   10.0880    3.9530 N.am      1 PRO        -0.2498
    105 CA          2.3150    8.6980    3.9310 C.3       1 PRO         0.1338
    106 C           3.1810    7.8110    3.0430 C.2       1 PRO         0.2041
    107 O           2.9340    7.6890    1.8440 O.2       1 PRO        -0.3944
    108 CB          0.8990    8.8060    3.3600 C.3       1 PRO        -0.0104
    109 CG          0.9110   10.0570    2.5510 C.3       1 PRO        -0.0281
    110 CD          1.8530   10.9950    3.2540 C.3       1 PRO         0.0369
    111 N           4.1960    7.1940    3.6400 N.am      1 GLU        -0.2636
    112 CA          5.0980    6.3190    2.9020 C.3       1 GLU         0.1324
    113 C           4.3350    5.4990    1.8660 C.2       1 GLU         0.2036
    114 O           4.8530    5.1970    0.7920 O.2       1 GLU        -0.3944
    115 CB          5.8390    5.3860    3.8620 C.3       1 GLU        -0.0008
    116 CG          5.0350    5.0230    5.0990 C.3       1 GLU         0.0044
    117 CD          5.4210    5.8510    6.3100 C.2       1 GLU         0.0350
    118 OE1         6.4560    5.5380    6.9360 O.co2     1 GLU        -0.5690
    119 OE2         4.6900    6.8110    6.6310 O.co2     1 GLU        -0.5690
    120 N           3.0990    5.1400    2.1990 N.am      1 ASN        -0.2674
    121 CA          2.2630    4.3540    1.2990 C.3       1 ASN         0.1110
    122 C           1.4950    5.2580    0.3400 C.2       1 ASN         0.0624
    123 O           2.0100    5.6490   -0.7070 O.co2     1 ASN        -0.5665
    124 CB          1.2840    3.4930    2.1000 C.3       1 ASN         0.0718
    125 CG          1.8090    3.1540    3.4820 C.2       1 ASN         0.1774
    126 OD1         2.4970    2.1490    3.6660 O.2       1 ASN        -0.3971
    127 ND2         1.4870    3.9910    4.4600 N.am      1 ASN        -0.3007
    128 OXT         0.3450    5.6150    0.5940 O.co2     1 ASN        -0.5665
    129 H1          8.2887   14.9751   24.0665 H         1 SER         0.2016
    130 H2          9.5234   14.9317   22.9788 H         1 SER         0.2016
    131 H3          7.9775   15.1580   22.4606 H         1 SER         0.2016
    132 H4          7.8217   17.2426   23.5553 H         1 SER         0.1122
    133 H5         10.0649   16.1783   24.9656 H         1 SER         0.0640
    134 H6          9.2436   17.7569   25.2107 H         1 SER         0.0640
    135 H7         10.6574   18.6047   23.5919 H         1 SER         0.2099
    136 H8         10.2554   15.6729   21.5794 H         1 GLN         0.1885
    137 H9         10.8253   18.1480   20.0849 H         1 GLN         0.0801
    138 H10        12.2454   16.5474   18.6845 H         1 GLN         0.0337
    139 H11        11.8158   15.2759   19.8784 H         1 GLN         0.0337
    140 H12        14.0495   16.4636   20.2000 H         1 GLN         0.0504
    141 H13        12.9603   16.3727   21.6256 H         1 GLN         0.0504
    142 H14        13.3455   20.0174   19.6813 H         1 GLN         0.1814
    143 H15        13.3607   18.5447   18.7697 H         1 GLN         0.1814
    144 H16        10.2035   18.5681   18.0073 H         1 GLU         0.1883
    145 H17         8.3506   16.6179   16.7236 H         1 GLU         0.0801
    146 H18         6.6101   17.9970   16.9298 H         1 GLU         0.0330
    147 H19         7.5208   19.2867   16.0732 H         1 GLU         0.0330
    148 H20         8.3324   20.2045   18.0993 H         1 GLU         0.0433
    149 H21         7.8413   18.7579   19.0443 H         1 GLU         0.0433
    150 H22         9.5057   19.9222   15.9487 H         1 THR         0.1884
    151 H23        10.2537   20.7357   13.9040 H         1 THR         0.0826
    152 H24        12.2991   18.5490   13.7736 H         1 THR         0.0639
    153 H25        13.2926   19.3956   15.6983 H         1 THR         0.2101
    154 H26        13.8240   20.4935   13.6412 H         1 THR         0.0257
    155 H27        12.4412   21.5976   13.9500 H         1 THR         0.0257
    156 H28        12.4899   20.6183   12.4449 H         1 THR         0.0257
    157 H29        11.8049   19.1695   11.9628 H         1 PHE         0.1885
    158 H30        10.0166   18.6941    9.9726 H         1 PHE         0.0823
    159 H31        12.1031   16.5669   10.2227 H         1 PHE         0.0474
    160 H32        12.6817   18.2673   10.2473 H         1 PHE         0.0474
    161 H33         9.6302   17.6844    8.4024 H         1 PHE         0.0557
    162 H34        13.8873   17.6360    8.1212 H         1 PHE         0.0557
    163 H35         9.4670   17.7763    5.9492 H         1 PHE         0.0599
    164 H36        13.7284   17.7282    5.6685 H         1 PHE         0.0599
    165 H37        11.5174   17.7944    4.5760 H         1 PHE         0.0559
    166 H38        10.8883   16.3592   12.5285 H         1 SER         0.1884
    167 H39         9.5368   14.0980   11.6373 H         1 SER         0.0823
    168 H40         9.0752   14.5511   14.5028 H         1 SER         0.0606
    169 H41        10.7649   14.9285   14.0241 H         1 SER         0.0606
    170 H42        10.4566   12.7045   14.5527 H         1 SER         0.2097
    171 H43         8.2079   16.9152   13.3746 H         1 ASP         0.1884
    172 H44         5.6189   16.0202   13.8788 H         1 ASP         0.0819
    173 H45         6.1166   18.8122   12.8051 H         1 ASP         0.0478
    174 H46         6.7846   18.3046   14.3935 H         1 ASP         0.0478
    175 H47         6.5121   18.0140   11.0246 H         1 LEU         0.1883
    176 H48         4.0749   17.2353    9.6401 H         1 LEU         0.0800
    177 H49         4.6622   18.7799    8.0257 H         1 LEU         0.0315
    178 H50         6.4235   18.5064    8.2490 H         1 LEU         0.0315
    179 H51         6.4081   19.7954   10.3017 H         1 LEU         0.0298
    180 H52         5.8315   22.0155    9.3767 H         1 LEU         0.0232
    181 H53         4.9325   21.2200    8.0405 H         1 LEU         0.0232
    182 H54         6.7095   20.9997    8.1834 H         1 LEU         0.0232
    183 H55         4.1472   19.1671   11.0874 H         1 LEU         0.0232
    184 H56         3.4213   20.1854    9.7980 H         1 LEU         0.0232
    185 H57         4.3915   20.9466   11.1041 H         1 LEU         0.0232
    186 H58         7.5748   16.7292    8.9977 H         1 TRP         0.1884
    187 H59         7.6149   15.2111    6.7688 H         1 TRP         0.0815
    188 H60         9.0067   14.2164    9.2866 H         1 TRP         0.0397
    189 H61         9.5262   15.6949    8.4087 H         1 TRP         0.0397
    190 H62        10.4927   12.2236    8.6368 H         1 TRP         0.0795
    191 H63        11.6792   11.3604    6.4937 H         1 TRP         0.2216
    192 H64         9.1043   15.9797    5.4455 H         1 TRP         0.0540
    193 H65        11.9516   12.2107    3.8243 H         1 TRP         0.0541
    194 H66         9.8692   15.8859    3.1036 H         1 TRP         0.0510
    195 H67        11.2718   14.0223    2.3037 H         1 TRP         0.0530
    196 H68         6.9957   13.7563    9.9982 H         1 LYS         0.1883
    197 H69         6.4871   11.1500    9.3097 H         1 LYS         0.0800
    198 H70         4.6633   12.7149   11.1806 H         1 LYS         0.0312
    199 H71         6.3434   12.2458   11.6092 H         1 LYS         0.0312
    200 H72         5.3272    9.8492   10.7731 H         1 LYS         0.0269
    201 H73         3.8640   10.6216   11.4725 H         1 LYS         0.0269
    202 H74         4.7639    9.5723   13.3336 H         1 LYS         0.0317
    203 H75         5.4858   11.2118   13.4655 H         1 LYS         0.0317
    204 H76         7.5851   10.4739   12.6492 H         1 LYS         0.0813
    205 H77         6.8969    8.9354   12.0279 H         1 LYS         0.0813
    206 H78         8.1172    8.6151   14.0658 H         1 LYS         0.1994
    207 H79         6.5258    8.2695   14.3050 H         1 LYS         0.1994
    208 H80         7.1564    9.6793   14.8744 H         1 LYS         0.1994
    209 H81         4.2081   13.8833    9.0068 H         1 LEU         0.1883
    210 H82         1.8648   12.6412    8.3029 H         1 LEU         0.0800
    211 H83         2.9382   14.9248    6.6261 H         1 LEU         0.0315
    212 H84         2.5053   15.1528    8.3545 H         1 LEU         0.0315
    213 H85         0.2179   14.0542    7.5409 H         1 LEU         0.0298
    214 H86        -0.6578   16.3462    7.2236 H         1 LEU         0.0232
    215 H87         1.0221   16.9597    7.0560 H         1 LEU         0.0232
    216 H88         0.4766   16.2487    8.6128 H         1 LEU         0.0232
    217 H89         1.0058   13.6785    5.2253 H         1 LEU         0.0232
    218 H90         1.2735   15.4445    5.0350 H         1 LEU         0.0232
    219 H91        -0.3884   14.8096    5.2832 H         1 LEU         0.0232
    220 H92         4.6258   13.2690    6.1114 H         1 LEU         0.1883
    221 H93         3.6495   12.4090    3.6935 H         1 LEU         0.0800
    222 H94         6.0465   11.2527    3.5191 H         1 LEU         0.0315
    223 H95         6.3152   12.1487    5.0527 H         1 LEU         0.0315
    224 H96         5.1513   13.8326    2.9574 H         1 LEU         0.0298
    225 H97         7.0367   15.2926    3.6163 H         1 LEU         0.0232
    226 H98         7.7227   13.9548    4.5993 H         1 LEU         0.0232
    227 H99         6.1375   14.6739    5.0429 H         1 LEU         0.0232
    228 H100        6.4192   12.2969    1.4882 H         1 LEU         0.0232
    229 H101        7.9005   12.5998    2.4580 H         1 LEU         0.0232
    230 H102        7.1464   13.9389    1.5280 H         1 LEU         0.0232
    231 H103        2.2972    8.2814    4.9489 H         1 PRO         0.0802
    232 H104        0.1584    8.8754    4.1703 H         1 PRO         0.0313
    233 H105        0.6690    7.9367    2.7264 H         1 PRO         0.0313
    234 H106       -0.0982   10.4922    2.5048 H         1 PRO         0.0287
    235 H107        1.2680    9.8496    1.5314 H         1 PRO         0.0287
    236 H108        2.3909   11.6269    2.5320 H         1 PRO         0.0524
    237 H109        1.3126   11.6332    3.9686 H         1 PRO         0.0524
    238 H110        4.3441    7.3337    4.6191 H         1 GLU         0.1883
    239 H111        5.8370    6.9432    2.3783 H         1 GLU         0.0801
    240 H112        6.7663    5.8828    4.1834 H         1 GLU         0.0330
    241 H113        6.0870    4.4591    3.3241 H         1 GLU         0.0330
    242 H114        5.2044    3.9610    5.3300 H         1 GLU         0.0433
    243 H115        3.9682    5.1864    4.8862 H         1 GLU         0.0433
    244 H116        2.7337    5.4156    3.0882 H         1 ASN         0.1877
    245 H117        2.9134    3.6912    0.7094 H         1 ASN         0.0752
    246 H118        1.1056    2.5569    1.5506 H         1 ASN         0.0544
    247 H119        0.3367    4.0418    2.2069 H         1 ASN         0.0544
    248 H120        1.8056    3.8174    5.3919 H         1 ASN         0.1814
    249 H121        0.9257    4.7954    4.2652 H         1 ASN         0.1814
@<TRIPOS>BOND
     1    1    2 1  
     2    2    3 1  
     3    2    5 1  
     4    3    4 2  
     5    3    7 am 
     6    5    6 1  
     7    7    8 1  
     8    8    9 1  
     9    8   11 1  
    10    9   10 2  
    11    9   16 am 
    12   11   12 1  
    13   12   13 1  
    14   13   14 2  
    15   13   15 am 
    16   16   17 1  
    17   17   18 1  
    18   17   20 1  
    19   18   19 2  
    20   18   25 am 
    21   20   21 1  
    22   21   22 1  
    23   22   23 ar 
    24   22   24 ar 
    25   25   26 1  
    26   26   27 1  
    27   26   29 1  
    28   27   28 2  
    29   27   32 am 
    30   29   30 1  
    31   29   31 1  
    32   32   33 1  
    33   33   34 1  
    34   33   36 1  
    35   34   35 2  
    36   34   43 am 
    37   36   37 1  
    38   37   38 ar 
    39   37   39 ar 
    40   38   40 ar 
    41   39   41 ar 
    42   40   42 ar 
    43   41   42 ar 
    44   43   44 1  
    45   44   45 1  
    46   44   47 1  
    47   45   46 2  
    48   45   49 am 
    49   47   48 1  
    50   49   50 1  
    51   50   51 1  
    52   50   53 1  
    53   51   52 2  
    54   51   57 am 
    55   53   54 1  
    56   54   55 ar 
    57   54   56 ar 
    58   57   58 1  
    59   58   59 1  
    60   58   61 1  
    61   59   60 2  
    62   59   65 am 
    63   61   62 1  
    64   62   63 1  
    65   62   64 1  
    66   65   66 1  
    67   66   67 1  
    68   66   69 1  
    69   67   68 2  
    70   67   79 am 
    71   69   70 1  
    72   70   71 2  
    73   70   72 1  
    74   71   73 1  
    75   72   74 ar 
    76   72   75 ar 
    77   73   74 1  
    78   74   76 ar 
    79   75   77 ar 
    80   76   78 ar 
    81   77   78 ar 
    82   79   80 1  
    83   80   81 1  
    84   80   83 1  
    85   81   82 2  
    86   81   88 am 
    87   83   84 1  
    88   84   85 1  
    89   85   86 1  
    90   86   87 1  
    91   88   89 1  
    92   89   90 1  
    93   89   92 1  
    94   90   91 2  
    95   90   96 am 
    96   92   93 1  
    97   93   94 1  
    98   93   95 1  
    99   96   97 1  
   100   97   98 1  
   101   97  100 1  
   102   98   99 2  
   103   98  104 am 
   104  100  101 1  
   105  101  102 1  
   106  101  103 1  
   107  104  105 1  
   108  104  110 1  
   109  105  106 1  
   110  105  108 1  
   111  106  107 2  
   112  106  111 am 
   113  108  109 1  
   114  109  110 1  
   115  111  112 1  
   116  112  113 1  
   117  112  115 1  
   118  113  114 2  
   119  113  120 am 
   120  115  116 1  
   121  116  117 1  
   122  117  118 ar 
   123  117  119 ar 
   124  120  121 1  
   125  121  122 1  
   126  121  124 1  
   127  122  123 ar 
   128  122  128 ar 
   129  124  125 1  
   130  125  126 2  
   131  125  127 am 
   132    1  129 1  
   133    1  130 1  
   134    1  131 1  
   135    2  132 1  
   136    5  133 1  
   137    5  134 1  
   138    6  135 1  
   139    7  136 1  
   140    8  137 1  
   141   11  138 1  
   142   11  139 1  
   143   12  140 1  
   144   12  141 1  
   145   15  142 1  
   146   15  143 1  
   147   16  144 1  
   148   17  145 1  
   149   20  146 1  
   150   20  147 1  
   151   21  148 1  
   152   21  149 1  
   153   25  150 1  
   154   26  151 1  
   155   29  152 1  
   156   30  153 1  
   157   31  154 1  
   158   31  155 1  
   159   31  156 1  
   160   32  157 1  
   161   33  158 1  
   162   36  159 1  
   163   36  160 1  
   164   38  161 1  
   165   39  162 1  
   166   40  163 1  
   167   41  164 1  
   168   42  165 1  
   169   43  166 1  
   170   44  167 1  
   171   47  168 1  
   172   47  169 1  
   173   48  170 1  
   174   49  171 1  
   175   50  172 1  
   176   53  173 1  
   177   53  174 1  
   178   57  175 1  
   179   58  176 1  
   180   61  177 1  
   181   61  178 1  
   182   62  179 1  
   183   63  180 1  
   184   63  181 1  
   185   63  182 1  
   186   64  183 1  
   187   64  184 1  
   188   64  185 1  
   189   65  186 1  
   190   66  187 1  
   191   69  188 1  
   192   69  189 1  
   193   71  190 1  
   194   73  191 1  
   195   75  192 1  
   196   76  193 1  
   197   77  194 1  
   198   78  195 1  
   199   79  196 1  
   200   80  197 1  
   201   83  198 1  
   202   83  199 1  
   203   84  200 1  
   204   84  201 1  
   205   85  202 1  
   206   85  203 1  
   207   86  204 1  
   208   86  205 1  
   209   87  206 1  
   210   87  207 1  
   211   87  208 1  
   212   88  209 1  
   213   89  210 1  
   214   92  211 1  
   215   92  212 1  
   216   93  213 1  
   217   94  214 1  
   218   94  215 1  
   219   94  216 1  
   220   95  217 1  
   221   95  218 1  
   222   95  219 1  
   223   96  220 1  
   224   97  221 1  
   225  100  222 1  
   226  100  223 1  
   227  101  224 1  
   228  102  225 1  
   229  102  226 1  
   230  102  227 1  
   231  103  228 1  
   232  103  229 1  
   233  103  230 1  
   234  105  231 1  
   235  108  232 1  
   236  108  233 1  
   237  109  234 1  
   238  109  235 1  
   239  110  236 1  
   240  110  237 1  
   241  111  238 1  
   242  112  239 1  
   243  115  240 1  
   244  115  241 1  
   245  116  242 1  
   246  116  243 1  
   247  120  244 1  
   248  121  245 1  
   249  124  246 1  
   250  124  247 1  
   251  127  248 1  
   252  127  249 1  
@<TRIPOS>SUBSTRUCTURE
     1 SER         1

