4gw8_ligand
  -I-interpret- 

 36 39  0  0  0  0  0  0  0  0999 V2000
  -17.0240   35.0830   -2.5390 C   0  0  0  0  0
  -17.3690   35.1350   -3.8730 C   0  0  0  0  0
  -18.6970   35.3250   -4.2600 C   0  0  0  0  0
  -19.6890   35.4810   -3.2890 C   0  0  0  0  0
  -19.3410   35.4410   -1.9370 C   0  0  0  0  0
  -18.0000   35.2550   -1.5570 C   0  0  0  0  0
  -17.6140   35.1710   -0.2780 N   0  0  0  0  0
  -18.0840   35.8880    0.7410 C   0  0  0  0  0
  -19.0610   36.8190    0.7550 N   0  0  0  0  0
  -19.1680   37.2950    2.0070 C   0  0  0  0  0
  -18.2280   36.5960    2.7570 C   0  0  0  0  0
  -17.5830   35.7330    1.9570 N   0  0  0  0  0
  -18.0030   36.7460    3.9690 O   0  0  0  0  0
  -19.9850   38.2610    2.6140 C   0  0  0  0  0
  -20.7450   39.0990    1.8120 C   0  0  0  0  0
  -21.0620   38.7430    0.4840 C   0  0  0  0  0
  -21.7930   39.5950   -0.3140 C   0  0  0  0  0
  -22.2570   40.7960    0.2120 C   0  0  0  0  0
  -21.9580   41.1440    1.5270 C   0  0  0  0  0
  -21.2000   40.2960    2.3350 C   0  0  0  0  0
  -22.2250   39.4650   -1.6060 O   0  0  0  0  0
  -22.7890   40.7140   -1.9670 C   0  0  0  0  0
  -22.9860   41.4490   -0.7400 O   0  0  0  0  0
  -15.9874   34.9073   -2.2513 H   0  0  0  0  0
  -16.5962   35.0265   -4.6340 H   0  0  0  0  0
  -18.9591   35.3515   -5.3177 H   0  0  0  0  0
  -20.7272   35.6329   -3.5843 H   0  0  0  0  0
  -20.1112   35.5543   -1.1741 H   0  0  0  0  0
  -16.8867   34.4892   -0.0622 H   0  0  0  0  0
  -19.2953   38.9230    3.1376 H   0  0  0  0  0
  -20.7119   37.6906    3.1923 H   0  0  0  0  0
  -20.7255   37.7856    0.0862 H   0  0  0  0  0
  -22.3204   42.0899    1.9296 H   0  0  0  0  0
  -20.9696   40.5728    3.3638 H   0  0  0  0  0
  -23.7333   40.5766   -2.4939 H   0  0  0  0  0
  -22.1298   41.2572   -2.6441 H   0  0  0  0  0
  1  2  4  0  0  0
  1  6  4  0  0  0
  2  3  4  0  0  0
  3  4  4  0  0  0
  4  5  4  0  0  0
  5  6  4  0  0  0
  6  7  1  0  0  0
  7  8  1  0  0  0
  8  9  1  0  0  0
  8 12  2  0  0  0
  9 10  2  0  0  0
 10 11  1  0  0  0
 10 14  1  0  0  0
 11 12  1  0  0  0
 11 13  2  0  0  0
 14 15  1  0  0  0
 15 16  4  0  0  0
 15 20  4  0  0  0
 16 17  4  0  0  0
 17 18  4  0  0  0
 17 21  1  0  0  0
 18 19  4  0  0  0
 18 23  1  0  0  0
 19 20  4  0  0  0
 21 22  1  0  0  0
 22 23  1  0  0  0
  1 24  1  0  0  0
  2 25  1  0  0  0
  3 26  1  0  0  0
  4 27  1  0  0  0
  5 28  1  0  0  0
  7 29  1  0  0  0
 14 30  1  0  0  0
 14 31  1  0  0  0
 16 32  1  0  0  0
 19 33  1  0  0  0
 20 34  1  0  0  0
 22 35  1  0  0  0
 22 36  1  0  0  0
M  END
$$$$
