1b4d_ligand
  -I-interpret- 

 35 35  0  0  0  0  0  0  0  0999 V2000
   33.3630   25.2410   28.1040 N   0  0  0  0  0
   33.9560   23.1370   25.8820 C   0  0  0  0  0
   34.1310   24.4680   25.5230 O   0  0  0  0  0
   32.3710   21.1550   25.6640 C   0  0  0  0  0
   32.2940   21.0510   27.2240 C   0  0  0  0  0
   32.1090   19.6110   27.6020 C   0  0  0  0  0
   33.9520   22.9090   27.4640 C   0  0  0  0  0
   32.6680   22.6480   25.2640 C   0  0  0  0  0
   32.7830   22.7610   23.8650 O   0  0  0  0  0
   31.1550   20.7510   25.0820 O   0  0  0  0  0
   33.5270   21.5500   27.8120 O   0  0  0  0  0
   35.3250   22.9710   27.9110 N   0  0  0  0  0
   33.2170   18.8720   27.1250 O   0  0  0  0  0
   35.7640   23.3140   29.1180 C   0  0  0  0  0
   35.0150   23.5810   30.0650 O   0  0  0  0  0
   37.6990   23.6180   30.5550 C   0  0  0  0  0
   37.1620   23.3150   29.2510 O   0  0  0  0  0
   33.0630   23.9520   28.2370 C   0  0  0  0  0
   31.9930   23.5720   28.7320 O   0  0  0  0  0
   32.7020   25.9531   28.4144 H   0  0  0  0  0
   34.2540   25.5173   27.6916 H   0  0  0  0  0
   34.8050   22.5653   25.5071 H   0  0  0  0  0
   34.1249   24.5436   24.5660 H   0  0  0  0  0
   33.1658   20.5022   25.3032 H   0  0  0  0  0
   31.4578   21.6457   27.5918 H   0  0  0  0  0
   31.1895   19.2270   27.1603 H   0  0  0  0  0
   32.0404   19.5182   28.6859 H   0  0  0  0  0
   31.8389   23.2532   25.6308 H   0  0  0  0  0
   32.9639   23.6747   23.6327 H   0  0  0  0  0
   30.9722   19.8404   25.3250 H   0  0  0  0  0
   36.0368   22.7239   27.2235 H   0  0  0  0  0
   33.1095   17.9478   27.3614 H   0  0  0  0  0
   37.3761   24.6143   30.8570 H   0  0  0  0  0
   37.3376   22.8837   31.2750 H   0  0  0  0  0
   38.7877   23.5841   30.5150 H   0  0  0  0  0
 18  1  1  0  0  0
  2  3  1  0  0  0
  7  2  1  0  0  0
  2  8  1  0  0  0
  5  4  1  0  0  0
  8  4  1  0  0  0
  4 10  1  0  0  0
  5  6  1  0  0  0
 11  5  1  0  0  0
  6 13  1  0  0  0
  7 11  1  0  0  0
  7 12  1  0  0  0
  7 18  1  0  0  0
  8  9  1  0  0  0
 12 14  1  0  0  0
 14 15  2  0  0  0
 14 17  1  0  0  0
 17 16  1  0  0  0
 18 19  2  0  0  0
  1 20  1  0  0  0
  1 21  1  0  0  0
  2 22  1  0  0  0
  3 23  1  0  0  0
  4 24  1  0  0  0
  5 25  1  0  0  0
  6 26  1  0  0  0
  6 27  1  0  0  0
  8 28  1  0  0  0
  9 29  1  0  0  0
 10 30  1  0  0  0
 12 31  1  0  0  0
 13 32  1  0  0  0
 16 33  1  0  0  0
 16 34  1  0  0  0
 16 35  1  0  0  0
M  END
$$$$
