6iji_ligand
  -I-interpret- 

 53 58  0  0  0  0  0  0  0  0999 V2000
   19.1760   18.8490  -17.8260 C   0  0  0  0  0
   17.7390   20.7480  -17.1770 C   0  0  0  0  0
   19.3140   17.6550  -17.8900 O   0  0  0  0  0
   15.5030   17.6100  -15.1440 C   0  0  0  0  0
   14.7420   15.7310  -14.2920 C   0  0  0  0  0
   20.9480   22.0780  -18.6510 C   0  0  0  0  0
   22.1750   21.5600  -19.0920 C   0  0  0  0  0
   22.3920   20.2230  -19.1150 C   0  0  0  0  0
   21.4070   19.3350  -18.7400 C   0  0  0  0  0
   20.1960   19.8000  -18.2990 C   0  0  0  0  0
   19.9550   21.1810  -18.2300 C   0  0  0  0  0
   18.7690   21.6800  -17.6700 C   0  0  0  0  0
   18.5850   23.0290  -17.5370 C   0  0  0  0  0
   19.5610   23.9070  -17.9590 C   0  0  0  0  0
   20.7130   23.4580  -18.5100 C   0  0  0  0  0
   18.0080   19.3870  -17.3020 N   0  0  0  0  0
   16.7070   21.1220  -16.6830 O   0  0  0  0  0
   16.9600   18.4550  -16.9280 C   0  0  0  0  0
   16.4730   18.6720  -15.5170 C   0  0  0  0  0
   15.8800   16.4920  -14.4580 N   0  0  0  0  0
   13.7280   16.4530  -14.8940 C   0  0  0  0  0
   14.2250   17.6300  -15.4260 N   0  0  0  0  0
   14.5040   14.5580  -13.6030 C   0  0  0  0  0
   13.2000   14.1180  -13.5180 C   0  0  0  0  0
   12.1530   14.8020  -14.1310 C   0  0  0  0  0
   12.4330   15.9760  -14.8170 C   0  0  0  0  0
   17.1370   16.1750  -13.8530 C   0  0  0  0  0
   17.2830   16.2300  -12.4850 C   0  0  0  0  0
   18.4770   15.8530  -11.9270 C   0  0  0  0  0
   19.5120   15.4360  -12.6410 N   0  0  0  0  0
   19.3500   15.3890  -13.9680 C   0  0  0  0  0
   18.1890   15.7450  -14.6050 C   0  0  0  0  0
   10.7520   14.2520  -14.0930 C   0  0  0  0  0
   22.9614   22.2400  -19.4193 H   0  0  0  0  0
   23.3621   19.8431  -19.4355 H   0  0  0  0  0
   21.5915   18.2621  -18.7943 H   0  0  0  0  0
   17.6642   23.4110  -17.0962 H   0  0  0  0  0
   19.4023   24.9796  -17.8471 H   0  0  0  0  0
   21.4648   24.1715  -18.8473 H   0  0  0  0  0
   17.3676   17.4461  -16.9924 H   0  0  0  0  0
   16.1173   18.6072  -17.6024 H   0  0  0  0  0
   17.3228   18.6364  -14.8353 H   0  0  0  0  0
   15.9828   19.6434  -15.4527 H   0  0  0  0  0
   15.3188   13.9994  -13.1424 H   0  0  0  0  0
   12.9826   13.2099  -12.9556 H   0  0  0  0  0
   11.6248   16.5262  -15.2989 H   0  0  0  0  0
   16.4608   16.5685  -11.8546 H   0  0  0  0  0
   18.5798   15.8986  -10.8428 H   0  0  0  0  0
   20.1876   15.0487  -14.5769 H   0  0  0  0  0
   18.1092   15.6853  -15.6904 H   0  0  0  0  0
   10.7347   13.2721  -14.5701 H   0  0  0  0  0
   10.4277   14.1587  -13.0566 H   0  0  0  0  0
   10.0829   14.9284  -14.6249 H   0  0  0  0  0
  1  3  2  0  0  0
  1 10  1  0  0  0
 16  1  1  0  0  0
  2 12  1  0  0  0
 16  2  1  0  0  0
  2 17  2  0  0  0
 19  4  1  0  0  0
  4 20  4  0  0  0
  4 22  4  0  0  0
 20  5  4  0  0  0
  5 21  4  0  0  0
  5 23  4  0  0  0
  6  7  4  0  0  0
 11  6  4  0  0  0
  6 15  4  0  0  0
  8  7  4  0  0  0
  9  8  4  0  0  0
 10  9  4  0  0  0
 10 11  4  0  0  0
 12 11  4  0  0  0
 12 13  4  0  0  0
 13 14  4  0  0  0
 14 15  4  0  0  0
 18 16  1  0  0  0
 18 19  1  0  0  0
 20 27  1  0  0  0
 21 22  4  0  0  0
 21 26  4  0  0  0
 23 24  4  0  0  0
 24 25  4  0  0  0
 25 26  4  0  0  0
 25 33  1  0  0  0
 27 28  4  0  0  0
 27 32  4  0  0  0
 28 29  4  0  0  0
 29 30  4  0  0  0
 30 31  4  0  0  0
 31 32  4  0  0  0
  7 34  1  0  0  0
  8 35  1  0  0  0
  9 36  1  0  0  0
 13 37  1  0  0  0
 14 38  1  0  0  0
 15 39  1  0  0  0
 18 40  1  0  0  0
 18 41  1  0  0  0
 19 42  1  0  0  0
 19 43  1  0  0  0
 23 44  1  0  0  0
 24 45  1  0  0  0
 26 46  1  0  0  0
 28 47  1  0  0  0
 29 48  1  0  0  0
 31 49  1  0  0  0
 32 50  1  0  0  0
 33 51  1  0  0  0
 33 52  1  0  0  0
 33 53  1  0  0  0
M  END
$$$$
