4fse_ligand
  -I-interpret- 

 54 56  0  0  0  0  0  0  0  0999 V2000
   -4.6970   17.6140   28.0890 C   0  0  0  0  0
   -3.3550   17.2840   30.2320 C   0  0  0  0  0
   -3.6040   16.8680   27.3070 C   0  0  0  0  0
   -2.2460   16.5340   29.4970 C   0  0  0  0  0
   -5.3780   11.6150   32.4650 C   0  0  0  0  0
   -3.5140   11.6780   34.2470 C   0  0  0  0  0
   -4.6310   17.8850   29.6040 C   0  0  0  0  0
   -6.0550   18.2200   32.0800 C   0  0  0  0  0
   -4.8720   12.1560   33.7910 C   0  0  0  0  0
   -3.2300   10.0750   32.0800 C   0  0  0  0  0
   -2.3430   16.3030   27.9880 C   0  0  0  0  0
   -4.5930   10.6120   31.6410 C   0  0  0  0  0
   -2.7560   10.6760   33.3960 C   0  0  0  0  0
   -5.4510   18.5220   30.7200 C   0  0  0  0  0
   -6.8830   19.3180   32.6930 C   0  0  0  0  0
   -5.7970   17.0440   33.0120 C   0  0  0  0  0
   -4.9820   15.4990   34.8320 C   0  0  0  0  0
   -7.5980   19.3960   34.0300 C   0  0  0  0  0
   -0.5370   14.5580   27.6450 C   0  0  0  0  0
   -5.8040   13.1570   34.4090 C   0  0  0  0  0
   -6.0190   19.8320   30.3290 N   0  0  0  0  0
   -4.9990   16.8440   34.2580 N   0  0  0  0  0
   -2.4340    9.0840   31.3080 N   0  0  0  0  0
   -4.3150   15.0350   36.0640 N   0  0  0  0  0
   -5.7530   14.5630   34.0140 N   0  0  0  0  0
   -6.3610   15.8320   32.5160 O   0  0  0  0  0
   -1.3910   15.6160   27.1670 O   0  0  0  0  0
   -6.9470   20.5680   31.4500 S   0  0  0  0  0
   -5.3660   10.0620   30.1370 Cl  0  0  0  0  0
   -1.2060   10.1490   34.0230 Cl  0  0  0  0  0
   -5.5561   16.9492   27.9989 H   0  0  0  0  0
   -4.6597   18.6160   27.6617 H   0  0  0  0  0
   -2.8312   18.1794   30.5667 H   0  0  0  0  0
   -3.7694   16.4996   30.8653 H   0  0  0  0  0
   -3.2091   17.6295   26.6345 H   0  0  0  0  0
   -4.1161   15.9772   26.9431 H   0  0  0  0  0
   -2.2658   15.5323   29.9263 H   0  0  0  0  0
   -1.3656   17.1651   29.6185 H   0  0  0  0  0
   -6.3418   11.9606   32.0913 H   0  0  0  0  0
   -3.0831   12.0486   35.1771 H   0  0  0  0  0
   -5.4527   18.3777   29.0842 H   0  0  0  0  0
   -1.3788   15.8963   28.2929 H   0  0  0  0  0
   -8.3364   18.5966   34.0929 H   0  0  0  0  0
   -6.8721   19.2861   34.8357 H   0  0  0  0  0
   -8.0970   20.3611   34.1179 H   0  0  0  0  0
    0.0911   14.9362   28.4515 H   0  0  0  0  0
   -1.1506   13.7368   28.0153 H   0  0  0  0  0
    0.0921   14.2037   26.8284 H   0  0  0  0  0
   -5.5276   13.1649   35.4633 H   0  0  0  0  0
   -6.7954   12.8273   34.0981 H   0  0  0  0  0
   -2.7916    8.7192   30.4251 H   0  0  0  0  0
   -1.5305    8.7691   31.6614 H   0  0  0  0  0
   -3.7804   15.6916   36.6328 H   0  0  0  0  0
   -6.2467   14.8862   33.1820 H   0  0  0  0  0
  1  3  1  0  0  0
  7  1  1  0  0  0
  2  4  1  0  0  0
  7  2  1  0  0  0
  3 11  1  0  0  0
  4 11  1  0  0  0
  9  5  4  0  0  0
  5 12  4  0  0  0
  9  6  4  0  0  0
  6 13  4  0  0  0
 14  7  1  0  0  0
  8 14  4  0  0  0
  8 15  4  0  0  0
 16  8  1  0  0  0
 20  9  1  0  0  0
 12 10  4  0  0  0
 13 10  4  0  0  0
 10 23  1  0  0  0
 11 27  1  0  0  0
 12 29  1  0  0  0
 13 30  1  0  0  0
 14 21  4  0  0  0
 15 18  1  0  0  0
 15 28  4  0  0  0
 22 16  1  0  0  0
 16 26  2  0  0  0
 17 22  4  0  0  0
 17 24  2  0  0  0
 25 17  1  0  0  0
 27 19  1  0  0  0
 20 25  1  0  0  0
 21 28  4  0  0  0
  1 31  1  0  0  0
  1 32  1  0  0  0
  2 33  1  0  0  0
  2 34  1  0  0  0
  3 35  1  0  0  0
  3 36  1  0  0  0
  4 37  1  0  0  0
  4 38  1  0  0  0
  5 39  1  0  0  0
  6 40  1  0  0  0
  7 41  1  0  0  0
 11 42  1  0  0  0
 18 43  1  0  0  0
 18 44  1  0  0  0
 18 45  1  0  0  0
 19 46  1  0  0  0
 19 47  1  0  0  0
 19 48  1  0  0  0
 20 49  1  0  0  0
 20 50  1  0  0  0
 23 51  1  0  0  0
 23 52  1  0  0  0
 24 53  1  0  0  0
 25 54  1  0  0  0
M  END
$$$$
