5neb_ligand
  -I-interpret- 

 27 28  0  0  0  0  0  0  0  0999 V2000
   -6.0300  -24.4260  -32.2160 N   0  0  0  0  0
   -5.0820  -25.1450  -29.1260 N   0  3  0  0  0
   -6.6560  -26.1430  -30.6720 C   0  0  0  0  0
   -6.2580  -26.1420  -29.1650 C   0  0  0  0  0
   -5.4120  -23.0500  -31.9210 C   0  0  0  0  0
   -9.2230  -25.4990  -30.6770 C   0  0  0  0  0
   -5.8220  -27.4720  -28.4730 C   0  0  0  0  0
   -7.8100  -25.2490  -31.1700 C   0  0  0  0  0
   -7.4660  -24.3190  -31.9920 N   0  0  0  0  0
   -4.3240  -25.3660  -30.4380 C   0  0  0  0  0
   -5.4590  -25.6310  -31.4550 C   0  0  0  0  0
   -9.4450  -26.5620  -30.0500 O   0  0  0  0  0
   -6.6020  -28.4470  -28.5290 O   0  0  0  0  0
  -10.0930  -24.6310  -30.9300 O   0  0  0  0  0
   -4.7170  -27.5430  -27.8800 O   0  0  0  0  0
   -4.4834  -25.3009  -28.3149 H   0  0  0  0  0
   -5.4077  -24.1825  -29.0373 H   0  0  0  0  0
   -6.9868  -27.1715  -30.8162 H   0  0  0  0  0
   -7.1570  -25.9065  -28.5953 H   0  0  0  0  0
   -5.8477  -22.3068  -32.5887 H   0  0  0  0  0
   -5.6170  -22.7753  -30.8863 H   0  0  0  0  0
   -4.3345  -23.0955  -32.0795 H   0  0  0  0  0
   -3.6089  -26.1866  -30.3797 H   0  0  0  0  0
   -3.6998  -24.5160  -30.7136 H   0  0  0  0  0
   -4.9999  -26.2981  -32.1846 H   0  0  0  0  0
   -9.6905  -23.9089  -31.4180 H   0  0  0  0  0
   -4.2648  -26.6988  -27.9462 H   0  0  0  0  0
  1  5  1  0  0  0
  1  9  1  0  0  0
 11  1  1  0  0  0
  4  2  1  0  0  0
  2 10  1  0  0  0
  3  4  1  0  0  0
  3  8  1  0  0  0
  3 11  1  0  0  0
  4  7  1  0  0  0
  8  6  1  0  0  0
  6 12  2  0  0  0
  6 14  1  0  0  0
  7 13  2  0  0  0
  7 15  1  0  0  0
  8  9  2  0  0  0
 10 11  1  0  0  0
  2 16  1  0  0  0
  2 17  1  0  0  0
  3 18  1  0  0  0
  4 19  1  0  0  0
  5 20  1  0  0  0
  5 21  1  0  0  0
  5 22  1  0  0  0
 10 23  1  0  0  0
 10 24  1  0  0  0
 11 25  1  0  0  0
 14 26  1  0  0  0
 15 27  1  0  0  0
M  END
$$$$
