2o63_ligand
  -I-interpret- 

 33 35  0  0  0  0  0  0  0  0999 V2000
   76.1760   33.0730   -1.5020 C   0  0  0  0  0
   75.6950   34.1640   -2.2140 C   0  0  0  0  0
   75.5110   35.4250   -1.4930 C   0  0  0  0  0
   75.8190   35.4800   -0.0670 C   0  0  0  0  0
   76.2800   34.3540    0.5730 C   0  0  0  0  0
   76.4420   33.1690   -0.1350 C   0  0  0  0  0
   75.0160   36.6390   -2.1640 C   0  0  0  0  0
   74.8600   37.8440   -1.3710 C   0  0  0  0  0
   75.1360   37.8380   -0.0590 C   0  0  0  0  0
   75.0120   39.0280    0.8590 C   0  0  0  0  0
   74.5230   40.2730    0.4350 C   0  0  0  0  0
   74.4470   41.3480    1.3250 C   0  0  0  0  0
   74.8850   41.1750    2.7190 C   0  0  0  0  0
   75.3830   39.8400    3.1330 C   0  0  0  0  0
   75.4180   38.8170    2.1920 C   0  0  0  0  0
   75.6310   36.6410    0.6020 O   0  0  0  0  0
   74.7690   36.6220   -3.3600 O   0  0  0  0  0
   75.7850   39.6490    4.3880 O   0  0  0  0  0
   74.8130   42.1920    3.5760 O   0  0  0  0  0
   73.9940   42.5470    0.9600 O   0  0  0  0  0
   74.4100   38.9180   -2.0100 O   0  0  0  0  0
   76.8960   32.1090    0.5290 O   0  0  0  0  0
   75.4130   34.1070   -3.5160 O   0  0  0  0  0
   76.3483   32.1284   -2.0179 H   0  0  0  0  0
   76.5185   34.3906    1.6360 H   0  0  0  0  0
   74.1995   40.4029   -0.5977 H   0  0  0  0  0
   75.7675   37.8291    2.4922 H   0  0  0  0  0
   76.0756   38.7403    4.4950 H   0  0  0  0  0
   75.1363   41.9091    4.4345 H   0  0  0  0  0
   74.0227   43.1416    1.7132 H   0  0  0  0  0
   74.2788   38.7058   -2.9370 H   0  0  0  0  0
   77.0260   32.3421    1.4512 H   0  0  0  0  0
   75.0958   34.9636   -3.8114 H   0  0  0  0  0
  1  2  4  0  0  0
  1  6  4  0  0  0
  2  3  4  0  0  0
  2 23  1  0  0  0
  3  4  4  0  0  0
  3  7  1  0  0  0
  4  5  4  0  0  0
  4 16  1  0  0  0
  5  6  4  0  0  0
  6 22  1  0  0  0
  7  8  1  0  0  0
  7 17  2  0  0  0
  8  9  2  0  0  0
  8 21  1  0  0  0
  9 10  1  0  0  0
  9 16  1  0  0  0
 10 11  4  0  0  0
 10 15  4  0  0  0
 11 12  4  0  0  0
 12 13  4  0  0  0
 12 20  1  0  0  0
 13 14  4  0  0  0
 13 19  1  0  0  0
 14 15  4  0  0  0
 14 18  1  0  0  0
  1 24  1  0  0  0
  5 25  1  0  0  0
 11 26  1  0  0  0
 15 27  1  0  0  0
 18 28  1  0  0  0
 19 29  1  0  0  0
 20 30  1  0  0  0
 21 31  1  0  0  0
 22 32  1  0  0  0
 23 33  1  0  0  0
M  END
$$$$
